data_image0
_chemical_formula_structural       HFeS2FeS2FeSFeS3FeS2FeS2FeSFeS4HC6H4C6H5C6H4CH2CHSCH7C8HCHCH2CH3NH4CH2CH4CSHCHCH5CNC8H8CH3CH6CH2NC3HCHC2H8CH4CH3CHC3H5CHNSH2CH8C4HSH4CH4CHCHCNH4CHCH2CH5CH3CH2CH4C4HCHCH2CHCH3CH14C2H4CHC2H2FeS2FeS2CFeSCS2HFeS2H3NS2FeS2FeHFeSFeS3FeS2Fe2SFeCS2C6H2CH2CH2C6H4CH3C7H4C3H3CH2CHSCHC4H2CH5CH2CH5FeH5CH4CH2CHC2HSHCH2CH3C2HFeSNC11H29C2HCH6CHCH4CHCNH2CH2SH5CH6NC2H5SH2CHCH4C2FeH6FeC2S2FeS2FeS2FeSFeS3FeS2H3CH2C5HCHC6H4C3HFeCH4C6H4SC2HC6H4C7H12SC2HCH2CH7CH2C2HC2HCHCHNC2HNC4HCHCH2C2H2CH4CH7CH5SH6CHCHC2HCH2C2HCHFeH2CHCH5CHC2H3CH12CH4CHCH3NCH5CH3C2H4CHCH3CH3C2H4CH3C2H4N2HCH10CSH7CH3SCSH3C2H2CH3C3HC2FeHSHC2H2FeSCFeSHFeSFeSCSHCFeSFeS2FeSFeS3H2SCH3C2H4C3HC2HCSHCHC4H4C6H5C2HC3H4CH3CH2CHCH4CH3C3H2C2H2C3H8CHNH3CH3CH2CH5NC6HC4SH4CH22CH3CH3CNCHFeCHC3H8CNFeHC4H4NHCH3CH2CHS2H5CH5CH2CHCHCHCHC2HCH2CH2CH2CHCS2HCH3C3H2CNH2CH3SCH2CHCHCH4SH2SFeS2FeS2FeSFeS2FeHSFeS2FeSHCS2C6SHCH3CH2SC6H2C2H5C7H4C6H3NC12H22CH3CHNHSC2H2C2H8CH2CH4CH5CH2C2HCH2CH3CH3CH4C3HC3H6NFeH5SH2CH2CH3C2H9CH2CH3CH3CHC2HCHCH3CH3C2H8CH4C2NH2CH8NC2H3C2H3CHFeH3CHSH2SFeSHFeSFeS2FeSFeS2FeCFeS3Fe2SHCH3S2FeH2CH2FeSHSHC3H2CH2C7H4C6SCHC7H6NC8HC2H19FeH8CH4S2HNHC4HCH6SHCFeH3CH2C2H4CNH4CHCHCHCH8C2H5SC2H2FeS2FeS2FeSFeS3FeS2FeS2FeSFeS3HSH2SH4C6H4C6H3C7H4C6H4CHC4H3CH2C3H2C4H5CH5CH8C2HC2HCH4CHC2H2CH3C3HCNHCHCH9CHC2H2CH2CH4NC12H28CH3CHCH4C2HNC4HC2HCHCHC4HCH2CHCHCH2CH4CHC3H8C3HCHCNCH3NC3H2CHCH5C2NHCHC2H6SH4CH11CH5SHCH2CHCH5FeH2CH7CH2CHNC2H2CHCH3C2HC2H3CH4CHSH2SH4C2H4FeS2FeS2FeS2CFeS2FeHFeS3FeSHFeS2FeHFeSHSFeS2FeS2Fe2S3HC3H4C6H4C2HCHCH4C2HC6H4C3HC4HC6H4C2H3CHC7H6NH2CHSHCHC2HC3H2CHC2H2C2H2C5H2CHC2HCNH4CH2C4H4NC12H29CHCHCH3NH3CSH4C4H10CH3NC9HC2H7CHSH2CH3CH19CH6CHCHCH3CH2C2HCHC2SH7CH3C2H8SCH5CH2CHC2H6CNC3H3CH3CFeCHCH3C2HC2H3C3H12CHCH2NHNHC2HCH10CH6C2H3C2H6CH3FeHCFeS2HFeSCSFeHCFeS2FeS2HSC4HC2HCH2C4HCH3C6H4CH2C3H6C3HCH2C3H2NHC3SHCH5CH2C2SHCH2SHFeHNCHCH2C2H2SCH2CHCH3NHSC2HCH4CH3NC4HC4H8C2S2CH2CH8CH4NHNC8H28C3H2SHCH6CH5C2HCH4C4H3CHSCH4CH2C2H2CH2FeCH2FeHCSHFeS2Fe2SHSHFeS2HCFeH2SFeSCHCHC3SFeSHCHFeCH2CH2SC2SHCHSHC3H2FeH3C4SC2H2SC2H4NC9HC2H20SCH7CFeC2H2CH3CH2CN2CHCHCH2SH6CH4CH2CFeH3CHC2SFeHCH3CH7CH3CH5CH7C2HC3H6C5H10SC2HCH5CH6C4HCHCH5CH5CHNH9C3H4CH9C2H4SH2NH2NC2H2CHCH3C2HCHC2HCHCHCH4CH2CHCH4CH2CH5C2HCH5CH2CH2CH7CSHC3H2CFeSHCHC6H4CNC4H5CH5C3H3CH9FeNH2CHC2H8C2H2C2HSHSCH2C3FeH2SH4NH3CSHCHC2HCH5CHSH2CH2CH4C2H2SHSFeS2CH3C2HNS2C6H2CHSC2SHC6H7CH2CH3CHCH9CH2SCH2CH5C2HNCHC2HC2SHSC2HFeCH5C2H9FeCHFeH6FeC2HCSH5SCH4S2HFeS2FeSCFeSFeS4FeS2FeS2FeSFeS3C7H4C6H4C6H4C6H5C3H5CH2SHC2HC3H2C6H4CHCH3CH3C2H2C2H9CHC2H2CH2CHSHCHCHCSHCH16CH3C4HCHCNC12H29CN2HC2HNCHSHC4NC9H9CH4CH13CHCNC11H13CH12C2HC4H2CH2NH11CHC2HSHNCH2CH2CHNCHCHCH2CH2CHCH3C2H3CNH7CH4CH5CHCH2C3H3CH4C3H6CHSHCH3C2HCHCH4CHNCH6CH3CHCH11CH2CHC2H2C2H4CH2C5H10CH3C4H3CH7C3HCH2CH2SCHFeS2FeS2FeHFeSFeSNFeS2FeSFeS3FeS2FeSFeSFeS3H2CFeS2FeS2HS4C3H4C8H4C2HC3HCH2C6H2SHC6H4C6H4C4FeC2H2C3H4C6H4C6H4SH2CH5SH2CH6C2H7SHCFeH6CNC12H21CH9C5HCH4CH3FeH6SHCH4C2H6C2SCH3CHCH4C2NHC2SHCHC2HCHSCSH3C2H4FeHNH3CH2CH4CSH3CH2C2H4CH5CH4C3H3CHC2H6FeH2FeNC3H4CH3SH3C2H5CHCNCH3C2H3NCHC2HCHSH4FeH2SH2C2HCHCHCH3CH6C6H2CHCHCHNCHCHFeCHSCHC2H2CH3CHC3H3CH7CSH3CH2S2H6CH2CHCHNCH6CH4CH4C2H2CH3CH6CH6CHCFeH2CH2CH2FeS2FeS2FeCFeS3FeS2FeSCFeSFeS4HC6H4C6H5CHC6H7CHCHC4H5C5H4C2H8CH7C4HC4HCH5SHC2H2C2H3SH2C2H11NHCH3NC3H2CH5CH2NH2CH2CHNHC2HC2H4CH5CHCH2CH5C2H4C2H4CHCHCHC4H4C3HC2H2C2H2CH2CH3NCHC2H7SH2CH7C2H2CH2CH5FeSFeS2FeSFeCS2FeS2Fe2H2FeHS2FeSHFeSCFeSFeSHFeS2Fe2S3HCHC5H2C7H5C6H4C2NC3H4CHCSC2H5S2HCH3SH5CHCH2SH4C2H2CH2CHCNC11H13CH12CHC2FeCSH2SH7NCH3CH4CHC2H2CH3NHC2H2CH4C2H8SH3CH2CHCH4C2H2CSCFeS2HC2FeS2CSHFeS2FeS2FeSFeS3H2C3HC6H4C6H4C6H4C3HC2HCHC6H4CH5CHC2H4C3H6CH6CH2CH6CH4CH2C2H7CH2CH3C2H2CNC8HCHCH3CH5SH7CHCH8C2H9C2H7CHC3H5CH2C2H10CH2NC3H3NC6HCH2NCH5SH4CH3CH3CH4C2HCH2NHCHCH3C2H5SH2NC2H9CH4CH2CHFeCHCHSCHC2H2CH9SFeH2C2H2CH9FeS2CFeSHS2FeSHFeS2Fe2S3C2HCFeS2FeS2H2FeSFeS3HC2HC3H4C6H4C6H5C2HC3FeSHC6H4C3H4NC12H29NC2HCH4SHNFeH4C2H2CH3CH5SH3SCNC9HC2H8SCH9CH2C2H4NC12H30CH4CSH2Fe2H2FeHSC4HFeH9CH5FeC2HC3H2C2HCHCHSH6SHCH2CSHFeCSFeS2FeCHS2HSC2SHFeHFeSHSC3HFeH6C4H5C8H2C5H2C2H4CHC2HCH4SCH3CH4CNHCHNH2CH3CHCH8C3HCH4C3HC2SH2CH4CNCH2C3HCH2CNH4SH3CH3C2H3C3HCH4SH5C2H2CFeH2CH2CH3CHCH2CH5CHCHC2SH7FeH3C2H3CNCH6CH3C2HSCFeCHCH2CFeHS2HSFeSHFeSFeH2NH4NH2CSFeHSH2CSHS2CH2S2H2C7H5C2H2CH3CH3C2H4FeHC3HCNH2SH2SC2H3C2FeH3CHCHCH2CFeCH2FeC3HCHC3H7FeH3C2H2CH2SC2H3CSH4CHC2H2CSHCSH2CH2
_chemical_formula_sum              "H3456 Fe216 S432 C1944 N108"
_cell_length_a       51.8035
_cell_length_b       54.648
_cell_length_c       106.614
_cell_angle_alpha    86.9927
_cell_angle_beta     90.1165
_cell_angle_gamma    109.768

_space_group_name_H-M_alt    "P 1"
_space_group_IT_number       1

loop_
  _space_group_symop_operation_xyz
  'x, y, z'

loop_
  _atom_site_type_symbol
  _atom_site_label
  _atom_site_symmetry_multiplicity
  _atom_site_fract_x
  _atom_site_fract_y
  _atom_site_fract_z
  _atom_site_occupancy
  H   H1        1.0  0.38669  0.33571  0.02814  1.0000
  Fe  Fe1       1.0  0.05383  0.36325  0.03775  1.0000
  S   S1        1.0  0.09382  0.38590  0.02789  1.0000
  S   S2        1.0  0.01250  0.33851  0.02937  1.0000
  Fe  Fe2       1.0  0.07647  0.38629  0.06365  1.0000
  S   S3        1.0  0.11743  0.41115  0.05529  1.0000
  S   S4        1.0  0.06153  0.38734  0.08381  1.0000
  Fe  Fe3       1.0  0.09305  0.41947  0.03908  1.0000
  S   S5        1.0  0.09706  0.45750  0.02849  1.0000
  Fe  Fe4       1.0  0.11502  0.37560  0.04489  1.0000
  S   S6        1.0  0.15008  0.35917  0.04347  1.0000
  S   S7        1.0  0.05233  0.39753  0.04817  1.0000
  S   S8        1.0  0.07489  0.35003  0.05408  1.0000
  Fe  Fe5       1.0  0.35501  0.38471  0.03836  1.0000
  S   S9        1.0  0.35183  0.42496  0.03963  1.0000
  S   S10       1.0  0.36407  0.37573  0.01817  1.0000
  Fe  Fe6       1.0  0.34352  0.37341  0.06693  1.0000
  S   S11       1.0  0.33993  0.41218  0.06969  1.0000
  S   S12       1.0  0.33771  0.34523  0.08398  1.0000
  Fe  Fe7       1.0  0.31470  0.40548  0.05223  1.0000
  S   S13       1.0  0.27730  0.41876  0.05306  1.0000
  Fe  Fe8       1.0  0.37695  0.42786  0.05704  1.0000
  S   S14       1.0  0.41340  0.45911  0.06484  1.0000
  S   S15       1.0  0.31602  0.36526  0.04998  1.0000
  S   S16       1.0  0.38234  0.38906  0.05519  1.0000
  S   S17       1.0  0.11719  0.38200  0.13698  1.0000
  H   H2        1.0  0.34101  0.47170  0.11477  1.0000
  C   C1        1.0  0.34510  0.35319  0.09985  1.0000
  C   C2        1.0  0.34728  0.33357  0.10833  1.0000
  C   C3        1.0  0.35269  0.33825  0.12104  1.0000
  C   C4        1.0  0.35527  0.36244  0.12565  1.0000
  C   C5        1.0  0.35269  0.38219  0.11727  1.0000
  C   C6        1.0  0.34793  0.37768  0.10434  1.0000
  H   H3        1.0  0.34509  0.31460  0.10501  1.0000
  H   H4        1.0  0.35469  0.32287  0.12737  1.0000
  H   H5        1.0  0.35468  0.40096  0.12070  1.0000
  H   H6        1.0  0.34636  0.39301  0.09789  1.0000
  C   C7        1.0  0.18526  0.37591  0.04644  1.0000
  C   C8        1.0  0.20418  0.36267  0.04551  1.0000
  C   C9        1.0  0.23235  0.37532  0.04764  1.0000
  C   C10       1.0  0.24191  0.40136  0.05080  1.0000
  C   C11       1.0  0.22296  0.41455  0.05176  1.0000
  C   C12       1.0  0.19482  0.40194  0.04957  1.0000
  H   H7        1.0  0.19706  0.34259  0.04297  1.0000
  H   H8        1.0  0.24671  0.36506  0.04662  1.0000
  H   H9        1.0  0.23011  0.43475  0.05411  1.0000
  H   H10       1.0  0.18057  0.41245  0.05024  1.0000
  H   H11       1.0  0.11200  0.30332  0.10741  1.0000
  C   C13       1.0  0.07842  0.38841  0.09845  1.0000
  C   C14       1.0  0.06364  0.38751  0.10963  1.0000
  C   C15       1.0  0.07574  0.38710  0.12148  1.0000
  C   C16       1.0  0.10268  0.38705  0.12232  1.0000
  C   C17       1.0  0.11764  0.38849  0.11113  1.0000
  C   C18       1.0  0.10575  0.38961  0.09926  1.0000
  H   H12       1.0  0.04243  0.38639  0.10915  1.0000
  H   H13       1.0  0.06381  0.38564  0.12999  1.0000
  H   H14       1.0  0.13854  0.38871  0.11170  1.0000
  H   H15       1.0  0.11753  0.39101  0.09074  1.0000
  C   C19       1.0  0.41982  0.43536  0.12865  1.0000
  H   H16       1.0  0.26542  0.46731  0.99728  1.0000
  H   H17       1.0  0.26062  0.45950  0.01741  1.0000
  C   C20       1.0  0.13722  0.29837  0.06221  1.0000
  H   H18       1.0  0.12310  0.28502  0.08890  1.0000
  S   S18       1.0  0.26873  0.41937  0.14499  1.0000
  C   C21       1.0  0.01524  0.33322  0.00332  1.0000
  H   H19       1.0  0.37843  0.99149  0.99843  1.0000
  H   H20       1.0  0.14247  0.33104  0.10632  1.0000
  H   H21       1.0  0.43270  0.40069  0.08589  1.0000
  H   H22       1.0  0.03718  0.34276  0.00393  1.0000
  H   H23       1.0  0.40247  0.40923  0.08299  1.0000
  H   H24       1.0  0.17658  0.35426  0.09323  1.0000
  H   H25       1.0  0.40824  0.30786  0.01746  1.0000
  C   C22       1.0  0.01068  0.41095  0.00165  1.0000
  C   C23       1.0  0.40421  0.32280  0.99871  1.0000
  C   C24       1.0  0.39501  0.34058  0.99172  1.0000
  C   C25       1.0  0.38275  0.35640  0.99783  1.0000
  C   C26       1.0  0.37946  0.35483  0.01103  1.0000
  C   C27       1.0  0.38891  0.33723  0.01802  1.0000
  C   C28       1.0  0.40120  0.32144  0.01190  1.0000
  C   C29       1.0  0.47280  0.48297  0.03133  1.0000
  H   H26       1.0  0.37565  0.36993  0.99228  1.0000
  C   C30       1.0  0.26992  0.44478  0.02057  1.0000
  H   H27       1.0  0.45378  0.16804  0.99167  1.0000
  C   C31       1.0  0.43492  0.46103  0.12082  1.0000
  H   H28       1.0  0.43647  0.41600  0.00790  1.0000
  H   H29       1.0  0.45639  0.43360  0.13831  1.0000
  C   C32       1.0  0.03205  0.46119  0.08909  1.0000
  H   H30       1.0  0.02042  0.44305  0.11403  1.0000
  H   H31       1.0  0.18177  0.34734  0.12328  1.0000
  H   H32       1.0  0.29287  0.43503  0.99824  1.0000
  N   N1        1.0  0.41971  0.46698  0.10962  1.0000
  H   H33       1.0  0.18413  0.37586  0.13153  1.0000
  H   H34       1.0  0.41583  0.45873  0.03332  1.0000
  H   H35       1.0  0.22004  0.37319  0.10179  1.0000
  H   H36       1.0  0.19665  0.40227  0.09013  1.0000
  C   C33       1.0  0.02719  0.43337  0.09498  1.0000
  H   H37       1.0  0.12443  0.47234  0.05204  1.0000
  H   H38       1.0  0.12803  0.46702  0.07689  1.0000
  C   C34       1.0  0.03745  0.45887  0.05284  1.0000
  H   H39       1.0  0.39901  0.43441  0.13155  1.0000
  H   H40       1.0  0.21795  0.44274  0.00875  1.0000
  H   H41       1.0  0.27135  0.39927  0.02804  1.0000
  H   H42       1.0  0.07896  0.29082  0.09235  1.0000
  C   C35       1.0  0.21233  0.42556  0.01545  1.0000
  S   S19       1.0  0.42007  0.30224  0.99162  1.0000
  H   H43       1.0  0.23437  0.36021  0.08433  1.0000
  C   C36       1.0  0.18187  0.41034  0.01387  1.0000
  H   H44       1.0  0.47492  0.29821  0.99955  1.0000
  C   C37       1.0  0.02755  0.45200  0.06675  1.0000
  H   H45       1.0  0.46417  0.06120  0.99914  1.0000
  H   H46       1.0  0.27269  0.33845  0.01413  1.0000
  H   H47       1.0  0.16950  0.42280  0.01596  1.0000
  H   H48       1.0  0.41149  0.44379  0.01846  1.0000
  H   H49       1.0  0.28391  0.34704  0.07486  1.0000
  C   C38       1.0  0.14868  0.29538  0.11211  1.0000
  N   N2        1.0  0.26168  0.37814  0.10697  1.0000
  C   C39       1.0  0.26788  0.36142  0.09740  1.0000
  C   C40       1.0  0.27793  0.37690  0.11855  1.0000
  C   C41       1.0  0.26944  0.40616  0.10210  1.0000
  C   C42       1.0  0.29980  0.41961  0.09785  1.0000
  C   C43       1.0  0.27203  0.34932  0.12492  1.0000
  C   C44       1.0  0.28317  0.35092  0.13820  1.0000
  C   C45       1.0  0.30378  0.44550  0.09056  1.0000
  C   C46       1.0  0.26163  0.34379  0.07570  1.0000
  H   H50       1.0  0.25936  0.34051  0.10066  1.0000
  H   H51       1.0  0.29037  0.36532  0.09652  1.0000
  H   H52       1.0  0.30023  0.38434  0.11631  1.0000
  H   H53       1.0  0.27528  0.39028  0.12552  1.0000
  H   H54       1.0  0.25607  0.40800  0.09416  1.0000
  H   H55       1.0  0.26563  0.41833  0.10945  1.0000
  H   H56       1.0  0.30672  0.40741  0.09166  1.0000
  H   H57       1.0  0.31335  0.42366  0.10613  1.0000
  C   C47       1.0  0.01540  0.44402  0.04383  1.0000
  H   H58       1.0  0.24982  0.33801  0.12559  1.0000
  H   H59       1.0  0.28222  0.33829  0.11943  1.0000
  H   H60       1.0  0.17776  0.40418  0.00409  1.0000
  C   C48       1.0  0.23016  0.40807  0.01368  1.0000
  H   H61       1.0  0.98941  0.42957  0.10516  1.0000
  H   H62       1.0  0.29135  0.44227  0.08190  1.0000
  H   H63       1.0  0.29777  0.45892  0.09647  1.0000
  H   H64       1.0  0.32566  0.45480  0.08769  1.0000
  H   H65       1.0  0.25375  0.34577  0.06617  1.0000
  H   H66       1.0  0.10959  0.34131  0.09462  1.0000
  C   C49       1.0  0.07221  0.46037  0.07657  1.0000
  H   H67       1.0  0.06720  0.32189  0.10631  1.0000
  H   H68       1.0  0.43156  0.43466  0.03047  1.0000
  N   N3        1.0  0.12673  0.32326  0.08072  1.0000
  C   C50       1.0  0.27452  0.40240  0.01769  1.0000
  C   C51       1.0  0.47738  0.37892  0.00098  1.0000
  C   C52       1.0  0.16532  0.36476  0.08752  1.0000
  H   H69       1.0  0.13881  0.27580  0.04624  1.0000
  C   C53       1.0  0.07660  0.45244  0.13101  1.0000
  H   H70       1.0  0.01807  0.40381  0.02151  1.0000
  C   C54       1.0  0.26504  0.37516  0.01205  1.0000
  C   C55       1.0  0.10365  0.33113  0.08581  1.0000
  H   H71       1.0  0.44375  0.44682  0.08914  1.0000
  H   H72       1.0  0.04336  0.47531  0.09604  1.0000
  H   H73       1.0  0.15094  0.36983  0.09363  1.0000
  H   H74       1.0  0.22243  0.39616  0.00542  1.0000
  H   H75       1.0  0.22477  0.39399  0.02201  1.0000
  H   H76       1.0  0.29714  0.41045  0.01612  1.0000
  H   H77       1.0  0.29900  0.47712  0.03892  1.0000
  H   H78       1.0  0.41786  0.41811  0.12318  1.0000
  C   C56       1.0  0.45184  0.47278  0.02084  1.0000
  H   H79       1.0  0.02378  0.44810  0.03406  1.0000
  H   H80       1.0  0.04810  0.42302  0.01248  1.0000
  H   H81       1.0  0.27325  0.35403  0.02864  1.0000
  H   H82       1.0  0.39862  0.44878  0.09318  1.0000
  C   C57       1.0  0.01010  0.42852  0.10711  1.0000
  H   H83       1.0  0.09824  0.29151  0.07100  1.0000
  H   H84       1.0  0.20219  0.38637  0.07649  1.0000
  H   H85       1.0  0.14414  0.28533  0.06867  1.0000
  C   C58       1.0  0.25673  0.36374  0.08404  1.0000
  H   H86       1.0  0.45538  0.46056  0.11794  1.0000
  C   C59       1.0  0.27909  0.35753  0.01852  1.0000
  C   C60       1.0  0.09378  0.47323  0.08651  1.0000
  C   C61       1.0  0.11770  0.46285  0.08628  1.0000
  H   H87       1.0  0.22928  0.39979  0.12149  1.0000
  H   H88       1.0  0.22935  0.37094  0.13037  1.0000
  H   H89       1.0  0.38012  0.45611  0.11895  1.0000
  H   H90       1.0  0.04694  0.43067  0.09736  1.0000
  H   H91       1.0  0.00679  0.45361  0.06763  1.0000
  C   C62       1.0  0.07592  0.30871  0.08828  1.0000
  H   H92       1.0  0.26725  0.38337  0.07950  1.0000
  N   N4        1.0  0.26099  0.42138  0.01260  1.0000
  S   S20       1.0  0.34460  0.43060  0.14185  1.0000
  H   H93       1.0  0.27180  0.35988  0.14426  1.0000
  H   H94       1.0  0.00759  0.42965  0.00330  1.0000
  C   C63       1.0  0.00329  0.32507  0.99161  1.0000
  H   H95       1.0  0.05971  0.43713  0.12659  1.0000
  H   H96       1.0  0.28078  0.33112  0.14224  1.0000
  H   H97       1.0  0.16663  0.34308  0.07182  1.0000
  H   H98       1.0  0.14618  0.29824  0.12222  1.0000
  H   H99       1.0  0.06490  0.30389  0.07928  1.0000
  H   H100      1.0  0.27043  0.37681  0.00191  1.0000
  H   H101      1.0  0.46091  0.46428  0.01354  1.0000
  H   H102      1.0  0.30177  0.36643  0.01758  1.0000
  C   C64       1.0  0.40896  0.44382  0.10160  1.0000
  C   C65       1.0  0.27010  0.42849  0.99907  1.0000
  C   C66       1.0  0.23121  0.36805  0.10983  1.0000
  C   C67       1.0  0.02867  0.40620  0.01225  1.0000
  H   H103      1.0  0.18167  0.37689  0.11472  1.0000
  S   S21       1.0  0.36232  0.36684  0.14187  1.0000
  H   H104      1.0  0.45054  0.39649  0.99083  1.0000
  H   H105      1.0  0.10572  0.26583  0.05404  1.0000
  H   H106      1.0  0.25093  0.32365  0.07962  1.0000
  H   H107      1.0  0.46298  0.41203  0.01802  1.0000
  C   C68       1.0  0.99884  0.32872  0.01422  1.0000
  H   H108      1.0  0.06702  0.43893  0.07766  1.0000
  H   H109      1.0  0.11728  0.29551  0.04405  1.0000
  H   H110      1.0  0.00754  0.40879  0.11131  1.0000
  H   H111      1.0  0.08481  0.46927  0.09613  1.0000
  C   C69       1.0  0.22172  0.37822  0.12171  1.0000
  H   H112      1.0  0.39280  0.42772  0.10677  1.0000
  C   C70       1.0  0.43067  0.43296  0.09645  1.0000
  H   H113      1.0  0.22318  0.34640  0.11075  1.0000
  C   C71       1.0  0.41690  0.40711  0.09036  1.0000
  N   N5        1.0  0.04656  0.46751  0.07647  1.0000
  H   H114      1.0  0.05197  0.33308  0.09288  1.0000
  H   H115      1.0  0.15555  0.31430  0.05846  1.0000
  H   H116      1.0  0.40550  0.39181  0.09753  1.0000
  H   H117      1.0  0.07462  0.44849  0.14136  1.0000
  C   C72       1.0  0.13375  0.31032  0.10416  1.0000
  H   H118      1.0  0.31164  0.44656  0.02592  1.0000
  C   C73       1.0  0.46494  0.40096  0.99880  1.0000
  H   H119      1.0  0.42427  0.41436  0.14587  1.0000
  H   H120      1.0  0.03393  0.38847  0.01075  1.0000
  C   C74       1.0  0.13568  0.30585  0.08994  1.0000
  H   H121      1.0  0.11042  0.32151  0.06193  1.0000
  H   H122      1.0  0.03781  0.29981  0.09889  1.0000
  H   H123      1.0  0.44410  0.42949  0.10393  1.0000
  H   H124      1.0  0.17095  0.30261  0.10970  1.0000
  H   H125      1.0  0.09939  0.34580  0.07923  1.0000
  C   C75       1.0  0.11678  0.30888  0.06893  1.0000
  H   H126      1.0  0.01157  0.46355  0.08840  1.0000
  H   H127      1.0  0.09639  0.45105  0.12774  1.0000
  H   H128      1.0  0.45954  0.36041  0.00086  1.0000
  C   C76       1.0  0.42621  0.45120  0.02612  1.0000
  H   H129      1.0  0.15714  0.30721  0.08769  1.0000
  H   H130      1.0  0.43457  0.38405  0.01380  1.0000
  C   C77       1.0  0.43532  0.43311  0.14062  1.0000
  H   H131      1.0  0.14305  0.36015  0.07010  1.0000
  H   H132      1.0  0.21492  0.43277  0.02509  1.0000
  H   H133      1.0  0.17610  0.40163  0.07644  1.0000
  H   H134      1.0  0.43949  0.47704  0.12743  1.0000
  C   C78       1.0  0.18635  0.39027  0.08228  1.0000
  C   C79       1.0  0.26018  0.44919  0.99216  1.0000
  C   C80       1.0  0.19042  0.36893  0.12281  1.0000
  C   C81       1.0  0.15030  0.34769  0.07686  1.0000
  H   H135      1.0  0.24258  0.36515  0.01321  1.0000
  C   C82       1.0  0.98261  0.38869  0.00166  1.0000
  H   H136      1.0  0.30526  0.36285  0.13811  1.0000
  C   C83       1.0  0.12382  0.28290  0.05097  1.0000
  H   H137      1.0  0.02421  0.43086  0.06843  1.0000
  H   H138      1.0  0.17514  0.39283  0.02043  1.0000
  C   C84       1.0  0.05719  0.31642  0.09715  1.0000
  H   H139      1.0  0.14001  0.27420  0.11059  1.0000
  C   C85       1.0  0.30126  0.45928  0.02132  1.0000
  H   H140      1.0  0.47775  0.33858  0.98771  1.0000
  H   H141      1.0  0.26203  0.43879  0.03034  1.0000
  H   H142      1.0  0.01618  0.41824  0.08847  1.0000
  C   C86       1.0  0.44882  0.40339  0.01036  1.0000
  H   H143      1.0  0.00899  0.42270  0.04605  1.0000
  H   H144      1.0  0.43649  0.44925  0.14677  1.0000
  H   H145      1.0  0.11033  0.44150  0.08847  1.0000
  H   H146      1.0  0.31049  0.46604  0.01184  1.0000
  H   H147      1.0  0.21178  0.41232  0.14343  1.0000
  H   H148      1.0  0.04253  0.47987  0.05020  1.0000
  H   H149      1.0  0.47844  0.46592  0.03476  1.0000
  H   H150      1.0  0.13294  0.47232  0.09341  1.0000
  H   H151      1.0  0.08289  0.46572  0.06734  1.0000
  H   H152      1.0  0.26271  0.41100  0.99342  1.0000
  H   H153      1.0  0.98651  0.36986  0.00213  1.0000
  H   H154      1.0  0.05592  0.45354  0.05115  1.0000
  H   H155      1.0  0.02230  0.41281  0.99273  1.0000
  H   H156      1.0  0.23769  0.44118  0.99084  1.0000
  C   C87       1.0  0.39565  0.47368  0.11441  1.0000
  C   C88       1.0  0.22072  0.42676  0.15018  1.0000
  H   H157      1.0  0.47318  0.10715  0.98974  1.0000
  H   H158      1.0  0.37192  0.47104  0.09700  1.0000
  H   H159      1.0  0.99721  0.45033  0.04438  1.0000
  H   H160      1.0  0.05453  0.47931  0.13069  1.0000
  C   C89       1.0  0.47529  0.17985  0.99373  1.0000
  H   H161      1.0  0.47554  0.18801  0.00307  1.0000
  C   C90       1.0  0.07486  0.47930  0.12744  1.0000
  C   C91       1.0  0.30734  0.48309  0.02920  1.0000
  H   H162      1.0  0.07590  0.48184  0.11706  1.0000
  H   H163      1.0  0.43781  0.98526  0.99378  1.0000
  Fe  Fe9       1.0  0.09239  0.43772  0.16877  1.0000
  S   S22       1.0  0.07549  0.39402  0.16839  1.0000
  S   S23       1.0  0.06749  0.46425  0.16746  1.0000
  Fe  Fe10      1.0  0.15044  0.43930  0.17224  1.0000
  S   S24       1.0  0.13858  0.39605  0.17197  1.0000
  S   S25       1.0  0.19367  0.46433  0.17578  1.0000
  C   C92       1.0  0.45281  0.33903  0.17995  1.0000
  Fe  Fe11      1.0  0.10379  0.39523  0.18482  1.0000
  S   S26       1.0  0.09765  0.37078  0.20337  1.0000
  C   C93       1.0  0.42789  0.34802  0.17953  1.0000
  S   S27       1.0  0.11762  0.43844  0.18593  1.0000
  S   S28       1.0  0.31564  0.32821  0.31154  1.0000
  H   H164      1.0  0.14392  0.44301  0.22966  1.0000
  Fe  Fe12      1.0  0.33814  0.41374  0.17827  1.0000
  S   S29       1.0  0.33068  0.44915  0.16937  1.0000
  S   S30       1.0  0.32394  0.39956  0.19864  1.0000
  H   H165      1.0  0.46803  0.35014  0.18675  1.0000
  H   H166      1.0  0.28217  0.46029  0.16262  1.0000
  H   H167      1.0  0.99639  0.31369  0.27554  1.0000
  N   N6        1.0  0.38938  0.35321  0.19363  1.0000
  S   S31       1.0  0.31284  0.38712  0.16398  1.0000
  S   S32       1.0  0.37746  0.42043  0.16726  1.0000
  Fe  Fe13      1.0  0.08947  0.40409  0.27733  1.0000
  S   S33       1.0  0.11426  0.43797  0.28834  1.0000
  S   S34       1.0  0.08498  0.41483  0.25653  1.0000
  Fe  Fe14      1.0  0.06808  0.36864  0.30181  1.0000
  H   H168      1.0  0.32817  0.33334  0.16580  1.0000
  Fe  Fe15      1.0  0.07728  0.42822  0.30093  1.0000
  S   S35       1.0  0.06009  0.46013  0.30576  1.0000
  Fe  Fe16      1.0  0.12533  0.40839  0.30056  1.0000
  S   S36       1.0  0.16670  0.41478  0.30920  1.0000
  S   S37       1.0  0.05167  0.39510  0.28959  1.0000
  S   S38       1.0  0.10414  0.37520  0.28850  1.0000
  Fe  Fe17      1.0  0.35001  0.39310  0.27269  1.0000
  S   S39       1.0  0.33843  0.42795  0.27609  1.0000
  S   S40       1.0  0.37285  0.39762  0.25377  1.0000
  Fe  Fe18      1.0  0.32666  0.36724  0.29930  1.0000
  Fe  Fe19      1.0  0.29910  0.39996  0.28399  1.0000
  S   S41       1.0  0.26016  0.40180  0.27514  1.0000
  Fe  Fe20      1.0  0.35579  0.42704  0.29537  1.0000
  C   C94       1.0  0.03205  0.33548  0.23404  1.0000
  S   S42       1.0  0.30942  0.36462  0.27964  1.0000
  S   S43       1.0  0.36918  0.39276  0.29186  1.0000
  C   C95       1.0  0.19295  0.41303  0.29930  1.0000
  C   C96       1.0  0.18739  0.40453  0.28713  1.0000
  C   C97       1.0  0.20845  0.40189  0.27966  1.0000
  C   C98       1.0  0.23502  0.40751  0.28436  1.0000
  C   C99       1.0  0.24072  0.41658  0.29641  1.0000
  C   C100      1.0  0.21969  0.41940  0.30385  1.0000
  H   H169      1.0  0.26131  0.42146  0.29997  1.0000
  H   H170      1.0  0.44051  0.39355  0.19729  1.0000
  C   C101      1.0  0.36805  0.33937  0.18431  1.0000
  H   H171      1.0  0.41410  0.33703  0.17225  1.0000
  H   H172      1.0  0.04238  0.29935  0.25713  1.0000
  C   C102      1.0  0.16047  0.33762  0.30720  1.0000
  H   H173      1.0  0.43176  0.45720  0.29661  1.0000
  H   H174      1.0  0.42900  0.35161  0.19953  1.0000
  C   C103      1.0  0.33806  0.40165  0.21399  1.0000
  C   C104      1.0  0.32029  0.39106  0.22437  1.0000
  C   C105      1.0  0.33050  0.39077  0.23665  1.0000
  C   C106      1.0  0.35875  0.40063  0.23871  1.0000
  C   C107      1.0  0.37651  0.41167  0.22836  1.0000
  C   C108      1.0  0.36621  0.41254  0.21611  1.0000
  H   H175      1.0  0.29847  0.38264  0.22291  1.0000
  H   H176      1.0  0.31655  0.38213  0.24448  1.0000
  H   H177      1.0  0.39839  0.41941  0.22982  1.0000
  H   H178      1.0  0.38005  0.42128  0.20831  1.0000
  C   C109      1.0  0.39549  0.34652  0.21790  1.0000
  H   H179      1.0  0.37054  0.47150  0.22156  1.0000
  H   H180      1.0  0.41283  0.36503  0.21821  1.0000
  H   H181      1.0  0.39914  0.47994  0.24021  1.0000
  C   C110      1.0  0.99945  0.36315  0.25497  1.0000
  C   C111      1.0  0.09598  0.38423  0.21807  1.0000
  C   C112      1.0  0.08759  0.40588  0.21896  1.0000
  C   C113      1.0  0.08453  0.41493  0.23081  1.0000
  C   C114      1.0  0.09021  0.40279  0.24193  1.0000
  C   C115      1.0  0.09919  0.38149  0.24106  1.0000
  C   C116      1.0  0.10187  0.37218  0.22918  1.0000
  H   H182      1.0  0.08269  0.41518  0.21053  1.0000
  H   H183      1.0  0.07747  0.43134  0.23138  1.0000
  H   H184      1.0  0.10388  0.37212  0.24952  1.0000
  H   H185      1.0  0.10840  0.35544  0.22860  1.0000
  C   C117      1.0  0.21516  0.45482  0.16602  1.0000
  C   C118      1.0  0.24351  0.46393  0.16780  1.0000
  C   C119      1.0  0.26037  0.45364  0.16108  1.0000
  H   H186      1.0  0.21169  0.34957  0.17291  1.0000
  H   H187      1.0  0.22076  0.30583  0.29013  1.0000
  H   H188      1.0  0.41636  0.40079  0.20739  1.0000
  C   C120      1.0  0.43775  0.46382  0.26510  1.0000
  H   H189      1.0  0.30029  0.33176  0.17626  1.0000
  H   H190      1.0  0.41460  0.43585  0.19174  1.0000
  C   C121      1.0  0.43170  0.42791  0.19172  1.0000
  H   H191      1.0  0.01061  0.44591  0.26958  1.0000
  S   S44       1.0  0.38079  0.46709  0.30271  1.0000
  C   C122      1.0  0.17673  0.31973  0.31186  1.0000
  H   H192      1.0  0.43919  0.42862  0.18190  1.0000
  C   C123      1.0  0.21067  0.32052  0.28811  1.0000
  C   C124      1.0  0.37972  0.34184  0.23040  1.0000
  C   C125      1.0  0.98728  0.27778  0.26570  1.0000
  C   C126      1.0  0.20485  0.28291  0.31537  1.0000
  H   H193      1.0  0.36012  0.46915  0.25635  1.0000
  H   H194      1.0  0.40682  0.47554  0.17610  1.0000
  C   C127      1.0  0.22068  0.33310  0.27507  1.0000
  H   H195      1.0  0.16726  0.34649  0.29765  1.0000
  H   H196      1.0  0.16946  0.30212  0.30633  1.0000
  H   H197      1.0  0.00919  0.39421  0.26806  1.0000
  H   H198      1.0  0.00873  0.29788  0.24231  1.0000
  H   H199      1.0  0.16685  0.39980  0.28353  1.0000
  C   C128      1.0  0.37638  0.34662  0.20666  1.0000
  H   H200      1.0  0.02565  0.40382  0.25274  1.0000
  H   H201      1.0  0.40263  0.38604  0.18010  1.0000
  C   C129      1.0  0.36099  0.47248  0.23076  1.0000
  H   H202      1.0  0.37026  0.35702  0.23157  1.0000
  H   H203      1.0  0.38051  0.38919  0.19200  1.0000
  H   H204      1.0  0.05167  0.33163  0.23503  1.0000
  H   H205      1.0  0.34342  0.36514  0.18239  1.0000
  H   H206      1.0  0.07478  0.29302  0.27357  1.0000
  Fe  Fe21      1.0  0.36789  0.45370  0.15742  1.0000
  H   H207      1.0  0.20405  0.39504  0.27029  1.0000
  H   H208      1.0  0.19905  0.27853  0.30553  1.0000
  H   H209      1.0  0.09457  0.32744  0.27152  1.0000
  H   H210      1.0  0.21509  0.31804  0.26801  1.0000
  H   H211      1.0  0.24335  0.34253  0.27487  1.0000
  C   C130      1.0  0.02219  0.35244  0.25965  1.0000
  H   H212      1.0  0.01867  0.30862  0.21898  1.0000
  H   H213      1.0  0.99690  0.36192  0.24467  1.0000
  H   H214      1.0  0.00560  0.27238  0.26799  1.0000
  H   H215      1.0  0.12698  0.48028  0.23234  1.0000
  C   C131      1.0  0.41069  0.46911  0.26600  1.0000
  H   H216      1.0  0.02449  0.35582  0.26986  1.0000
  H   H217      1.0  0.03616  0.35655  0.23500  1.0000
  C   C132      1.0  0.02220  0.32938  0.22067  1.0000
  H   H218      1.0  0.36874  0.47939  0.27749  1.0000
  C   C133      1.0  0.05069  0.31879  0.27471  1.0000
  C   C134      1.0  0.32004  0.32806  0.17558  1.0000
  H   H219      1.0  0.46284  0.34242  0.17051  1.0000
  S   S45       1.0  0.04332  0.32583  0.30801  1.0000
  H   H220      1.0  0.36483  0.35991  0.20872  1.0000
  C   C135      1.0  0.22068  0.31235  0.31677  1.0000
  H   H221      1.0  0.15556  0.47607  0.21212  1.0000
  H   H222      1.0  0.40575  0.32173  0.19487  1.0000
  C   C136      1.0  0.01065  0.31837  0.24391  1.0000
  H   H223      1.0  0.39392  0.34261  0.23831  1.0000
  H   H224      1.0  0.31598  0.30697  0.17772  1.0000
  H   H225      1.0  0.25544  0.38021  0.31170  1.0000
  C   C137      1.0  0.30909  0.46649  0.20068  1.0000
  C   C138      1.0  0.39789  0.38207  0.19033  1.0000
  H   H226      1.0  0.24149  0.27183  0.31428  1.0000
  Fe  Fe22      1.0  0.30825  0.42280  0.15451  1.0000
  S   S46       1.0  0.12688  0.44310  0.15508  1.0000
  N   N7        1.0  0.23959  0.40884  0.19788  1.0000
  C   C139      1.0  0.22787  0.39590  0.18597  1.0000
  C   C140      1.0  0.22140  0.42292  0.20288  1.0000
  C   C141      1.0  0.26729  0.42893  0.19458  1.0000
  C   C142      1.0  0.24399  0.38985  0.20775  1.0000
  C   C143      1.0  0.21908  0.36526  0.21130  1.0000
  C   C144      1.0  0.24557  0.38275  0.17905  1.0000
  C   C145      1.0  0.28216  0.44603  0.20538  1.0000
  C   C146      1.0  0.19000  0.41075  0.20083  1.0000
  C   C147      1.0  0.17416  0.42483  0.20798  1.0000
  C   C148      1.0  0.22743  0.34680  0.22041  1.0000
  C   C149      1.0  0.22932  0.36589  0.16877  1.0000
  H   H227      1.0  0.44650  0.31789  0.18267  1.0000
  H   H228      1.0  0.22430  0.41050  0.17912  1.0000
  H   H229      1.0  0.20730  0.38104  0.18771  1.0000
  H   H230      1.0  0.22476  0.42576  0.21310  1.0000
  H   H231      1.0  0.22701  0.44292  0.19829  1.0000
  H   H232      1.0  0.26534  0.44220  0.18667  1.0000
  H   H233      1.0  0.28172  0.41955  0.19118  1.0000
  H   H234      1.0  0.26133  0.38348  0.20494  1.0000
  H   H235      1.0  0.25058  0.39958  0.21669  1.0000
  H   H236      1.0  0.21030  0.35423  0.20297  1.0000
  H   H237      1.0  0.20311  0.37073  0.21615  1.0000
  H   H238      1.0  0.26358  0.39785  0.17443  1.0000
  H   H239      1.0  0.25291  0.37014  0.18557  1.0000
  H   H240      1.0  0.28738  0.43400  0.21302  1.0000
  H   H241      1.0  0.02999  0.44160  0.28301  1.0000
  H   H242      1.0  0.18547  0.41263  0.19071  1.0000
  H   H243      1.0  0.18175  0.38986  0.20384  1.0000
  H   H244      1.0  0.18107  0.44579  0.20488  1.0000
  H   H245      1.0  0.15193  0.41619  0.20603  1.0000
  H   H246      1.0  0.17701  0.42273  0.21826  1.0000
  H   H247      1.0  0.24312  0.34013  0.21599  1.0000
  H   H248      1.0  0.23587  0.35660  0.22914  1.0000
  H   H249      1.0  0.20921  0.32945  0.22300  1.0000
  H   H250      1.0  0.22158  0.37770  0.16193  1.0000
  H   H251      1.0  0.24284  0.35765  0.16365  1.0000
  H   H252      1.0  0.18818  0.31077  0.28763  1.0000
  H   H253      1.0  0.12569  0.30778  0.29930  1.0000
  H   H254      1.0  0.05787  0.46730  0.20911  1.0000
  H   H255      1.0  0.26932  0.45644  0.20939  1.0000
  C   C150      1.0  0.41303  0.34314  0.19254  1.0000
  C   C151      1.0  0.03161  0.45096  0.27341  1.0000
  H   H256      1.0  0.21189  0.35764  0.29490  1.0000
  C   C152      1.0  0.42245  0.40002  0.19751  1.0000
  H   H257      1.0  0.43413  0.44297  0.26776  1.0000
  H   H258      1.0  0.08191  0.31310  0.28690  1.0000
  H   H259      1.0  0.05369  0.33816  0.27836  1.0000
  H   H260      1.0  0.06120  0.33299  0.25558  1.0000
  H   H261      1.0  0.04202  0.36514  0.25533  1.0000
  H   H262      1.0  0.16289  0.35348  0.31367  1.0000
  C   C153      1.0  0.21838  0.34103  0.29818  1.0000
  H   H263      1.0  0.33077  0.48097  0.29163  1.0000
  C   C154      1.0  0.43684  0.47778  0.29794  1.0000
  H   H264      1.0  0.03811  0.34166  0.21385  1.0000
  H   H265      1.0  0.44612  0.46799  0.25534  1.0000
  H   H266      1.0  0.18206  0.43011  0.15535  1.0000
  H   H267      1.0  0.44875  0.44060  0.19725  1.0000
  C   C155      1.0  0.07715  0.31270  0.27673  1.0000
  H   H268      1.0  0.40399  0.33047  0.21726  1.0000
  C   C156      1.0  0.04325  0.31847  0.26061  1.0000
  N   N8        1.0  0.01738  0.32419  0.25745  1.0000
  H   H269      1.0  0.24177  0.31683  0.31275  1.0000
  H   H270      1.0  0.24122  0.34913  0.29802  1.0000
  C   C157      1.0  0.00651  0.39174  0.25781  1.0000
  H   H271      1.0  0.36331  0.32244  0.23092  1.0000
  H   H272      1.0  0.03445  0.30407  0.28051  1.0000
  S   S47       1.0  0.31440  0.40179  0.30382  1.0000
  H   H273      1.0  0.11835  0.33573  0.30433  1.0000
  H   H274      1.0  0.45303  0.47592  0.27158  1.0000
  H   H275      1.0  0.34472  0.48123  0.22914  1.0000
  H   H276      1.0  0.17663  0.46199  0.23598  1.0000
  H   H277      1.0  0.40220  0.46284  0.27564  1.0000
  C   C158      1.0  0.20386  0.43673  0.15700  1.0000
  H   H278      1.0  0.21112  0.34799  0.27242  1.0000
  H   H279      1.0  0.36346  0.31790  0.18551  1.0000
  H   H280      1.0  0.36078  0.32664  0.20717  1.0000
  H   H281      1.0  0.12181  0.31194  0.31584  1.0000
  H   H282      1.0  0.14586  0.45277  0.24559  1.0000
  H   H283      1.0  0.43531  0.36902  0.17653  1.0000
  N   N9        1.0  0.20766  0.33157  0.31134  1.0000
  C   C159      1.0  0.12976  0.32221  0.30665  1.0000
  C   C160      1.0  0.34032  0.34440  0.18489  1.0000
  H   H284      1.0  0.25229  0.47826  0.17464  1.0000
  H   H285      1.0  0.37584  0.34509  0.17448  1.0000
  H   H286      1.0  0.33053  0.33946  0.19436  1.0000
  H   H287      1.0  0.22407  0.42644  0.31319  1.0000
  H   H288      1.0  0.99020  0.31971  0.24158  1.0000
  S   S48       1.0  0.09013  0.40100  0.31422  1.0000
  H   H289      1.0  0.01408  0.27189  0.31529  1.0000
  H   H290      1.0  0.39642  0.45646  0.25937  1.0000
  C   C161      1.0  0.07602  0.47954  0.20343  1.0000
  H   H291      1.0  0.20723  0.36984  0.31568  1.0000
  C   C162      1.0  0.99353  0.30765  0.26565  1.0000
  H   H292      1.0  0.04425  0.44303  0.26751  1.0000
  H   H293      1.0  0.21038  0.24541  0.31856  1.0000
  H   H294      1.0  0.32354  0.45689  0.19751  1.0000
  H   H295      1.0  0.07859  0.46820  0.19547  1.0000
  C   C163      1.0  0.15432  0.45895  0.23591  1.0000
  C   C164      1.0  0.04507  0.48044  0.27397  1.0000
  Fe  Fe23      1.0  0.11205  0.39949  0.15553  1.0000
  H   H296      1.0  0.35147  0.45229  0.23488  1.0000
  H   H297      1.0  0.10425  0.46820  0.21487  1.0000
  H   H298      1.0  0.31878  0.47910  0.20842  1.0000
  H   H299      1.0  0.30539  0.47893  0.19279  1.0000
  H   H300      1.0  0.98966  0.39878  0.25468  1.0000
  H   H301      1.0  0.00299  0.33371  0.21898  1.0000
  Fe  Fe24      1.0  0.35125  0.39699  0.15226  1.0000
  C   C165      1.0  0.24883  0.43462  0.15248  1.0000
  C   C166      1.0  0.14926  0.48401  0.23153  1.0000
  S   S49       1.0  0.24382  0.15756  0.47397  1.0000
  S   S50       1.0  0.19326  0.01179  0.38825  1.0000
  Fe  Fe25      1.0  0.24015  0.20500  0.40172  1.0000
  S   S51       1.0  0.21132  0.16489  0.39868  1.0000
  S   S52       1.0  0.25166  0.22100  0.42112  1.0000
  Fe  Fe26      1.0  0.23895  0.22422  0.37343  1.0000
  S   S53       1.0  0.20878  0.18492  0.36873  1.0000
  S   S54       1.0  0.25154  0.26362  0.36153  1.0000
  Fe  Fe27      1.0  0.18751  0.18502  0.38708  1.0000
  S   S55       1.0  0.14304  0.17211  0.39304  1.0000
  Fe  Fe28      1.0  0.23495  0.16746  0.38077  1.0000
  S   S56       1.0  0.24721  0.13382  0.37406  1.0000
  S   S57       1.0  0.21498  0.22508  0.39101  1.0000
  S   S58       1.0  0.26648  0.20678  0.38451  1.0000
  Fe  Fe29      1.0  0.01204  0.17229  0.36711  1.0000
  S   S59       1.0  0.04513  0.16382  0.35630  1.0000
  S   S60       1.0  0.02837  0.20734  0.37835  1.0000
  H   H302      1.0  0.24658  0.14373  0.44862  1.0000
  H   H303      1.0  0.15375  0.20776  0.42184  1.0000
  H   H304      1.0  0.11098  0.04663  0.39344  1.0000
  C   C167      1.0  0.01337  0.26747  0.33558  1.0000
  H   H305      1.0  0.12265  0.11743  0.38632  1.0000
  H   H306      1.0  0.13974  0.22843  0.34682  1.0000
  C   C168      1.0  0.13930  0.30712  0.35164  1.0000
  C   C169      1.0  0.02112  0.27988  0.34685  1.0000
  C   C170      1.0  0.03657  0.30671  0.34614  1.0000
  C   C171      1.0  0.04390  0.32097  0.33443  1.0000
  C   C172      1.0  0.18399  0.99103  0.42797  1.0000
  H   H307      1.0  0.10776  0.00087  0.39039  1.0000
  C   C173      1.0  0.12467  0.19262  0.43777  1.0000
  H   H308      1.0  0.22370  0.31428  0.32709  1.0000
  C   C174      1.0  0.07291  0.16666  0.36622  1.0000
  C   C175      1.0  0.09975  0.17352  0.36135  1.0000
  C   C176      1.0  0.12182  0.17584  0.36948  1.0000
  C   C177      1.0  0.11679  0.17063  0.38240  1.0000
  C   C178      1.0  0.08993  0.16338  0.38715  1.0000
  C   C179      1.0  0.06815  0.16186  0.37913  1.0000
  H   H309      1.0  0.10342  0.17709  0.35133  1.0000
  H   H310      1.0  0.14252  0.18123  0.36575  1.0000
  H   H311      1.0  0.08574  0.15872  0.39706  1.0000
  H   H312      1.0  0.04751  0.15639  0.38294  1.0000
  C   C180      1.0  0.26978  0.28107  0.34760  1.0000
  C   C181      1.0  0.27281  0.30763  0.34542  1.0000
  C   C182      1.0  0.28705  0.32238  0.33467  1.0000
  H   H313      1.0  0.04428  0.21285  0.45465  1.0000
  Fe  Fe30      1.0  0.99543  0.21992  0.36926  1.0000
  C   C183      1.0  0.28130  0.26957  0.33872  1.0000
  H   H314      1.0  0.26443  0.31702  0.35223  1.0000
  H   H315      1.0  0.28996  0.34289  0.33348  1.0000
  H   H316      1.0  0.21407  0.01058  0.44842  1.0000
  H   H317      1.0  0.27940  0.24929  0.34015  1.0000
  C   C184      1.0  0.21060  0.04570  0.38496  1.0000
  C   C185      1.0  0.23104  0.05517  0.37565  1.0000
  C   C186      1.0  0.24226  0.08218  0.37256  1.0000
  C   C187      1.0  0.23340  0.10009  0.37878  1.0000
  C   C188      1.0  0.21369  0.09069  0.38842  1.0000
  C   C189      1.0  0.20232  0.06368  0.39145  1.0000
  H   H318      1.0  0.23767  0.04165  0.37057  1.0000
  H   H319      1.0  0.25767  0.08922  0.36515  1.0000
  H   H320      1.0  0.20717  0.10426  0.39346  1.0000
  H   H321      1.0  0.18671  0.05665  0.39874  1.0000
  S   S61       1.0  0.01282  0.18099  0.41346  1.0000
  C   C190      1.0  0.37969  0.34058  0.40597  1.0000
  C   C191      1.0  0.12429  0.01755  0.38577  1.0000
  H   H322      1.0  0.13167  0.22171  0.39838  1.0000
  C   C192      1.0  0.24316  0.17478  0.45937  1.0000
  C   C193      1.0  0.24212  0.20008  0.45865  1.0000
  C   C194      1.0  0.24435  0.21382  0.44686  1.0000
  C   C195      1.0  0.24681  0.20222  0.43565  1.0000
  C   C196      1.0  0.24682  0.17659  0.43634  1.0000
  C   C197      1.0  0.24541  0.16314  0.44814  1.0000
  H   H323      1.0  0.24065  0.20940  0.46719  1.0000
  H   H324      1.0  0.24443  0.23366  0.44646  1.0000
  H   H325      1.0  0.24902  0.16752  0.42782  1.0000
  H   H326      1.0  0.17960  0.14593  0.34893  1.0000
  C   C198      1.0  0.08035  0.15730  0.43430  1.0000
  C   C199      1.0  0.30727  0.26489  0.40372  1.0000
  C   C200      1.0  0.28457  0.29180  0.39263  1.0000
  C   C201      1.0  0.26856  0.29389  0.40458  1.0000
  C   C202      1.0  0.33189  0.25558  0.40652  1.0000
  C   C203      1.0  0.32276  0.22973  0.41435  1.0000
  C   C204      1.0  0.24369  0.30180  0.40116  1.0000
  H   H327      1.0  0.30826  0.26393  0.37904  1.0000
  H   H328      1.0  0.30022  0.26851  0.41308  1.0000
  H   H329      1.0  0.29030  0.24815  0.40027  1.0000
  H   H330      1.0  0.27081  0.27527  0.38744  1.0000
  H   H331      1.0  0.26061  0.27476  0.40990  1.0000
  H   H332      1.0  0.34173  0.25242  0.39783  1.0000
  H   H333      1.0  0.34716  0.26988  0.41217  1.0000
  H   H334      1.0  0.30739  0.21430  0.40922  1.0000
  H   H335      1.0  0.34070  0.22344  0.41630  1.0000
  H   H336      1.0  0.31358  0.23184  0.42347  1.0000
  H   H337      1.0  0.25030  0.32147  0.39630  1.0000
  H   H338      1.0  0.23207  0.30224  0.40984  1.0000
  S   S62       1.0  0.15666  0.00848  0.47530  1.0000
  C   C205      1.0  0.16185  0.10497  0.35520  1.0000
  C   C206      1.0  0.08662  0.25841  0.36612  1.0000
  H   H339      1.0  0.11144  0.13857  0.43296  1.0000
  C   C207      1.0  0.06315  0.21204  0.45938  1.0000
  H   H340      1.0  0.16627  0.11619  0.39451  1.0000
  H   H341      1.0  0.23340  0.01972  0.46974  1.0000
  C   C208      1.0  0.06255  0.23847  0.34174  1.0000
  H   H342      1.0  0.09556  0.29249  0.34786  1.0000
  H   H343      1.0  0.08091  0.23904  0.37128  1.0000
  H   H344      1.0  0.12301  0.33894  0.34879  1.0000
  H   H345      1.0  0.22668  0.26876  0.32991  1.0000
  H   H346      1.0  0.06720  0.26063  0.36273  1.0000
  H   H347      1.0  0.07365  0.25557  0.39172  1.0000
  H   H348      1.0  0.16835  0.08760  0.35508  1.0000
  C   C209      1.0  0.09228  0.13828  0.42820  1.0000
  H   H349      1.0  0.08663  0.07074  0.37223  1.0000
  H   H350      1.0  0.19059  0.12401  0.34000  1.0000
  C   C210      1.0  0.23690  0.04072  0.46755  1.0000
  C   C211      1.0  0.24215  0.04733  0.45348  1.0000
  H   H351      1.0  0.10656  0.07413  0.35844  1.0000
  C   C212      1.0  0.25294  0.38859  0.33097  1.0000
  C   C213      1.0  0.10494  0.08428  0.36704  1.0000
  H   H352      1.0  0.10321  0.23761  0.33857  1.0000
  C   C214      1.0  0.15482  0.10962  0.36882  1.0000
  H   H353      1.0  0.09649  0.14304  0.41802  1.0000
  C   C215      1.0  0.14058  0.33346  0.34553  1.0000
  H   H354      1.0  0.24573  0.04535  0.40768  1.0000
  N   N10       1.0  0.09630  0.18603  0.43229  1.0000
  C   C216      1.0  0.14718  0.10028  0.39749  1.0000
  C   C217      1.0  0.11467  0.22872  0.40089  1.0000
  H   H355      1.0  0.04637  0.23172  0.34921  1.0000
  N   N11       1.0  0.21985  0.03634  0.43177  1.0000
  C   C218      1.0  0.22619  0.06484  0.42803  1.0000
  C   C219      1.0  0.24312  0.02822  0.42715  1.0000
  C   C220      1.0  0.19305  0.02107  0.42595  1.0000
  C   C221      1.0  0.21715  0.03139  0.44584  1.0000
  H   H356      1.0  0.15797  0.30322  0.34864  1.0000
  C   C222      1.0  0.20702  0.07812  0.43368  1.0000
  H   H357      1.0  0.03608  0.06021  0.47813  1.0000
  C   C223      1.0  0.24563  0.02706  0.41270  1.0000
  H   H358      1.0  0.15989  0.34876  0.34813  1.0000
  H   H359      1.0  0.15528  0.10954  0.41696  1.0000
  C   C224      1.0  0.21427  0.10617  0.42829  1.0000
  C   C225      1.0  0.09762  0.10878  0.36299  1.0000
  H   H360      1.0  0.22533  0.06767  0.41765  1.0000
  H   H361      1.0  0.24765  0.07636  0.43044  1.0000
  C   C226      1.0  0.99424  0.17818  0.42778  1.0000
  H   H362      1.0  0.24186  0.00889  0.43148  1.0000
  H   H363      1.0  0.19358  0.02603  0.41566  1.0000
  H   H364      1.0  0.17597  0.02651  0.42980  1.0000
  H   H365      1.0  0.19845  0.03461  0.44947  1.0000
  C   C227      1.0  0.09678  0.19356  0.41844  1.0000
  H   H366      1.0  0.06756  0.11951  0.35187  1.0000
  H   H367      1.0  0.09258  0.19232  0.45826  1.0000
  H   H368      1.0  0.18524  0.06783  0.43152  1.0000
  H   H369      1.0  0.20897  0.07871  0.44404  1.0000
  H   H370      1.0  0.24219  0.40287  0.32919  1.0000
  H   H371      1.0  0.01948  0.15989  0.43786  1.0000
  H   H372      1.0  0.22836  0.01076  0.40922  1.0000
  C   C228      1.0  0.27211  0.02258  0.40905  1.0000
  H   H373      1.0  0.13329  0.12491  0.40934  1.0000
  H   H374      1.0  0.03230  0.22074  0.32785  1.0000
  H   H375      1.0  0.16954  0.17583  0.44330  1.0000
  H   H376      1.0  0.07293  0.04343  0.47536  1.0000
  H   H377      1.0  0.26311  0.04182  0.43026  1.0000
  S   S63       1.0  0.01163  0.26319  0.36202  1.0000
  H   H378      1.0  0.21040  0.10655  0.41804  1.0000
  H   H379      1.0  0.20153  0.11590  0.43297  1.0000
  H   H380      1.0  0.23621  0.11734  0.42988  1.0000
  H   H381      1.0  0.12611  0.23339  0.42031  1.0000
  H   H382      1.0  0.07885  0.23183  0.45904  1.0000
  H   H383      1.0  0.11627  0.16456  0.47529  1.0000
  C   C229      1.0  0.17695  0.24950  0.35588  1.0000
  H   H384      1.0  0.18980  0.24490  0.34866  1.0000
  C   C230      1.0  0.09294  0.09723  0.47785  1.0000
  H   H385      1.0  0.17401  0.23512  0.36398  1.0000
  C   C231      1.0  0.08072  0.20064  0.43896  1.0000
  C   C232      1.0  0.11472  0.04102  0.38395  1.0000
  H   H386      1.0  0.07569  0.18575  0.41457  1.0000
  C   C233      1.0  0.00278  0.16732  0.43856  1.0000
  H   H387      1.0  0.09310  0.11803  0.37133  1.0000
  H   H388      1.0  0.08474  0.29020  0.39354  1.0000
  C   C234      1.0  0.12475  0.09786  0.38749  1.0000
  C   C235      1.0  0.21564  0.35477  0.31943  1.0000
  H   H389      1.0  0.05674  0.27530  0.38330  1.0000
  C   C236      1.0  0.18545  0.12814  0.34959  1.0000
  H   H390      1.0  0.18996  0.19179  0.42968  1.0000
  Fe  Fe31      1.0  0.99811  0.18518  0.39344  1.0000
  H   H391      1.0  0.20403  0.13173  0.35541  1.0000
  H   H392      1.0  0.05544  0.34161  0.33414  1.0000
  C   C237      1.0  0.17376  0.19256  0.43630  1.0000
  H   H393      1.0  0.13793  0.05634  0.36694  1.0000
  C   C238      1.0  0.13625  0.06376  0.37632  1.0000
  H   H394      1.0  0.08872  0.11586  0.47664  1.0000
  H   H395      1.0  0.12398  0.17994  0.44639  1.0000
  H   H396      1.0  0.12137  0.25001  0.39859  1.0000
  H   H397      1.0  0.12011  0.09049  0.41397  1.0000
  H   H398      1.0  0.09956  0.29895  0.37135  1.0000
  C   C239      1.0  0.07411  0.19290  0.45313  1.0000
  H   H399      1.0  0.12304  0.13247  0.45892  1.0000
  C   C240      1.0  0.13829  0.10669  0.41020  1.0000
  C   C241      1.0  0.10759  0.22323  0.41491  1.0000
  H   H400      1.0  0.05407  0.08817  0.36015  1.0000
  H   H401      1.0  0.37433  0.35851  0.40430  1.0000
  H   H402      1.0  0.21877  0.04535  0.47076  1.0000
  C   C242      1.0  0.09730  0.27949  0.37580  1.0000
  H   H403      1.0  0.04261  0.31668  0.35473  1.0000
  H   H404      1.0  0.08600  0.21826  0.35198  1.0000
  H   H405      1.0  0.15251  0.12916  0.36896  1.0000
  H   H406      1.0  0.06090  0.19839  0.43421  1.0000
  H   H407      1.0  0.00137  0.24695  0.33589  1.0000
  H   H408      1.0  0.18163  0.21105  0.44118  1.0000
  H   H409      1.0  0.14946  0.11830  0.45709  1.0000
  H   H410      1.0  0.24637  0.37826  0.34028  1.0000
  H   H411      1.0  0.06420  0.25843  0.33827  1.0000
  H   H412      1.0  0.10911  0.18455  0.41306  1.0000
  H   H413      1.0  0.10466  0.08504  0.39154  1.0000
  H   H414      1.0  0.14414  0.10211  0.34890  1.0000
  C   C243      1.0  0.99002  0.16612  0.45032  1.0000
  H   H415      1.0  0.14008  0.33287  0.33515  1.0000
  H   H416      1.0  0.14042  0.30910  0.36191  1.0000
  H   H417      1.0  0.15187  0.08203  0.39899  1.0000
  H   H418      1.0  0.12850  0.08489  0.47399  1.0000
  C   C244      1.0  0.05276  0.22055  0.33089  1.0000
  H   H419      1.0  0.15673  0.06707  0.38047  1.0000
  C   C245      1.0  0.12765  0.11403  0.45989  1.0000
  H   H420      1.0  0.99743  0.15827  0.45851  1.0000
  H   H421      1.0  0.05902  0.15322  0.43088  1.0000
  H   H422      1.0  0.29030  0.03907  0.41173  1.0000
  N   N12       1.0  0.31209  0.28839  0.39473  1.0000
  C   C246      1.0  0.32205  0.28304  0.38221  1.0000
  H   H423      1.0  0.09496  0.03461  0.37894  1.0000
  H   H424      1.0  0.34255  0.28097  0.38293  1.0000
  H   H425      1.0  0.18821  0.26931  0.35902  1.0000
  H   H426      1.0  0.05278  0.10865  0.42479  1.0000
  H   H427      1.0  0.40183  0.34535  0.40369  1.0000
  C   C247      1.0  0.14799  0.19117  0.42896  1.0000
  H   H428      1.0  0.28178  0.30847  0.41082  1.0000
  H   H429      1.0  0.03866  0.09369  0.47682  1.0000
  H   H430      1.0  0.09647  0.21893  0.39518  1.0000
  C   C248      1.0  0.07684  0.27477  0.38675  1.0000
  C   C249      1.0  0.09032  0.23761  0.34690  1.0000
  H   H431      1.0  0.13190  0.21280  0.44109  1.0000
  H   H432      1.0  0.28700  0.30968  0.38658  1.0000
  H   H433      1.0  0.33855  0.31366  0.35210  1.0000
  H   H434      1.0  0.22983  0.28752  0.39495  1.0000
  C   C250      1.0  0.14931  0.24824  0.35033  1.0000
  H   H435      1.0  0.06766  0.10429  0.43979  1.0000
  C   C251      1.0  0.07222  0.11034  0.42969  1.0000
  H   H436      1.0  0.36074  0.30237  0.36215  1.0000
  H   H437      1.0  0.30278  0.30217  0.36830  1.0000
  H   H438      1.0  0.09150  0.23175  0.41702  1.0000
  C   C252      1.0  0.12309  0.10290  0.47349  1.0000
  H   H439      1.0  0.11448  0.09983  0.45346  1.0000
  H   H440      1.0  0.07556  0.09242  0.34622  1.0000
  H   H441      1.0  0.14204  0.17317  0.42377  1.0000
  C   C253      1.0  0.33137  0.31264  0.40027  1.0000
  C   C254      1.0  0.32366  0.30366  0.37136  1.0000
  H   H442      1.0  0.32800  0.31162  0.41063  1.0000
  H   H443      1.0  0.12321  0.23527  0.36678  1.0000
  H   H444      1.0  0.15301  0.26254  0.34219  1.0000
  H   H445      1.0  0.14250  0.02231  0.39189  1.0000
  C   C255      1.0  0.11310  0.28499  0.34773  1.0000
  H   H446      1.0  0.11453  0.12333  0.35746  1.0000
  H   H447      1.0  0.11627  0.28243  0.33761  1.0000
  H   H448      1.0  0.05785  0.17349  0.45435  1.0000
  C   C256      1.0  0.13012  0.25313  0.36033  1.0000
  C   C257      1.0  0.33901  0.29949  0.35989  1.0000
  H   H449      1.0  0.36928  0.30212  0.39935  1.0000
  H   H450      1.0  0.09242  0.22192  0.43834  1.0000
  H   H451      1.0  0.08135  0.09692  0.42550  1.0000
  H   H452      1.0  0.07853  0.15125  0.44447  1.0000
  N   N13       1.0  0.13021  0.08890  0.37492  1.0000
  N   N14       1.0  0.10557  0.25922  0.35526  1.0000
  H   H453      1.0  0.24665  0.06857  0.45184  1.0000
  C   C258      1.0  0.36258  0.31915  0.39770  1.0000
  H   H454      1.0  0.32664  0.33019  0.39674  1.0000
  H   H455      1.0  0.33381  0.32379  0.37429  1.0000
  H   H456      1.0  0.32905  0.27954  0.35662  1.0000
  H   H457      1.0  0.14270  0.26863  0.36630  1.0000
  H   H458      1.0  0.17954  0.98485  0.43805  1.0000
  H   H459      1.0  0.11714  0.27967  0.37975  1.0000
  H   H460      1.0  0.36790  0.32627  0.38779  1.0000
  H   H461      1.0  0.30379  0.27495  0.32110  1.0000
  H   H462      1.0  0.37623  0.33400  0.41606  1.0000
  H   H463      1.0  0.17359  0.11148  0.37435  1.0000
  C   C259      1.0  0.07215  0.10164  0.35482  1.0000
  S   S64       1.0  0.98274  0.12544  0.48127  1.0000
  H   H464      1.0  0.25507  0.05228  0.47281  1.0000
  H   H465      1.0  0.06661  0.99735  0.48229  1.0000
  H   H466      1.0  0.26072  0.04275  0.45096  1.0000
  H   H467      1.0  0.27290  0.02101  0.39873  1.0000
  H   H468      1.0  0.17803  0.06460  0.47521  1.0000
  H   H469      1.0  0.27297  0.00426  0.41372  1.0000
  H   H470      1.0  0.12967  0.01151  0.37662  1.0000
  C   C260      1.0  0.29811  0.31079  0.32565  1.0000
  H   H471      1.0  0.99101  0.06622  0.48085  1.0000
  H   H472      1.0  0.27536  0.39941  0.33116  1.0000
  H   H473      1.0  0.05789  0.20548  0.46938  1.0000
  S   S65       1.0  0.05939  0.14994  0.48165  1.0000
  C   C261      1.0  0.29521  0.28427  0.32787  1.0000
  S   S66       1.0  0.98453  0.14864  0.38281  1.0000
  H   H474      1.0  0.07984  0.08445  0.47092  1.0000
  H   H475      1.0  0.05083  0.20023  0.33389  1.0000
  H   H476      1.0  0.10172  0.01848  0.48213  1.0000
  C   C262      1.0  0.11443  0.17212  0.48428  1.0000
  C   C263      1.0  0.03572  0.30867  0.32316  1.0000
  H   H477      1.0  0.20658  0.34877  0.32906  1.0000
  H   H478      1.0  0.06725  0.22727  0.32276  1.0000
  C   C264      1.0  0.03496  0.07654  0.48352  1.0000
  H   H479      1.0  0.16978  0.31287  0.32171  1.0000
  H   H480      1.0  0.13760  0.11754  0.47928  1.0000
  H   H481      1.0  0.18580  0.27654  0.32125  1.0000
  C   C265      1.0  0.24692  0.36919  0.32064  1.0000
  C   C266      1.0  0.02061  0.28174  0.32387  1.0000
  C   C267      1.0  0.22197  0.26629  0.31980  1.0000
  H   H482      1.0  0.25819  0.35562  0.32278  1.0000
  C   C268      1.0  0.16922  0.05707  0.48440  1.0000
  C   C269      1.0  0.07209  0.03770  0.48551  1.0000
  Fe  Fe32      1.0  0.00234  0.16485  0.62356  1.0000
  H   H483      1.0  0.27247  0.02599  0.56246  1.0000
  S   S67       1.0  0.04432  0.16081  0.61993  1.0000
  H   H484      1.0  0.15152  0.20702  0.55323  1.0000
  C   C270      1.0  0.04191  0.25231  0.62576  1.0000
  C   C271      1.0  0.13102  0.05185  0.64048  1.0000
  H   H485      1.0  0.02931  0.07897  0.61247  1.0000
  H   H486      1.0  0.22413  0.22710  0.52524  1.0000
  Fe  Fe33      1.0  0.20025  0.19118  0.63816  1.0000
  S   S68       1.0  0.23608  0.21657  0.62612  1.0000
  C   C272      1.0  0.33478  0.03504  0.62673  1.0000
  Fe  Fe34      1.0  0.22384  0.14699  0.64035  1.0000
  S   S69       1.0  0.26063  0.16834  0.62825  1.0000
  H   H487      1.0  0.30840  0.12286  0.64924  1.0000
  Fe  Fe35      1.0  0.26283  0.20270  0.63985  1.0000
  S   S70       1.0  0.16324  0.20186  0.64427  1.0000
  Fe  Fe36      1.0  0.23136  0.18033  0.61562  1.0000
  S   S71       1.0  0.21817  0.17074  0.59536  1.0000
  C   C273      1.0  0.08853  0.16864  0.48941  1.0000
  S   S72       1.0  0.19445  0.15613  0.62723  1.0000
  H   H488      1.0  0.11348  0.11412  0.60594  1.0000
  C   C274      1.0  0.03147  0.23286  0.64804  1.0000
  Fe  Fe37      1.0  0.22866  0.16275  0.49347  1.0000
  S   S73       1.0  0.18287  0.14944  0.49611  1.0000
  Fe  Fe38      1.0  0.23816  0.17047  0.52217  1.0000
  S   S74       1.0  0.19325  0.15724  0.52615  1.0000
  S   S75       1.0  0.26565  0.18403  0.53909  1.0000
  Fe  Fe39      1.0  0.18963  0.12614  0.51285  1.0000
  S   S76       1.0  0.16211  0.08531  0.51810  1.0000
  Fe  Fe40      1.0  0.19142  0.18210  0.50913  1.0000
  S   S77       1.0  0.16510  0.20677  0.51172  1.0000
  S   S78       1.0  0.23497  0.13719  0.50983  1.0000
  S   S79       1.0  0.23687  0.19743  0.50547  1.0000
  H   H489      1.0  0.35213  0.04882  0.62109  1.0000
  H   H490      1.0  0.33016  0.01523  0.62323  1.0000
  S   S80       1.0  0.00837  0.18375  0.49286  1.0000
  C   C275      1.0  0.13580  0.19412  0.50271  1.0000
  H   H491      1.0  0.07983  0.09593  0.63883  1.0000
  H   H492      1.0  0.25911  0.03991  0.60071  1.0000
  H   H493      1.0  0.00303  0.14783  0.58026  1.0000
  C   C276      1.0  0.08622  0.17882  0.50096  1.0000
  C   C277      1.0  0.10995  0.19182  0.50757  1.0000
  H   H494      1.0  0.33012  0.08435  0.62408  1.0000
  H   H495      1.0  0.11124  0.20508  0.65182  1.0000
  H   H496      1.0  0.06619  0.17631  0.50489  1.0000
  H   H497      1.0  0.10826  0.19931  0.51660  1.0000
  C   C278      1.0  0.15936  0.06450  0.50584  1.0000
  C   C279      1.0  0.17070  0.07424  0.49394  1.0000
  C   C280      1.0  0.31934  0.12422  0.64016  1.0000
  H   H498      1.0  0.32560  0.07130  0.63974  1.0000
  C   C281      1.0  0.14621  0.02047  0.49884  1.0000
  C   C282      1.0  0.14640  0.03767  0.50814  1.0000
  H   H499      1.0  0.29358  0.01562  0.55199  1.0000
  C   C283      1.0  0.23487  0.04521  0.52240  1.0000
  S   S81       1.0  0.99013  0.19589  0.61290  1.0000
  H   H500      1.0  0.13725  0.03008  0.51724  1.0000
  C   C284      1.0  0.20601  0.08158  0.63872  1.0000
  H   H501      1.0  0.24503  0.04699  0.49676  1.0000
  C   C285      1.0  0.19470  0.03560  0.63491  1.0000
  C   C286      1.0  0.19108  0.04082  0.62219  1.0000
  C   C287      1.0  0.19444  0.06638  0.61778  1.0000
  C   C288      1.0  0.20237  0.08682  0.62599  1.0000
  H   H502      1.0  0.13695  0.99968  0.50080  1.0000
  H   H503      1.0  0.30923  0.11499  0.62099  1.0000
  H   H504      1.0  0.19155  0.07047  0.60794  1.0000
  H   H505      1.0  0.20583  0.10659  0.62243  1.0000
  C   C289      1.0  0.23311  0.17328  0.58012  1.0000
  C   C290      1.0  0.25993  0.18950  0.57707  1.0000
  C   C291      1.0  0.26979  0.19227  0.56452  1.0000
  C   C292      1.0  0.25306  0.17881  0.55492  1.0000
  C   C293      1.0  0.22657  0.16202  0.55810  1.0000
  C   C294      1.0  0.21660  0.15952  0.57055  1.0000
  H   H506      1.0  0.27288  0.20029  0.58430  1.0000
  H   H507      1.0  0.29039  0.20517  0.56222  1.0000
  H   H508      1.0  0.21363  0.15103  0.55095  1.0000
  H   H509      1.0  0.19587  0.14684  0.57279  1.0000
  H   H510      1.0  0.11779  0.07196  0.61341  1.0000
  C   C295      1.0  0.07712  0.17289  0.62690  1.0000
  C   C296      1.0  0.08155  0.18611  0.63802  1.0000
  H   H511      1.0  0.21470  0.21166  0.56735  1.0000
  C   C297      1.0  0.13027  0.19041  0.63741  1.0000
  C   C298      1.0  0.12581  0.17721  0.62628  1.0000
  C   C299      1.0  0.09940  0.16855  0.62108  1.0000
  H   H512      1.0  0.14281  0.13199  0.61462  1.0000
  H   H513      1.0  0.18278  0.01216  0.55357  1.0000
  H   H514      1.0  0.14281  0.17404  0.62161  1.0000
  H   H515      1.0  0.09617  0.15835  0.61251  1.0000
  C   C300      1.0  0.22329  0.05841  0.51162  1.0000
  H   H516      1.0  0.15803  0.18709  0.48706  1.0000
  H   H517      1.0  0.27487  0.23934  0.52570  1.0000
  H   H518      1.0  0.14293  0.98975  0.53976  1.0000
  C   C301      1.0  0.05615  0.08340  0.49426  1.0000
  H   H519      1.0  0.23493  0.05709  0.60175  1.0000
  H   H520      1.0  0.04755  0.23531  0.62317  1.0000
  C   C302      1.0  0.14911  0.16875  0.54855  1.0000
  H   H521      1.0  0.14971  0.08772  0.62016  1.0000
  C   C303      1.0  0.26502  0.25420  0.52345  1.0000
  H   H522      1.0  0.27323  0.09703  0.60740  1.0000
  H   H523      1.0  0.34288  0.15592  0.62702  1.0000
  H   H524      1.0  0.19368  0.29937  0.53517  1.0000
  H   H525      1.0  0.99615  0.21502  0.55167  1.0000
  C   C304      1.0  0.12910  0.08938  0.61865  1.0000
  H   H526      1.0  0.16104  0.15530  0.54964  1.0000
  H   H527      1.0  0.06966  0.26226  0.64100  1.0000
  H   H528      1.0  0.14316  0.09679  0.59307  1.0000
  C   C305      1.0  0.08148  0.01405  0.48686  1.0000
  C   C306      1.0  0.10413  0.10491  0.49986  1.0000
  C   C307      1.0  0.10703  0.06191  0.63720  1.0000
  H   H529      1.0  0.13475  0.01955  0.53888  1.0000
  H   H530      1.0  0.00355  0.08493  0.49435  1.0000
  C   C308      1.0  0.09719  0.09958  0.51415  1.0000
  C   C309      1.0  0.29909  0.10851  0.63036  1.0000
  H   H531      1.0  0.99891  0.10231  0.60161  1.0000
  H   H532      1.0  0.06461  0.18931  0.64266  1.0000
  C   C310      1.0  0.16498  0.19499  0.55384  1.0000
  C   C311      1.0  0.11433  0.12259  0.52155  1.0000
  C   C312      1.0  0.30934  0.04311  0.62558  1.0000
  H   H533      1.0  0.03169  0.10665  0.58392  1.0000
  H   H534      1.0  0.04813  0.06880  0.50226  1.0000
  H   H535      1.0  0.26222  0.08135  0.64690  1.0000
  H   H536      1.0  0.10437  0.12499  0.49729  1.0000
  H   H537      1.0  0.12569  0.10541  0.49885  1.0000
  H   H538      1.0  0.28115  0.03345  0.64923  1.0000
  H   H539      1.0  0.08596  0.05313  0.50326  1.0000
  H   H540      1.0  0.26210  0.07954  0.50194  1.0000
  C   C313      1.0  0.99134  0.09805  0.59194  1.0000
  H   H541      1.0  0.05523  0.10217  0.49755  1.0000
  N   N15       1.0  0.11529  0.08907  0.63116  1.0000
  H   H542      1.0  0.10180  0.08209  0.51774  1.0000
  H   H543      1.0  0.07539  0.09652  0.51633  1.0000
  H   H544      1.0  0.23616  0.22781  0.58841  1.0000
  C   C314      1.0  0.27820  0.07221  0.64545  1.0000
  H   H545      1.0  0.26072  0.04617  0.62355  1.0000
  H   H546      1.0  0.11193  0.06258  0.49164  1.0000
  H   H547      1.0  0.98558  0.07677  0.59089  1.0000
  C   C315      1.0  0.27246  0.01557  0.55379  1.0000
  H   H548      1.0  0.13870  0.12868  0.63528  1.0000
  H   H549      1.0  0.20701  0.32069  0.54774  1.0000
  C   C316      1.0  0.25600  0.11631  0.54417  1.0000
  H   H550      1.0  0.26861  0.08303  0.54609  1.0000
  H   H551      1.0  0.09353  0.04768  0.63084  1.0000
  H   H552      1.0  0.11040  0.11786  0.53177  1.0000
  H   H553      1.0  0.13649  0.12694  0.51961  1.0000
  H   H554      1.0  0.10896  0.14021  0.51893  1.0000
  N   N16       1.0  0.04641  0.15943  0.57557  1.0000
  C   C317      1.0  0.04767  0.18738  0.57596  1.0000
  C   C318      1.0  0.04224  0.15146  0.56214  1.0000
  C   C319      1.0  0.02133  0.14272  0.58311  1.0000
  C   C320      1.0  0.07139  0.15476  0.58111  1.0000
  C   C321      1.0  0.09923  0.17753  0.57977  1.0000
  C   C322      1.0  0.04596  0.19700  0.58926  1.0000
  H   H555      1.0  0.09579  0.11738  0.62604  1.0000
  C   C323      1.0  0.06435  0.16733  0.55232  1.0000
  C   C324      1.0  0.05596  0.15867  0.53906  1.0000
  C   C325      1.0  0.12311  0.16854  0.58376  1.0000
  C   C326      1.0  0.05341  0.22656  0.58897  1.0000
  S   S82       1.0  0.18176  0.01574  0.61166  1.0000
  H   H556      1.0  0.03049  0.19035  0.57051  1.0000
  H   H557      1.0  0.06649  0.20092  0.57123  1.0000
  H   H558      1.0  0.04135  0.13096  0.56148  1.0000
  H   H559      1.0  0.02205  0.15219  0.55881  1.0000
  C   C327      1.0  0.04587  0.09216  0.61804  1.0000
  H   H560      1.0  0.01991  0.24864  0.62371  1.0000
  H   H561      1.0  0.06837  0.14978  0.59141  1.0000
  H   H562      1.0  0.07411  0.13735  0.57710  1.0000
  H   H563      1.0  0.09931  0.19334  0.58591  1.0000
  H   H564      1.0  0.10348  0.18612  0.57006  1.0000
  H   H565      1.0  0.02466  0.18833  0.59302  1.0000
  H   H566      1.0  0.05975  0.19129  0.59585  1.0000
  H   H567      1.0  0.07613  0.07641  0.61200  1.0000
  H   H568      1.0  0.29220  0.02782  0.63054  1.0000
  H   H569      1.0  0.06765  0.18845  0.55225  1.0000
  H   H570      1.0  0.08391  0.16391  0.55421  1.0000
  H   H571      1.0  0.03667  0.16217  0.53643  1.0000
  H   H572      1.0  0.07226  0.17002  0.53220  1.0000
  H   H573      1.0  0.05295  0.13767  0.53837  1.0000
  H   H574      1.0  0.11991  0.15980  0.59351  1.0000
  H   H575      1.0  0.12539  0.15397  0.57737  1.0000
  H   H576      1.0  0.14249  0.18546  0.58348  1.0000
  H   H577      1.0  0.03949  0.23287  0.58265  1.0000
  H   H578      1.0  0.05119  0.23262  0.59858  1.0000
  H   H579      1.0  0.07499  0.23635  0.58572  1.0000
  H   H580      1.0  0.28086  0.11509  0.63036  1.0000
  H   H581      1.0  0.12934  0.15972  0.55372  1.0000
  C   C328      1.0  0.20162  0.05590  0.64319  1.0000
  H   H582      1.0  0.15488  0.13195  0.59235  1.0000
  H   H583      1.0  0.05053  0.03134  0.48899  1.0000
  H   H584      1.0  0.18873  0.25289  0.53802  1.0000
  C   C329      1.0  0.01360  0.11284  0.58226  1.0000
  H   H585      1.0  0.25209  0.26063  0.54699  1.0000
  H   H586      1.0  0.25736  0.05536  0.52254  1.0000
  H   H587      1.0  0.27732  0.13037  0.54370  1.0000
  C   C330      1.0  0.09004  0.09670  0.62958  1.0000
  N   N17       1.0  0.21021  0.23470  0.55083  1.0000
  C   C331      1.0  0.24191  0.06482  0.49995  1.0000
  H   H588      1.0  0.34088  0.03447  0.63670  1.0000
  Fe  Fe41      1.0  0.02041  0.14837  0.49124  1.0000
  C   C332      1.0  0.19563  0.30023  0.54554  1.0000
  H   H589      1.0  0.00521  0.10687  0.57287  1.0000
  C   C333      1.0  0.21117  0.28257  0.55059  1.0000
  C   C334      1.0  0.24131  0.24990  0.57038  1.0000
  C   C335      1.0  0.24008  0.24815  0.58474  1.0000
  H   H590      1.0  0.17483  0.29432  0.54993  1.0000
  H   H591      1.0  0.24724  0.22731  0.54601  1.0000
  H   H592      1.0  0.23180  0.28972  0.54607  1.0000
  H   H593      1.0  0.21311  0.28481  0.56086  1.0000
  H   H594      1.0  0.25886  0.24403  0.56744  1.0000
  H   H595      1.0  0.24584  0.27052  0.56721  1.0000
  H   H596      1.0  0.25998  0.26057  0.58846  1.0000
  H   H597      1.0  0.27802  0.27318  0.52693  1.0000
  C   C336      1.0  0.13336  0.11384  0.60972  1.0000
  N   N18       1.0  0.22201  0.04379  0.53523  1.0000
  Fe  Fe42      1.0  0.98854  0.16442  0.51147  1.0000
  H   H598      1.0  0.31471  0.16164  0.63493  1.0000
  C   C337      1.0  0.19543  0.25381  0.54799  1.0000
  C   C338      1.0  0.12055  0.02470  0.64704  1.0000
  C   C339      1.0  0.23733  0.24220  0.54382  1.0000
  C   C340      1.0  0.27543  0.07756  0.60905  1.0000
  H   H599      1.0  0.17528  0.04182  0.55102  1.0000
  H   H600      1.0  0.17609  0.24830  0.55362  1.0000
  H   H601      1.0  0.18764  0.01133  0.52940  1.0000
  H   H602      1.0  0.22076  0.00680  0.54418  1.0000
  N   N19       1.0  0.29007  0.07916  0.63229  1.0000
  H   H603      1.0  0.22701  0.26066  0.52650  1.0000
  C   C341      1.0  0.33129  0.15312  0.63605  1.0000
  H   H604      1.0  0.26371  0.25641  0.51308  1.0000
  H   H605      1.0  0.02400  0.14662  0.59327  1.0000
  H   H606      1.0  0.16876  0.19118  0.56386  1.0000
  C   C342      1.0  0.04726  0.25733  0.63965  1.0000
  H   H607      1.0  0.27766  0.04901  0.54127  1.0000
  H   H608      1.0  0.34553  0.16380  0.64328  1.0000
  C   C343      1.0  0.13530  0.10853  0.63916  1.0000
  H   H609      1.0  0.24820  0.03290  0.64328  1.0000
  S   S83       1.0  0.00441  0.13107  0.51044  1.0000
  S   S84       1.0  0.99353  0.18686  0.52948  1.0000
  H   H610      1.0  0.19165  0.01587  0.63841  1.0000
  H   H611      1.0  0.21294  0.07983  0.53457  1.0000
  H   H612      1.0  0.18662  0.21038  0.53647  1.0000
  H   H613      1.0  0.19670  0.23330  0.57020  1.0000
  H   H614      1.0  0.05440  0.26966  0.61989  1.0000
  C   C344      1.0  0.21437  0.23160  0.56482  1.0000
  H   H615      1.0  0.08298  0.00827  0.49691  1.0000
  H   H616      1.0  0.22362  0.25495  0.58822  1.0000
  H   H617      1.0  0.26462  0.01835  0.53412  1.0000
  H   H618      1.0  0.24933  0.07256  0.62533  1.0000
  H   H619      1.0  0.22081  0.07673  0.51441  1.0000
  C   C345      1.0  0.17475  0.02362  0.54671  1.0000
  H   H620      1.0  0.23219  0.02514  0.51955  1.0000
  H   H621      1.0  0.14469  0.17131  0.53844  1.0000
  C   C346      1.0  0.26786  0.06778  0.62296  1.0000
  H   H622      1.0  0.15586  0.10621  0.63891  1.0000
  C   C347      1.0  0.19152  0.02988  0.53415  1.0000
  H   H623      1.0  0.26210  0.06751  0.59011  1.0000
  C   C348      1.0  0.06757  0.07958  0.62104  1.0000
  H   H624      1.0  0.03661  0.09594  0.62681  1.0000
  C   C349      1.0  0.23623  0.24565  0.52933  1.0000
  H   H625      1.0  0.04108  0.27427  0.64164  1.0000
  C   C350      1.0  0.23304  0.02790  0.54450  1.0000
  C   C351      1.0  0.26310  0.02889  0.54258  1.0000
  H   H626      1.0  0.17270  0.11502  0.60191  1.0000
  C   C352      1.0  0.14468  0.00777  0.54459  1.0000
  H   H627      1.0  0.24839  0.11428  0.55403  1.0000
  H   H628      1.0  0.30406  0.04307  0.61549  1.0000
  C   C353      1.0  0.15210  0.11430  0.59859  1.0000
  H   H629      1.0  0.23065  0.03302  0.55430  1.0000
  H   H630      1.0  0.18216  0.04166  0.52809  1.0000
  C   C354      1.0  0.26540  0.04295  0.64942  1.0000
  H   H631      1.0  0.20404  0.19485  0.54667  1.0000
  H   H632      1.0  0.21850  0.06867  0.54981  1.0000
  C   C355      1.0  0.22594  0.07042  0.53991  1.0000
  H   H633      1.0  0.26453  0.09369  0.53002  1.0000
  C   C356      1.0  0.25554  0.09007  0.53966  1.0000
  S   S85       1.0  0.21668  0.10679  0.64915  1.0000
  S   S86       1.0  0.30529  0.22733  0.64729  1.0000
  H   H634      1.0  0.20307  0.04484  0.50888  1.0000
  C   C357      1.0  0.25669  0.05934  0.59989  1.0000
  H   H635      1.0  0.24308  0.12447  0.53811  1.0000
  H   H636      1.0  0.29695  0.07958  0.60673  1.0000
  H   H637      1.0  0.23225  0.07300  0.49225  1.0000
  C   C358      1.0  0.09004  0.06023  0.49326  1.0000
  C   C359      1.0  0.19236  0.20859  0.54643  1.0000
  C   C360      1.0  0.10800  0.19489  0.64321  1.0000
  H   H638      1.0  0.25869  0.99503  0.55529  1.0000
  H   H639      1.0  0.33412  0.98984  0.64826  1.0000
  C   C361      1.0  0.31469  0.07054  0.63067  1.0000
  N   N20       1.0  0.08551  0.08597  0.49114  1.0000
  H   H640      1.0  0.14208  0.05045  0.63181  1.0000
  H   H641      1.0  0.33660  0.11675  0.64167  1.0000
  C   C362      1.0  0.15746  0.03015  0.48694  1.0000
  H   H642      1.0  0.05705  0.06026  0.62589  1.0000
  H   H643      1.0  0.14590  0.06484  0.64679  1.0000
  H   H644      1.0  0.00982  0.22552  0.64481  1.0000
  S   S87       1.0  0.20901  0.98844  0.49460  1.0000
  C   C363      1.0  0.98581  0.19463  0.55432  1.0000
  H   H645      1.0  0.13364  0.00213  0.55377  1.0000
  H   H646      1.0  0.05508  0.11088  0.61246  1.0000
  C   C364      1.0  0.00567  0.06919  0.48871  1.0000
  H   H647      1.0  0.18087  0.09493  0.49210  1.0000
  C   C365      1.0  0.98219  0.17603  0.54522  1.0000
  H   H648      1.0  0.00014  0.05090  0.49474  1.0000
  C   C366      1.0  0.13804  0.18467  0.49098  1.0000
  H   H649      1.0  0.10630  0.01061  0.64089  1.0000
  H   H650      1.0  0.09434  0.06023  0.64583  1.0000
  H   H651      1.0  0.04057  0.21805  0.64559  1.0000
  H   H652      1.0  0.13817  0.01799  0.64913  1.0000
  S   S88       1.0  0.23834  0.98420  0.61047  1.0000
  H   H653      1.0  0.41611  0.23198  0.66973  1.0000
  H   H654      1.0  0.33953  0.05240  0.73448  1.0000
  S   S89       1.0  0.42089  0.01561  0.79834  1.0000
  Fe  Fe43      1.0  0.37519  0.03426  0.69988  1.0000
  S   S90       1.0  0.41542  0.05421  0.68958  1.0000
  S   S91       1.0  0.33144  0.01535  0.69222  1.0000
  Fe  Fe44      1.0  0.40101  0.05425  0.72557  1.0000
  S   S92       1.0  0.44238  0.07606  0.71696  1.0000
  S   S93       1.0  0.39173  0.06036  0.74580  1.0000
  Fe  Fe45      1.0  0.41939  0.08819  0.70138  1.0000
  S   S94       1.0  0.43235  0.12940  0.69300  1.0000
  Fe  Fe46      1.0  0.43547  0.04040  0.70608  1.0000
  S   S95       1.0  0.37844  0.06946  0.71074  1.0000
  S   S96       1.0  0.39487  0.01746  0.71565  1.0000
  Fe  Fe47      1.0  0.41775  0.29051  0.73988  1.0000
  H   H655      1.0  0.47370  0.36234  0.77781  1.0000
  S   S97       1.0  0.40283  0.29862  0.75885  1.0000
  Fe  Fe48      1.0  0.40011  0.27478  0.71239  1.0000
  S   S98       1.0  0.44117  0.27073  0.70820  1.0000
  S   S99       1.0  0.35978  0.25827  0.70127  1.0000
  Fe  Fe49      1.0  0.43683  0.25056  0.72737  1.0000
  S   S100      1.0  0.44048  0.21185  0.73360  1.0000
  H   H656      1.0  0.99439  0.48210  0.65888  1.0000
  C   C367      1.0  0.31491  0.31813  0.68290  1.0000
  S   S101      1.0  0.39542  0.25286  0.73120  1.0000
  S   S102      1.0  0.41913  0.31365  0.72151  1.0000
  C   C368      1.0  0.43419  0.15239  0.70419  1.0000
  C   C369      1.0  0.44759  0.17896  0.70114  1.0000
  C   C370      1.0  0.44906  0.19752  0.71001  1.0000
  C   C371      1.0  0.43722  0.18947  0.72196  1.0000
  C   C372      1.0  0.42353  0.16295  0.72492  1.0000
  C   C373      1.0  0.42204  0.14442  0.71607  1.0000
  S   S103      1.0  0.45894  0.28678  0.73725  1.0000
  H   H657      1.0  0.24175  0.01860  0.66506  1.0000
  C   C374      1.0  0.34177  0.29497  0.73578  1.0000
  H   H658      1.0  0.41151  0.12399  0.71846  1.0000
  H   H659      1.0  0.31379  0.04724  0.71433  1.0000
  H   H660      1.0  0.44091  0.23653  0.68208  1.0000
  C   C375      1.0  0.31819  0.00383  0.72666  1.0000
  H   H661      1.0  0.47811  0.04561  0.73602  1.0000
  H   H662      1.0  0.28251  0.15518  0.65953  1.0000
  S   S104      1.0  0.44738  0.08347  0.81095  1.0000
  C   C376      1.0  0.31996  0.23533  0.66246  1.0000
  C   C377      1.0  0.34806  0.25017  0.66322  1.0000
  C   C378      1.0  0.36061  0.25738  0.67491  1.0000
  C   C379      1.0  0.34527  0.24978  0.68612  1.0000
  C   C380      1.0  0.31718  0.23493  0.68538  1.0000
  C   C381      1.0  0.30462  0.22773  0.67368  1.0000
  H   H663      1.0  0.38212  0.26901  0.67520  1.0000
  H   H664      1.0  0.30494  0.22897  0.69393  1.0000
  C   C382      1.0  0.33357  0.00165  0.66727  1.0000
  C   C383      1.0  0.46111  0.23153  0.80723  1.0000
  H   H665      1.0  0.30606  0.09067  0.72953  1.0000
  H   H666      1.0  0.42126  0.33033  0.67829  1.0000
  H   H667      1.0  0.35559  0.00753  0.66825  1.0000
  H   H668      1.0  0.27168  0.04471  0.66963  1.0000
  H   H669      1.0  0.40522  0.15824  0.80910  1.0000
  C   C384      1.0  0.47652  0.12601  0.76397  1.0000
  C   C385      1.0  0.41527  0.02954  0.78359  1.0000
  C   C386      1.0  0.40785  0.05191  0.78277  1.0000
  C   C387      1.0  0.40144  0.06141  0.77107  1.0000
  C   C388      1.0  0.40287  0.04901  0.76000  1.0000
  C   C389      1.0  0.41129  0.02721  0.76070  1.0000
  C   C390      1.0  0.41718  0.01737  0.77248  1.0000
  H   H670      1.0  0.40586  0.06125  0.79123  1.0000
  H   H671      1.0  0.39469  0.07812  0.77065  1.0000
  H   H672      1.0  0.41226  0.01735  0.75227  1.0000
  H   H673      1.0  0.44738  0.14489  0.74663  1.0000
  C   C391      1.0  0.45037  0.30095  0.79574  1.0000
  C   C392      1.0  0.42281  0.29926  0.79598  1.0000
  C   C393      1.0  0.40839  0.29816  0.78464  1.0000
  C   C394      1.0  0.42121  0.29847  0.77298  1.0000
  C   C395      1.0  0.44857  0.29949  0.77280  1.0000
  C   C396      1.0  0.46306  0.30092  0.78410  1.0000
  H   H674      1.0  0.41286  0.29965  0.80484  1.0000
  H   H675      1.0  0.38726  0.29743  0.78490  1.0000
  H   H676      1.0  0.45879  0.29985  0.76394  1.0000
  N   N21       1.0  0.35572  0.16797  0.68821  1.0000
  C   C397      1.0  0.32600  0.16391  0.68543  1.0000
  C   C398      1.0  0.35894  0.16609  0.70227  1.0000
  C   C399      1.0  0.37284  0.19440  0.68263  1.0000
  C   C400      1.0  0.36510  0.14757  0.68255  1.0000
  C   C401      1.0  0.34705  0.11880  0.68580  1.0000
  C   C402      1.0  0.31825  0.16233  0.67134  1.0000
  C   C403      1.0  0.40380  0.20334  0.68559  1.0000
  C   C404      1.0  0.35439  0.18810  0.70965  1.0000
  C   C405      1.0  0.35696  0.18333  0.72378  1.0000
  C   C406      1.0  0.35747  0.09995  0.67898  1.0000
  C   C407      1.0  0.28728  0.15501  0.66970  1.0000
  C   C408      1.0  0.41868  0.23089  0.68007  1.0000
  H   H677      1.0  0.32015  0.18024  0.68884  1.0000
  H   H678      1.0  0.31225  0.14623  0.69073  1.0000
  H   H679      1.0  0.34425  0.14743  0.70633  1.0000
  H   H680      1.0  0.37960  0.16531  0.70468  1.0000
  H   H681      1.0  0.36466  0.20952  0.68565  1.0000
  H   H682      1.0  0.37147  0.19501  0.67221  1.0000
  H   H683      1.0  0.36723  0.15078  0.67216  1.0000
  H   H684      1.0  0.38613  0.14941  0.68576  1.0000
  H   H685      1.0  0.32546  0.11490  0.68302  1.0000
  H   H686      1.0  0.34749  0.11403  0.69603  1.0000
  H   H687      1.0  0.47180  0.01174  0.74011  1.0000
  H   H688      1.0  0.32467  0.14753  0.66681  1.0000
  H   H689      1.0  0.41355  0.19026  0.68154  1.0000
  H   H690      1.0  0.40710  0.20363  0.69585  1.0000
  H   H691      1.0  0.36984  0.20732  0.70689  1.0000
  H   H692      1.0  0.33370  0.18928  0.70802  1.0000
  H   H693      1.0  0.37812  0.18404  0.72605  1.0000
  H   H694      1.0  0.35255  0.19873  0.72886  1.0000
  H   H695      1.0  0.34216  0.16415  0.72714  1.0000
  H   H696      1.0  0.35668  0.10326  0.66864  1.0000
  H   H697      1.0  0.37889  0.10237  0.68165  1.0000
  H   H698      1.0  0.34447  0.07955  0.68161  1.0000
  C   C409      1.0  0.40378  0.23545  0.80776  1.0000
  H   H699      1.0  0.41061  0.24493  0.68441  1.0000
  H   H700      1.0  0.27633  0.13519  0.67395  1.0000
  H   H701      1.0  0.46945  0.03344  0.75203  1.0000
  C   C410      1.0  0.07721  0.27330  0.66722  1.0000
  H   H702      1.0  0.01128  0.16581  0.68414  1.0000
  N   N22       1.0  0.43760  0.21304  0.80031  1.0000
  H   H703      1.0  0.30482  0.03038  0.76268  1.0000
  S   S105      1.0  0.46892  0.02237  0.70406  1.0000
  C   C411      1.0  0.43785  0.22448  0.78709  1.0000
  C   C412      1.0  0.41428  0.20947  0.77854  1.0000
  H   H704      1.0  0.02429  0.18157  0.65620  1.0000
  H   H705      1.0  0.07320  0.23463  0.66139  1.0000
  C   C413      1.0  0.31671  0.04406  0.73498  1.0000
  C   C414      1.0  0.41455  0.22521  0.76621  1.0000
  H   H706      1.0  0.45241  0.09147  0.75379  1.0000
  H   H707      1.0  0.31606  0.99663  0.77579  1.0000
  H   H708      1.0  0.32152  0.39579  0.71198  1.0000
  H   H709      1.0  0.43825  0.24496  0.78724  1.0000
  H   H710      1.0  0.45702  0.22582  0.78202  1.0000
  H   H711      1.0  0.39389  0.20519  0.78307  1.0000
  H   H712      1.0  0.41698  0.19100  0.77606  1.0000
  H   H713      1.0  0.40006  0.24219  0.79815  1.0000
  C   C415      1.0  0.42388  0.13826  0.79721  1.0000
  H   H714      1.0  0.40157  0.16402  0.79261  1.0000
  H   H715      1.0  0.35165  0.01058  0.77081  1.0000
  C   C416      1.0  0.29983  0.29441  0.67548  1.0000
  H   H716      1.0  0.06094  0.23574  0.67676  1.0000
  H   H717      1.0  0.41035  0.24336  0.76799  1.0000
  H   H718      1.0  0.43469  0.23035  0.76124  1.0000
  H   H719      1.0  0.39843  0.21355  0.75992  1.0000
  C   C417      1.0  0.33390  0.37417  0.69789  1.0000
  H   H720      1.0  0.30035  0.32863  0.68452  1.0000
  H   H721      1.0  0.28303  0.04593  0.72266  1.0000
  H   H722      1.0  0.30550  0.30030  0.70139  1.0000
  H   H723      1.0  0.11851  0.29936  0.67050  1.0000
  H   H724      1.0  0.01431  0.21084  0.67853  1.0000
  C   C418      1.0  0.43894  0.12341  0.74838  1.0000
  H   H725      1.0  0.15279  0.14828  0.65586  1.0000
  H   H726      1.0  0.11716  0.27076  0.66247  1.0000
  C   C419      1.0  0.12695  0.10814  0.65316  1.0000
  C   C420      1.0  0.37063  0.34491  0.69504  1.0000
  H   H727      1.0  0.99295  0.23967  0.68207  1.0000
  C   C421      1.0  0.32452  0.30984  0.69568  1.0000
  H   H728      1.0  0.30733  0.08958  0.71267  1.0000
  H   H729      1.0  0.32509  0.28529  0.74277  1.0000
  C   C422      1.0  0.02608  0.18682  0.66613  1.0000
  H   H730      1.0  0.45618  0.18699  0.79247  1.0000
  H   H731      1.0  0.30644  0.00500  0.71802  1.0000
  H   H732      1.0  0.42277  0.99998  0.77301  1.0000
  C   C423      1.0  0.01533  0.20968  0.66817  1.0000
  H   H733      1.0  0.22567  0.00911  0.73644  1.0000
  H   H734      1.0  0.36021  0.25633  0.65465  1.0000
  H   H735      1.0  0.47443  0.07682  0.76794  1.0000
  C   C424      1.0  0.33008  0.30515  0.72425  1.0000
  H   H736      1.0  0.46007  0.25150  0.80658  1.0000
  H   H737      1.0  0.41393  0.15676  0.73408  1.0000
  H   H738      1.0  0.31432  0.28813  0.72035  1.0000
  H   H739      1.0  0.31828  0.40634  0.69593  1.0000
  C   C425      1.0  0.41149  0.21042  0.80742  1.0000
  C   C426      1.0  0.41618  0.16216  0.79986  1.0000
  C   C427      1.0  0.10744  0.27813  0.67001  1.0000
  H   H740      1.0  0.14303  0.12796  0.67011  1.0000
  C   C428      1.0  0.31476  0.08329  0.72164  1.0000
  C   C429      1.0  0.14932  0.12842  0.66013  1.0000
  C   C430      1.0  0.32111  0.00864  0.74940  1.0000
  H   H741      1.0  0.36670  0.35653  0.68691  1.0000
  H   H742      1.0  0.12389  0.08893  0.65805  1.0000
  H   H743      1.0  0.38571  0.35931  0.70084  1.0000
  H   H744      1.0  0.47655  0.03795  0.78206  1.0000
  H   H745      1.0  0.35123  0.28048  0.73310  1.0000
  H   H746      1.0  0.47809  0.39007  0.78714  1.0000
  N   N23       1.0  0.34476  0.33112  0.70271  1.0000
  Fe  Fe50      1.0  0.45995  0.30806  0.71848  1.0000
  H   H747      1.0  0.33989  0.04580  0.75830  1.0000
  H   H748      1.0  0.36981  0.33367  0.71921  1.0000
  H   H749      1.0  0.35541  0.38789  0.69753  1.0000
  H   H750      1.0  0.29378  0.37646  0.70248  1.0000
  H   H751      1.0  0.10781  0.11278  0.65404  1.0000
  S   S106      1.0  0.47086  0.30621  0.80939  1.0000
  H   H752      1.0  0.31421  0.28442  0.67271  1.0000
  H   H753      1.0  0.98751  0.28235  0.67519  1.0000
  C   C431      1.0  0.30576  0.05354  0.72277  1.0000
  H   H754      1.0  0.39159  0.31562  0.69689  1.0000
  H   H755      1.0  0.10956  0.26833  0.67916  1.0000
  C   C432      1.0  0.41131  0.34348  0.68217  1.0000
  H   H756      1.0  0.42610  0.35679  0.68844  1.0000
  H   H757      1.0  0.27957  0.16923  0.67411  1.0000
  H   H758      1.0  0.26785  0.03385  0.74752  1.0000
  C   C433      1.0  0.01765  0.25496  0.66489  1.0000
  C   C434      1.0  0.28866  0.99557  0.67586  1.0000
  H   H759      1.0  0.42005  0.25143  0.81205  1.0000
  H   H760      1.0  0.31082  0.05372  0.74282  1.0000
  H   H761      1.0  0.34116  0.35898  0.71583  1.0000
  H   H762      1.0  0.40541  0.12045  0.79830  1.0000
  H   H763      1.0  0.99999  0.46847  0.67398  1.0000
  H   H764      1.0  0.36003  0.21533  0.81136  1.0000
  H   H765      1.0  0.28259  0.28043  0.68112  1.0000
  H   H766      1.0  0.04788  0.19180  0.66883  1.0000
  H   H767      1.0  0.30959  0.34007  0.70934  1.0000
  C   C435      1.0  0.31734  0.00362  0.67740  1.0000
  H   H768      1.0  0.37173  0.31374  0.68290  1.0000
  H   H769      1.0  0.35751  0.31116  0.74031  1.0000
  C   C436      1.0  0.27641  0.98581  0.66443  1.0000
  H   H770      1.0  0.43945  0.13611  0.80395  1.0000
  H   H771      1.0  0.40636  0.35504  0.67422  1.0000
  H   H772      1.0  0.33286  0.29396  0.69420  1.0000
  C   C437      1.0  0.38528  0.32725  0.68948  1.0000
  H   H773      1.0  0.46224  0.35735  0.79394  1.0000
  H   H774      1.0  0.28297  0.21657  0.67333  1.0000
  H   H775      1.0  0.32790  0.36854  0.68822  1.0000
  C   C438      1.0  0.47848  0.36987  0.78732  1.0000
  H   H776      1.0  0.02284  0.29883  0.67933  1.0000
  C   C439      1.0  0.35310  0.31881  0.71435  1.0000
  C   C440      1.0  0.33171  0.35033  0.70696  1.0000
  H   H777      1.0  0.02860  0.25633  0.68501  1.0000
  C   C441      1.0  0.44203  0.18701  0.80032  1.0000
  H   H778      1.0  0.42279  0.11843  0.75585  1.0000
  C   C442      1.0  0.33250  0.01488  0.77249  1.0000
  H   H779      1.0  0.31993  0.31864  0.72751  1.0000
  H   H780      1.0  0.36172  0.30371  0.71187  1.0000
  H   H781      1.0  0.42938  0.11461  0.73962  1.0000
  C   C443      1.0  0.31572  0.38903  0.70239  1.0000
  H   H782      1.0  0.99776  0.24995  0.65993  1.0000
  H   H783      1.0  0.07625  0.28409  0.65827  1.0000
  H   H784      1.0  0.33224  0.33069  0.67690  1.0000
  C   C444      1.0  0.32127  0.99159  0.65590  1.0000
  C   C445      1.0  0.06089  0.24369  0.66692  1.0000
  H   H785      1.0  0.16891  0.12430  0.65983  1.0000
  H   H786      1.0  0.31019  0.98816  0.75290  1.0000
  H   H787      1.0  0.29144  0.30066  0.66677  1.0000
  H   H788      1.0  0.24141  0.05141  0.66450  1.0000
  H   H789      1.0  0.26475  0.00509  0.75752  1.0000
  H   H790      1.0  0.20361  0.05168  0.65308  1.0000
  H   H791      1.0  0.45710  0.18517  0.69196  1.0000
  H   H792      1.0  0.98736  0.15630  0.67138  1.0000
  C   C446      1.0  0.32389  0.02660  0.76054  1.0000
  H   H793      1.0  0.39345  0.19564  0.80347  1.0000
  H   H794      1.0  0.33990  0.01570  0.72426  1.0000
  H   H795      1.0  0.99796  0.28073  0.69122  1.0000
  H   H796      1.0  0.33750  0.09203  0.72168  1.0000
  C   C447      1.0  0.25439  0.03930  0.66296  1.0000
  C   C448      1.0  0.00936  0.16234  0.67395  1.0000
  N   N24       1.0  0.03195  0.23589  0.66205  1.0000
  H   H797      1.0  0.46015  0.12225  0.77132  1.0000
  H   H798      1.0  0.10989  0.02504  0.65602  1.0000
  C   C449      1.0  0.01120  0.25659  0.67898  1.0000
  H   H799      1.0  0.45966  0.22560  0.81745  1.0000
  H   H800      1.0  0.45980  0.21798  0.70770  1.0000
  H   H801      1.0  0.02940  0.27488  0.66109  1.0000
  H   H802      1.0  0.26812  0.00379  0.72881  1.0000
  H   H803      1.0  0.34263  0.00982  0.74730  1.0000
  H   H804      1.0  0.33642  0.02893  0.78003  1.0000
  H   H805      1.0  0.43200  0.13988  0.78747  1.0000
  H   H806      1.0  0.45248  0.18372  0.80908  1.0000
  N   N25       1.0  0.30790  0.01493  0.73754  1.0000
  C   C450      1.0  0.27707  0.00233  0.73821  1.0000
  C   C451      1.0  0.46176  0.11284  0.75212  1.0000
  H   H807      1.0  0.06888  0.28201  0.67471  1.0000
  H   H808      1.0  0.47009  0.37464  0.75397  1.0000
  H   H809      1.0  0.01702  0.14616  0.67210  1.0000
  C   C452      1.0  0.26147  0.01233  0.74795  1.0000
  C   C453      1.0  0.00454  0.28119  0.68127  1.0000
  H   H810      1.0  0.32812  0.18145  0.66620  1.0000
  H   H811      1.0  0.47227  0.08995  0.78242  1.0000
  H   H812      1.0  0.41274  0.20314  0.81730  1.0000
  C   C454      1.0  0.23055  0.00190  0.74577  1.0000
  H   H813      1.0  0.21975  0.00870  0.75310  1.0000
  Fe  Fe51      1.0  0.43210  0.04063  0.81532  1.0000
  H   H814      1.0  0.27577  0.99685  0.68359  1.0000
  H   H815      1.0  0.99374  0.20375  0.66492  1.0000
  H   H816      1.0  0.37264  0.24873  0.81568  1.0000
  C   C455      1.0  0.37755  0.23047  0.81552  1.0000
  H   H817      1.0  0.47595  0.11671  0.74390  1.0000
  S   S107      1.0  0.22719  0.18018  0.65251  1.0000
  H   H818      1.0  0.29427  0.08022  0.65251  1.0000
  H   H819      1.0  0.47587  0.35618  0.96775  1.0000
  S   S108      1.0  0.43022  0.31729  0.95381  1.0000
  Fe  Fe52      1.0  0.45608  0.25805  0.95791  1.0000
  S   S109      1.0  0.41274  0.25534  0.96218  1.0000
  H   H820      1.0  0.46017  0.40555  0.96371  1.0000
  Fe  Fe53      1.0  0.41674  0.27964  0.94396  1.0000
  S   S110      1.0  0.38531  0.27000  0.92840  1.0000
  Fe  Fe54      1.0  0.43076  0.29366  0.97163  1.0000
  S   S111      1.0  0.45903  0.28091  0.93948  1.0000
  S   S112      1.0  0.47443  0.29459  0.96859  1.0000
  Fe  Fe55      1.0  0.45914  0.03479  0.96018  1.0000
  S   S113      1.0  0.42886  0.00293  0.94989  1.0000
  Fe  Fe56      1.0  0.42111  0.06659  0.96119  1.0000
  S   S114      1.0  0.38766  0.03578  0.95162  1.0000
  S   S115      1.0  0.41282  0.10216  0.96823  1.0000
  Fe  Fe57      1.0  0.39816  0.00588  0.96429  1.0000
  C   C456      1.0  0.27345  0.45664  0.97908  1.0000
  Fe  Fe58      1.0  0.42148  0.03557  0.93821  1.0000
  S   S116      1.0  0.41298  0.04075  0.91714  1.0000
  S   S117      1.0  0.42888  0.03680  0.97479  1.0000
  S   S118      1.0  0.45450  0.06744  0.94755  1.0000
  Fe  Fe59      1.0  0.43506  0.27431  0.85652  1.0000
  Fe  Fe60      1.0  0.46253  0.29318  0.83022  1.0000
  S   S119      1.0  0.39707  0.26426  0.86900  1.0000
  H   H821      1.0  0.46436  0.08843  0.90765  1.0000
  C   C457      1.0  0.34595  0.20482  0.95563  1.0000
  H   H822      1.0  0.43849  0.36943  0.90380  1.0000
  H   H823      1.0  0.39714  0.34202  0.98159  1.0000
  H   H824      1.0  0.99592  0.40375  0.97651  1.0000
  S   S120      1.0  0.43760  0.25377  0.83886  1.0000
  S   S121      1.0  0.45597  0.31404  0.84703  1.0000
  Fe  Fe61      1.0  0.44966  0.04731  0.84351  1.0000
  H   H825      1.0  0.40730  0.12579  0.87973  1.0000
  H   H826      1.0  0.01632  0.32846  0.98333  1.0000
  C   C458      1.0  0.44568  0.35512  0.92201  1.0000
  H   H827      1.0  0.46099  0.37379  0.92464  1.0000
  H   H828      1.0  0.26562  0.47113  0.97421  1.0000
  Fe  Fe62      1.0  0.42864  0.08599  0.82944  1.0000
  S   S122      1.0  0.40555  0.11388  0.83061  1.0000
  H   H829      1.0  0.47051  0.38801  0.88006  1.0000
  S   S123      1.0  0.40993  0.04266  0.83337  1.0000
  H   H830      1.0  0.40209  0.33460  0.92574  1.0000
  C   C459      1.0  0.43984  0.18763  0.84096  1.0000
  C   C460      1.0  0.42050  0.16392  0.83778  1.0000
  C   C461      1.0  0.42923  0.14477  0.83285  1.0000
  H   H831      1.0  0.99287  0.44715  0.92809  1.0000
  H   H832      1.0  0.39890  0.15998  0.83965  1.0000
  C   C462      1.0  0.46559  0.38894  0.96040  1.0000
  H   H833      1.0  0.01663  0.47361  0.91877  1.0000
  H   H834      1.0  0.47219  0.10851  0.88637  1.0000
  C   C463      1.0  0.41770  0.35402  0.92712  1.0000
  C   C464      1.0  0.42638  0.03736  0.90211  1.0000
  C   C465      1.0  0.44939  0.02971  0.90065  1.0000
  C   C466      1.0  0.45919  0.02770  0.88848  1.0000
  C   C467      1.0  0.44628  0.03345  0.87761  1.0000
  C   C468      1.0  0.42335  0.04112  0.87910  1.0000
  C   C469      1.0  0.41350  0.04301  0.89123  1.0000
  H   H835      1.0  0.45939  0.02502  0.90888  1.0000
  H   H836      1.0  0.44666  0.10976  0.91227  1.0000
  H   H837      1.0  0.41278  0.04496  0.87089  1.0000
  H   H838      1.0  0.39557  0.04872  0.89220  1.0000
  C   C470      1.0  0.45285  0.19012  0.95846  1.0000
  C   C471      1.0  0.43042  0.18074  0.96678  1.0000
  C   C472      1.0  0.41781  0.15370  0.96933  1.0000
  C   C473      1.0  0.42717  0.13572  0.96346  1.0000
  C   C474      1.0  0.44858  0.14507  0.95459  1.0000
  C   C475      1.0  0.46158  0.17214  0.95223  1.0000
  S   S124      1.0  0.45875  0.02983  0.86243  1.0000
  C   C476      1.0  0.44479  0.35300  0.90755  1.0000
  H   H839      1.0  0.45084  0.33888  0.92678  1.0000
  C   C477      1.0  0.42946  0.18158  0.88258  1.0000
  C   C478      1.0  0.39068  0.26838  0.91202  1.0000
  C   C479      1.0  0.36798  0.26415  0.90424  1.0000
  C   C480      1.0  0.37057  0.26290  0.89122  1.0000
  C   C481      1.0  0.39597  0.26601  0.88561  1.0000
  C   C482      1.0  0.41890  0.26984  0.89335  1.0000
  C   C483      1.0  0.41618  0.27086  0.90655  1.0000
  H   H840      1.0  0.34815  0.26200  0.90831  1.0000
  H   H841      1.0  0.35269  0.25977  0.88542  1.0000
  H   H842      1.0  0.43853  0.27179  0.88918  1.0000
  H   H843      1.0  0.43366  0.27348  0.91249  1.0000
  H   H844      1.0  0.47204  0.12434  0.86717  1.0000
  H   H845      1.0  0.34103  0.22305  0.95604  1.0000
  N   N26       1.0  0.38550  0.17926  0.93099  1.0000
  C   C484      1.0  0.39327  0.15500  0.93254  1.0000
  C   C485      1.0  0.41143  0.20273  0.92951  1.0000
  C   C486      1.0  0.37128  0.18157  0.94302  1.0000
  C   C487      1.0  0.36648  0.17875  0.92015  1.0000
  C   C488      1.0  0.36993  0.16429  0.90847  1.0000
  C   C489      1.0  0.36980  0.12953  0.93673  1.0000
  C   C490      1.0  0.36278  0.20609  0.94370  1.0000
  C   C491      1.0  0.43026  0.20392  0.91806  1.0000
  H   H846      1.0  0.45158  0.22319  0.88345  1.0000
  C   C492      1.0  0.35466  0.17090  0.89722  1.0000
  C   C493      1.0  0.37784  0.10550  0.93477  1.0000
  H   H847      1.0  0.98225  0.44760  0.88130  1.0000
  H   H848      1.0  0.40958  0.15780  0.93968  1.0000
  H   H849      1.0  0.40252  0.15123  0.92383  1.0000
  H   H850      1.0  0.40657  0.22106  0.92850  1.0000
  H   H851      1.0  0.42384  0.20435  0.93818  1.0000
  H   H852      1.0  0.38446  0.18104  0.95125  1.0000
  H   H853      1.0  0.35200  0.16471  0.94459  1.0000
  H   H854      1.0  0.34463  0.16935  0.92324  1.0000
  H   H855      1.0  0.36827  0.19906  0.91697  1.0000
  H   H856      1.0  0.36149  0.14290  0.91052  1.0000
  H   H857      1.0  0.39159  0.16919  0.90560  1.0000
  H   H858      1.0  0.36535  0.12948  0.94694  1.0000
  H   H859      1.0  0.35073  0.12765  0.93152  1.0000
  H   H860      1.0  0.35036  0.20837  0.93552  1.0000
  H   H861      1.0  0.38112  0.22376  0.94395  1.0000
  H   H862      1.0  0.43454  0.18559  0.91715  1.0000
  H   H863      1.0  0.42062  0.20854  0.90936  1.0000
  H   H864      1.0  0.43155  0.17841  0.89282  1.0000
  H   H865      1.0  0.45537  0.24443  0.91987  1.0000
  Fe  Fe63      1.0  0.47281  0.31677  0.95045  1.0000
  H   H866      1.0  0.35682  0.15979  0.88909  1.0000
  H   H867      1.0  0.33248  0.16572  0.89953  1.0000
  H   H868      1.0  0.36330  0.19204  0.89444  1.0000
  H   H869      1.0  0.36121  0.08771  0.93842  1.0000
  H   H870      1.0  0.38116  0.10357  0.92463  1.0000
  H   H871      1.0  0.39686  0.10671  0.93993  1.0000
  H   H872      1.0  0.42961  0.21440  0.86997  1.0000
  H   H873      1.0  0.26842  0.43927  0.97335  1.0000
  C   C494      1.0  0.46305  0.10820  0.90598  1.0000
  H   H874      1.0  0.44358  0.37639  0.86094  1.0000
  H   H875      1.0  0.44784  0.32851  0.88696  1.0000
  H   H876      1.0  0.43509  0.36898  0.88363  1.0000
  H   H877      1.0  0.46393  0.13552  0.82623  1.0000
  S   S125      1.0  0.47184  0.22388  0.95623  1.0000
  S   S126      1.0  0.46699  0.09083  0.84045  1.0000
  H   H878      1.0  0.43603  0.09743  0.89056  1.0000
  N   N27       1.0  0.45056  0.14711  0.87600  1.0000
  H   H879      1.0  0.47674  0.02145  0.88749  1.0000
  C   C495      1.0  0.47230  0.14470  0.86721  1.0000
  C   C496      1.0  0.47160  0.37301  0.97153  1.0000
  C   C497      1.0  0.45632  0.11216  0.89221  1.0000
  C   C498      1.0  0.43163  0.21000  0.88014  1.0000
  H   H880      1.0  0.42983  0.09332  0.87049  1.0000
  C   C499      1.0  0.46419  0.34792  0.88757  1.0000
  H   H881      1.0  0.45296  0.36527  0.97762  1.0000
  H   H882      1.0  0.46180  0.31586  0.91131  1.0000
  H   H883      1.0  0.44805  0.37645  0.95511  1.0000
  H   H884      1.0  0.98538  0.36985  0.97988  1.0000
  H   H885      1.0  0.29610  0.46548  0.97976  1.0000
  H   H886      1.0  0.45199  0.18232  0.86535  1.0000
  S   S127      1.0  0.46980  0.04071  0.82578  1.0000
  H   H887      1.0  0.41491  0.21391  0.88527  1.0000
  C   C500      1.0  0.45226  0.17533  0.87531  1.0000
  Fe  Fe64      1.0  0.47724  0.25299  0.84692  1.0000
  H   H888      1.0  0.46763  0.14957  0.85739  1.0000
  H   H889      1.0  0.42352  0.19433  0.97167  1.0000
  H   H890      1.0  0.32641  0.18810  0.95566  1.0000
  C   C501      1.0  0.42229  0.13085  0.87172  1.0000
  H   H891      1.0  0.43310  0.20166  0.84550  1.0000
  H   H892      1.0  0.43819  0.14087  0.89559  1.0000
  C   C502      1.0  0.41970  0.10536  0.86522  1.0000
  C   C503      1.0  0.38970  0.08879  0.86350  1.0000
  H   H893      1.0  0.45549  0.13144  0.94979  1.0000
  H   H894      1.0  0.35778  0.20293  0.96411  1.0000
  H   H895      1.0  0.40862  0.16939  0.87981  1.0000
  H   H896      1.0  0.41443  0.14225  0.86463  1.0000
  C   C504      1.0  0.45713  0.14990  0.83041  1.0000
  N   N28       1.0  0.47094  0.35334  0.90116  1.0000
  H   H897      1.0  0.42948  0.11022  0.85574  1.0000
  H   H898      1.0  0.37933  0.08180  0.87277  1.0000
  H   H899      1.0  0.37875  0.10015  0.85812  1.0000
  H   H900      1.0  0.38861  0.07160  0.85813  1.0000
  C   C505      1.0  0.45808  0.22535  0.91906  1.0000
  H   H901      1.0  0.41101  0.36938  0.92237  1.0000
  C   C506      1.0  0.45506  0.13978  0.88946  1.0000
  H   H902      1.0  0.42767  0.33475  0.90557  1.0000
  C   C507      1.0  0.99590  0.45850  0.91893  1.0000
  H   H903      1.0  0.41900  0.35725  0.93731  1.0000
  C   C508      1.0  0.46787  0.19211  0.83922  1.0000
  H   H904      1.0  0.43396  0.34222  0.86554  1.0000
  H   H905      1.0  0.47404  0.15412  0.89307  1.0000
  H   H906      1.0  0.47206  0.18801  0.87906  1.0000
  H   H907      1.0  0.98758  0.37229  0.95503  1.0000
  H   H908      1.0  0.40119  0.14669  0.97618  1.0000
  H   H909      1.0  0.38027  0.22412  0.82536  1.0000
  H   H910      1.0  0.98935  0.40610  0.95362  1.0000
  H   H911      1.0  0.47326  0.14370  0.97756  1.0000
  C   C509      1.0  0.47646  0.17354  0.83362  1.0000
  C   C510      1.0  0.45021  0.36155  0.86622  1.0000
  H   H912      1.0  0.99461  0.44505  0.91130  1.0000
  H   H913      1.0  0.46920  0.22131  0.92740  1.0000
  H   H914      1.0  0.47074  0.22644  0.91052  1.0000
  H   H915      1.0  0.46954  0.36126  0.86186  1.0000
  H   H916      1.0  0.98910  0.35920  0.86395  1.0000
  S   S128      1.0  0.47274  0.27007  0.86507  1.0000
  C   C511      1.0  0.45480  0.36832  0.87993  1.0000
  C   C512      1.0  0.47988  0.33214  0.90751  1.0000
  H   H917      1.0  0.99630  0.44218  0.98470  1.0000
  H   H918      1.0  0.47866  0.17924  0.94564  1.0000
  Fe  Fe65      1.0  0.08049  0.61905  0.03283  1.0000
  S   S129      1.0  0.12119  0.61200  0.03250  1.0000
  S   S130      1.0  0.05619  0.61609  0.01437  1.0000
  Fe  Fe66      1.0  0.08815  0.63444  0.06036  1.0000
  S   S131      1.0  0.12796  0.62757  0.06160  1.0000
  S   S132      1.0  0.07712  0.65251  0.07736  1.0000
  Fe  Fe67      1.0  0.13854  0.64911  0.04280  1.0000
  S   S133      1.0  0.18317  0.67694  0.04177  1.0000
  Fe  Fe68      1.0  0.10753  0.59156  0.05141  1.0000
  S   S134      1.0  0.11556  0.55635  0.06030  1.0000
  S   S135      1.0  0.09924  0.65787  0.04188  1.0000
  S   S136      1.0  0.06616  0.59663  0.05141  1.0000
  Fe  Fe69      1.0  0.32711  0.87920  0.04085  1.0000
  S   S137      1.0  0.32301  0.84407  0.03004  1.0000
  S   S138      1.0  0.34216  0.92044  0.03113  1.0000
  Fe  Fe70      1.0  0.31243  0.84620  0.06645  1.0000
  S   S139      1.0  0.30762  0.80944  0.05666  1.0000
  S   S140      1.0  0.30311  0.83380  0.08730  1.0000
  Fe  Fe71      1.0  0.34601  0.83314  0.04604  1.0000
  S   S141      1.0  0.38013  0.81678  0.04329  1.0000
  Fe  Fe72      1.0  0.28480  0.82374  0.04188  1.0000
  S   S142      1.0  0.24260  0.80046  0.03440  1.0000
  S   S143      1.0  0.35213  0.86913  0.05647  1.0000
  S   S144      1.0  0.28742  0.85971  0.05201  1.0000
  H   H919      1.0  0.25346  0.89927  0.00526  1.0000
  S   S145      1.0  0.34693  0.87383  0.14111  1.0000
  H   H920      1.0  0.11450  0.54336  0.14743  1.0000
  H   H921      1.0  0.40156  0.85792  0.00547  1.0000
  S   S146      1.0  0.07653  0.60502  0.13337  1.0000
  H   H922      1.0  0.26551  0.76393  0.11437  1.0000
  H   H923      1.0  0.31197  0.82114  0.00105  1.0000
  H   H924      1.0  0.34681  0.78768  0.06836  1.0000
  H   H925      1.0  0.27327  0.84160  0.01610  1.0000
  C   C513      1.0  0.31840  0.84601  0.10163  1.0000
  C   C514      1.0  0.31929  0.82808  0.11142  1.0000
  C   C515      1.0  0.32863  0.83642  0.12341  1.0000
  C   C516      1.0  0.33670  0.86282  0.12587  1.0000
  C   C517      1.0  0.33639  0.88087  0.11600  1.0000
  C   C518      1.0  0.32716  0.87253  0.10395  1.0000
  H   H926      1.0  0.31252  0.80753  0.10974  1.0000
  H   H927      1.0  0.32937  0.82237  0.13080  1.0000
  H   H928      1.0  0.34274  0.90137  0.11776  1.0000
  H   H929      1.0  0.32621  0.88654  0.09657  1.0000
  C   C519      1.0  0.46710  0.86496  0.05451  1.0000
  C   C520      1.0  0.44580  0.87511  0.05534  1.0000
  C   C521      1.0  0.41924  0.86063  0.05174  1.0000
  C   C522      1.0  0.41357  0.83556  0.04757  1.0000
  C   C523      1.0  0.43489  0.82523  0.04686  1.0000
  C   C524      1.0  0.46169  0.83996  0.05027  1.0000
  H   H930      1.0  0.44992  0.89428  0.05881  1.0000
  H   H931      1.0  0.40331  0.86901  0.05214  1.0000
  H   H932      1.0  0.43069  0.80585  0.04361  1.0000
  C   C525      1.0  0.26627  0.88536  0.02293  1.0000
  C   C526      1.0  0.19880  0.71142  0.03984  1.0000
  C   C527      1.0  0.18424  0.72784  0.03599  1.0000
  C   C528      1.0  0.19786  0.75504  0.03448  1.0000
  C   C529      1.0  0.22604  0.76619  0.03695  1.0000
  C   C530      1.0  0.24045  0.74979  0.04098  1.0000
  C   C531      1.0  0.22697  0.72260  0.04228  1.0000
  H   H933      1.0  0.16262  0.71955  0.03403  1.0000
  H   H934      1.0  0.18649  0.76750  0.03135  1.0000
  H   H935      1.0  0.26216  0.75797  0.04281  1.0000
  H   H936      1.0  0.23849  0.71009  0.04516  1.0000
  C   C532      1.0  0.07972  0.63946  0.09274  1.0000
  C   C533      1.0  0.07346  0.61268  0.09523  1.0000
  C   C534      1.0  0.07267  0.60252  0.10770  1.0000
  C   C535      1.0  0.07955  0.61905  0.11778  1.0000
  C   C536      1.0  0.08687  0.64595  0.11524  1.0000
  C   C537      1.0  0.08631  0.65602  0.10280  1.0000
  H   H937      1.0  0.06793  0.59968  0.08760  1.0000
  H   H938      1.0  0.06619  0.58168  0.10955  1.0000
  H   H939      1.0  0.09171  0.65886  0.12291  1.0000
  H   H940      1.0  0.09068  0.67669  0.10100  1.0000
  C   C538      1.0  0.35220  0.92733  0.99261  1.0000
  H   H941      1.0  0.00091  0.59210  0.04797  1.0000
  C   C539      1.0  0.12190  0.51018  0.05530  1.0000
  C   C540      1.0  0.11282  0.53035  0.05073  1.0000
  C   C541      1.0  0.09999  0.52850  0.03910  1.0000
  C   C542      1.0  0.09580  0.50629  0.03220  1.0000
  H   H942      1.0  0.01777  0.51538  0.13706  1.0000
  H   H943      1.0  0.09292  0.54398  0.03551  1.0000
  H   H944      1.0  0.18602  0.79797  0.01185  1.0000
  C   C543      1.0  0.46167  0.53457  0.06109  1.0000
  H   H945      1.0  0.13671  0.55446  0.09262  1.0000
  H   H946      1.0  0.45594  0.52182  0.14533  1.0000
  C   C544      1.0  0.02528  0.59522  0.00760  1.0000
  C   C545      1.0  0.00383  0.57750  0.01484  1.0000
  C   C546      1.0  0.03018  0.50675  0.07145  1.0000
  H   H947      1.0  0.00632  0.57494  0.02484  1.0000
  H   H948      1.0  0.21413  0.77809  0.08613  1.0000
  C   C547      1.0  0.34609  0.91654  0.00507  1.0000
  C   C548      1.0  0.35097  0.93276  0.01519  1.0000
  C   C549      1.0  0.36296  0.95984  0.01263  1.0000
  C   C550      1.0  0.44960  0.50843  0.06532  1.0000
  H   H949      1.0  0.33740  0.89570  0.00683  1.0000
  H   H950      1.0  0.29674  0.85863  0.00412  1.0000
  H   H951      1.0  0.32989  0.49291  0.02976  1.0000
  H   H952      1.0  0.20124  0.84009  0.99015  1.0000
  H   H953      1.0  0.04907  0.67900  0.03748  1.0000
  C   C551      1.0  0.03145  0.53020  0.14307  1.0000
  H   H954      1.0  0.38594  0.93312  0.05340  1.0000
  H   H955      1.0  0.24530  0.86406  0.14137  1.0000
  H   H956      1.0  0.22500  0.81067  0.09149  1.0000
  H   H957      1.0  0.21206  0.75878  0.14248  1.0000
  H   H958      1.0  0.25210  0.91786  0.02615  1.0000
  C   C552      1.0  0.26603  0.88709  0.00836  1.0000
  H   H959      1.0  0.03837  0.63474  0.04437  1.0000
  H   H960      1.0  0.00242  0.69743  0.02312  1.0000
  H   H961      1.0  0.09269  0.52290  0.10948  1.0000
  H   H962      1.0  0.41981  0.53571  0.03667  1.0000
  H   H963      1.0  0.38640  0.78695  0.08058  1.0000
  H   H964      1.0  0.38361  0.53926  0.13995  1.0000
  H   H965      1.0  0.47890  0.54709  0.06601  1.0000
  H   H966      1.0  0.14189  0.57211  0.11408  1.0000
  C   C553      1.0  0.44066  0.94969  0.01253  1.0000
  C   C554      1.0  0.27492  0.84641  0.00581  1.0000
  H   H967      1.0  0.01796  0.50415  0.08026  1.0000
  C   C555      1.0  0.42802  0.52815  0.04473  1.0000
  C   C556      1.0  0.43909  0.48930  0.10173  1.0000
  H   H968      1.0  0.01867  0.65072  0.05217  1.0000
  C   C557      1.0  0.99656  0.58358  0.98887  1.0000
  H   H969      1.0  0.04804  0.71669  0.02309  1.0000
  H   H970      1.0  0.09818  0.69952  0.01932  1.0000
  H   H971      1.0  0.43166  0.83190  0.07773  1.0000
  H   H972      1.0  0.29822  0.49720  0.02493  1.0000
  C   C558      1.0  0.40068  0.90793  0.09025  1.0000
  H   H973      1.0  0.43498  0.85895  0.11409  1.0000
  C   C559      1.0  0.42665  0.49200  0.05933  1.0000
  C   C560      1.0  0.42861  0.82913  0.08815  1.0000
  H   H974      1.0  0.37575  0.87303  0.08196  1.0000
  H   H975      1.0  0.39367  0.50356  0.09998  1.0000
  C   C561      1.0  0.11755  0.48791  0.04844  1.0000
  H   H976      1.0  0.23627  0.80373  0.14807  1.0000
  H   H977      1.0  0.36275  0.82952  0.08695  1.0000
  H   H978      1.0  0.44498  0.89564  0.01082  1.0000
  C   C562      1.0  0.04372  0.67563  0.02750  1.0000
  C   C563      1.0  0.39783  0.83098  0.10582  1.0000
  C   C564      1.0  0.15066  0.54558  0.13723  1.0000
  H   H979      1.0  0.10785  0.57315  0.11344  1.0000
  C   C565      1.0  0.37127  0.79401  0.08521  1.0000
  N   N29       1.0  0.25615  0.86141  0.00212  1.0000
  H   H980      1.0  0.47735  0.89780  0.02940  1.0000
  C   C566      1.0  0.41558  0.50196  0.04911  1.0000
  H   H981      1.0  0.12238  0.56765  0.13512  1.0000
  C   C567      1.0  0.00830  0.65763  0.01214  1.0000
  H   H982      1.0  0.21654  0.81549  0.99315  1.0000
  H   H983      1.0  0.05778  0.50816  0.14751  1.0000
  H   H984      1.0  0.41993  0.95699  0.05276  1.0000
  H   H985      1.0  0.46423  0.86355  0.09260  1.0000
  H   H986      1.0  0.27257  0.91056  0.03855  1.0000
  H   H987      1.0  0.16692  0.79849  0.99776  1.0000
  H   H988      1.0  0.30586  0.76668  0.12759  1.0000
  H   H989      1.0  0.43049  0.87830  0.09457  1.0000
  H   H990      1.0  0.36694  0.97269  0.02032  1.0000
  C   C568      1.0  0.00338  0.63663  0.03334  1.0000
  H   H991      1.0  0.37547  0.82691  0.10744  1.0000
  C   C569      1.0  0.40625  0.83980  0.12894  1.0000
  C   C570      1.0  0.05437  0.49638  0.07344  1.0000
  H   H992      1.0  0.45215  0.61234  0.14623  1.0000
  H   H993      1.0  0.27944  0.79691  0.12977  1.0000
  C   C571      1.0  0.45140  0.54443  0.05061  1.0000
  H   H994      1.0  0.24924  0.79353  0.09048  1.0000
  H   H995      1.0  0.42105  0.87142  0.07893  1.0000
  C   C572      1.0  0.41321  0.86691  0.08880  1.0000
  H   H996      1.0  0.18205  0.78318  0.14236  1.0000
  H   H997      1.0  0.28715  0.78954  0.99850  1.0000
  H   H998      1.0  0.13098  0.58521  0.09280  1.0000
  H   H999      1.0  0.36843  0.78645  0.09516  1.0000
  N   N30       1.0  0.18155  0.69783  0.08392  1.0000
  C   C573      1.0  0.18486  0.69842  0.09800  1.0000
  C   C574      1.0  0.20603  0.71800  0.07725  1.0000
  C   C575      1.0  0.15626  0.70471  0.08076  1.0000
  C   C576      1.0  0.17724  0.67116  0.07930  1.0000
  C   C577      1.0  0.19979  0.65923  0.08239  1.0000
  C   C578      1.0  0.16036  0.68003  0.10607  1.0000
  C   C579      1.0  0.15054  0.70756  0.06653  1.0000
  C   C580      1.0  0.23433  0.72477  0.08370  1.0000
  C   C581      1.0  0.25731  0.74269  0.07509  1.0000
  C   C582      1.0  0.19195  0.63168  0.07776  1.0000
  C   C583      1.0  0.16753  0.67982  0.11998  1.0000
  C   C584      1.0  0.12753  0.71884  0.06438  1.0000
  H   H1000     1.0  0.18848  0.71854  0.10097  1.0000
  H   H1001     1.0  0.20327  0.69372  0.10093  1.0000
  H   H1002     1.0  0.20849  0.71213  0.06759  1.0000
  H   H1003     1.0  0.20256  0.73699  0.07584  1.0000
  H   H1004     1.0  0.15748  0.72322  0.08507  1.0000
  H   H1005     1.0  0.13741  0.68953  0.08477  1.0000
  H   H1006     1.0  0.15717  0.65710  0.08274  1.0000
  H   H1007     1.0  0.17582  0.67166  0.06889  1.0000
  H   H1008     1.0  0.20312  0.65793  0.09264  1.0000
  H   H1009     1.0  0.21922  0.67091  0.07748  1.0000
  H   H1010     1.0  0.14249  0.68680  0.10529  1.0000
  H   H1011     1.0  0.15418  0.65967  0.10318  1.0000
  H   H1012     1.0  0.14412  0.68828  0.06234  1.0000
  H   H1013     1.0  0.16881  0.72066  0.06128  1.0000
  H   H1014     1.0  0.23424  0.73521  0.09234  1.0000
  H   H1015     1.0  0.23957  0.70724  0.08641  1.0000
  H   H1016     1.0  0.27704  0.74841  0.08015  1.0000
  H   H1017     1.0  0.25960  0.73252  0.06663  1.0000
  H   H1018     1.0  0.25298  0.76068  0.07207  1.0000
  H   H1019     1.0  0.17251  0.61877  0.08231  1.0000
  H   H1020     1.0  0.18945  0.63198  0.06739  1.0000
  H   H1021     1.0  0.20838  0.62345  0.08007  1.0000
  H   H1022     1.0  0.18464  0.67213  0.12155  1.0000
  H   H1023     1.0  0.17343  0.69971  0.12349  1.0000
  H   H1024     1.0  0.14942  0.66704  0.12555  1.0000
  H   H1025     1.0  0.10848  0.70654  0.06944  1.0000
  H   H1026     1.0  0.13368  0.73895  0.06765  1.0000
  H   H1027     1.0  0.12317  0.71950  0.05419  1.0000
  C   C585      1.0  0.02140  0.59799  0.99457  1.0000
  H   H1028     1.0  0.41478  0.92347  0.05792  1.0000
  H   H1029     1.0  0.07619  0.55364  0.12744  1.0000
  H   H1030     1.0  0.33735  0.76052  0.07973  1.0000
  C   C586      1.0  0.36378  0.95448  0.99001  1.0000
  H   H1031     1.0  0.42927  0.49250  0.09277  1.0000
  C   C587      1.0  0.40788  0.93630  0.05130  1.0000
  H   H1032     1.0  0.41420  0.82341  0.13058  1.0000
  H   H1033     1.0  0.17048  0.82285  0.00905  1.0000
  H   H1034     1.0  0.03771  0.61158  0.98883  1.0000
  H   H1035     1.0  0.10220  0.55566  0.09202  1.0000
  C   C588      1.0  0.26001  0.78077  0.13195  1.0000
  C   C589      1.0  0.26423  0.83557  0.13659  1.0000
  H   H1036     1.0  0.36900  0.86296  0.00664  1.0000
  N   N31       1.0  0.10087  0.52869  0.12921  1.0000
  C   C590      1.0  0.10999  0.53330  0.11557  1.0000
  C   C591      1.0  0.47809  0.93523  0.02003  1.0000
  C   C592      1.0  0.07375  0.53313  0.13027  1.0000
  C   C593      1.0  0.12133  0.54719  0.13742  1.0000
  H   H1037     1.0  0.44943  0.93334  0.99513  1.0000
  C   C594      1.0  0.12104  0.56220  0.11048  1.0000
  C   C595      1.0  0.29090  0.80775  0.00348  1.0000
  H   H1038     1.0  0.41612  0.95398  0.98862  1.0000
  C   C596      1.0  0.17110  0.56880  0.14335  1.0000
  H   H1039     1.0  0.06681  0.50757  0.08108  1.0000
  C   C597      1.0  0.12283  0.56437  0.09612  1.0000
  H   H1040     1.0  0.28769  0.73383  0.12337  1.0000
  C   C598      1.0  0.98701  0.70907  0.04506  1.0000
  C   C599      1.0  0.47849  0.83236  0.08863  1.0000
  C   C600      1.0  0.20724  0.82833  0.99769  1.0000
  C   C601      1.0  0.37489  0.55321  0.14397  1.0000
  H   H1041     1.0  0.05878  0.52133  0.12355  1.0000
  C   C602      1.0  0.22766  0.79136  0.09279  1.0000
  H   H1042     1.0  0.13204  0.51167  0.06425  1.0000
  H   H1043     1.0  0.22484  0.76173  0.10721  1.0000
  C   C603      1.0  0.09826  0.50116  0.13347  1.0000
  H   H1044     1.0  0.24336  0.74040  0.12580  1.0000
  C   C604      1.0  0.38086  0.82424  0.08424  1.0000
  H   H1045     1.0  0.45852  0.75729  0.07757  1.0000
  C   C605      1.0  0.22040  0.78011  0.10626  1.0000
  H   H1046     1.0  0.06809  0.50232  0.06502  1.0000
  H   H1047     1.0  0.38320  0.91532  0.09061  1.0000
  C   C606      1.0  0.18107  0.81090  0.00454  1.0000
  H   H1048     1.0  0.47274  0.81096  0.09035  1.0000
  H   H1049     1.0  0.44663  0.91983  0.04098  1.0000
  H   H1050     1.0  0.09188  0.71599  0.03267  1.0000
  H   H1051     1.0  0.41136  0.58616  0.14053  1.0000
  C   C607      1.0  0.43264  0.90201  0.01767  1.0000
  H   H1052     1.0  0.19795  0.77521  0.10761  1.0000
  C   C608      1.0  0.26199  0.75791  0.12451  1.0000
  C   C609      1.0  0.44117  0.93369  0.03446  1.0000
  C   C610      1.0  0.41094  0.92980  0.03774  1.0000
  H   H1053     1.0  0.03263  0.54997  0.13939  1.0000
  H   H1054     1.0  0.39806  0.90911  0.03695  1.0000
  H   H1055     1.0  0.05460  0.70013  0.00986  1.0000
  H   H1056     1.0  0.11772  0.49756  0.13149  1.0000
  H   H1057     1.0  0.46164  0.48765  0.03930  1.0000
  H   H1058     1.0  0.20659  0.75077  0.12680  1.0000
  H   H1059     1.0  0.25777  0.80921  0.11247  1.0000
  H   H1060     1.0  0.15682  0.74039  0.12382  1.0000
  C   C611      1.0  0.38011  0.48486  0.10446  1.0000
  C   C612      1.0  0.23616  0.79986  0.11593  1.0000
  C   C613      1.0  0.18314  0.77391  0.13342  1.0000
  H   H1061     1.0  0.26799  0.84323  0.12666  1.0000
  C   C614      1.0  0.28633  0.75002  0.12890  1.0000
  H   H1062     1.0  0.22742  0.83502  0.01568  1.0000
  C   C615      1.0  0.00177  0.60904  0.05350  1.0000
  N   N32       1.0  0.23572  0.78953  0.12941  1.0000
  C   C616      1.0  0.20989  0.76717  0.13299  1.0000
  H   H1063     1.0  0.19160  0.56653  0.14366  1.0000
  H   H1064     1.0  0.02351  0.64940  0.00837  1.0000
  H   H1065     1.0  0.22727  0.81582  0.11525  1.0000
  N   N33       1.0  0.44749  0.92980  0.02105  1.0000
  C   C617      1.0  0.05711  0.70216  0.02013  1.0000
  C   C618      1.0  0.45190  0.95259  0.99884  1.0000
  C   C619      1.0  0.45060  0.51556  0.10817  1.0000
  H   H1066     1.0  0.08560  0.50480  0.02326  1.0000
  H   H1067     1.0  0.24710  0.87122  0.02712  1.0000
  C   C620      1.0  0.40386  0.89599  0.01175  1.0000
  H   H1068     1.0  0.38380  0.83274  0.13093  1.0000
  C   C621      1.0  0.22711  0.84670  0.00682  1.0000
  H   H1069     1.0  0.39771  0.48946  0.04450  1.0000
  H   H1070     1.0  0.41338  0.91412  0.09868  1.0000
  H   H1071     1.0  0.01263  0.60782  0.06239  1.0000
  H   H1072     1.0  0.43045  0.88845  0.02611  1.0000
  H   H1073     1.0  0.38503  0.83060  0.07410  1.0000
  C   C622      1.0  0.38973  0.87826  0.09005  1.0000
  C   C623      1.0  0.39779  0.57665  0.14869  1.0000
  N   N34       1.0  0.40538  0.83810  0.09206  1.0000
  H   H1074     1.0  0.02208  0.69682  0.04593  1.0000
  C   C624      1.0  0.25671  0.86748  0.98811  1.0000
  H   H1075     1.0  0.47811  0.83198  0.04962  1.0000
  C   C625      1.0  0.15772  0.74945  0.13297  1.0000
  C   C626      1.0  0.23784  0.81120  0.13806  1.0000
  H   H1076     1.0  0.05462  0.66238  0.02460  1.0000
  H   H1077     1.0  0.18240  0.78771  0.12553  1.0000
  H   H1078     1.0  0.02324  0.54305  0.06644  1.0000
  H   H1079     1.0  0.05200  0.53903  0.05840  1.0000
  H   H1080     1.0  0.27024  0.82272  0.98924  1.0000
  H   H1081     1.0  0.28377  0.74329  0.13900  1.0000
  S   S147      1.0  0.14229  0.62259  0.15106  1.0000
  H   H1082     1.0  0.40523  0.86832  0.11466  1.0000
  H   H1083     1.0  0.17293  0.58722  0.13789  1.0000
  H   H1084     1.0  0.28370  0.87927  0.02611  1.0000
  H   H1085     1.0  0.42351  0.80795  0.09047  1.0000
  C   C627      1.0  0.34411  0.78209  0.07856  1.0000
  H   H1086     1.0  0.36036  0.54299  0.15174  1.0000
  H   H1087     1.0  0.41820  0.94575  0.01218  1.0000
  H   H1088     1.0  0.39039  0.90373  0.01710  1.0000
  H   H1089     1.0  0.22039  0.81849  0.13660  1.0000
  H   H1090     1.0  0.32790  0.78867  0.08254  1.0000
  H   H1091     1.0  0.28930  0.80257  0.01374  1.0000
  H   H1092     1.0  0.44495  0.48833  0.01649  1.0000
  H   H1093     1.0  0.41320  0.91660  0.08166  1.0000
  H   H1094     1.0  0.37749  0.87033  0.09873  1.0000
  H   H1095     1.0  0.47418  0.53129  0.02968  1.0000
  H   H1096     1.0  0.00724  0.62144  0.02783  1.0000
  C   C628      1.0  0.41247  0.85139  0.11546  1.0000
  H   H1097     1.0  0.45829  0.50091  0.07322  1.0000
  H   H1098     1.0  0.98059  0.60813  0.05588  1.0000
  H   H1099     1.0  0.13893  0.75465  0.13410  1.0000
  H   H1100     1.0  0.24932  0.80616  0.00282  1.0000
  H   H1101     1.0  0.01640  0.49669  0.06395  1.0000
  S   S148      1.0  0.46860  0.57639  0.04431  1.0000
  H   H1102     1.0  0.38582  0.85707  0.02070  1.0000
  C   C629      1.0  0.38927  0.86667  0.01111  1.0000
  H   H1103     1.0  0.28888  0.92691  0.02408  1.0000
  H   H1104     1.0  0.47621  0.56857  0.15073  1.0000
  C   C630      1.0  0.45680  0.84208  0.09420  1.0000
  H   H1105     1.0  0.40577  0.90481  0.00202  1.0000
  C   C631      1.0  0.08794  0.71304  0.02252  1.0000
  H   H1106     1.0  0.99743  0.72691  0.03903  1.0000
  H   H1107     1.0  0.01158  0.67622  0.00653  1.0000
  H   H1108     1.0  0.09713  0.73209  0.01722  1.0000
  H   H1109     1.0  0.36309  0.50429  0.11792  1.0000
  H   H1110     1.0  0.05472  0.54708  0.07471  1.0000
  Fe  Fe73      1.0  0.09982  0.62448  0.15044  1.0000
  H   H1111     1.0  0.12615  0.52469  0.11368  1.0000
  H   H1112     1.0  0.10239  0.49463  0.08456  1.0000
  C   C632      1.0  0.36955  0.97062  0.00018  1.0000
  H   H1113     1.0  0.41627  0.85497  0.13563  1.0000
  H   H1114     1.0  0.40116  0.81239  0.10868  1.0000
  H   H1115     1.0  0.26055  0.77534  0.14214  1.0000
  H   H1116     1.0  0.15073  0.52759  0.14258  1.0000
  H   H1117     1.0  0.21655  0.86046  0.00945  1.0000
  H   H1118     1.0  0.38818  0.59037  0.15218  1.0000
  H   H1119     1.0  0.09553  0.49815  0.14385  1.0000
  C   C633      1.0  0.01720  0.63453  0.04611  1.0000
  H   H1120     1.0  0.45563  0.83677  0.10441  1.0000
  H   H1121     1.0  0.15824  0.54515  0.12757  1.0000
  C   C634      1.0  0.04074  0.53575  0.06754  1.0000
  H   H1122     1.0  0.98957  0.67154  0.04980  1.0000
  N   N35       1.0  0.01322  0.66260  0.02593  1.0000
  C   C635      1.0  0.06003  0.52791  0.14351  1.0000
  C   C636      1.0  0.26951  0.82019  0.99963  1.0000
  H   H1123     1.0  0.47259  0.75910  0.06194  1.0000
  H   H1124     1.0  0.28751  0.89856  0.00549  1.0000
  C   C637      1.0  0.27017  0.91183  0.02820  1.0000
  H   H1125     1.0  0.47407  0.96440  0.99862  1.0000
  C   C638      1.0  0.99725  0.67973  0.02959  1.0000
  H   H1126     1.0  0.43398  0.52203  0.11168  1.0000
  H   H1127     1.0  0.36334  0.55980  0.13651  1.0000
  H   H1128     1.0  0.28189  0.87415  0.14358  1.0000
  C   C639      1.0  0.43761  0.96662  0.99000  1.0000
  C   C640      1.0  0.46674  0.58054  0.14500  1.0000
  H   H1129     1.0  0.44824  0.56740  0.14053  1.0000
  C   C641      1.0  0.10415  0.48577  0.03695  1.0000
  C   C642      1.0  0.35587  0.49005  0.11052  1.0000
  H   H1130     1.0  0.34515  0.49822  0.10328  1.0000
  H   H1131     1.0  0.46363  0.51381  0.11621  1.0000
  H   H1132     1.0  0.45730  0.48444  0.09879  1.0000
  C   C643      1.0  0.46839  0.53701  0.09897  1.0000
  H   H1133     1.0  0.28238  0.83094  0.13989  1.0000
  H   H1134     1.0  0.47717  0.55545  0.10383  1.0000
  H   H1135     1.0  0.44902  0.96935  0.01640  1.0000
  H   H1136     1.0  0.40294  0.94248  0.03159  1.0000
  C   C644      1.0  0.00030  0.68840  0.04326  1.0000
  H   H1137     1.0  0.07226  0.54255  0.14998  1.0000
  S   S149      1.0  0.39978  0.49108  0.15045  1.0000
  H   H1138     1.0  0.45400  0.95355  0.03713  1.0000
  H   H1139     1.0  0.40205  0.48772  0.12198  1.0000
  S   S150      1.0  0.19372  0.69106  0.15100  1.0000
  H   H1140     1.0  0.47898  0.52483  0.01409  1.0000
  H   H1141     1.0  0.98882  0.71441  0.05502  1.0000
  H   H1142     1.0  0.45604  0.54047  0.09098  1.0000
  H   H1143     1.0  0.15798  0.73502  0.14067  1.0000
  C   C645      1.0  0.47717  0.76619  0.07155  1.0000
  C   C646      1.0  0.26237  0.85738  0.14454  1.0000
  H   H1144     1.0  0.24247  0.87843  0.98582  1.0000
  H   H1145     1.0  0.99249  0.63478  0.98971  1.0000
  H   H1146     1.0  0.47944  0.60745  0.12845  1.0000
  H   H1147     1.0  0.98075  0.63007  0.03489  1.0000
  Fe  Fe74      1.0  0.33762  0.79467  0.17021  1.0000
  S   S151      1.0  0.36728  0.83536  0.17094  1.0000
  S   S152      1.0  0.34749  0.75878  0.16665  1.0000
  Fe  Fe75      1.0  0.28832  0.81104  0.17438  1.0000
  S   S153      1.0  0.31389  0.85315  0.17534  1.0000
  S   S154      1.0  0.24247  0.79772  0.17650  1.0000
  Fe  Fe76      1.0  0.34128  0.83789  0.18755  1.0000
  S   S155      1.0  0.36085  0.85419  0.20591  1.0000
  S   S156      1.0  0.31398  0.79621  0.18760  1.0000
  C   C647      1.0  0.42048  0.58172  0.26211  1.0000
  Fe  Fe77      1.0  0.10578  0.64718  0.17677  1.0000
  S   S157      1.0  0.14888  0.64742  0.17867  1.0000
  S   S158      1.0  0.09017  0.66314  0.19339  1.0000
  Fe  Fe78      1.0  0.15419  0.66221  0.15856  1.0000
  H   H1148     1.0  0.44788  0.89301  0.28000  1.0000
  Fe  Fe79      1.0  0.13257  0.60793  0.17103  1.0000
  S   S159      1.0  0.14705  0.57623  0.17907  1.0000
  S   S160      1.0  0.11236  0.66558  0.15687  1.0000
  S   S161      1.0  0.08887  0.60638  0.17019  1.0000
  Fe  Fe80      1.0  0.29474  0.80654  0.30078  1.0000
  S   S162      1.0  0.28378  0.84153  0.29465  1.0000
  H   H1149     1.0  0.47158  0.89115  0.30905  1.0000
  Fe  Fe81      1.0  0.35633  0.83372  0.29422  1.0000
  S   S163      1.0  0.34965  0.87122  0.28797  1.0000
  S   S164      1.0  0.39394  0.82136  0.29167  1.0000
  Fe  Fe82      1.0  0.32125  0.86401  0.30517  1.0000
  H   H1150     1.0  0.46448  0.74305  0.28351  1.0000
  Fe  Fe83      1.0  0.31259  0.84523  0.27808  1.0000
  S   S165      1.0  0.29793  0.84800  0.25792  1.0000
  H   H1151     1.0  0.26926  0.71927  0.29678  1.0000
  S   S166      1.0  0.32036  0.80830  0.28364  1.0000
  Fe  Fe84      1.0  0.11521  0.61399  0.29144  1.0000
  S   S167      1.0  0.07188  0.60800  0.28599  1.0000
  S   S168      1.0  0.12996  0.58120  0.29867  1.0000
  Fe  Fe85      1.0  0.13522  0.67102  0.28124  1.0000
  S   S169      1.0  0.09298  0.66834  0.27498  1.0000
  S   S170      1.0  0.16829  0.70923  0.27547  1.0000
  Fe  Fe86      1.0  0.07920  0.64746  0.29397  1.0000
  Fe  Fe87      1.0  0.09030  0.62967  0.26772  1.0000
  S   S171      1.0  0.07873  0.61066  0.24899  1.0000
  S   S172      1.0  0.12185  0.65223  0.30049  1.0000
  S   S173      1.0  0.13332  0.63363  0.27295  1.0000
  H   H1152     1.0  0.20365  0.65379  0.26072  1.0000
  C   C648      1.0  0.08131  0.53911  0.30103  1.0000
  C   C649      1.0  0.10991  0.54764  0.29978  1.0000
  C   C650      1.0  0.12320  0.52908  0.30007  1.0000
  H   H1153     1.0  0.44983  0.87463  0.19724  1.0000
  H   H1154     1.0  0.07085  0.55321  0.30081  1.0000
  H   H1155     1.0  0.21133  0.70064  0.25863  1.0000
  H   H1156     1.0  0.42465  0.67097  0.16328  1.0000
  C   C651      1.0  0.23520  0.75414  0.30172  1.0000
  C   C652      1.0  0.22741  0.76697  0.29152  1.0000
  C   C653      1.0  0.20557  0.75322  0.28402  1.0000
  C   C654      1.0  0.19165  0.72656  0.28656  1.0000
  C   C655      1.0  0.19845  0.71401  0.29718  1.0000
  C   C656      1.0  0.22010  0.72788  0.30481  1.0000
  H   H1157     1.0  0.23853  0.78737  0.28929  1.0000
  H   H1158     1.0  0.19980  0.76313  0.27606  1.0000
  H   H1159     1.0  0.18776  0.69345  0.29922  1.0000
  H   H1160     1.0  0.14867  0.58528  0.26186  1.0000
  C   C657      1.0  0.42851  0.83713  0.29589  1.0000
  C   C658      1.0  0.44802  0.82551  0.29300  1.0000
  H   H1161     1.0  0.47216  0.71738  0.21251  1.0000
  C   C659      1.0  0.45952  0.60029  0.15305  1.0000
  H   H1162     1.0  0.42802  0.50880  0.27091  1.0000
  C   C660      1.0  0.43708  0.86067  0.30186  1.0000
  H   H1163     1.0  0.44155  0.80729  0.28840  1.0000
  H   H1164     1.0  0.36491  0.71842  0.17721  1.0000
  H   H1165     1.0  0.05294  0.53146  0.27914  1.0000
  H   H1166     1.0  0.16686  0.72199  0.16347  1.0000
  C   C661      1.0  0.05368  0.53328  0.24703  1.0000
  C   C662      1.0  0.46569  0.74986  0.30340  1.0000
  H   H1167     1.0  0.12216  0.51992  0.19886  1.0000
  C   C663      1.0  0.08895  0.64921  0.20893  1.0000
  C   C664      1.0  0.08245  0.66175  0.21905  1.0000
  C   C665      1.0  0.08063  0.65090  0.23146  1.0000
  C   C666      1.0  0.08472  0.62706  0.23386  1.0000
  C   C667      1.0  0.09182  0.61486  0.22378  1.0000
  C   C668      1.0  0.09420  0.62594  0.21141  1.0000
  H   H1168     1.0  0.07822  0.67968  0.21725  1.0000
  H   H1169     1.0  0.07491  0.66042  0.23910  1.0000
  H   H1170     1.0  0.09524  0.59659  0.22556  1.0000
  H   H1171     1.0  0.09933  0.61612  0.20373  1.0000
  C   C669      1.0  0.12462  0.54571  0.17527  1.0000
  C   C670      1.0  0.13534  0.52641  0.17236  1.0000
  C   C671      1.0  0.10640  0.55972  0.26093  1.0000
  H   H1172     1.0  0.46845  0.77605  0.28694  1.0000
  C   C672      1.0  0.07855  0.51507  0.17309  1.0000
  C   C673      1.0  0.09620  0.54011  0.17559  1.0000
  C   C674      1.0  0.07965  0.49369  0.30320  1.0000
  C   C675      1.0  0.06791  0.52536  0.23591  1.0000
  H   H1173     1.0  0.08777  0.55481  0.17803  1.0000
  C   C676      1.0  0.34321  0.84903  0.22063  1.0000
  C   C677      1.0  0.31477  0.83664  0.22178  1.0000
  C   C678      1.0  0.30125  0.83577  0.23336  1.0000
  C   C679      1.0  0.31607  0.84624  0.24405  1.0000
  C   C680      1.0  0.34463  0.85746  0.24303  1.0000
  C   C681      1.0  0.35802  0.85922  0.23133  1.0000
  H   H1174     1.0  0.30307  0.82863  0.21364  1.0000
  H   H1175     1.0  0.27913  0.82737  0.23397  1.0000
  H   H1176     1.0  0.35625  0.86598  0.25111  1.0000
  H   H1177     1.0  0.37987  0.86929  0.23049  1.0000
  C   C682      1.0  0.22839  0.76650  0.17085  1.0000
  C   C683      1.0  0.19993  0.75496  0.16983  1.0000
  H   H1178     1.0  0.05990  0.59134  0.31330  1.0000
  H   H1179     1.0  0.44637  0.89647  0.26319  1.0000
  H   H1180     1.0  0.46575  0.57785  0.19927  1.0000
  C   C684      1.0  0.24565  0.75344  0.16692  1.0000
  H   H1181     1.0  0.18657  0.76508  0.17287  1.0000
  C   C685      1.0  0.25560  0.71377  0.25409  1.0000
  C   C686      1.0  0.43089  0.75844  0.18014  1.0000
  C   C687      1.0  0.40787  0.73579  0.18104  1.0000
  C   C688      1.0  0.38269  0.73598  0.17638  1.0000
  C   C689      1.0  0.38012  0.75904  0.17119  1.0000
  C   C690      1.0  0.40326  0.78172  0.17003  1.0000
  C   C691      1.0  0.42884  0.78131  0.17434  1.0000
  H   H1182     1.0  0.35282  0.49702  0.25087  1.0000
  H   H1183     1.0  0.39067  0.90970  0.19256  1.0000
  H   H1184     1.0  0.25916  0.85059  0.15462  1.0000
  H   H1185     1.0  0.04425  0.50583  0.30411  1.0000
  H   H1186     1.0  0.09842  0.51947  0.25629  1.0000
  H   H1187     1.0  0.21727  0.51971  0.17842  1.0000
  N   N36       1.0  0.15315  0.51492  0.21138  1.0000
  H   H1188     1.0  0.29847  0.74904  0.29475  1.0000
  H   H1189     1.0  0.43587  0.78740  0.31216  1.0000
  C   C692      1.0  0.00618  0.59106  0.30797  1.0000
  H   H1190     1.0  0.98270  0.53545  0.28016  1.0000
  S   S174      1.0  0.33113  0.82841  0.31189  1.0000
  H   H1191     1.0  0.31010  0.93406  0.18443  1.0000
  C   C693      1.0  0.33687  0.50215  0.28901  1.0000
  H   H1192     1.0  0.16446  0.57008  0.15311  1.0000
  C   C694      1.0  0.32476  0.92285  0.24482  1.0000
  C   C695      1.0  0.45253  0.57638  0.17345  1.0000
  H   H1193     1.0  0.10942  0.70199  0.31711  1.0000
  C   C696      1.0  0.08935  0.49568  0.17035  1.0000
  C   C697      1.0  0.18882  0.73069  0.16450  1.0000
  C   C698      1.0  0.43455  0.56307  0.18520  1.0000
  H   H1194     1.0  0.22801  0.54195  0.19079  1.0000
  H   H1195     1.0  0.09048  0.53406  0.23650  1.0000
  C   C699      1.0  0.10817  0.50225  0.30160  1.0000
  H   H1196     1.0  0.11876  0.48824  0.30191  1.0000
  C   C700      1.0  0.45206  0.55884  0.19609  1.0000
  C   C701      1.0  0.23471  0.72982  0.16113  1.0000
  H   H1197     1.0  0.33769  0.93872  0.25054  1.0000
  H   H1198     1.0  0.23144  0.69296  0.27098  1.0000
  C   C702      1.0  0.34894  0.50795  0.27567  1.0000
  C   C703      1.0  0.21650  0.81785  0.31419  1.0000
  H   H1199     1.0  0.45900  0.56103  0.16946  1.0000
  H   H1200     1.0  0.03319  0.48710  0.28084  1.0000
  C   C704      1.0  0.45410  0.51453  0.15504  1.0000
  C   C705      1.0  0.46504  0.87268  0.30465  1.0000
  C   C706      1.0  0.29237  0.75624  0.25230  1.0000
  C   C707      1.0  0.18677  0.51347  0.19337  1.0000
  C   C708      1.0  0.21031  0.53137  0.18500  1.0000
  H   H1201     1.0  0.42006  0.54369  0.18285  1.0000
  H   H1202     1.0  0.42241  0.57470  0.18862  1.0000
  C   C709      1.0  0.41512  0.49846  0.26316  1.0000
  H   H1203     1.0  0.42813  0.50521  0.25451  1.0000
  C   C710      1.0  0.42330  0.51432  0.30289  1.0000
  C   C711      1.0  0.44950  0.49501  0.18001  1.0000
  H   H1204     1.0  0.21964  0.66705  0.24570  1.0000
  C   C712      1.0  0.24355  0.75329  0.25498  1.0000
  N   N37       1.0  0.26496  0.74118  0.25846  1.0000
  H   H1205     1.0  0.27903  0.77437  0.23557  1.0000
  H   H1206     1.0  0.44309  0.74470  0.30400  1.0000
  H   H1207     1.0  0.43861  0.54807  0.20410  1.0000
  H   H1208     1.0  0.22989  0.79343  0.24153  1.0000
  C   C713      1.0  0.39737  0.53396  0.25782  1.0000
  H   H1209     1.0  0.35503  0.93131  0.23017  1.0000
  H   H1210     1.0  0.35344  0.52898  0.27328  1.0000
  C   C714      1.0  0.13683  0.56410  0.26287  1.0000
  C   C715      1.0  0.32099  0.77771  0.23289  1.0000
  C   C716      1.0  0.28972  0.72845  0.29218  1.0000
  C   C717      1.0  0.29209  0.76240  0.23792  1.0000
  H   H1211     1.0  0.27226  0.70526  0.25508  1.0000
  H   H1212     1.0  0.20909  0.78247  0.25567  1.0000
  H   H1213     1.0  0.14467  0.55399  0.25582  1.0000
  H   H1214     1.0  0.27634  0.92018  0.19110  1.0000
  N   N38       1.0  0.17891  0.70606  0.21027  1.0000
  C   C718      1.0  0.16156  0.71131  0.19977  1.0000
  C   C719      1.0  0.19316  0.68802  0.20583  1.0000
  C   C720      1.0  0.15978  0.69171  0.22100  1.0000
  C   C721      1.0  0.19933  0.73067  0.21502  1.0000
  C   C722      1.0  0.21137  0.75416  0.20539  1.0000
  C   C723      1.0  0.14137  0.72532  0.20345  1.0000
  C   C724      1.0  0.17342  0.68248  0.23244  1.0000
  C   C725      1.0  0.21345  0.69829  0.19456  1.0000
  C   C726      1.0  0.22418  0.67724  0.19020  1.0000
  C   C727      1.0  0.23553  0.77530  0.21092  1.0000
  C   C728      1.0  0.13066  0.73628  0.19188  1.0000
  C   C729      1.0  0.15419  0.67478  0.24391  1.0000
  H   H1215     1.0  0.14897  0.69266  0.19574  1.0000
  H   H1216     1.0  0.17443  0.72278  0.19179  1.0000
  H   H1217     1.0  0.20540  0.68300  0.21348  1.0000
  H   H1218     1.0  0.17755  0.66922  0.20332  1.0000
  H   H1219     1.0  0.14346  0.67424  0.21762  1.0000
  H   H1220     1.0  0.14880  0.70419  0.22473  1.0000
  H   H1221     1.0  0.18996  0.73820  0.22268  1.0000
  H   H1222     1.0  0.21689  0.72626  0.21942  1.0000
  H   H1223     1.0  0.19561  0.76301  0.20275  1.0000
  H   H1224     1.0  0.21864  0.74856  0.19662  1.0000
  H   H1225     1.0  0.12331  0.71124  0.20854  1.0000
  H   H1226     1.0  0.15109  0.74143  0.20968  1.0000
  H   H1227     1.0  0.19239  0.69794  0.23518  1.0000
  H   H1228     1.0  0.17861  0.66506  0.23017  1.0000
  H   H1229     1.0  0.20365  0.70464  0.18639  1.0000
  H   H1230     1.0  0.23160  0.71466  0.19733  1.0000
  H   H1231     1.0  0.20708  0.66022  0.18710  1.0000
  H   H1232     1.0  0.23853  0.68522  0.18208  1.0000
  H   H1233     1.0  0.23534  0.67074  0.19785  1.0000
  H   H1234     1.0  0.24316  0.79220  0.20404  1.0000
  H   H1235     1.0  0.22910  0.78211  0.21962  1.0000
  H   H1236     1.0  0.25267  0.76789  0.21300  1.0000
  H   H1237     1.0  0.11468  0.74430  0.19478  1.0000
  H   H1238     1.0  0.14754  0.75215  0.18699  1.0000
  H   H1239     1.0  0.12132  0.72070  0.18529  1.0000
  H   H1240     1.0  0.14804  0.69137  0.24669  1.0000
  H   H1241     1.0  0.13557  0.65810  0.24196  1.0000
  H   H1242     1.0  0.16476  0.66888  0.25195  1.0000
  H   H1243     1.0  0.40142  0.79948  0.16582  1.0000
  C   C730      1.0  0.30803  0.93520  0.20522  1.0000
  H   H1244     1.0  0.00833  0.53588  0.26067  1.0000
  C   C731      1.0  0.47472  0.51207  0.17528  1.0000
  H   H1245     1.0  0.27674  0.76162  0.27553  1.0000
  C   C732      1.0  0.37509  0.50034  0.27468  1.0000
  H   H1246     1.0  0.03715  0.52421  0.22174  1.0000
  H   H1247     1.0  0.02066  0.60000  0.30003  1.0000
  H   H1248     1.0  0.30861  0.73581  0.27396  1.0000
  N   N39       1.0  0.05884  0.52337  0.25994  1.0000
  H   H1249     1.0  0.32009  0.78325  0.22277  1.0000
  H   H1250     1.0  0.44862  0.87360  0.23795  1.0000
  H   H1251     1.0  0.05720  0.48521  0.25461  1.0000
  C   C733      1.0  0.43309  0.63489  0.16186  1.0000
  S   S175      1.0  0.04766  0.65852  0.30548  1.0000
  H   H1252     1.0  0.10358  0.72776  0.30769  1.0000
  H   H1253     1.0  0.03132  0.52617  0.24510  1.0000
  H   H1254     1.0  0.06607  0.48415  0.27756  1.0000
  H   H1255     1.0  0.46852  0.85311  0.19396  1.0000
  C   C734      1.0  0.15051  0.53395  0.22067  1.0000
  C   C735      1.0  0.17600  0.52978  0.20218  1.0000
  C   C736      1.0  0.14432  0.55823  0.21508  1.0000
  C   C737      1.0  0.14591  0.57767  0.22510  1.0000
  H   H1256     1.0  0.16983  0.54106  0.22608  1.0000
  H   H1257     1.0  0.13412  0.52439  0.22777  1.0000
  H   H1258     1.0  0.19402  0.54228  0.20731  1.0000
  H   H1259     1.0  0.16934  0.54315  0.19577  1.0000
  H   H1260     1.0  0.09243  0.52398  0.27217  1.0000
  H   H1261     1.0  0.15929  0.56906  0.20763  1.0000
  H   H1262     1.0  0.12344  0.55242  0.21107  1.0000
  H   H1263     1.0  0.14157  0.59479  0.22078  1.0000
  H   H1264     1.0  0.13068  0.56877  0.23274  1.0000
  H   H1265     1.0  0.16676  0.58464  0.22914  1.0000
  C   C738      1.0  0.25715  0.85342  0.19818  1.0000
  H   H1266     1.0  0.23608  0.84312  0.20196  1.0000
  H   H1267     1.0  0.25560  0.86209  0.18867  1.0000
  H   H1268     1.0  0.26771  0.83892  0.19738  1.0000
  N   N40       1.0  0.42494  0.82092  0.20936  1.0000
  C   C739      1.0  0.39717  0.80050  0.21217  1.0000
  C   C740      1.0  0.42993  0.84169  0.21876  1.0000
  C   C741      1.0  0.42366  0.83355  0.19650  1.0000
  C   C742      1.0  0.44814  0.80995  0.20927  1.0000
  C   C743      1.0  0.44568  0.78625  0.21851  1.0000
  C   C744      1.0  0.38642  0.78023  0.20208  1.0000
  C   C745      1.0  0.44921  0.85717  0.19220  1.0000
  C   C746      1.0  0.43257  0.83321  0.23266  1.0000
  C   C747      1.0  0.43336  0.85476  0.24139  1.0000
  H   H1269     1.0  0.32452  0.95421  0.20648  1.0000
  C   C748      1.0  0.36189  0.75702  0.20689  1.0000
  C   C749      1.0  0.44835  0.86411  0.17816  1.0000
  H   H1270     1.0  0.38137  0.80996  0.21329  1.0000
  H   H1271     1.0  0.39689  0.78967  0.22126  1.0000
  H   H1272     1.0  0.44942  0.85790  0.21652  1.0000
  H   H1273     1.0  0.41335  0.85046  0.21818  1.0000
  H   H1274     1.0  0.40549  0.84008  0.19591  1.0000
  H   H1275     1.0  0.42072  0.81913  0.18920  1.0000
  H   H1276     1.0  0.45090  0.80344  0.19977  1.0000
  C   C750      1.0  0.47456  0.75899  0.28980  1.0000
  H   H1277     1.0  0.43152  0.76816  0.21467  1.0000
  S   S176      1.0  0.26445  0.77023  0.31032  1.0000
  H   H1278     1.0  0.37945  0.78926  0.19375  1.0000
  H   H1279     1.0  0.40271  0.77288  0.19904  1.0000
  C   C751      1.0  0.11777  0.50141  0.17000  1.0000
  H   H1280     1.0  0.17036  0.50209  0.18719  1.0000
  H   H1281     1.0  0.41517  0.81576  0.23589  1.0000
  H   H1282     1.0  0.45209  0.82919  0.23387  1.0000
  C   C752      1.0  0.41600  0.48750  0.30094  1.0000
  H   H1283     1.0  0.41288  0.85694  0.24198  1.0000
  H   H1284     1.0  0.43893  0.84964  0.25100  1.0000
  H   H1285     1.0  0.20799  0.82141  0.29438  1.0000
  H   H1286     1.0  0.43283  0.55051  0.27003  1.0000
  H   H1287     1.0  0.39170  0.50867  0.23499  1.0000
  H   H1288     1.0  0.34460  0.76355  0.20942  1.0000
  H   H1289     1.0  0.35494  0.74305  0.19936  1.0000
  H   H1290     1.0  0.36759  0.74681  0.21515  1.0000
  H   H1291     1.0  0.44863  0.84763  0.17254  1.0000
  H   H1292     1.0  0.44551  0.61744  0.17800  1.0000
  H   H1293     1.0  0.09738  0.49677  0.21970  1.0000
  H   H1294     1.0  0.39235  0.93145  0.17907  1.0000
  H   H1295     1.0  0.40943  0.71811  0.18550  1.0000
  H   H1296     1.0  0.05506  0.55741  0.26813  1.0000
  H   H1297     1.0  0.27975  0.70602  0.27593  1.0000
  H   H1298     1.0  0.26753  0.76169  0.16809  1.0000
  H   H1299     1.0  0.44670  0.79879  0.17356  1.0000
  H   H1300     1.0  0.14534  0.53546  0.29922  1.0000
  H   H1301     1.0  0.33453  0.76576  0.23398  1.0000
  C   C753      1.0  0.22993  0.79374  0.25192  1.0000
  H   H1302     1.0  0.47103  0.73207  0.30549  1.0000
  H   H1303     1.0  0.43297  0.59531  0.26897  1.0000
  H   H1304     1.0  0.05962  0.55488  0.24649  1.0000
  H   H1305     1.0  0.14016  0.55688  0.27248  1.0000
  H   H1306     1.0  0.22417  0.74323  0.26038  1.0000
  H   H1307     1.0  0.05655  0.51066  0.17345  1.0000
  C   C754      1.0  0.45087  0.53120  0.30173  1.0000
  H   H1308     1.0  0.23518  0.81335  0.31190  1.0000
  C   C755      1.0  0.00536  0.54067  0.28038  1.0000
  H   H1309     1.0  0.47375  0.86875  0.27015  1.0000
  C   C756      1.0  0.25126  0.78265  0.25735  1.0000
  H   H1310     1.0  0.24816  0.73300  0.27746  1.0000
  H   H1311     1.0  0.22773  0.85169  0.30092  1.0000
  H   H1312     1.0  0.07125  0.53057  0.21554  1.0000
  C   C757      1.0  0.47178  0.52138  0.29894  1.0000
  H   H1313     1.0  0.33001  0.79585  0.23796  1.0000
  H   H1314     1.0  0.15959  0.49910  0.23822  1.0000
  C   C758      1.0  0.33299  0.92918  0.23094  1.0000
  C   C759      1.0  0.01685  0.57331  0.31646  1.0000
  H   H1315     1.0  0.40146  0.58637  0.26035  1.0000
  C   C760      1.0  0.41342  0.55368  0.26746  1.0000
  H   H1316     1.0  0.07208  0.49727  0.19968  1.0000
  C   C761      1.0  0.43164  0.61003  0.16999  1.0000
  C   C762      1.0  0.08912  0.53032  0.26238  1.0000
  S   S177      1.0  0.46089  0.75791  0.18754  1.0000
  H   H1317     1.0  0.40110  0.64356  0.17218  1.0000
  H   H1318     1.0  0.45600  0.55169  0.30328  1.0000
  H   H1319     1.0  0.33052  0.94808  0.22812  1.0000
  H   H1320     1.0  0.47400  0.68472  0.21282  1.0000
  H   H1321     1.0  0.27123  0.79427  0.25296  1.0000
  H   H1322     1.0  0.31066  0.97852  0.18906  1.0000
  H   H1323     1.0  0.25269  0.78581  0.26754  1.0000
  C   C763      1.0  0.42293  0.65319  0.16925  1.0000
  H   H1324     1.0  0.40037  0.94445  0.19436  1.0000
  H   H1325     1.0  0.29376  0.90267  0.22576  1.0000
  H   H1326     1.0  0.41855  0.55082  0.15659  1.0000
  C   C764      1.0  0.47577  0.83717  0.29608  1.0000
  C   C765      1.0  0.05929  0.53460  0.22331  1.0000
  H   H1327     1.0  0.10008  0.57077  0.26806  1.0000
  H   H1328     1.0  0.01096  0.53335  0.28954  1.0000
  H   H1329     1.0  0.30293  0.92089  0.24635  1.0000
  H   H1330     1.0  0.41040  0.53808  0.24916  1.0000
  H   H1331     1.0  0.43561  0.65925  0.17772  1.0000
  H   H1332     1.0  0.06297  0.55583  0.22299  1.0000
  H   H1333     1.0  0.18367  0.49958  0.21916  1.0000
  H   H1334     1.0  0.40121  0.55195  0.27620  1.0000
  S   S178      1.0  0.30907  0.80523  0.15695  1.0000
  C   C766      1.0  0.27276  0.87452  0.20695  1.0000
  H   H1335     1.0  0.31361  0.87389  0.20364  1.0000
  H   H1336     1.0  0.30250  0.89168  0.19202  1.0000
  H   H1337     1.0  0.27239  0.86481  0.21641  1.0000
  H   H1338     1.0  0.32076  0.88959  0.22531  1.0000
  H   H1339     1.0  0.35663  0.90523  0.20940  1.0000
  C   C767      1.0  0.04668  0.53580  0.26955  1.0000
  H   H1340     1.0  0.10424  0.56820  0.25149  1.0000
  H   H1341     1.0  0.36070  0.93884  0.20959  1.0000
  C   C768      1.0  0.30283  0.88830  0.20234  1.0000
  H   H1342     1.0  0.23514  0.81428  0.25450  1.0000
  C   C769      1.0  0.01504  0.52849  0.26954  1.0000
  C   C770      1.0  0.28754  0.72694  0.27794  1.0000
  H   H1343     1.0  0.40749  0.52210  0.30538  1.0000
  H   H1344     1.0  0.26171  0.88862  0.20760  1.0000
  H   H1345     1.0  0.34464  0.90830  0.18563  1.0000
  H   H1346     1.0  0.30222  0.77494  0.25690  1.0000
  H   H1347     1.0  0.41070  0.60198  0.17430  1.0000
  H   H1348     1.0  0.37890  0.53894  0.25510  1.0000
  C   C771      1.0  0.31547  0.90724  0.22267  1.0000
  N   N41       1.0  0.31848  0.91302  0.20861  1.0000
  C   C772      1.0  0.29627  0.93617  0.19185  1.0000
  C   C773      1.0  0.35671  0.92478  0.19118  1.0000
  C   C774      1.0  0.38690  0.92780  0.18923  1.0000
  H   H1349     1.0  0.01472  0.56225  0.27954  1.0000
  H   H1350     1.0  0.29123  0.93488  0.21182  1.0000
  H   H1351     1.0  0.12635  0.48666  0.16789  1.0000
  C   C775      1.0  0.34861  0.92040  0.20531  1.0000
  H   H1352     1.0  0.35405  0.94302  0.18733  1.0000
  H   H1353     1.0  0.38938  0.75662  0.31749  1.0000
  H   H1354     1.0  0.30691  0.74537  0.25372  1.0000
  C   C776      1.0  0.41358  0.56811  0.15940  1.0000
  Fe  Fe88      1.0  0.33682  0.84621  0.15863  1.0000
  C   C777      1.0  0.20637  0.71857  0.15979  1.0000
  H   H1355     1.0  0.15727  0.53082  0.17186  1.0000
  C   C778      1.0  0.06631  0.51228  0.30291  1.0000
  H   H1356     1.0  0.23786  0.75045  0.24495  1.0000
  H   H1357     1.0  0.32781  0.90444  0.24815  1.0000
  H   H1358     1.0  0.42227  0.86981  0.30415  1.0000
  C   C779      1.0  0.38279  0.48880  0.23950  1.0000
  C   C780      1.0  0.42872  0.49815  0.15989  1.0000
  H   H1359     1.0  0.22594  0.71796  0.31279  1.0000
  C   C781      1.0  0.22276  0.66705  0.25601  1.0000
  C   C782      1.0  0.12725  0.50400  0.20402  1.0000
  H   H1360     1.0  0.28433  0.74424  0.23281  1.0000
  H   H1361     1.0  0.20360  0.54574  0.17935  1.0000
  H   H1362     1.0  0.26940  0.89545  0.31405  1.0000
  C   C783      1.0  0.26838  0.74130  0.27252  1.0000
  C   C784      1.0  0.22928  0.69445  0.26065  1.0000
  C   C785      1.0  0.11354  0.72333  0.31634  1.0000
  H   H1363     1.0  0.39855  0.56044  0.16731  1.0000
  H   H1364     1.0  0.23965  0.65943  0.25832  1.0000
  H   H1365     1.0  0.30345  0.71799  0.29580  1.0000
  H   H1366     1.0  0.33286  0.49657  0.26932  1.0000
  H   H1367     1.0  0.45471  0.64588  0.15901  1.0000
  H   H1368     1.0  0.43250  0.58484  0.25320  1.0000
  H   H1369     1.0  0.46865  0.92288  0.27193  1.0000
  H   H1370     1.0  0.25128  0.71387  0.24387  1.0000
  H   H1371     1.0  0.24828  0.72032  0.15761  1.0000
  H   H1372     1.0  0.46797  0.82559  0.21100  1.0000
  H   H1373     1.0  0.44766  0.48780  0.18972  1.0000
  H   H1374     1.0  0.19479  0.49965  0.19869  1.0000
  C   C786      1.0  0.21047  0.83311  0.30280  1.0000
  H   H1375     1.0  0.02461  0.48799  0.25716  1.0000
  C   C787      1.0  0.04590  0.49408  0.26078  1.0000
  H   H1376     1.0  0.38944  0.50990  0.28212  1.0000
  H   H1377     1.0  0.98608  0.57962  0.30408  1.0000
  N   N42       1.0  0.38942  0.50556  0.26204  1.0000
  H   H1378     1.0  0.10441  0.76786  0.31783  1.0000
  N   N43       1.0  0.43899  0.58887  0.16370  1.0000
  H   H1379     1.0  0.47176  0.59113  0.17665  1.0000
  C   C788      1.0  0.16100  0.49333  0.21802  1.0000
  C   C789      1.0  0.46448  0.49452  0.29711  1.0000
  H   H1380     1.0  0.47535  0.70291  0.19809  1.0000
  C   C790      1.0  0.47351  0.78269  0.22040  1.0000
  H   H1381     1.0  0.42962  0.86897  0.17595  1.0000
  H   H1382     1.0  0.00331  0.60679  0.31341  1.0000
  H   H1383     1.0  0.06242  0.50394  0.23581  1.0000
  H   H1384     1.0  0.19129  0.83741  0.30436  1.0000
  H   H1385     1.0  0.01044  0.67901  0.31757  1.0000
  H   H1386     1.0  0.00449  0.50714  0.27061  1.0000
  H   H1387     1.0  0.47094  0.76485  0.22646  1.0000
  H   H1388     1.0  0.31837  0.50797  0.28960  1.0000
  H   H1389     1.0  0.46475  0.54728  0.19320  1.0000
  H   H1390     1.0  0.42060  0.63006  0.15331  1.0000
  C   C791      1.0  0.37010  0.48958  0.25258  1.0000
  H   H1391     1.0  0.46663  0.88126  0.17538  1.0000
  H   H1392     1.0  0.43765  0.78800  0.22788  1.0000
  H   H1393     1.0  0.01795  0.55711  0.31083  1.0000
  H   H1394     1.0  0.47896  0.61382  0.15679  1.0000
  H   H1395     1.0  0.47779  0.78957  0.30862  1.0000
  H   H1396     1.0  0.05815  0.75189  0.31626  1.0000
  C   C792      1.0  0.46023  0.90139  0.27134  1.0000
  C   C793      1.0  0.10151  0.48676  0.21158  1.0000
  H   H1397     1.0  0.28207  0.96168  0.17952  1.0000
  H   H1398     1.0  0.01100  0.75233  0.31437  1.0000
  H   H1399     1.0  0.35207  0.51307  0.29587  1.0000
  C   C794      1.0  0.42645  0.48810  0.17232  1.0000
  C   C795      1.0  0.29111  0.96181  0.18899  1.0000
  H   H1400     1.0  0.02242  0.52697  0.15272  1.0000
  H   H1401     1.0  0.27655  0.96444  0.19600  1.0000
  H   H1402     1.0  0.13034  0.49172  0.19659  1.0000
  H   H1403     1.0  0.47279  0.56907  0.25176  1.0000
  H   H1404     1.0  0.47952  0.81336  0.26182  1.0000
  H   H1405     1.0  0.13608  0.73336  0.31548  1.0000
  C   C796      1.0  0.47713  0.52153  0.16275  1.0000
  H   H1406     1.0  0.19883  0.79943  0.31543  1.0000
  H   H1407     1.0  0.02200  0.53827  0.33252  1.0000
  H   H1408     1.0  0.09504  0.57594  0.34003  1.0000
  Fe  Fe89      1.0  0.24082  0.94744  0.39831  1.0000
  H   H1409     1.0  0.43506  0.75887  0.33794  1.0000
  C   C797      1.0  0.13327  0.61939  0.32960  1.0000
  Fe  Fe90      1.0  0.22675  0.93836  0.37046  1.0000
  S   S179      1.0  0.18476  0.94189  0.37360  1.0000
  S   S180      1.0  0.23372  0.92689  0.35048  1.0000
  H   H1410     1.0  0.09064  0.90882  0.45520  1.0000
  Fe  Fe91      1.0  0.18255  0.91648  0.39111  1.0000
  S   S181      1.0  0.14771  0.88263  0.40014  1.0000
  C   C798      1.0  0.23908  0.96194  0.44744  1.0000
  S   S182      1.0  0.22294  0.91126  0.38755  1.0000
  Fe  Fe92      1.0  0.99622  0.73087  0.39526  1.0000
  H   H1411     1.0  0.23383  0.76910  0.34005  1.0000
  C   C799      1.0  0.10185  0.73157  0.32793  1.0000
  Fe  Fe93      1.0  0.01191  0.70932  0.37110  1.0000
  S   S183      1.0  0.00526  0.74124  0.35898  1.0000
  S   S184      1.0  0.03196  0.68175  0.36288  1.0000
  Fe  Fe94      1.0  0.02852  0.76772  0.37365  1.0000
  S   S185      1.0  0.06200  0.80389  0.36565  1.0000
  S   S186      1.0  0.03665  0.73618  0.38559  1.0000
  H   H1412     1.0  0.31964  0.90617  0.34672  1.0000
  S   S187      1.0  0.32214  0.89021  0.32153  1.0000
  C   C800      1.0  0.07100  0.89301  0.45769  1.0000
  C   C801      1.0  0.03713  0.67699  0.34675  1.0000
  C   C802      1.0  0.02032  0.68151  0.33728  1.0000
  C   C803      1.0  0.02405  0.67598  0.32474  1.0000
  H   H1413     1.0  0.30750  0.95827  0.43450  1.0000
  C   C804      1.0  0.06222  0.66242  0.33084  1.0000
  C   C805      1.0  0.05811  0.66740  0.34343  1.0000
  H   H1414     1.0  0.39154  0.76949  0.33295  1.0000
  C   C806      1.0  0.06012  0.78371  0.45396  1.0000
  H   H1415     1.0  0.07865  0.65551  0.32845  1.0000
  H   H1416     1.0  0.07130  0.66387  0.35066  1.0000
  C   C807      1.0  0.25844  0.91622  0.34281  1.0000
  C   C808      1.0  0.28212  0.91483  0.34871  1.0000
  C   C809      1.0  0.30118  0.90664  0.34210  1.0000
  C   C810      1.0  0.25890  0.82301  0.33513  1.0000
  H   H1417     1.0  0.16097  0.98361  0.41057  1.0000
  C   C811      1.0  0.25399  0.90886  0.33029  1.0000
  H   H1418     1.0  0.28602  0.92050  0.35829  1.0000
  H   H1419     1.0  0.14392  0.64081  0.32903  1.0000
  H   H1420     1.0  0.23589  0.91000  0.32558  1.0000
  C   C812      1.0  0.12459  0.86035  0.39044  1.0000
  C   C813      1.0  0.10402  0.83851  0.39598  1.0000
  C   C814      1.0  0.08492  0.82079  0.38849  1.0000
  C   C815      1.0  0.08614  0.82498  0.37542  1.0000
  C   C816      1.0  0.10692  0.84661  0.36989  1.0000
  C   C817      1.0  0.12614  0.86420  0.37736  1.0000
  H   H1421     1.0  0.10279  0.83535  0.40609  1.0000
  H   H1422     1.0  0.06913  0.80404  0.39280  1.0000
  H   H1423     1.0  0.10792  0.85001  0.35980  1.0000
  H   H1424     1.0  0.14189  0.88096  0.37300  1.0000
  C   C818      1.0  0.01878  0.72030  0.45453  1.0000
  H   H1425     1.0  0.01077  0.76102  0.33043  1.0000
  H   H1426     1.0  0.19937  0.83495  0.32793  1.0000
  C   C819      1.0  0.99711  0.72532  0.43044  1.0000
  C   C820      1.0  0.02238  0.72141  0.43153  1.0000
  C   C821      1.0  0.03305  0.71870  0.44354  1.0000
  H   H1427     1.0  0.24020  0.90129  0.48316  1.0000
  H   H1428     1.0  0.07019  0.88908  0.46804  1.0000
  H   H1429     1.0  0.03361  0.72036  0.42315  1.0000
  H   H1430     1.0  0.05260  0.71570  0.44431  1.0000
  H   H1431     1.0  0.05087  0.53413  0.35141  1.0000
  H   H1432     1.0  0.14053  0.98329  0.42437  1.0000
  C   C822      1.0  0.24169  0.95755  0.43460  1.0000
  C   C823      1.0  0.26640  0.95616  0.42986  1.0000
  C   C824      1.0  0.30061  0.81253  0.34300  1.0000
  H   H1433     1.0  0.29595  0.79602  0.33671  1.0000
  C   C825      1.0  0.27293  0.90047  0.32373  1.0000
  H   H1434     1.0  0.08426  0.75840  0.45692  1.0000
  H   H1435     1.0  0.05853  0.80346  0.48429  1.0000
  C   C826      1.0  0.02514  0.80295  0.41370  1.0000
  C   C827      1.0  0.39882  0.77401  0.32303  1.0000
  C   C828      1.0  0.19098  0.74714  0.33883  1.0000
  H   H1436     1.0  0.20312  0.86173  0.34376  1.0000
  H   H1437     1.0  0.22011  0.96317  0.45099  1.0000
  N   N44       1.0  0.47102  0.76591  0.32611  1.0000
  H   H1438     1.0  0.04202  0.81958  0.40925  1.0000
  C   C829      1.0  0.01274  0.58477  0.36095  1.0000
  C   C830      1.0  0.06390  0.81300  0.45198  1.0000
  C   C831      1.0  0.10233  0.61339  0.33087  1.0000
  S   S188      1.0  0.27108  0.94977  0.41402  1.0000
  H   H1439     1.0  0.42841  0.74241  0.32387  1.0000
  C   C832      1.0  0.27441  0.81735  0.34678  1.0000
  H   H1440     1.0  0.07116  0.87367  0.44073  1.0000
  H   H1441     1.0  0.17034  0.88750  0.45348  1.0000
  H   H1442     1.0  0.21178  0.90876  0.46622  1.0000
  H   H1443     1.0  0.01948  0.83131  0.43250  1.0000
  H   H1444     1.0  0.01550  0.79954  0.46532  1.0000
  C   C833      1.0  0.14308  0.90904  0.43819  1.0000
  H   H1445     1.0  0.30298  0.96593  0.45688  1.0000
  H   H1446     1.0  0.00663  0.55486  0.34790  1.0000
  C   C834      1.0  0.16439  0.89749  0.43388  1.0000
  C   C835      1.0  0.03107  0.79830  0.42750  1.0000
  S   S189      1.0  0.98232  0.72932  0.41577  1.0000
  H   H1447     1.0  0.19551  0.91571  0.44666  1.0000
  C   C836      1.0  0.05071  0.76240  0.32327  1.0000
  H   H1448     1.0  0.04880  0.77240  0.44620  1.0000
  H   H1449     1.0  0.07275  0.82129  0.46093  1.0000
  S   S190      1.0  0.99018  0.76490  0.38425  1.0000
  H   H1450     1.0  0.15333  0.92890  0.44151  1.0000
  Fe  Fe95      1.0  0.20653  0.97636  0.38512  1.0000
  H   H1451     1.0  0.09887  0.62255  0.33944  1.0000
  N   N45       1.0  0.03869  0.82011  0.44885  1.0000
  C   C837      1.0  0.28576  0.96364  0.45074  1.0000
  H   H1452     1.0  0.04855  0.77572  0.46288  1.0000
  C   C838      1.0  0.08670  0.58359  0.33168  1.0000
  H   H1453     1.0  0.31505  0.83037  0.33813  1.0000
  H   H1454     1.0  0.07948  0.72090  0.32822  1.0000
  C   C839      1.0  0.06947  0.86853  0.45097  1.0000
  C   C840      1.0  0.23175  0.84090  0.34813  1.0000
  H   H1455     1.0  0.99040  0.57938  0.36292  1.0000
  H   H1456     1.0  0.00384  0.68847  0.33969  1.0000
  S   S191      1.0  0.03354  0.71874  0.46950  1.0000
  C   C841      1.0  0.18330  0.89520  0.44485  1.0000
  H   H1457     1.0  0.10007  0.79051  0.46255  1.0000
  H   H1458     1.0  0.46839  0.69317  0.34284  1.0000
  C   C842      1.0  0.04219  0.84600  0.45434  1.0000
  H   H1459     1.0  0.04526  0.49511  0.33083  1.0000
  C   C843      1.0  0.04821  0.58375  0.34486  1.0000
  H   H1460     1.0  0.05817  0.57667  0.35283  1.0000
  H   H1461     1.0  0.11140  0.72534  0.33626  1.0000
  H   H1462     1.0  0.44884  0.72808  0.34728  1.0000
  N   N46       1.0  0.05574  0.57518  0.33257  1.0000
  H   H1463     1.0  0.07741  0.53369  0.34052  1.0000
  S   S192      1.0  0.20039  0.95079  0.40289  1.0000
  C   C844      1.0  0.04468  0.54591  0.33182  1.0000
  C   C845      1.0  0.03602  0.82317  0.43481  1.0000
  H   H1464     1.0  0.15238  0.95644  0.42183  1.0000
  C   C846      1.0  0.44076  0.76121  0.32779  1.0000
  H   H1465     1.0  0.12961  0.91023  0.43023  1.0000
  H   H1466     1.0  0.17206  0.74873  0.33449  1.0000
  H   H1467     1.0  0.28068  0.83442  0.35275  1.0000
  H   H1468     1.0  0.31075  0.80777  0.35150  1.0000
  C   C847      1.0  0.43011  0.78266  0.32220  1.0000
  H   H1469     1.0  0.05632  0.60534  0.34502  1.0000
  H   H1470     1.0  0.05501  0.83772  0.43060  1.0000
  H   H1471     1.0  0.47498  0.70412  0.35857  1.0000
  N   N47       1.0  0.09403  0.77173  0.33711  1.0000
  C   C848      1.0  0.06318  0.75993  0.33632  1.0000
  C   C849      1.0  0.10334  0.76747  0.35027  1.0000
  C   C850      1.0  0.10153  0.80078  0.33433  1.0000
  C   C851      1.0  0.24515  0.89779  0.47343  1.0000
  H   H1472     1.0  0.04060  0.84357  0.46482  1.0000
  C   C852      1.0  0.29674  0.89934  0.32958  1.0000
  C   C853      1.0  0.13161  0.81778  0.33701  1.0000
  C   C854      1.0  0.08722  0.74158  0.35767  1.0000
  C   C855      1.0  0.10147  0.73832  0.36988  1.0000
  H   H1473     1.0  0.23375  0.85367  0.32377  1.0000
  H   H1474     1.0  0.20613  0.84420  0.37145  1.0000
  H   H1475     1.0  0.22457  0.95488  0.42841  1.0000
  H   H1476     1.0  0.05345  0.76892  0.34322  1.0000
  H   H1477     1.0  0.05573  0.73883  0.33913  1.0000
  H   H1478     1.0  0.12547  0.76955  0.35016  1.0000
  H   H1479     1.0  0.10160  0.78280  0.35639  1.0000
  H   H1480     1.0  0.08803  0.80850  0.33991  1.0000
  C   C856      1.0  0.05508  0.52977  0.34173  1.0000
  C   C857      1.0  0.08770  0.77942  0.45488  1.0000
  S   S193      1.0  0.14299  0.87795  0.48097  1.0000
  S   S194      1.0  0.24857  0.97471  0.38094  1.0000
  C   C858      1.0  0.26113  0.96472  0.45560  1.0000
  H   H1481     1.0  0.08764  0.86335  0.45383  1.0000
  H   H1482     1.0  0.04645  0.60804  0.32386  1.0000
  C   C859      1.0  0.01323  0.80034  0.45490  1.0000
  H   H1483     1.0  0.13575  0.81726  0.34723  1.0000
  H   H1484     1.0  0.06646  0.74162  0.36024  1.0000
  H   H1485     1.0  0.08464  0.72434  0.35220  1.0000
  H   H1486     1.0  0.08901  0.71993  0.37506  1.0000
  H   H1487     1.0  0.12210  0.73729  0.36790  1.0000
  H   H1488     1.0  0.10343  0.75477  0.37595  1.0000
  H   H1489     1.0  0.04972  0.79263  0.42769  1.0000
  H   H1490     1.0  0.19528  0.73055  0.33478  1.0000
  C   C860      1.0  0.98563  0.80451  0.45190  1.0000
  H   H1491     1.0  0.04891  0.48940  0.34741  1.0000
  H   H1492     1.0  0.00135  0.56480  0.32401  1.0000
  H   H1493     1.0  0.09906  0.78548  0.44582  1.0000
  H   H1494     1.0  0.02164  0.57509  0.36834  1.0000
  N   N48       1.0  0.23010  0.82266  0.33772  1.0000
  H   H1495     1.0  0.02332  0.78527  0.40857  1.0000
  N   N49       1.0  0.20211  0.87973  0.44286  1.0000
  C   C861      1.0  0.21316  0.88416  0.42951  1.0000
  C   C862      1.0  0.22639  0.88966  0.45141  1.0000
  C   C863      1.0  0.18780  0.85122  0.44647  1.0000
  C   C864      1.0  0.16476  0.83575  0.43774  1.0000
  C   C865      1.0  0.23326  0.86970  0.42632  1.0000
  C   C866      1.0  0.21959  0.89231  0.46537  1.0000
  C   C867      1.0  0.15788  0.80642  0.44029  1.0000
  C   C868      1.0  0.24075  0.87311  0.41234  1.0000
  H   H1496     1.0  0.22398  0.90533  0.42734  1.0000
  H   H1497     1.0  0.19649  0.87882  0.42256  1.0000
  H   H1498     1.0  0.24027  0.90919  0.44782  1.0000
  H   H1499     1.0  0.23915  0.87686  0.45142  1.0000
  H   H1500     1.0  0.20304  0.84098  0.44743  1.0000
  H   H1501     1.0  0.17815  0.84873  0.45597  1.0000
  H   H1502     1.0  0.17041  0.83994  0.42766  1.0000
  H   H1503     1.0  0.14580  0.84026  0.43957  1.0000
  H   H1504     1.0  0.25266  0.87753  0.43152  1.0000
  H   H1505     1.0  0.22406  0.84851  0.42866  1.0000
  H   H1506     1.0  0.20388  0.87442  0.46946  1.0000
  H   H1507     1.0  0.17678  0.91066  0.42615  1.0000
  H   H1508     1.0  0.15338  0.87854  0.42995  1.0000
  H   H1509     1.0  0.15096  0.80062  0.45020  1.0000
  H   H1510     1.0  0.14126  0.79577  0.43397  1.0000
  H   H1511     1.0  0.17606  0.80069  0.43838  1.0000
  H   H1512     1.0  0.25498  0.86246  0.41032  1.0000
  H   H1513     1.0  0.22210  0.86531  0.40661  1.0000
  H   H1514     1.0  0.25121  0.89401  0.40957  1.0000
  H   H1515     1.0  0.02551  0.85335  0.45130  1.0000
  H   H1516     1.0  0.01277  0.72967  0.32692  1.0000
  H   H1517     1.0  0.13021  0.89657  0.44595  1.0000
  H   H1518     1.0  0.05380  0.89982  0.45487  1.0000
  H   H1519     1.0  0.00763  0.58637  0.34113  1.0000
  H   H1520     1.0  0.08039  0.82189  0.44475  1.0000
  H   H1521     1.0  0.98579  0.82394  0.45445  1.0000
  H   H1522     1.0  0.01045  0.78037  0.45210  1.0000
  H   H1523     1.0  0.24842  0.85990  0.34605  1.0000
  C   C869      1.0  0.04580  0.58817  0.32157  1.0000
  C   C870      1.0  0.01726  0.57619  0.34795  1.0000
  C   C871      1.0  0.20531  0.84711  0.35095  1.0000
  H   H1524     1.0  0.26180  0.91539  0.46961  1.0000
  H   H1525     1.0  0.21105  0.79235  0.35218  1.0000
  S   S195      1.0  0.18118  0.95002  0.47153  1.0000
  H   H1526     1.0  0.04978  0.54065  0.32242  1.0000
  C   C872      1.0  0.21053  0.79589  0.34181  1.0000
  H   H1527     1.0  0.26135  0.80020  0.35257  1.0000
  H   H1528     1.0  0.09304  0.57532  0.32333  1.0000
  H   H1529     1.0  0.05588  0.78303  0.31987  1.0000
  H   H1530     1.0  0.47692  0.78813  0.34282  1.0000
  H   H1531     1.0  0.23747  0.83287  0.35711  1.0000
  H   H1532     1.0  0.46337  0.72429  0.32568  1.0000
  C   C873      1.0  0.28832  0.95927  0.43803  1.0000
  H   H1533     1.0  0.00550  0.80684  0.41280  1.0000
  H   H1534     1.0  0.43811  0.80045  0.32755  1.0000
  H   H1535     1.0  0.25924  0.80916  0.32796  1.0000
  H   H1536     1.0  0.22536  0.87603  0.36443  1.0000
  H   H1537     1.0  0.02221  0.60626  0.36137  1.0000
  C   C874      1.0  0.20646  0.85879  0.36375  1.0000
  C   C875      1.0  0.21528  0.77216  0.33605  1.0000
  H   H1538     1.0  0.18845  0.86518  0.36500  1.0000
  C   C876      1.0  0.21988  0.83346  0.32615  1.0000
  H   H1539     1.0  0.27173  0.84242  0.33088  1.0000
  H   H1540     1.0  0.18682  0.82939  0.35091  1.0000
  H   H1541     1.0  0.18904  0.79474  0.33986  1.0000
  H   H1542     1.0  0.14108  0.61090  0.33784  1.0000
  C   C877      1.0  0.10849  0.76142  0.32749  1.0000
  C   C878      1.0  0.04097  0.50057  0.34031  1.0000
  C   C879      1.0  0.47099  0.73352  0.34491  1.0000
  C   C880      1.0  0.04491  0.66627  0.32141  1.0000
  H   H1543     1.0  0.20000  0.98359  0.42468  1.0000
  H   H1544     1.0  0.18758  0.74302  0.34912  1.0000
  H   H1545     1.0  0.25258  0.88094  0.47376  1.0000
  C   C881      1.0  0.99348  0.72405  0.45336  1.0000
  H   H1546     1.0  0.01342  0.78185  0.43143  1.0000
  S   S196      1.0  0.25933  0.96935  0.47190  1.0000
  C   C882      1.0  0.47631  0.74141  0.33070  1.0000
  H   H1547     1.0  0.10730  0.82625  0.47839  1.0000
  H   H1548     1.0  0.98200  0.72479  0.46166  1.0000
  H   H1549     1.0  0.12255  0.85396  0.33745  1.0000
  H   H1550     1.0  0.21838  0.77468  0.32577  1.0000
  C   C883      1.0  0.98277  0.72653  0.44143  1.0000
  H   H1551     1.0  0.13108  0.76990  0.32845  1.0000
  H   H1552     1.0  0.13832  0.61145  0.32093  1.0000
  C   C884      1.0  0.01942  0.75061  0.32383  1.0000
  C   C885      1.0  0.13707  0.84626  0.33272  1.0000
  H   H1553     1.0  0.14655  0.81113  0.33202  1.0000
  H   H1554     1.0  0.09574  0.62284  0.32265  1.0000
  C   C886      1.0  0.15785  0.97789  0.42075  1.0000
  H   H1555     1.0  0.01843  0.49495  0.34176  1.0000
  H   H1556     1.0  0.15824  0.85829  0.33517  1.0000
  Fe  Fe96      1.0  0.21932  0.96003  0.48270  1.0000
  C   C887      1.0  0.09590  0.83641  0.48317  1.0000
  H   H1557     1.0  0.13489  0.84824  0.32239  1.0000
  H   H1558     1.0  0.09794  0.80510  0.32430  1.0000
  Fe  Fe97      1.0  0.16970  0.97635  0.48406  1.0000
  H   H1559     1.0  0.98115  0.80237  0.44175  1.0000
  C   C888      1.0  0.47963  0.70996  0.34847  1.0000
  S   S197      1.0  0.98468  0.75000  0.48439  1.0000
  H   H1560     1.0  0.39191  0.78996  0.31908  1.0000
  Fe  Fe98      1.0  0.21797  0.94646  0.60133  1.0000
  S   S198      1.0  0.17507  0.94486  0.60576  1.0000
  S   S199      1.0  0.23239  0.93875  0.58211  1.0000
  Fe  Fe99      1.0  0.23802  0.96062  0.62854  1.0000
  Fe  Fe100     1.0  0.17893  0.92346  0.62388  1.0000
  S   S200      1.0  0.14191  0.89094  0.63288  1.0000
  H   H1561     1.0  0.09767  0.82571  0.59185  1.0000
  S   S201      1.0  0.22087  0.92250  0.61891  1.0000
  H   H1562     1.0  0.12863  0.86741  0.57207  1.0000
  Fe  Fe101     1.0  0.02592  0.74877  0.62188  1.0000
  S   S202      1.0  0.01533  0.70539  0.61978  1.0000
  S   S203      1.0  0.07084  0.77537  0.61866  1.0000
  H   H1563     1.0  0.08280  0.89050  0.57227  1.0000
  C   C889      1.0  0.09047  0.89698  0.59785  1.0000
  Fe  Fe102     1.0  0.98365  0.69931  0.63543  1.0000
  H   H1564     1.0  0.19615  0.82393  0.62924  1.0000
  H   H1565     1.0  0.14351  0.79074  0.49071  1.0000
  S   S204      1.0  0.99537  0.75218  0.60757  1.0000
  Fe  Fe103     1.0  0.18817  0.95430  0.50817  1.0000
  S   S205      1.0  0.14768  0.94423  0.49820  1.0000
  C   C890      1.0  0.20693  0.86223  0.63778  1.0000
  H   H1566     1.0  0.11424  0.81675  0.64985  1.0000
  C   C891      1.0  0.05625  0.81396  0.58562  1.0000
  H   H1567     1.0  0.23214  0.83948  0.63182  1.0000
  C   C892      1.0  0.21295  0.84293  0.62898  1.0000
  C   C893      1.0  0.06837  0.82344  0.48661  1.0000
  C   C894      1.0  0.09381  0.87579  0.49173  1.0000
  S   S206      1.0  0.20289  0.92696  0.49734  1.0000
  Fe  Fe104     1.0  0.00892  0.77667  0.49865  1.0000
  S   S207      1.0  0.04129  0.75810  0.50022  1.0000
  H   H1568     1.0  0.18684  0.95688  0.57521  1.0000
  C   C895      1.0  0.13255  0.84514  0.62049  1.0000
  H   H1569     1.0  0.22143  0.83964  0.60932  1.0000
  Fe  Fe105     1.0  0.01507  0.73312  0.51608  1.0000
  C   C896      1.0  0.08178  0.90166  0.61094  1.0000
  H   H1570     1.0  0.09349  0.89489  0.61824  1.0000
  H   H1571     1.0  0.07116  0.89194  0.54990  1.0000
  C   C897      1.0  0.17195  0.88678  0.58701  1.0000
  H   H1572     1.0  0.08616  0.92283  0.61185  1.0000
  H   H1573     1.0  0.22580  0.87986  0.63705  1.0000
  S   S208      1.0  0.18166  0.95799  0.52921  1.0000
  C   C898      1.0  0.05351  0.83653  0.49271  1.0000
  C   C899      1.0  0.19587  0.95161  0.54372  1.0000
  S   S209      1.0  0.99634  0.74283  0.63821  1.0000
  H   H1574     1.0  0.16727  0.96325  0.55452  1.0000
  C   C900      1.0  0.18457  0.95643  0.55494  1.0000
  H   H1575     1.0  0.10346  0.89606  0.49361  1.0000
  S   S210      1.0  0.27843  0.97113  0.63966  1.0000
  H   H1576     1.0  0.98596  0.76745  0.56915  1.0000
  C   C901      1.0  0.01569  0.72115  0.57246  1.0000
  C   C902      1.0  0.02992  0.72931  0.56087  1.0000
  C   C903      1.0  0.01622  0.72338  0.54942  1.0000
  H   H1577     1.0  0.11941  0.76550  0.50057  1.0000
  H   H1578     1.0  0.05746  0.81422  0.63310  1.0000
  Fe  Fe106     1.0  0.16367  0.91898  0.48674  1.0000
  H   H1579     1.0  0.12539  0.80845  0.61198  1.0000
  H   H1580     1.0  0.05949  0.89131  0.61263  1.0000
  H   H1581     1.0  0.19879  0.85772  0.61183  1.0000
  C   C904      1.0  0.12173  0.85957  0.62803  1.0000
  C   C905      1.0  0.09449  0.84818  0.63253  1.0000
  C   C906      1.0  0.07827  0.82276  0.62948  1.0000
  C   C907      1.0  0.08935  0.80815  0.62214  1.0000
  S   S211      1.0  0.03531  0.73233  0.53505  1.0000
  C   C908      1.0  0.21729  0.85389  0.61536  1.0000
  C   C909      1.0  0.21790  0.94384  0.56744  1.0000
  H   H1582     1.0  0.17477  0.90762  0.58490  1.0000
  H   H1583     1.0  0.06137  0.85806  0.59770  1.0000
  S   S212      1.0  0.01918  0.82019  0.49724  1.0000
  C   C910      1.0  0.21815  0.94263  0.54443  1.0000
  C   C911      1.0  0.22899  0.93866  0.55624  1.0000
  H   H1584     1.0  0.09326  0.85924  0.60390  1.0000
  H   H1585     1.0  0.05177  0.73971  0.56078  1.0000
  H   H1586     1.0  0.22714  0.93890  0.53590  1.0000
  H   H1587     1.0  0.24627  0.93178  0.55669  1.0000
  N   N50       1.0  0.10535  0.81417  0.52678  1.0000
  C   C912      1.0  0.12492  0.80779  0.53584  1.0000
  C   C913      1.0  0.11384  0.84332  0.52386  1.0000
  C   C914      1.0  0.07748  0.80537  0.53318  1.0000
  C   C915      1.0  0.10276  0.79987  0.51487  1.0000
  C   C916      1.0  0.12948  0.80471  0.50719  1.0000
  C   C917      1.0  0.11832  0.77852  0.53983  1.0000
  C   C918      1.0  0.05449  0.81188  0.52587  1.0000
  C   C919      1.0  0.14495  0.85930  0.52392  1.0000
  C   C920      1.0  0.15029  0.88770  0.51959  1.0000
  H   H1588     1.0  0.15564  0.81695  0.63736  1.0000
  C   C921      1.0  0.14053  0.77461  0.54836  1.0000
  C   C922      1.0  0.02813  0.80420  0.53375  1.0000
  H   H1589     1.0  0.12589  0.81841  0.54457  1.0000
  H   H1590     1.0  0.14617  0.81479  0.53197  1.0000
  H   H1591     1.0  0.10570  0.84747  0.51460  1.0000
  H   H1592     1.0  0.10456  0.85253  0.53084  1.0000
  H   H1593     1.0  0.07899  0.81368  0.54258  1.0000
  H   H1594     1.0  0.06964  0.78393  0.53492  1.0000
  H   H1595     1.0  0.09268  0.77852  0.51685  1.0000
  H   H1596     1.0  0.08881  0.80545  0.50829  1.0000
  H   H1597     1.0  0.14606  0.80196  0.51304  1.0000
  H   H1598     1.0  0.13646  0.82478  0.50277  1.0000
  H   H1599     1.0  0.09865  0.77052  0.54518  1.0000
  H   H1600     1.0  0.11719  0.76677  0.53154  1.0000
  H   H1601     1.0  0.04949  0.80078  0.51728  1.0000
  H   H1602     1.0  0.06034  0.83290  0.52305  1.0000
  H   H1603     1.0  0.15293  0.85930  0.53361  1.0000
  H   H1604     1.0  0.15696  0.85137  0.51773  1.0000
  H   H1605     1.0  0.14462  0.88910  0.50959  1.0000
  H   H1606     1.0  0.13845  0.89659  0.52543  1.0000
  H   H1607     1.0  0.17242  0.89903  0.52052  1.0000
  H   H1608     1.0  0.15348  0.85344  0.61710  1.0000
  S   S213      1.0  0.99256  0.70194  0.50299  1.0000
  C   C923      1.0  0.08674  0.83165  0.58390  1.0000
  H   H1609     1.0  0.16072  0.78127  0.54336  1.0000
  H   H1610     1.0  0.14211  0.78547  0.55701  1.0000
  H   H1611     1.0  0.13519  0.75358  0.55115  1.0000
  H   H1612     1.0  0.02107  0.78309  0.53660  1.0000
  H   H1613     1.0  0.03116  0.81561  0.54226  1.0000
  H   H1614     1.0  0.01207  0.80817  0.52795  1.0000
  H   H1615     1.0  0.05471  0.87305  0.49985  1.0000
  C   C924      1.0  0.11654  0.81960  0.61761  1.0000
  Fe  Fe107     1.0  0.01521  0.72942  0.48694  1.0000
  C   C925      1.0  0.14231  0.87203  0.59107  1.0000
  C   C926      1.0  0.19558  0.95276  0.56671  1.0000
  H   H1616     1.0  0.06493  0.77811  0.59010  1.0000
  H   H1617     1.0  0.18602  0.88552  0.59469  1.0000
  C   C927      1.0  0.06236  0.87032  0.55055  1.0000
  H   H1618     1.0  0.02661  0.72523  0.58120  1.0000
  H   H1619     1.0  0.17763  0.87861  0.57854  1.0000
  H   H1620     1.0  0.06421  0.86325  0.54114  1.0000
  C   C928      1.0  0.08387  0.86746  0.59609  1.0000
  H   H1621     1.0  0.05917  0.78378  0.57359  1.0000
  H   H1622     1.0  0.23513  0.87228  0.61454  1.0000
  C   C929      1.0  0.12463  0.78585  0.49662  1.0000
  N   N51       1.0  0.19991  0.85321  0.65145  1.0000
  N   N52       1.0  0.09215  0.86061  0.58354  1.0000
  C   C930      1.0  0.05273  0.78566  0.58332  1.0000
  H   H1623     1.0  0.09938  0.86479  0.55683  1.0000
  C   C931      1.0  0.07590  0.86887  0.57342  1.0000
  H   H1624     1.0  0.08592  0.85902  0.63849  1.0000
  C   C932      1.0  0.12226  0.87461  0.58070  1.0000
  H   H1625     1.0  0.06859  0.83747  0.56025  1.0000
  H   H1626     1.0  0.04906  0.81456  0.59538  1.0000
  S   S214      1.0  0.19618  0.96018  0.63460  1.0000
  H   H1627     1.0  0.07928  0.90539  0.59096  1.0000
  H   H1628     1.0  0.12645  0.89579  0.57851  1.0000
  H   H1629     1.0  0.04025  0.86422  0.55317  1.0000
  H   H1630     1.0  0.13858  0.88042  0.59985  1.0000
  H   H1631     1.0  0.05383  0.86291  0.57620  1.0000
  H   H1632     1.0  0.14043  0.85140  0.59311  1.0000
  C   C933      1.0  0.06620  0.86278  0.49521  1.0000
  H   H1633     1.0  0.10761  0.78710  0.49056  1.0000
  H   H1634     1.0  0.09537  0.82629  0.57533  1.0000
  H   H1635     1.0  0.03081  0.77344  0.58460  1.0000
  H   H1636     1.0  0.15871  0.85422  0.64939  1.0000
  C   C934      1.0  0.07778  0.85899  0.56017  1.0000
  H   H1637     1.0  0.11272  0.90796  0.59670  1.0000
  H   H1638     1.0  0.04257  0.81990  0.57906  1.0000
  C   C935      1.0  0.98768  0.70652  0.57273  1.0000
  Fe  Fe108     1.0  0.98291  0.70913  0.60635  1.0000
  H   H1639     1.0  0.16519  0.80001  0.65058  1.0000
  H   H1640     1.0  0.19042  0.86851  0.63345  1.0000
  H   H1641     1.0  0.20964  0.81774  0.65008  1.0000
  C   C936      1.0  0.98800  0.70965  0.54969  1.0000
  H   H1642     1.0  0.11489  0.78489  0.64683  1.0000
  C   C937      1.0  0.15527  0.81443  0.64773  1.0000
  C   C938      1.0  0.12518  0.80275  0.65194  1.0000
  S   S215      1.0  0.98413  0.75339  0.51509  1.0000
  Fe  Fe109     1.0  0.19557  0.98121  0.61598  1.0000
  H   H1643     1.0  0.20078  0.90494  0.64555  1.0000
  C   C939      1.0  0.10865  0.86256  0.48569  1.0000
  H   H1644     1.0  0.21096  0.91860  0.67318  1.0000
  H   H1645     1.0  0.22065  0.79742  0.68262  1.0000
  H   H1646     1.0  0.99536  0.74403  0.66876  1.0000
  C   C940      1.0  0.21012  0.82456  0.66974  1.0000
  H   H1647     1.0  0.00790  0.58076  0.69614  1.0000
  H   H1648     1.0  0.22280  0.98025  0.74632  1.0000
  H   H1649     1.0  0.21520  0.78722  0.66675  1.0000
  H   H1650     1.0  0.99282  0.71117  0.67346  1.0000
  H   H1651     1.0  0.20452  0.87165  0.66929  1.0000
  H   H1652     1.0  0.98502  0.73163  0.68465  1.0000
  H   H1653     1.0  0.25441  0.97971  0.66348  1.0000
  C   C941      1.0  0.99257  0.56422  0.70149  1.0000
  H   H1654     1.0  0.23489  0.93128  0.66010  1.0000
  H   H1655     1.0  0.21893  0.84047  0.67620  1.0000
  H   H1656     1.0  0.30542  0.96383  0.70953  1.0000
  C   C942      1.0  0.20988  0.87694  0.65919  1.0000
  H   H1657     1.0  0.12354  0.79746  0.66218  1.0000
  H   H1658     1.0  0.98502  0.64886  0.67789  1.0000
  H   H1659     1.0  0.23274  0.88545  0.65860  1.0000
  H   H1660     1.0  0.27124  0.98108  0.74049  1.0000
  H   H1661     1.0  0.99797  0.53619  0.68952  1.0000
  C   C943      1.0  0.22400  0.80429  0.67257  1.0000
  H   H1662     1.0  0.33336  0.97379  0.73520  1.0000
  H   H1663     1.0  0.20348  0.93849  0.66067  1.0000
  H   H1664     1.0  0.29712  0.96214  0.73255  1.0000
  H   H1665     1.0  0.00292  0.55812  0.70960  1.0000
  H   H1666     1.0  0.17602  0.89280  0.65815  1.0000
  H   H1667     1.0  0.18794  0.81511  0.67197  1.0000
  H   H1668     1.0  0.24645  0.81287  0.67069  1.0000
  C   C944      1.0  0.19822  0.89908  0.65570  1.0000
  C   C945      1.0  0.31713  0.97507  0.72863  1.0000
  H   H1669     1.0  0.16392  0.83901  0.66365  1.0000
  C   C946      1.0  0.21283  0.92328  0.66289  1.0000
  C   C947      1.0  0.32187  0.96410  0.71628  1.0000
  C   C948      1.0  0.21496  0.83506  0.65582  1.0000
  H   H1670     1.0  0.32178  0.94387  0.71804  1.0000
  H   H1671     1.0  0.99139  0.52323  0.74200  1.0000
  H   H1672     1.0  0.99026  0.53162  0.66613  1.0000
  H   H1673     1.0  0.34196  0.97599  0.71196  1.0000
  H   H1674     1.0  0.01744  0.50253  0.66992  1.0000
  H   H1675     1.0  0.23749  0.84501  0.65435  1.0000
  C   C949      1.0  0.99795  0.48606  0.66897  1.0000
  C   C950      1.0  0.29263  0.98373  0.65433  1.0000
  C   C951      1.0  0.16928  0.84106  0.65346  1.0000
  C   C952      1.0  0.98349  0.72648  0.67467  1.0000
  C   C953      1.0  0.98048  0.54130  0.69312  1.0000
  H   H1676     1.0  0.98060  0.56508  0.67673  1.0000
  H   H1677     1.0  0.46805  0.95645  0.84155  1.0000
  H   H1678     1.0  0.26844  0.89528  0.96490  1.0000
  H   H1679     1.0  0.01206  0.57225  0.91706  1.0000
  H   H1680     1.0  0.46342  0.95914  0.82483  1.0000
  H   H1681     1.0  0.98717  0.52336  0.85963  1.0000
  H   H1682     1.0  0.99415  0.52533  0.92313  1.0000
  H   H1683     1.0  0.27772  0.86628  0.96385  1.0000
  H   H1684     1.0  0.99866  0.49902  0.90320  1.0000
  H   H1685     1.0  0.30398  0.89793  0.96382  1.0000
  S   S216      1.0  0.37002  0.96696  0.97396  1.0000
  C   C954      1.0  0.99234  0.56370  0.92236  1.0000
  C   C955      1.0  0.28356  0.88580  0.96779  1.0000
  H   H1686     1.0  0.99452  0.51091  0.88175  1.0000
  C   C956      1.0  0.47039  0.97038  0.83331  1.0000
  H   H1687     1.0  0.99285  0.53924  0.90095  1.0000
  H   H1688     1.0  0.99648  0.56617  0.93253  1.0000
  H   H1689     1.0  0.44822  0.97104  0.98068  1.0000
  H   H1690     1.0  0.99401  0.58625  0.97888  1.0000
  H   H1691     1.0  0.45701  0.98223  0.83474  1.0000
  C   C957      1.0  0.28510  0.88355  0.98210  1.0000
  H   H1692     1.0  0.24890  0.84944  0.98292  1.0000
  H   H1693     1.0  0.34800  0.91458  0.98488  1.0000
  H   H1694     1.0  0.30074  0.87439  0.98443  1.0000
  H   H1695     1.0  0.98396  0.53924  0.88043  1.0000
  H   H1696     1.0  0.29230  0.90373  0.98530  1.0000
  H   H1697     1.0  0.65110  0.02247  0.02054  1.0000
  C   C958      1.0  0.75470  0.10385  0.03510  1.0000
  C   C959      1.0  0.49841  0.35071  0.99087  1.0000
  C   C960      1.0  0.97476  0.31250  0.99051  1.0000
  C   C961      1.0  0.50397  0.33666  0.00309  1.0000
  H   H1698     1.0  0.93509  0.35568  0.01305  1.0000
  C   C962      1.0  0.82982  0.45378  0.98575  1.0000
  H   H1699     1.0  0.59218  0.15630  0.99219  1.0000
  C   C963      1.0  0.92314  0.36187  0.00563  1.0000
  H   H1700     1.0  0.88162  0.34578  0.99844  1.0000
  H   H1701     1.0  0.56797  0.45741  0.00303  1.0000
  H   H1702     1.0  0.66611  0.08218  0.02040  1.0000
  H   H1703     1.0  0.61195  0.03803  0.01576  1.0000
  H   H1704     1.0  0.93646  0.29830  0.00082  1.0000
  C   C964      1.0  0.66389  0.04120  0.02430  1.0000
  H   H1705     1.0  0.86837  0.46245  0.99579  1.0000
  H   H1706     1.0  0.65241  0.48267  0.02523  1.0000
  H   H1707     1.0  0.56722  0.42768  0.01147  1.0000
  H   H1708     1.0  0.69844  0.07758  0.03467  1.0000
  H   H1709     1.0  0.74288  0.11310  0.04075  1.0000
  C   C965      1.0  0.73841  0.07503  0.03377  1.0000
  H   H1710     1.0  0.77429  0.10585  0.03992  1.0000
  N   N53       1.0  0.69402  0.04447  0.02336  1.0000
  H   H1711     1.0  0.54400  0.39111  0.99056  1.0000
  H   H1712     1.0  0.53079  0.38590  0.00626  1.0000
  H   H1713     1.0  0.68613  0.02342  0.00632  1.0000
  H   H1714     1.0  0.54058  0.15137  0.99321  1.0000
  H   H1715     1.0  0.52002  0.47056  0.99763  1.0000
  H   H1716     1.0  0.75457  0.03754  0.99137  1.0000
  H   H1717     1.0  0.71369  0.08605  0.01946  1.0000
  H   H1718     1.0  0.55421  0.11470  0.98925  1.0000
  H   H1719     1.0  0.65835  0.06261  0.00694  1.0000
  C   C966      1.0  0.95836  0.30812  0.00140  1.0000
  C   C967      1.0  0.65486  0.06247  0.01719  1.0000
  C   C968      1.0  0.89500  0.34056  0.00548  1.0000
  H   H1720     1.0  0.69758  0.05751  0.00369  1.0000
  H   H1721     1.0  0.71873  0.01801  0.99089  1.0000
  H   H1722     1.0  0.81043  0.45795  0.98689  1.0000
  H   H1723     1.0  0.51431  0.17522  0.99671  1.0000
  C   C969      1.0  0.52779  0.39363  0.99673  1.0000
  H   H1724     1.0  0.65748  0.04028  0.03435  1.0000
  H   H1725     1.0  0.49864  0.06866  0.00512  1.0000
  H   H1726     1.0  0.69324  0.02622  0.04189  1.0000
  H   H1727     1.0  0.74497  0.06224  0.00842  1.0000
  H   H1728     1.0  0.73572  0.02777  0.01279  1.0000
  H   H1729     1.0  0.48480  0.37941  0.01081  1.0000
  H   H1730     1.0  0.75962  0.11428  0.02571  1.0000
  H   H1731     1.0  0.52601  0.34453  0.00549  1.0000
  H   H1732     1.0  0.75134  0.06662  0.02843  1.0000
  C   C970      1.0  0.62423  0.05729  0.01924  1.0000
  C   C971      1.0  0.71031  0.07138  0.02752  1.0000
  H   H1733     1.0  0.88495  0.33804  0.01488  1.0000
  H   H1734     1.0  0.50377  0.11436  0.99854  1.0000
  H   H1735     1.0  0.50361  0.47717  0.05158  1.0000
  H   H1736     1.0  0.73502  0.06532  0.04335  1.0000
  S   S217      1.0  0.63283  0.00975  0.99509  1.0000
  H   H1737     1.0  0.49148  0.33897  0.01109  1.0000
  H   H1738     1.0  0.95732  0.31240  0.02143  1.0000
  N   N54       1.0  0.96380  0.38923  0.99088  1.0000
  H   H1739     1.0  0.48507  0.14688  0.00110  1.0000
  H   H1740     1.0  0.72985  0.05276  0.98693  1.0000
  N   N55       1.0  0.49972  0.37860  0.99193  1.0000
  C   C972      1.0  0.70067  0.04170  0.00984  1.0000
  C   C973      1.0  0.49356  0.16293  0.99385  1.0000
  H   H1741     1.0  0.89719  0.32174  0.00321  1.0000
  H   H1742     1.0  0.72071  0.02554  0.03226  1.0000
  C   C974      1.0  0.84818  0.46522  0.99672  1.0000
  H   H1743     1.0  0.48581  0.04374  0.99403  1.0000
  C   C975      1.0  0.49709  0.30752  0.00150  1.0000
  H   H1744     1.0  0.51460  0.47833  0.02023  1.0000
  H   H1745     1.0  0.95442  0.41915  0.00053  1.0000
  H   H1746     1.0  0.94273  0.34745  0.99125  1.0000
  C   C976      1.0  0.73019  0.04256  0.00694  1.0000
  C   C977      1.0  0.73339  0.03733  0.99319  1.0000
  H   H1747     1.0  0.61821  0.07250  0.01392  1.0000
  C   C978      1.0  0.95577  0.41343  0.99074  1.0000
  H   H1748     1.0  0.92023  0.38018  0.00822  1.0000
  C   C979      1.0  0.93810  0.36557  0.99272  1.0000
  C   C980      1.0  0.56382  0.43625  0.00220  1.0000
  H   H1749     1.0  0.52072  0.42647  0.00523  1.0000
  C   C981      1.0  0.69873  0.02367  0.03205  1.0000
  H   H1750     1.0  0.50177  0.29807  0.01027  1.0000
  C   C982      1.0  0.53433  0.42319  0.99798  1.0000
  H   H1751     1.0  0.50942  0.30420  0.99366  1.0000
  C   C983      1.0  0.97031  0.31612  0.01312  1.0000
  H   H1752     1.0  0.83827  0.45592  0.00581  1.0000
  H   H1753     1.0  0.97142  0.46694  0.99556  1.0000
  H   H1754     1.0  0.79964  0.37342  0.99534  1.0000
  H   H1755     1.0  0.66041  0.99046  0.02979  1.0000
  C   C984      1.0  0.49557  0.11019  0.98892  1.0000
  H   H1756     1.0  0.81091  0.41535  0.99394  1.0000
  H   H1757     1.0  0.80914  0.33625  0.98632  1.0000
  C   C985      1.0  0.49671  0.08313  0.98580  1.0000
  H   H1758     1.0  0.61943  0.05773  0.02935  1.0000
  C   C986      1.0  0.48564  0.06304  0.99674  1.0000
  H   H1759     1.0  0.53212  0.43311  0.98891  1.0000
  H   H1760     1.0  0.57859  0.43396  0.99521  1.0000
  H   H1761     1.0  0.97281  0.38967  0.01079  1.0000
  H   H1762     1.0  0.93472  0.40943  0.98700  1.0000
  C   C987      1.0  0.68290  0.99501  0.02903  1.0000
  H   H1763     1.0  0.68824  0.99108  0.01946  1.0000
  H   H1764     1.0  0.76913  0.36711  0.98601  1.0000
  C   C988      1.0  0.79031  0.36650  0.98625  1.0000
  H   H1765     1.0  0.48060  0.42025  0.99656  1.0000
  H   H1766     1.0  0.77604  0.32656  0.99407  1.0000
  H   H1767     1.0  0.84357  0.42022  0.98693  1.0000
  H   H1768     1.0  0.48270  0.19627  0.98654  1.0000
  H   H1769     1.0  0.53209  0.48256  0.04078  1.0000
  C   C989      1.0  0.96709  0.46199  0.98562  1.0000
  C   C990      1.0  0.78836  0.33798  0.98589  1.0000
  H   H1770     1.0  0.97985  0.27043  0.25639  1.0000
  C   C991      1.0  0.51775  0.47246  0.27470  1.0000
  H   H1771     1.0  0.80816  0.05779  0.31679  1.0000
  H   H1772     1.0  0.82658  0.02759  0.29711  1.0000
  H   H1773     1.0  0.94575  0.26760  0.27346  1.0000
  H   H1774     1.0  0.97188  0.26944  0.28505  1.0000
  H   H1775     1.0  0.50041  0.46204  0.26867  1.0000
  C   C992      1.0  0.82577  0.04569  0.30112  1.0000
  H   H1776     1.0  0.81603  0.05558  0.29419  1.0000
  H   H1777     1.0  0.53621  0.46771  0.27211  1.0000
  C   C993      1.0  0.80911  0.03934  0.31341  1.0000
  H   H1778     1.0  0.84700  0.05892  0.30271  1.0000
  H   H1779     1.0  0.78784  0.02700  0.31120  1.0000
  C   C994      1.0  0.96497  0.26345  0.27545  1.0000
  H   H1780     1.0  0.51206  0.46546  0.28462  1.0000
  H   H1781     1.0  0.96052  0.24212  0.27520  1.0000
  H   H1782     1.0  0.97431  0.31088  0.26266  1.0000
  H   H1783     1.0  0.97950  0.35226  0.25968  1.0000
  H   H1784     1.0  0.83826  0.07725  0.33089  1.0000
  H   H1785     1.0  0.86832  0.14015  0.41347  1.0000
  H   H1786     1.0  0.82127  0.04968  0.45071  1.0000
  C   C995      1.0  0.88515  0.10448  0.44562  1.0000
  S   S218      1.0  0.84697  0.01656  0.37275  1.0000
  H   H1787     1.0  0.85672  0.04970  0.46536  1.0000
  C   C996      1.0  0.85211  0.01838  0.44515  1.0000
  C   C997      1.0  0.78022  0.01743  0.33661  1.0000
  C   C998      1.0  0.86152  0.00036  0.43690  1.0000
  H   H1788     1.0  0.66744  0.99292  0.39243  1.0000
  H   H1789     1.0  0.79920  0.05980  0.41865  1.0000
  C   C999      1.0  0.70839  0.01851  0.39511  1.0000
  Fe  Fe110     1.0  0.95293  0.16421  0.37455  1.0000
  S   S219      1.0  0.90721  0.13926  0.37626  1.0000
  H   H1790     1.0  0.85837  0.00958  0.34554  1.0000
  C   C1000     1.0  0.73548  0.01000  0.34844  1.0000
  H   H1791     1.0  0.89154  0.02990  0.46135  1.0000
  C   C1001     1.0  0.86406  0.05027  0.37500  1.0000
  C   C1002     1.0  0.85076  0.06591  0.38018  1.0000
  C   C1003     1.0  0.86448  0.09299  0.38075  1.0000
  C   C1004     1.0  0.89177  0.10473  0.37636  1.0000
  C   C1005     1.0  0.90534  0.08893  0.37161  1.0000
  C   C1006     1.0  0.89146  0.06194  0.37082  1.0000
  H   H1792     1.0  0.82962  0.05731  0.38333  1.0000
  H   H1793     1.0  0.85368  0.10504  0.38435  1.0000
  H   H1794     1.0  0.92627  0.09763  0.36815  1.0000
  H   H1795     1.0  0.90198  0.05009  0.36678  1.0000
  C   C1007     1.0  0.82670  0.04340  0.34422  1.0000
  N   N56       1.0  0.81045  0.02099  0.33655  1.0000
  C   C1008     1.0  0.88836  0.13728  0.41212  1.0000
  C   C1009     1.0  0.87053  0.09101  0.41881  1.0000
  C   C1010     1.0  0.88667  0.12481  0.43464  1.0000
  C   C1011     1.0  0.91963  0.11512  0.42108  1.0000
  H   H1796     1.0  0.88790  0.13053  0.40242  1.0000
  H   H1797     1.0  0.82835  0.08609  0.35840  1.0000
  H   H1798     1.0  0.86869  0.08569  0.44425  1.0000
  H   H1799     1.0  0.86711  0.03853  0.44378  1.0000
  H   H1800     1.0  0.81798  0.06870  0.47160  1.0000
  C   C1012     1.0  0.87597  0.00953  0.47905  1.0000
  H   H1801     1.0  0.86151  0.09133  0.35114  1.0000
  H   H1802     1.0  0.77533  0.02764  0.35603  1.0000
  H   H1803     1.0  0.93021  0.12497  0.40093  1.0000
  H   H1804     1.0  0.83452  0.10250  0.41429  1.0000
  H   H1805     1.0  0.86776  0.13015  0.43496  1.0000
  C   C1013     1.0  0.86673  0.01144  0.42330  1.0000
  C   C1014     1.0  0.83992  0.08829  0.42064  1.0000
  C   C1015     1.0  0.81462  0.03690  0.45940  1.0000
  H   H1806     1.0  0.90360  0.14276  0.43702  1.0000
  H   H1807     1.0  0.70944  0.03013  0.38614  1.0000
  H   H1808     1.0  0.84870  0.04513  0.34436  1.0000
  C   C1016     1.0  0.92911  0.10924  0.40812  1.0000
  H   H1809     1.0  0.87451  0.07495  0.42442  1.0000
  H   H1810     1.0  0.84775  0.01344  0.41920  1.0000
  H   H1811     1.0  0.91504  0.09064  0.40477  1.0000
  H   H1812     1.0  0.82447  0.04601  0.42401  1.0000
  H   H1813     1.0  0.80527  0.07096  0.33858  1.0000
  H   H1814     1.0  0.84096  0.11047  0.34578  1.0000
  H   H1815     1.0  0.87716  0.02851  0.48275  1.0000
  H   H1816     1.0  0.90493  0.10093  0.44656  1.0000
  H   H1817     1.0  0.73389  0.02841  0.34416  1.0000
  Fe  Fe111     1.0  0.96964  0.15989  0.48359  1.0000
  N   N57       1.0  0.84796  0.01057  0.45900  1.0000
  H   H1818     1.0  0.88380  0.18639  0.40643  1.0000
  H   H1819     1.0  0.91984  0.20357  0.40366  1.0000
  C   C1017     1.0  0.87513  0.01135  0.46448  1.0000
  H   H1820     1.0  0.74459  0.99136  0.46590  1.0000
  C   C1018     1.0  0.82641  0.07072  0.33983  1.0000
  C   C1019     1.0  0.95756  0.10670  0.40902  1.0000
  H   H1821     1.0  0.96607  0.19662  0.42074  1.0000
  H   H1822     1.0  0.82437  0.05700  0.40772  1.0000
  H   H1823     1.0  0.78577  0.05648  0.46355  1.0000
  H   H1824     1.0  0.83530  0.09147  0.43044  1.0000
  H   H1825     1.0  0.90162  0.17799  0.39365  1.0000
  H   H1826     1.0  0.79270  0.03772  0.47668  1.0000
  H   H1827     1.0  0.85907  0.11707  0.45800  1.0000
  H   H1828     1.0  0.75040  0.01319  0.44451  1.0000
  C   C1020     1.0  0.91065  0.16463  0.41226  1.0000
  C   C1021     1.0  0.80212  0.05087  0.46838  1.0000
  H   H1829     1.0  0.93080  0.16395  0.40913  1.0000
  H   H1830     1.0  0.94248  0.19343  0.44146  1.0000
  C   C1022     1.0  0.75036  0.99339  0.44570  1.0000
  C   C1023     1.0  0.90342  0.18425  0.40345  1.0000
  H   H1831     1.0  0.70199  0.02840  0.40275  1.0000
  S   S220      1.0  0.76681  0.99787  0.38332  1.0000
  H   H1832     1.0  0.89556  0.13287  0.46011  1.0000
  S   S221      1.0  0.96604  0.20070  0.38560  1.0000
  C   C1024     1.0  0.84016  0.09079  0.34939  1.0000
  H   H1833     1.0  0.87267  0.08682  0.40883  1.0000
  H   H1834     1.0  0.72918  0.01787  0.39716  1.0000
  C   C1025     1.0  0.83933  0.03087  0.46528  1.0000
  C   C1026     1.0  0.87929  0.11418  0.45814  1.0000
  C   C1027     1.0  0.96809  0.17535  0.45147  1.0000
  Fe  Fe112     1.0  0.80577  0.98903  0.38071  1.0000
  H   H1835     1.0  0.83259  0.01874  0.44092  1.0000
  H   H1836     1.0  0.91284  0.17232  0.42175  1.0000
  S   S222      1.0  0.75641  0.99621  0.42002  1.0000
  H   H1837     1.0  0.93528  0.13327  0.42423  1.0000
  H   H1838     1.0  0.87902  0.09970  0.46590  1.0000
  H   H1839     1.0  0.92102  0.09937  0.42777  1.0000
  H   H1840     1.0  0.79844  0.01873  0.45696  1.0000
  N   N58       1.0  0.89128  0.11703  0.42167  1.0000
  H   H1841     1.0  0.82004  0.03963  0.35425  1.0000
  H   H1842     1.0  0.77645  0.03474  0.33225  1.0000
  H   H1843     1.0  0.87308  0.99801  0.41755  1.0000
  C   C1028     1.0  0.82097  0.06112  0.41756  1.0000
  S   S223      1.0  0.95158  0.17388  0.46625  1.0000
  H   H1844     1.0  0.83384  0.02478  0.47535  1.0000
  C   C1029     1.0  0.68782  0.99104  0.39402  1.0000
  H   H1845     1.0  0.88334  0.03072  0.42275  1.0000
  C   C1030     1.0  0.81348  0.99636  0.34250  1.0000
  C   C1031     1.0  0.95915  0.18586  0.44066  1.0000
  H   H1846     1.0  0.95766  0.09130  0.41622  1.0000
  C   C1032     1.0  0.76549  0.01187  0.34964  1.0000
  H   H1847     1.0  0.88077  0.99794  0.44033  1.0000
  H   H1848     1.0  0.88203  0.99588  0.46089  1.0000
  H   H1849     1.0  0.76907  0.00101  0.33069  1.0000
  H   H1850     1.0  0.84811  0.99320  0.33126  1.0000
  H   H1851     1.0  0.72419  0.99355  0.34262  1.0000
  C   C1033     1.0  0.82148  0.02447  0.32319  1.0000
  H   H1852     1.0  0.85732  0.99451  0.48318  1.0000
  S   S224      1.0  0.97944  0.18488  0.35760  1.0000
  H   H1853     1.0  0.97303  0.12550  0.41146  1.0000
  H   H1854     1.0  0.92027  0.01892  0.48033  1.0000
  C   C1034     1.0  0.90113  0.00334  0.48369  1.0000
  H   H1855     1.0  0.72556  0.00641  0.35790  1.0000
  H   H1856     1.0  0.96347  0.10129  0.39984  1.0000
  C   C1035     1.0  0.97230  0.18747  0.42887  1.0000
  H   H1857     1.0  0.81759  0.00512  0.31918  1.0000
  H   H1858     1.0  0.68808  0.98505  0.41423  1.0000
  H   H1859     1.0  0.84421  0.03409  0.32306  1.0000
  H   H1860     1.0  0.76555  0.99305  0.35406  1.0000
  C   C1036     1.0  0.84224  0.99347  0.34123  1.0000
  C   C1037     1.0  0.82551  0.98428  0.46101  1.0000
  H   H1861     1.0  0.80875  0.99475  0.35275  1.0000
  H   H1862     1.0  0.90087  0.98430  0.48042  1.0000
  S   S225      1.0  0.96898  0.13197  0.61524  1.0000
  H   H1863     1.0  0.89255  0.09723  0.52341  1.0000
  S   S226      1.0  0.82896  0.01417  0.61038  1.0000
  Fe  Fe113     1.0  0.94190  0.13427  0.63110  1.0000
  S   S227      1.0  0.92637  0.16278  0.62053  1.0000
  S   S228      1.0  0.91128  0.10088  0.64243  1.0000
  C   C1038     1.0  0.86739  0.07486  0.49755  1.0000
  H   H1864     1.0  0.86987  0.18688  0.56314  1.0000
  H   H1865     1.0  0.84644  0.08977  0.52844  1.0000
  H   H1866     1.0  0.90949  0.09789  0.49330  1.0000
  C   C1039     1.0  0.87233  0.14879  0.54666  1.0000
  C   C1040     1.0  0.89107  0.16056  0.55780  1.0000
  H   H1867     1.0  0.89440  0.18459  0.51886  1.0000
  N   N59       1.0  0.88577  0.13962  0.53618  1.0000
  S   S229      1.0  0.94182  0.06962  0.50522  1.0000
  S   S230      1.0  0.94818  0.14426  0.50230  1.0000
  C   C1041     1.0  0.84050  0.10750  0.52780  1.0000
  C   C1042     1.0  0.86003  0.03370  0.50916  1.0000
  C   C1043     1.0  0.88846  0.03926  0.50969  1.0000
  C   C1044     1.0  0.90636  0.06258  0.50412  1.0000
  C   C1045     1.0  0.89580  0.08022  0.49791  1.0000
  C   C1046     1.0  0.86607  0.13235  0.52545  1.0000
  H   H1868     1.0  0.84628  0.01565  0.51346  1.0000
  H   H1869     1.0  0.89661  0.02556  0.51447  1.0000
  C   C1047     1.0  0.96088  0.16115  0.57011  1.0000
  H   H1870     1.0  0.81232  0.12099  0.51642  1.0000
  S   S231      1.0  0.81417  0.04523  0.50277  1.0000
  C   C1048     1.0  0.97534  0.18727  0.56669  1.0000
  C   C1049     1.0  0.69190  0.01599  0.61844  1.0000
  S   S232      1.0  0.75187  0.98974  0.61768  1.0000
  H   H1871     1.0  0.92031  0.15443  0.52326  1.0000
  C   C1050     1.0  0.85132  0.03818  0.61951  1.0000
  C   C1051     1.0  0.87292  0.05827  0.61349  1.0000
  C   C1052     1.0  0.89111  0.07779  0.62043  1.0000
  C   C1053     1.0  0.88813  0.07705  0.63350  1.0000
  C   C1054     1.0  0.86657  0.05690  0.63954  1.0000
  C   C1055     1.0  0.84809  0.03758  0.63257  1.0000
  H   H1872     1.0  0.87576  0.05864  0.60344  1.0000
  H   H1873     1.0  0.90770  0.09319  0.61569  1.0000
  H   H1874     1.0  0.85833  0.14859  0.52287  1.0000
  H   H1875     1.0  0.83164  0.02206  0.63729  1.0000
  H   H1876     1.0  0.93273  0.22567  0.51951  1.0000
  H   H1877     1.0  0.85481  0.13237  0.55083  1.0000
  H   H1878     1.0  0.90941  0.17725  0.55465  1.0000
  C   C1056     1.0  0.91013  0.07910  0.53777  1.0000
  H   H1879     1.0  0.72172  0.02388  0.58660  1.0000
  H   H1880     1.0  0.85114  0.02962  0.56892  1.0000
  C   C1057     1.0  0.96880  0.14974  0.54881  1.0000
  H   H1881     1.0  0.69567  0.02829  0.60955  1.0000
  H   H1882     1.0  0.90841  0.12253  0.54878  1.0000
  H   H1883     1.0  0.68227  0.02481  0.62540  1.0000
  C   C1058     1.0  0.91150  0.16083  0.53142  1.0000
  H   H1884     1.0  0.80341  0.08415  0.63359  1.0000
  C   C1059     1.0  0.90583  0.10332  0.53164  1.0000
  H   H1885     1.0  0.94694  0.12214  0.56369  1.0000
  H   H1886     1.0  0.80273  0.08612  0.51858  1.0000
  H   H1887     1.0  0.85927  0.08858  0.49278  1.0000
  H   H1888     1.0  0.78423  0.05756  0.53829  1.0000
  H   H1889     1.0  0.78466  0.00622  0.55147  1.0000
  H   H1890     1.0  0.83455  0.01237  0.58293  1.0000
  H   H1891     1.0  0.87677  0.12978  0.51680  1.0000
  H   H1892     1.0  0.73408  0.99770  0.59123  1.0000
  H   H1893     1.0  0.92325  0.08415  0.54616  1.0000
  C   C1060     1.0  0.90814  0.18711  0.52705  1.0000
  H   H1894     1.0  0.87496  0.10153  0.54579  1.0000
  H   H1895     1.0  0.85705  0.15477  0.57100  1.0000
  S   S233      1.0  0.94322  0.15135  0.58483  1.0000
  C   C1061     1.0  0.87574  0.17057  0.56741  1.0000
  H   H1896     1.0  0.82942  0.10817  0.53657  1.0000
  H   H1897     1.0  0.76824  0.02520  0.53303  1.0000
  C   C1062     1.0  0.89315  0.11660  0.54123  1.0000
  H   H1898     1.0  0.72745  0.00358  0.57489  1.0000
  H   H1899     1.0  0.88931  0.17784  0.57547  1.0000
  H   H1900     1.0  0.92617  0.11669  0.52821  1.0000
  H   H1901     1.0  0.65355  0.98985  0.61247  1.0000
  H   H1902     1.0  0.92775  0.16469  0.53858  1.0000
  C   C1063     1.0  0.82168  0.99272  0.56563  1.0000
  C   C1064     1.0  0.79247  0.06643  0.63959  1.0000
  H   H1903     1.0  0.92059  0.07065  0.53101  1.0000
  N   N60       1.0  0.81169  0.03350  0.57291  1.0000
  C   C1065     1.0  0.78476  0.01701  0.57906  1.0000
  H   H1904     1.0  0.77004  0.06269  0.63905  1.0000
  C   C1066     1.0  0.82437  0.05645  0.58094  1.0000
  C   C1067     1.0  0.80847  0.04362  0.55971  1.0000
  H   H1905     1.0  0.94538  0.20020  0.51534  1.0000
  C   C1068     1.0  0.76469  0.03169  0.58196  1.0000
  C   C1069     1.0  0.85403  0.07425  0.57723  1.0000
  S   S234      1.0  0.74587  0.98793  0.50330  1.0000
  H   H1906     1.0  0.89964  0.19535  0.53466  1.0000
  S   S235      1.0  0.95494  0.22761  0.63870  1.0000
  C   C1070     1.0  0.73521  0.01301  0.58378  1.0000
  C   C1071     1.0  0.86235  0.09959  0.58409  1.0000
  H   H1907     1.0  0.78843  0.00772  0.58815  1.0000
  Fe  Fe114     1.0  0.96154  0.19280  0.62960  1.0000
  C   C1072     1.0  0.82033  0.10452  0.51702  1.0000
  H   H1908     1.0  0.94984  0.21173  0.53109  1.0000
  H   H1909     1.0  0.82471  0.04969  0.59097  1.0000
  H   H1910     1.0  0.81159  0.06923  0.58082  1.0000
  H   H1911     1.0  0.80531  0.06279  0.55987  1.0000
  H   H1912     1.0  0.82781  0.04762  0.55416  1.0000
  C   C1073     1.0  0.78573  0.03776  0.53839  1.0000
  C   C1074     1.0  0.84954  0.05164  0.50321  1.0000
  H   H1913     1.0  0.77084  0.04201  0.59078  1.0000
  H   H1914     1.0  0.76496  0.04637  0.57432  1.0000
  H   H1915     1.0  0.85605  0.07933  0.56699  1.0000
  H   H1916     1.0  0.86891  0.06433  0.57989  1.0000
  H   H1917     1.0  0.86307  0.16331  0.54295  1.0000
  H   H1918     1.0  0.80510  0.03875  0.53357  1.0000
  H   H1919     1.0  0.83043  0.10375  0.50794  1.0000
  H   H1920     1.0  0.89011  0.06412  0.54053  1.0000
  H   H1921     1.0  0.76437  0.02508  0.55595  1.0000
  Fe  Fe115     1.0  0.95612  0.16277  0.60500  1.0000
  C   C1075     1.0  0.95799  0.14242  0.56113  1.0000
  H   H1922     1.0  0.89812  0.14571  0.56279  1.0000
  Fe  Fe116     1.0  0.96514  0.11182  0.50048  1.0000
  H   H1923     1.0  0.79698  0.04969  0.63582  1.0000
  H   H1924     1.0  0.71193  0.01586  0.62208  1.0000
  H   H1925     1.0  0.86072  0.09545  0.59443  1.0000
  H   H1926     1.0  0.88400  0.11141  0.58166  1.0000
  H   H1927     1.0  0.84910  0.11116  0.58133  1.0000
  H   H1928     1.0  0.77380  0.00046  0.57332  1.0000
  Fe  Fe117     1.0  0.79121  0.00270  0.50654  1.0000
  C   C1076     1.0  0.93573  0.20734  0.52300  1.0000
  C   C1077     1.0  0.78449  0.02633  0.55187  1.0000
  H   H1929     1.0  0.86433  0.05612  0.64965  1.0000
  C   C1078     1.0  0.83075  0.01781  0.57303  1.0000
  S   S236      1.0  0.72502  0.99914  0.64843  1.0000
  H   H1930     1.0  0.97749  0.20196  0.57341  1.0000
  H   H1931     1.0  0.82252  0.99784  0.55539  1.0000
  H   H1932     1.0  0.96618  0.13516  0.54198  1.0000
  H   H1933     1.0  0.90104  0.00219  0.49412  1.0000
  H   H1934     1.0  0.93898  0.26772  0.64952  1.0000
  S   S237      1.0  0.97627  0.16407  0.64069  1.0000
  C   C1079     1.0  0.67312  0.98838  0.61600  1.0000
  H   H1935     1.0  0.87754  0.16232  0.64998  1.0000
  H   H1936     1.0  0.97273  0.10362  0.59055  1.0000
  H   H1937     1.0  0.86247  0.98928  0.56526  1.0000
  H   H1938     1.0  0.62568  0.98470  0.63497  1.0000
  S   S238      1.0  0.63601  0.04728  0.81142  1.0000
  S   S239      1.0  0.86793  0.23856  0.80494  1.0000
  H   H1939     1.0  0.68651  0.08780  0.80200  1.0000
  Fe  Fe118     1.0  0.89913  0.28421  0.73411  1.0000
  S   S240      1.0  0.85657  0.28488  0.73166  1.0000
  S   S241      1.0  0.91883  0.29808  0.75278  1.0000
  Fe  Fe119     1.0  0.90134  0.26530  0.70704  1.0000
  S   S242      1.0  0.85843  0.26538  0.70316  1.0000
  C   C1080     1.0  0.94330  0.23045  0.65420  1.0000
  Fe  Fe120     1.0  0.87157  0.30397  0.71264  1.0000
  S   S243      1.0  0.85678  0.33782  0.70660  1.0000
  Fe  Fe121     1.0  0.84778  0.24685  0.72262  1.0000
  S   S244      1.0  0.81326  0.21148  0.73038  1.0000
  S   S245      1.0  0.91515  0.30516  0.71534  1.0000
  S   S246      1.0  0.88966  0.24493  0.72627  1.0000
  S   S247      1.0  0.91376  0.46028  0.71264  1.0000
  Fe  Fe122     1.0  0.66989  0.03885  0.71234  1.0000
  S   S248      1.0  0.65562  0.06890  0.70206  1.0000
  S   S249      1.0  0.67565  0.00406  0.70299  1.0000
  Fe  Fe123     1.0  0.67794  0.06706  0.73721  1.0000
  S   S250      1.0  0.66544  0.09921  0.72823  1.0000
  S   S251      1.0  0.69443  0.07417  0.75713  1.0000
  Fe  Fe124     1.0  0.63098  0.06776  0.71964  1.0000
  S   S252      1.0  0.59173  0.07773  0.72145  1.0000
  Fe  Fe125     1.0  0.69085  0.09770  0.71159  1.0000
  S   S253      1.0  0.71764  0.13338  0.70019  1.0000
  S   S254      1.0  0.64225  0.03527  0.72949  1.0000
  S   S255      1.0  0.70640  0.06793  0.72098  1.0000
  C   C1081     1.0  0.59511  0.05461  0.76019  1.0000
  C   C1082     1.0  0.55814  0.06214  0.71606  1.0000
  C   C1083     1.0  0.53876  0.07472  0.71723  1.0000
  C   C1084     1.0  0.51156  0.06298  0.71339  1.0000
  C   C1085     1.0  0.50330  0.03829  0.70851  1.0000
  C   C1086     1.0  0.52278  0.02578  0.70725  1.0000
  C   C1087     1.0  0.55015  0.03771  0.71093  1.0000
  H   H1940     1.0  0.54479  0.09370  0.72110  1.0000
  H   H1941     1.0  0.49696  0.07298  0.71427  1.0000
  H   H1942     1.0  0.50626  0.34891  0.79042  1.0000
  H   H1943     1.0  0.56496  0.02795  0.70988  1.0000
  C   C1088     1.0  0.54534  0.42691  0.71202  1.0000
  C   C1089     1.0  0.55960  0.41008  0.71560  1.0000
  C   C1090     1.0  0.54575  0.38292  0.71669  1.0000
  C   C1091     1.0  0.51757  0.37214  0.71423  1.0000
  C   C1092     1.0  0.50306  0.38902  0.71118  1.0000
  C   C1093     1.0  0.51690  0.41622  0.71007  1.0000
  H   H1944     1.0  0.58134  0.41796  0.71736  1.0000
  H   H1945     1.0  0.55695  0.37005  0.71937  1.0000
  H   H1946     1.0  0.63711  0.39152  0.71635  1.0000
  H   H1947     1.0  0.50561  0.42903  0.70737  1.0000
  C   C1094     1.0  0.87271  0.37153  0.70923  1.0000
  C   C1095     1.0  0.85704  0.38814  0.70807  1.0000
  C   C1096     1.0  0.86907  0.41519  0.70945  1.0000
  C   C1097     1.0  0.89712  0.42607  0.71178  1.0000
  C   C1098     1.0  0.91276  0.40947  0.71306  1.0000
  C   C1099     1.0  0.90063  0.38235  0.71190  1.0000
  H   H1948     1.0  0.83547  0.38002  0.70596  1.0000
  H   H1949     1.0  0.85674  0.42765  0.70840  1.0000
  H   H1950     1.0  0.93450  0.41764  0.71482  1.0000
  H   H1951     1.0  0.91300  0.36989  0.71276  1.0000
  C   C1100     1.0  0.78714  0.19023  0.72159  1.0000
  C   C1101     1.0  0.78238  0.19630  0.70908  1.0000
  C   C1102     1.0  0.76072  0.17889  0.70259  1.0000
  C   C1103     1.0  0.74412  0.15526  0.70854  1.0000
  C   C1104     1.0  0.74895  0.14925  0.72102  1.0000
  C   C1105     1.0  0.77032  0.16673  0.72752  1.0000
  H   H1952     1.0  0.79506  0.21456  0.70452  1.0000
  H   H1953     1.0  0.75683  0.18373  0.69298  1.0000
  H   H1954     1.0  0.73620  0.13115  0.72570  1.0000
  H   H1955     1.0  0.77382  0.16200  0.73722  1.0000
  H   H1956     1.0  0.66111  0.42634  0.69252  1.0000
  C   C1106     1.0  0.94151  0.21182  0.66399  1.0000
  C   C1107     1.0  0.93527  0.21630  0.67640  1.0000
  C   C1108     1.0  0.92986  0.23906  0.67919  1.0000
  H   H1957     1.0  0.56380  0.08269  0.67305  1.0000
  H   H1958     1.0  0.93484  0.20209  0.68393  1.0000
  H   H1959     1.0  0.87625  0.44755  0.67488  1.0000
  H   H1960     1.0  0.92496  0.42750  0.73934  1.0000
  H   H1961     1.0  0.65872  0.15655  0.66682  1.0000
  C   C1109     1.0  0.69022  0.00339  0.68791  1.0000
  H   H1962     1.0  0.69359  0.42358  0.81381  1.0000
  H   H1963     1.0  0.54722  0.05360  0.80631  1.0000
  S   S256      1.0  0.92456  0.24457  0.69524  1.0000
  H   H1964     1.0  0.76761  0.46541  0.76773  1.0000
  C   C1110     1.0  0.91419  0.46072  0.79624  1.0000
  C   C1111     1.0  0.88184  0.25579  0.79053  1.0000
  H   H1965     1.0  0.85319  0.19025  0.65956  1.0000
  C   C1112     1.0  0.90419  0.28147  0.76719  1.0000
  C   C1113     1.0  0.88230  0.25788  0.76751  1.0000
  C   C1114     1.0  0.87153  0.24495  0.77911  1.0000
  H   H1966     1.0  0.87403  0.24931  0.75880  1.0000
  H   H1967     1.0  0.85506  0.22650  0.77921  1.0000
  C   C1115     1.0  0.65218  0.05560  0.79632  1.0000
  C   C1116     1.0  0.63987  0.04090  0.78609  1.0000
  C   C1117     1.0  0.65221  0.04660  0.77399  1.0000
  C   C1118     1.0  0.67708  0.06707  0.77198  1.0000
  C   C1119     1.0  0.68938  0.08174  0.78222  1.0000
  C   C1120     1.0  0.67692  0.07622  0.79428  1.0000
  H   H1968     1.0  0.62090  0.02477  0.78759  1.0000
  H   H1969     1.0  0.64291  0.03475  0.76629  1.0000
  H   H1970     1.0  0.70870  0.09748  0.78079  1.0000
  H   H1971     1.0  0.93626  0.36486  0.79477  1.0000
  C   C1121     1.0  0.56799  0.98683  0.73360  1.0000
  H   H1972     1.0  0.61029  0.08878  0.74714  1.0000
  C   C1122     1.0  0.93757  0.25306  0.65696  1.0000
  H   H1973     1.0  0.56131  0.36636  0.68927  1.0000
  H   H1974     1.0  0.67426  0.43404  0.71899  1.0000
  H   H1975     1.0  0.56879  0.43301  0.76621  1.0000
  C   C1123     1.0  0.87711  0.15186  0.65925  1.0000
  H   H1976     1.0  0.84115  0.25768  0.65831  1.0000
  H   H1977     1.0  0.63576  0.42804  0.70319  1.0000
  H   H1978     1.0  0.75744  0.13529  0.67986  1.0000
  C   C1124     1.0  0.67871  0.41740  0.71512  1.0000
  C   C1125     1.0  0.65329  0.39929  0.70892  1.0000
  H   H1979     1.0  0.65852  0.38276  0.70551  1.0000
  H   H1980     1.0  0.94009  0.47626  0.77462  1.0000
  C   C1126     1.0  0.78342  0.99724  0.67654  1.0000
  C   C1127     1.0  0.60485  0.43185  0.74821  1.0000
  H   H1981     1.0  0.65317  0.12204  0.66755  1.0000
  H   H1982     1.0  0.61451  0.40752  0.78876  1.0000
  H   H1983     1.0  0.93401  0.38984  0.75075  1.0000
  H   H1984     1.0  0.72656  0.20525  0.81027  1.0000
  H   H1985     1.0  0.70159  0.13008  0.67276  1.0000
  H   H1986     1.0  0.58492  0.19999  0.69160  1.0000
  H   H1987     1.0  0.63766  0.35402  0.68505  1.0000
  H   H1988     1.0  0.55783  0.06343  0.76283  1.0000
  H   H1989     1.0  0.82735  0.14750  0.80512  1.0000
  C   C1128     1.0  0.59862  0.45541  0.67586  1.0000
  H   H1990     1.0  0.87463  0.42799  0.76497  1.0000
  C   C1129     1.0  0.53615  0.44755  0.78120  1.0000
  C   C1130     1.0  0.61253  0.08304  0.75711  1.0000
  H   H1991     1.0  0.59822  0.05056  0.77025  1.0000
  H   H1992     1.0  0.49672  0.36326  0.81086  1.0000
  C   C1131     1.0  0.56338  0.33032  0.69722  1.0000
  H   H1993     1.0  0.51948  0.05862  0.74864  1.0000
  H   H1994     1.0  0.57315  0.00124  0.75735  1.0000
  C   C1132     1.0  0.55696  0.00674  0.73906  1.0000
  H   H1995     1.0  0.58235  0.35256  0.68052  1.0000
  S   S257      1.0  0.52442  0.10229  0.81232  1.0000
  H   H1996     1.0  0.90398  0.44681  0.80414  1.0000
  C   C1133     1.0  0.54232  0.35263  0.81149  1.0000
  H   H1997     1.0  0.67295  0.38458  0.66248  1.0000
  C   C1134     1.0  0.65001  0.37278  0.68022  1.0000
  H   H1998     1.0  0.75360  0.13649  0.66306  1.0000
  C   C1135     1.0  0.76848  0.13761  0.67071  1.0000
  S   S258      1.0  0.63675  0.46893  0.72110  1.0000
  H   H1999     1.0  0.64781  0.40943  0.67351  1.0000
  C   C1136     1.0  0.78370  0.48368  0.77034  1.0000
  H   H2000     1.0  0.79155  0.16633  0.76653  1.0000
  H   H2001     1.0  0.53059  0.45278  0.80093  1.0000
  H   H2002     1.0  0.54508  0.01005  0.81723  1.0000
  H   H2003     1.0  0.69192  0.04176  0.68129  1.0000
  H   H2004     1.0  0.55924  0.14258  0.76373  1.0000
  H   H2005     1.0  0.52507  0.15609  0.77338  1.0000
  H   H2006     1.0  0.87339  0.23477  0.66498  1.0000
  H   H2007     1.0  0.58679  0.18497  0.67715  1.0000
  H   H2008     1.0  0.75247  0.09097  0.69470  1.0000
  H   H2009     1.0  0.50989  0.27330  0.80935  1.0000
  H   H2010     1.0  0.79559  0.03048  0.65774  1.0000
  H   H2011     1.0  0.48411  0.14745  0.76169  1.0000
  H   H2012     1.0  0.63167  0.43530  0.79772  1.0000
  H   H2013     1.0  0.49765  0.41860  0.76292  1.0000
  H   H2014     1.0  0.87409  0.45830  0.75817  1.0000
  H   H2015     1.0  0.58663  0.12493  0.75068  1.0000
  C   C1137     1.0  0.48810  0.37660  0.74785  1.0000
  H   H2016     1.0  0.79757  0.06641  0.69946  1.0000
  H   H2017     1.0  0.76133  0.04909  0.69859  1.0000
  H   H2018     1.0  0.83308  0.04528  0.67143  1.0000
  C   C1138     1.0  0.92654  0.47784  0.75002  1.0000
  C   C1139     1.0  0.89142  0.46147  0.68076  1.0000
  C   C1140     1.0  0.73950  0.08983  0.81708  1.0000
  C   C1141     1.0  0.56638  0.44409  0.75751  1.0000
  H   H2019     1.0  0.83720  0.43741  0.74320  1.0000
  C   C1142     1.0  0.49050  0.23433  0.80265  1.0000
  H   H2020     1.0  0.69599  0.42498  0.70821  1.0000
  C   C1143     1.0  0.56450  0.12028  0.74868  1.0000
  N   N61       1.0  0.84799  0.32970  0.77705  1.0000
  C   C1144     1.0  0.85925  0.32819  0.76418  1.0000
  C   C1145     1.0  0.84095  0.30338  0.78391  1.0000
  C   C1146     1.0  0.82299  0.33787  0.77556  1.0000
  C   C1147     1.0  0.86868  0.34964  0.78457  1.0000
  C   C1148     1.0  0.89674  0.34578  0.78649  1.0000
  C   C1149     1.0  0.87130  0.35455  0.75648  1.0000
  C   C1150     1.0  0.80481  0.33439  0.78755  1.0000
  C   C1151     1.0  0.81867  0.28071  0.77775  1.0000
  C   C1152     1.0  0.80703  0.25720  0.78701  1.0000
  C   C1153     1.0  0.91662  0.36849  0.79319  1.0000
  C   C1154     1.0  0.87985  0.35071  0.74323  1.0000
  C   C1155     1.0  0.78152  0.34522  0.78518  1.0000
  H   H2021     1.0  0.84295  0.31509  0.75839  1.0000
  H   H2022     1.0  0.87532  0.31886  0.76479  1.0000
  H   H2023     1.0  0.85931  0.29727  0.78455  1.0000
  H   H2024     1.0  0.83508  0.30435  0.79388  1.0000
  H   H2025     1.0  0.80966  0.32740  0.76796  1.0000
  H   H2026     1.0  0.82920  0.35879  0.77236  1.0000
  H   H2027     1.0  0.87244  0.36967  0.78041  1.0000
  H   H2028     1.0  0.86041  0.34976  0.79414  1.0000
  H   H2029     1.0  0.90648  0.34435  0.77743  1.0000
  H   H2030     1.0  0.89415  0.32789  0.79249  1.0000
  H   H2031     1.0  0.85609  0.36470  0.75553  1.0000
  H   H2032     1.0  0.88976  0.36743  0.76106  1.0000
  H   H2033     1.0  0.81690  0.34466  0.79547  1.0000
  H   H2034     1.0  0.79530  0.31349  0.79057  1.0000
  H   H2035     1.0  0.80117  0.28629  0.77430  1.0000
  H   H2036     1.0  0.82781  0.27446  0.76960  1.0000
  H   H2037     1.0  0.79204  0.24102  0.78218  1.0000
  H   H2038     1.0  0.82360  0.25042  0.79072  1.0000
  H   H2039     1.0  0.79641  0.26226  0.79499  1.0000
  H   H2040     1.0  0.92095  0.38698  0.78742  1.0000
  H   H2041     1.0  0.90798  0.37040  0.80248  1.0000
  H   H2042     1.0  0.88950  0.36994  0.73817  1.0000
  H   H2043     1.0  0.89492  0.34028  0.74353  1.0000
  H   H2044     1.0  0.86168  0.33954  0.73784  1.0000
  H   H2045     1.0  0.50390  0.98666  0.77652  1.0000
  H   H2046     1.0  0.76873  0.34224  0.79385  1.0000
  H   H2047     1.0  0.78987  0.36643  0.78259  1.0000
  H   H2048     1.0  0.58173  0.46387  0.75811  1.0000
  H   H2049     1.0  0.88179  0.41205  0.74504  1.0000
  C   C1156     1.0  0.51132  0.03798  0.74615  1.0000
  N   N62       1.0  0.77976  0.16276  0.80593  1.0000
  N   N63       1.0  0.91470  0.45567  0.75970  1.0000
  H   H2050     1.0  0.67204  0.35346  0.66934  1.0000
  C   C1157     1.0  0.49189  0.05195  0.78785  1.0000
  C   C1158     1.0  0.77195  0.09044  0.69891  1.0000
  H   H2051     1.0  0.92685  0.27497  0.67127  1.0000
  N   N64       1.0  0.54499  0.02214  0.76023  1.0000
  C   C1159     1.0  0.78055  0.06637  0.68040  1.0000
  H   H2052     1.0  0.83446  0.14348  0.66346  1.0000
  S   S259      1.0  0.50262  0.33769  0.71351  1.0000
  H   H2053     1.0  0.96763  0.41157  0.75472  1.0000
  C   C1160     1.0  0.52530  0.98932  0.77927  1.0000
  C   C1161     1.0  0.88429  0.44336  0.75754  1.0000
  C   C1162     1.0  0.50563  0.40525  0.74541  1.0000
  C   C1163     1.0  0.56556  0.04822  0.80870  1.0000
  N   N65       1.0  0.83903  0.18879  0.67884  1.0000
  C   C1164     1.0  0.81161  0.16738  0.68071  1.0000
  C   C1165     1.0  0.85298  0.19346  0.69138  1.0000
  C   C1166     1.0  0.83385  0.21360  0.67466  1.0000
  C   C1167     1.0  0.85713  0.18306  0.66911  1.0000
  C   C1168     1.0  0.85437  0.15412  0.66776  1.0000
  C   C1169     1.0  0.77751  0.02082  0.68180  1.0000
  C   C1170     1.0  0.85973  0.23818  0.67218  1.0000
  C   C1171     1.0  0.85920  0.17035  0.69811  1.0000
  C   C1172     1.0  0.86975  0.17708  0.71134  1.0000
  H   H2054     1.0  0.74299  0.44220  0.80753  1.0000
  H   H2055     1.0  0.78210  0.17923  0.66935  1.0000
  H   H2056     1.0  0.51858  0.00175  0.79769  1.0000
  H   H2057     1.0  0.80069  0.17089  0.68903  1.0000
  H   H2058     1.0  0.81414  0.14837  0.68309  1.0000
  H   H2059     1.0  0.87313  0.20917  0.69040  1.0000
  H   H2060     1.0  0.84062  0.20043  0.69801  1.0000
  H   H2061     1.0  0.82045  0.21825  0.68167  1.0000
  H   H2062     1.0  0.82228  0.43723  0.81142  1.0000
  C   C1173     1.0  0.74531  0.21271  0.81596  1.0000
  H   H2063     1.0  0.87907  0.19421  0.67086  1.0000
  H   H2064     1.0  0.58986  0.42889  0.81013  1.0000
  H   H2065     1.0  0.85531  0.14400  0.67691  1.0000
  H   H2066     1.0  0.58296  0.06597  0.81077  1.0000
  C   C1174     1.0  0.71178  1.00000  0.66377  1.0000
  H   H2067     1.0  0.77665  0.12144  0.66995  1.0000
  H   H2068     1.0  0.87162  0.24389  0.68081  1.0000
  H   H2069     1.0  0.84076  0.15262  0.69912  1.0000
  H   H2070     1.0  0.87560  0.16613  0.69290  1.0000
  H   H2071     1.0  0.85406  0.18129  0.71713  1.0000
  H   H2072     1.0  0.87438  0.16043  0.71601  1.0000
  H   H2073     1.0  0.88885  0.19435  0.71095  1.0000
  H   H2074     1.0  0.50041  0.36549  0.75234  1.0000
  H   H2075     1.0  0.64201  0.35642  0.66178  1.0000
  H   H2076     1.0  0.62696  0.16584  0.72490  1.0000
  H   H2077     1.0  0.53301  0.25561  0.80684  1.0000
  H   H2078     1.0  0.88028  0.46579  0.68876  1.0000
  H   H2079     1.0  0.57173  0.03969  0.80048  1.0000
  C   C1175     1.0  0.87111  0.08767  0.67891  1.0000
  H   H2080     1.0  0.74861  0.10862  0.79866  1.0000
  C   C1176     1.0  0.50662  0.36912  0.79126  1.0000
  N   N66       1.0  0.63128  0.13825  0.69026  1.0000
  C   C1177     1.0  0.63045  0.13536  0.70442  1.0000
  C   C1178     1.0  0.61087  0.11407  0.68518  1.0000
  C   C1179     1.0  0.65952  0.13940  0.68602  1.0000
  C   C1180     1.0  0.62610  0.16254  0.68524  1.0000
  C   C1181     1.0  0.60638  0.17207  0.69307  1.0000
  C   C1182     1.0  0.65307  0.15669  0.71120  1.0000
  C   C1183     1.0  0.66475  0.14083  0.67161  1.0000
  C   C1184     1.0  0.58018  0.10883  0.68816  1.0000
  C   C1185     1.0  0.56228  0.08263  0.68344  1.0000
  C   C1186     1.0  0.59832  0.19301  0.68566  1.0000
  C   C1187     1.0  0.64459  0.15865  0.72474  1.0000
  H   H2081     1.0  0.81953  0.19076  0.80991  1.0000
  H   H2082     1.0  0.63275  0.11647  0.70754  1.0000
  H   H2083     1.0  0.61017  0.13418  0.70827  1.0000
  H   H2084     1.0  0.61217  0.11477  0.67477  1.0000
  H   H2085     1.0  0.61584  0.09655  0.68861  1.0000
  H   H2086     1.0  0.66409  0.12211  0.69005  1.0000
  H   H2087     1.0  0.67553  0.15667  0.68968  1.0000
  H   H2088     1.0  0.64570  0.17933  0.68433  1.0000
  H   H2089     1.0  0.61818  0.15984  0.67550  1.0000
  H   H2090     1.0  0.61652  0.18075  0.70174  1.0000
  H   H2091     1.0  0.58731  0.15619  0.69603  1.0000
  H   H2092     1.0  0.67222  0.15175  0.71148  1.0000
  H   H2093     1.0  0.65807  0.17613  0.70626  1.0000
  C   C1188     1.0  0.84039  0.08342  0.67874  1.0000
  H   H2094     1.0  0.74323  0.46530  0.78852  1.0000
  H   H2095     1.0  0.57617  0.10838  0.69837  1.0000
  H   H2096     1.0  0.57333  0.12395  0.68329  1.0000
  H   H2097     1.0  0.54049  0.07880  0.68614  1.0000
  H   H2098     1.0  0.48142  0.38108  0.70917  1.0000
  H   H2099     1.0  0.56859  0.06657  0.68768  1.0000
  H   H2100     1.0  0.50662  0.04270  0.79151  1.0000
  H   H2101     1.0  0.61736  0.38324  0.67113  1.0000
  H   H2102     1.0  0.83665  0.09504  0.67061  1.0000
  H   H2103     1.0  0.66205  0.17245  0.72961  1.0000
  H   H2104     1.0  0.51898  0.13416  0.75093  1.0000
  H   H2105     1.0  0.61897  0.45233  0.74825  1.0000
  C   C1189     1.0  0.93062  0.25723  0.66931  1.0000
  C   C1190     1.0  0.78814  0.04546  0.66159  1.0000
  H   H2106     1.0  0.70809  0.16478  0.67239  1.0000
  C   C1191     1.0  0.63334  0.39136  0.67822  1.0000
  C   C1192     1.0  0.60245  0.37370  0.69703  1.0000
  C   C1193     1.0  0.90341  0.27963  0.79021  1.0000
  C   C1194     1.0  0.91472  0.29223  0.77860  1.0000
  H   H2107     1.0  0.70935  0.46799  0.80338  1.0000
  H   H2108     1.0  0.57160  0.02630  0.73628  1.0000
  C   C1195     1.0  0.84464  0.42055  0.74356  1.0000
  H   H2109     1.0  0.86218  0.18252  0.81605  1.0000
  H   H2110     1.0  0.94562  0.19425  0.66207  1.0000
  N   N67       1.0  0.79294  0.04724  0.67554  1.0000
  H   H2111     1.0  0.53610  0.34192  0.80282  1.0000
  H   H2112     1.0  0.60993  0.47469  0.67115  1.0000
  H   H2113     1.0  0.52385  0.18037  0.79292  1.0000
  H   H2114     1.0  0.58251  0.44427  0.66943  1.0000
  H   H2115     1.0  0.55967  0.31035  0.80944  1.0000
  H   H2116     1.0  0.83526  0.09150  0.68736  1.0000
  H   H2117     1.0  0.79258  0.14071  0.79227  1.0000
  H   H2118     1.0  0.83917  0.41059  0.73461  1.0000
  H   H2119     1.0  0.62821  0.43879  0.67004  1.0000
  H   H2120     1.0  0.91184  0.28803  0.79892  1.0000
  H   H2121     1.0  0.56500  0.38380  0.79260  1.0000
  C   C1196     1.0  0.61154  0.42341  0.79401  1.0000
  H   H2122     1.0  0.50338  0.99957  0.75508  1.0000
  C   C1197     1.0  0.54913  0.12256  0.76057  1.0000
  C   C1198     1.0  0.59122  0.41223  0.80495  1.0000
  H   H2123     1.0  0.95796  0.44843  0.74351  1.0000
  S   S260      1.0  0.69673  0.47838  0.69545  1.0000
  H   H2124     1.0  0.55642  0.10024  0.74534  1.0000
  N   N68       1.0  0.54119  0.37982  0.80974  1.0000
  C   C1199     1.0  0.56237  0.39617  0.80014  1.0000
  H   H2125     1.0  0.69838  0.14729  0.65827  1.0000
  H   H2126     1.0  0.52192  0.38176  0.78436  1.0000
  C   C1200     1.0  0.57692  0.35656  0.69006  1.0000
  H   H2127     1.0  0.95885  0.40543  0.73854  1.0000
  H   H2128     1.0  0.52266  0.08970  0.78620  1.0000
  C   C1201     1.0  0.56885  0.32241  0.81744  1.0000
  H   H2129     1.0  0.90882  0.47864  0.79698  1.0000
  N   N69       1.0  0.62081  0.39782  0.68981  1.0000
  C   C1202     1.0  0.64298  0.41401  0.69824  1.0000
  H   H2130     1.0  0.68514  0.40663  0.72294  1.0000
  C   C1203     1.0  0.92897  0.43565  0.75967  1.0000
  H   H2131     1.0  0.54230  0.03161  0.77953  1.0000
  C   C1204     1.0  0.50716  0.07699  0.78008  1.0000
  H   H2132     1.0  0.60659  0.09601  0.76332  1.0000
  H   H2133     1.0  0.60417  0.43612  0.78752  1.0000
  C   C1205     1.0  0.76821  0.18475  0.80526  1.0000
  H   H2134     1.0  0.87365  0.13109  0.65761  1.0000
  H   H2135     1.0  0.53216  0.13108  0.78247  1.0000
  C   C1206     1.0  0.90449  0.44834  0.78378  1.0000
  H   H2136     1.0  0.52168  0.03606  0.73741  1.0000
  C   C1207     1.0  0.51304  0.37775  0.80494  1.0000
  H   H2137     1.0  0.59476  0.37942  0.70574  1.0000
  H   H2138     1.0  0.78886  0.10865  0.69605  1.0000
  H   H2139     1.0  0.52416  0.40496  0.76368  1.0000
  C   C1208     1.0  0.56438  0.04960  0.75741  1.0000
  C   C1209     1.0  0.53404  0.46064  0.74516  1.0000
  H   H2140     1.0  0.56366  0.05581  0.74737  1.0000
  H   H2141     1.0  0.55506  0.41116  0.79542  1.0000
  H   H2142     1.0  0.58840  0.98861  0.73752  1.0000
  C   C1210     1.0  0.55357  0.00245  0.75349  1.0000
  N   N70       1.0  0.49970  0.11740  0.76886  1.0000
  H   H2143     1.0  0.83848  0.26607  0.67438  1.0000
  H   H2144     1.0  0.78920  0.43840  0.80699  1.0000
  H   H2145     1.0  0.50601  0.46023  0.79078  1.0000
  H   H2146     1.0  0.48904  0.12217  0.79518  1.0000
  H   H2147     1.0  0.93184  0.31033  0.77845  1.0000
  H   H2148     1.0  0.90596  0.45198  0.68446  1.0000
  H   H2149     1.0  0.50327  0.16252  0.80622  1.0000
  C   C1211     1.0  0.61856  0.44086  0.67902  1.0000
  H   H2150     1.0  0.66862  0.38222  0.68570  1.0000
  H   H2151     1.0  0.63452  0.08573  0.75866  1.0000
  H   H2152     1.0  0.51336  0.46270  0.74546  1.0000
  H   H2153     1.0  0.88502  0.44275  0.73682  1.0000
  C   C1212     1.0  0.91798  0.46734  0.77242  1.0000
  H   H2154     1.0  0.76826  0.33501  0.77753  1.0000
  H   H2155     1.0  0.61401  0.36093  0.70034  1.0000
  H   H2156     1.0  0.57378  0.44081  0.73745  1.0000
  H   H2157     1.0  0.78368  0.20303  0.80128  1.0000
  H   H2158     1.0  0.78198  0.02062  0.69202  1.0000
  C   C1213     1.0  0.80683  0.18016  0.78490  1.0000
  H   H2159     1.0  0.55800  0.33313  0.70699  1.0000
  C   C1214     1.0  0.60324  0.41382  0.68566  1.0000
  H   H2160     1.0  0.63869  0.13935  0.72993  1.0000
  H   H2161     1.0  0.60713  0.42142  0.75715  1.0000
  C   C1215     1.0  0.51644  0.41847  0.75786  1.0000
  C   C1216     1.0  0.85190  0.26155  0.66740  1.0000
  C   C1217     1.0  0.78529  0.15753  0.79258  1.0000
  H   H2162     1.0  0.92504  0.47076  0.74039  1.0000
  H   H2163     1.0  0.53427  0.45004  0.73658  1.0000
  H   H2164     1.0  0.58506  0.35837  0.80661  1.0000
  C   C1218     1.0  0.57520  0.43093  0.74663  1.0000
  H   H2165     1.0  0.52297  0.42683  0.78215  1.0000
  H   H2166     1.0  0.53683  0.00413  0.73471  1.0000
  H   H2167     1.0  0.75036  0.18009  0.79884  1.0000
  H   H2168     1.0  0.71918  0.09188  0.81867  1.0000
  C   C1219     1.0  0.81110  0.17206  0.77176  1.0000
  C   C1220     1.0  0.75748  0.11180  0.80819  1.0000
  C   C1221     1.0  0.69508  0.14611  0.66861  1.0000
  H   H2169     1.0  0.53329  0.15545  0.80163  1.0000
  H   H2170     1.0  0.80021  0.19737  0.78360  1.0000
  H   H2171     1.0  0.71044  0.03875  0.66014  1.0000
  H   H2172     1.0  0.58083  0.10825  0.80957  1.0000
  H   H2173     1.0  0.50531  0.02464  0.76532  1.0000
  H   H2174     1.0  0.52241  0.40606  0.73884  1.0000
  C   C1222     1.0  0.70646  0.02253  0.66699  1.0000
  H   H2175     1.0  0.93672  0.46568  0.79715  1.0000
  S   S261      1.0  0.56199  0.46123  0.70975  1.0000
  H   H2176     1.0  0.60327  0.04240  0.75445  1.0000
  C   C1223     1.0  0.54587  0.01600  0.77419  1.0000
  H   H2177     1.0  0.56648  0.01570  0.77696  1.0000
  H   H2178     1.0  0.75498  0.01668  0.68126  1.0000
  H   H2179     1.0  0.83412  0.40663  0.75142  1.0000
  C   C1224     1.0  0.51572  0.02000  0.75709  1.0000
  C   C1225     1.0  0.94040  0.43114  0.74681  1.0000
  H   H2180     1.0  0.79189  0.08647  0.67674  1.0000
  C   C1226     1.0  0.57063  0.35067  0.81470  1.0000
  H   H2181     1.0  0.82696  0.18599  0.78961  1.0000
  C   C1227     1.0  0.51838  0.11792  0.75785  1.0000
  H   H2182     1.0  0.58866  0.45861  0.68454  1.0000
  H   H2183     1.0  0.56235  0.41009  0.74664  1.0000
  H   H2184     1.0  0.55199  0.10876  0.76794  1.0000
  H   H2185     1.0  0.91498  0.41650  0.76362  1.0000
  C   C1228     1.0  0.87576  0.42967  0.74509  1.0000
  H   H2186     1.0  0.60005  0.40073  0.81138  1.0000
  N   N71       1.0  0.53788  0.44555  0.75689  1.0000
  C   C1229     1.0  0.79171  0.16384  0.66952  1.0000
  H   H2187     1.0  0.73733  0.13934  0.81062  1.0000
  H   H2188     1.0  0.87611  0.07652  0.68701  1.0000
  H   H2189     1.0  0.88185  0.44337  0.78369  1.0000
  H   H2190     1.0  0.51662  0.00675  0.70341  1.0000
  H   H2191     1.0  0.55778  0.44910  0.78292  1.0000
  H   H2192     1.0  0.75930  0.06213  0.67682  1.0000
  C   C1230     1.0  0.69600  0.02435  0.67900  1.0000
  H   H2193     1.0  0.61087  0.42234  0.74031  1.0000
  H   H2194     1.0  0.59179  0.41712  0.69388  1.0000
  H   H2195     1.0  0.88289  0.10867  0.67975  1.0000
  C   C1231     1.0  0.82207  0.15244  0.81450  1.0000
  H   H2196     1.0  0.76574  0.03904  0.65983  1.0000
  C   C1232     1.0  0.48708  0.09025  0.77481  1.0000
  H   H2197     1.0  0.61684  0.20987  0.68282  1.0000
  H   H2198     1.0  0.63478  0.45321  0.68502  1.0000
  H   H2199     1.0  0.82609  0.04508  0.68764  1.0000
  H   H2200     1.0  0.77805  0.10989  0.80787  1.0000
  H   H2201     1.0  0.48439  0.30234  0.78377  1.0000
  H   H2202     1.0  0.80573  0.00156  0.67497  1.0000
  H   H2203     1.0  0.81904  0.15553  0.77234  1.0000
  H   H2204     1.0  0.86120  0.39898  0.81491  1.0000
  H   H2205     1.0  0.90943  0.43013  0.78363  1.0000
  H   H2206     1.0  0.58740  0.40321  0.67897  1.0000
  H   H2207     1.0  0.54895  0.47990  0.76799  1.0000
  C   C1233     1.0  0.65978  0.36649  0.66766  1.0000
  H   H2208     1.0  0.82627  0.18866  0.76637  1.0000
  H   H2209     1.0  0.50999  0.09968  0.75273  1.0000
  C   C1234     1.0  0.75847  0.13899  0.81231  1.0000
  H   H2210     1.0  0.87773  0.08152  0.67004  1.0000
  C   C1235     1.0  0.95081  0.40808  0.74784  1.0000
  C   C1236     1.0  0.53369  0.45999  0.76803  1.0000
  H   H2211     1.0  0.76578  0.15187  0.78726  1.0000
  H   H2212     1.0  0.50967  0.39675  0.80560  1.0000
  C   C1237     1.0  0.52785  0.46168  0.79163  1.0000
  C   C1238     1.0  0.51514  0.13660  0.77828  1.0000
  H   H2213     1.0  0.95542  0.47473  0.67401  1.0000
  H   H2214     1.0  0.49258  0.41520  0.74057  1.0000
  H   H2215     1.0  0.79718  0.08731  0.65636  1.0000
  H   H2216     1.0  0.51771  0.07158  0.77221  1.0000
  C   C1239     1.0  0.73510  0.45171  0.81481  1.0000
  H   H2217     1.0  0.73620  0.07075  0.81298  1.0000
  H   H2218     1.0  0.54416  0.31921  0.69250  1.0000
  C   C1240     1.0  0.51220  0.25379  0.81028  1.0000
  C   C1241     1.0  0.82313  0.05404  0.67835  1.0000
  C   C1242     1.0  0.77835  0.06660  0.69491  1.0000
  C   C1243     1.0  0.51579  0.16100  0.79803  1.0000
  C   C1244     1.0  0.75896  0.19204  0.81796  1.0000
  H   H2219     1.0  0.75977  0.23068  0.81122  1.0000
  H   H2220     1.0  0.87076  0.27888  0.66595  1.0000
  H   H2221     1.0  0.56256  0.13419  0.74106  1.0000
  H   H2222     1.0  0.80266  0.16530  0.66042  1.0000
  H   H2223     1.0  0.94684  0.44097  0.76606  1.0000
  H   H2224     1.0  0.76951  0.08950  0.70930  1.0000
  H   H2225     1.0  0.82267  0.21120  0.66565  1.0000
  H   H2226     1.0  0.51323  0.46256  0.76752  1.0000
  H   H2227     1.0  0.57727  0.31865  0.69747  1.0000
  H   H2228     1.0  0.80074  0.47887  0.77495  1.0000
  C   C1245     1.0  0.49805  0.14058  0.78944  1.0000
  H   H2229     1.0  0.89739  0.16011  0.66370  1.0000
  H   H2230     1.0  0.54649  0.98876  0.79692  1.0000
  H   H2231     1.0  0.57037  0.99036  0.72324  1.0000
  C   C1246     1.0  0.80227  0.43734  0.81510  1.0000
  C   C1247     1.0  0.52555  0.98673  0.79359  1.0000
  C   C1248     1.0  0.80558  0.17129  0.81352  1.0000
  C   C1249     1.0  0.80204  0.07038  0.65316  1.0000
  H   H2232     1.0  0.49421  0.21548  0.80367  1.0000
  H   H2233     1.0  0.49399  0.24162  0.79268  1.0000
  H   H2234     1.0  0.48047  0.36785  0.73879  1.0000
  C   C1250     1.0  0.72803  0.47550  0.80920  1.0000
  H   H2235     1.0  0.77279  0.99222  0.66747  1.0000
  H   H2236     1.0  0.91739  0.48099  0.66504  1.0000
  H   H2237     1.0  0.90947  0.48358  0.77235  1.0000
  H   H2238     1.0  0.78282  0.39600  0.81731  1.0000
  H   H2239     1.0  0.77643  0.47494  0.79525  1.0000
  H   H2240     1.0  0.48138  0.14760  0.78614  1.0000
  H   H2241     1.0  0.54104  0.48254  0.79128  1.0000
  C   C1251     1.0  0.48080  0.03173  0.74347  1.0000
  C   C1252     1.0  0.76039  0.48259  0.79148  1.0000
  C   C1253     1.0  0.72640  0.48329  0.70441  1.0000
  H   H2242     1.0  0.70518  0.48034  0.72209  1.0000
  C   C1254     1.0  0.72470  0.48349  0.71747  1.0000
  H   H2243     1.0  0.82460  0.07492  0.65298  1.0000
  H   H2244     1.0  0.48122  0.05630  0.79602  1.0000
  C   C1255     1.0  0.57769  0.11398  0.81884  1.0000
  H   H2245     1.0  0.96946  0.48372  0.75555  1.0000
  H   H2246     1.0  0.52709  0.34101  0.81877  1.0000
  S   S262      1.0  0.60321  0.42411  0.97197  1.0000
  C   C1256     1.0  0.55419  0.01676  0.88815  1.0000
  H   H2247     1.0  0.80956  0.42707  0.83992  1.0000
  Fe  Fe126     1.0  0.64631  0.08112  0.96226  1.0000
  S   S263      1.0  0.62911  0.03783  0.96171  1.0000
  S   S264      1.0  0.61733  0.10343  0.95853  1.0000
  Fe  Fe127     1.0  0.70449  0.08157  0.96566  1.0000
  S   S265      1.0  0.69102  0.03751  0.96526  1.0000
  S   S266      1.0  0.75049  0.10388  0.96747  1.0000
  Fe  Fe128     1.0  0.66486  0.04242  0.94897  1.0000
  H   H2248     1.0  0.97539  0.48359  0.92547  1.0000
  Fe  Fe129     1.0  0.65587  0.03622  0.97809  1.0000
  S   S267      1.0  0.68070  0.08599  0.94848  1.0000
  Fe  Fe130     1.0  0.85523  0.25661  0.96790  1.0000
  S   S268      1.0  0.89187  0.25548  0.95679  1.0000
  N   N72       1.0  0.79685  0.38514  0.84265  1.0000
  Fe  Fe131     1.0  0.87469  0.31678  0.96476  1.0000
  S   S269      1.0  0.91100  0.31924  0.95283  1.0000
  S   S270      1.0  0.86601  0.35207  0.97111  1.0000
  Fe  Fe132     1.0  0.88304  0.28459  0.94312  1.0000
  S   S271      1.0  0.86852  0.27917  0.92275  1.0000
  Fe  Fe133     1.0  0.91690  0.29053  0.96770  1.0000
  S   S272      1.0  0.84617  0.28490  0.95412  1.0000
  S   S273      1.0  0.93142  0.46261  0.94534  1.0000
  S   S274      1.0  0.63476  0.39621  0.83822  1.0000
  Fe  Fe134     1.0  0.64688  0.05743  0.85879  1.0000
  S   S275      1.0  0.66966  0.09902  0.86220  1.0000
  S   S276      1.0  0.62589  0.02770  0.87454  1.0000
  Fe  Fe135     1.0  0.65204  0.06740  0.82958  1.0000
  S   S277      1.0  0.67514  0.11015  0.83106  1.0000
  Fe  Fe136     1.0  0.69746  0.09664  0.84658  1.0000
  S   S278      1.0  0.74286  0.11411  0.84898  1.0000
  Fe  Fe137     1.0  0.64516  0.10835  0.84656  1.0000
  S   S279      1.0  0.62235  0.13571  0.84983  1.0000
  S   S280      1.0  0.67664  0.05386  0.84417  1.0000
  S   S281      1.0  0.62021  0.06685  0.84404  1.0000
  H   H2249     1.0  0.91151  0.39596  0.88766  1.0000
  H   H2250     1.0  0.86025  0.15060  0.82222  1.0000
  C   C1257     1.0  0.78807  0.41273  0.82341  1.0000
  Fe  Fe138     1.0  0.87965  0.27969  0.84901  1.0000
  S   S282      1.0  0.84445  0.29474  0.84997  1.0000
  S   S283      1.0  0.90793  0.28298  0.86580  1.0000
  Fe  Fe139     1.0  0.82027  0.25660  0.84217  1.0000
  S   S284      1.0  0.77744  0.23616  0.84972  1.0000
  S   S285      1.0  0.50247  0.29115  0.83767  1.0000
  H   H2251     1.0  0.52754  0.03643  0.92209  1.0000
  S   S286      1.0  0.85487  0.24067  0.84200  1.0000
  S   S287      1.0  0.89293  0.29731  0.82927  1.0000
  S   S288      1.0  0.91714  0.44295  0.84955  1.0000
  S   S289      1.0  0.65819  0.46355  0.85368  1.0000
  C   C1258     1.0  0.88773  0.36964  0.83797  1.0000
  C   C1259     1.0  0.90266  0.39173  0.84428  1.0000
  C   C1260     1.0  0.90169  0.41623  0.84041  1.0000
  H   H2252     1.0  0.49756  0.01757  0.84313  1.0000
  H   H2253     1.0  0.52068  0.05805  0.87301  1.0000
  H   H2254     1.0  0.88801  0.35064  0.84121  1.0000
  H   H2255     1.0  0.91471  0.38979  0.85221  1.0000
  C   C1261     1.0  0.72000  0.37532  0.85088  1.0000
  C   C1262     1.0  0.73666  0.40547  0.96236  1.0000
  C   C1263     1.0  0.75228  0.14785  0.84973  1.0000
  C   C1264     1.0  0.73233  0.15984  0.84953  1.0000
  C   C1265     1.0  0.74014  0.18696  0.84997  1.0000
  C   C1266     1.0  0.76793  0.20215  0.85026  1.0000
  C   C1267     1.0  0.78780  0.19005  0.85066  1.0000
  C   C1268     1.0  0.77999  0.16292  0.85043  1.0000
  H   H2256     1.0  0.52866  0.08984  0.86522  1.0000
  H   H2257     1.0  0.74942  0.08300  0.89287  1.0000
  H   H2258     1.0  0.80916  0.20151  0.85125  1.0000
  H   H2259     1.0  0.79545  0.15366  0.85064  1.0000
  C   C1269     1.0  0.59562  0.12889  0.83910  1.0000
  C   C1270     1.0  0.59942  0.12082  0.82724  1.0000
  H   H2260     1.0  0.77524  0.35930  0.82829  1.0000
  C   C1271     1.0  0.70645  0.47656  0.90820  1.0000
  C   C1272     1.0  0.54790  0.12209  0.83436  1.0000
  C   C1273     1.0  0.57006  0.13016  0.84257  1.0000
  H   H2261     1.0  0.51382  0.38705  0.85161  1.0000
  C   C1274     1.0  0.62467  0.00301  0.89742  1.0000
  H   H2262     1.0  0.52794  0.12227  0.83716  1.0000
  H   H2263     1.0  0.56719  0.13636  0.85177  1.0000
  C   C1275     1.0  0.60624  0.37898  0.84780  1.0000
  C   C1276     1.0  0.59249  0.35243  0.84638  1.0000
  C   C1277     1.0  0.56675  0.33999  0.85222  1.0000
  C   C1278     1.0  0.55558  0.35384  0.85998  1.0000
  C   C1279     1.0  0.88852  0.45265  0.91440  1.0000
  C   C1280     1.0  0.59574  0.39232  0.85612  1.0000
  H   H2264     1.0  0.60101  0.34189  0.84024  1.0000
  H   H2265     1.0  0.55545  0.31983  0.85062  1.0000
  S   S290      1.0  0.52211  0.34017  0.86607  1.0000
  H   H2266     1.0  0.73240  0.14958  0.96733  1.0000
  C   C1281     1.0  0.88593  0.38240  0.96411  1.0000
  C   C1282     1.0  0.88850  0.40496  0.97039  1.0000
  C   C1283     1.0  0.90278  0.42960  0.96474  1.0000
  C   C1284     1.0  0.91472  0.43183  0.95282  1.0000
  C   C1285     1.0  0.91283  0.40925  0.94665  1.0000
  C   C1286     1.0  0.89826  0.38454  0.95225  1.0000
  H   H2267     1.0  0.76423  0.47331  0.95109  1.0000
  H   H2268     1.0  0.90457  0.44686  0.96964  1.0000
  H   H2269     1.0  0.92212  0.41088  0.93743  1.0000
  H   H2270     1.0  0.89617  0.36721  0.94732  1.0000
  C   C1287     1.0  0.87984  0.27807  0.90715  1.0000
  C   C1288     1.0  0.90700  0.28088  0.90413  1.0000
  C   C1289     1.0  0.91504  0.28118  0.89146  1.0000
  C   C1290     1.0  0.89610  0.27867  0.88170  1.0000
  C   C1291     1.0  0.86874  0.27492  0.88479  1.0000
  C   C1292     1.0  0.86076  0.27484  0.89743  1.0000
  H   H2271     1.0  0.59297  0.07498  0.93405  1.0000
  H   H2272     1.0  0.52739  0.15000  0.93580  1.0000
  H   H2273     1.0  0.85390  0.27284  0.87742  1.0000
  H   H2274     1.0  0.83967  0.27253  0.89967  1.0000
  C   C1293     1.0  0.76805  0.13790  0.96871  1.0000
  C   C1294     1.0  0.79792  0.19170  0.97124  1.0000
  C   C1295     1.0  0.81156  0.17354  0.97137  1.0000
  C   C1296     1.0  0.79671  0.14686  0.97013  1.0000
  Fe  Fe140     1.0  0.86437  0.25960  0.82239  1.0000
  C   C1297     1.0  0.95522  0.40782  0.88550  1.0000
  C   C1298     1.0  0.64672  0.02219  0.91648  1.0000
  H   H2275     1.0  0.70267  0.43953  0.91877  1.0000
  H   H2276     1.0  0.71086  0.14829  0.84897  1.0000
  C   C1299     1.0  0.63531  0.02689  0.89057  1.0000
  C   C1300     1.0  0.65155  0.04883  0.89679  1.0000
  C   C1301     1.0  0.65706  0.04653  0.90980  1.0000
  H   H2277     1.0  0.74540  0.14397  0.91827  1.0000
  H   H2278     1.0  0.75003  0.20648  0.89423  1.0000
  H   H2279     1.0  0.65966  0.06745  0.89161  1.0000
  H   H2280     1.0  0.66974  0.06330  0.91455  1.0000
  C   C1302     1.0  0.52923  0.04932  0.96569  1.0000
  C   C1303     1.0  0.55075  0.04534  0.97248  1.0000
  C   C1304     1.0  0.57770  0.06236  0.97053  1.0000
  C   C1305     1.0  0.58331  0.08338  0.96171  1.0000
  C   C1306     1.0  0.56172  0.08778  0.95509  1.0000
  C   C1307     1.0  0.53463  0.07070  0.95708  1.0000
  H   H2281     1.0  0.57934  0.02556  0.82226  1.0000
  H   H2282     1.0  0.59415  0.05919  0.97588  1.0000
  H   H2283     1.0  0.56609  0.10402  0.94824  1.0000
  H   H2284     1.0  0.51802  0.07361  0.95176  1.0000
  C   C1308     1.0  0.57589  0.40457  0.96314  1.0000
  C   C1309     1.0  0.56322  0.37817  0.96690  1.0000
  C   C1310     1.0  0.54084  0.36232  0.96024  1.0000
  C   C1311     1.0  0.53108  0.37284  0.94980  1.0000
  C   C1312     1.0  0.54404  0.39909  0.94592  1.0000
  C   C1313     1.0  0.56632  0.41495  0.95259  1.0000
  H   H2285     1.0  0.51399  0.05622  0.84981  1.0000
  H   H2286     1.0  0.53128  0.34196  0.96312  1.0000
  H   H2287     1.0  0.53669  0.40727  0.93778  1.0000
  H   H2288     1.0  0.57605  0.43520  0.94957  1.0000
  S   S291      1.0  0.67101  0.08005  0.97952  1.0000
  H   H2289     1.0  0.62186  0.40144  0.89507  1.0000
  H   H2290     1.0  0.86561  0.43750  0.94271  1.0000
  C   C1314     1.0  0.77925  0.47903  0.85253  1.0000
  H   H2291     1.0  0.58196  0.46362  0.89703  1.0000
  H   H2292     1.0  0.50277  0.37266  0.82988  1.0000
  H   H2293     1.0  0.71925  0.36878  0.86096  1.0000
  H   H2294     1.0  0.55659  0.12181  0.97247  1.0000
  H   H2295     1.0  0.65510  0.14667  0.87305  1.0000
  S   S292      1.0  0.80218  0.46325  0.85744  1.0000
  H   H2296     1.0  0.70323  0.18943  0.88429  1.0000
  H   H2297     1.0  0.77413  0.33283  0.85021  1.0000
  C   C1315     1.0  0.75777  0.19930  0.88602  1.0000
  H   H2298     1.0  0.50818  0.15880  0.87944  1.0000
  H   H2299     1.0  0.82730  0.41220  0.83022  1.0000
  H   H2300     1.0  0.72469  0.19624  0.84964  1.0000
  H   H2301     1.0  0.51529  0.39161  0.97304  1.0000
  H   H2302     1.0  0.76074  0.13920  0.82271  1.0000
  H   H2303     1.0  0.92215  0.45241  0.90263  1.0000
  C   C1316     1.0  0.53495  0.06099  0.85357  1.0000
  C   C1317     1.0  0.52439  0.37941  0.83285  1.0000
  H   H2304     1.0  0.51196  0.08056  0.92800  1.0000
  H   H2305     1.0  0.80580  0.45503  0.82050  1.0000
  H   H2306     1.0  0.51696  0.38086  0.88535  1.0000
  H   H2307     1.0  0.68208  0.17114  0.86404  1.0000
  H   H2308     1.0  0.87749  0.46600  0.91694  1.0000
  H   H2309     1.0  0.86336  0.33904  0.89390  1.0000
  H   H2310     1.0  0.95366  0.45529  0.91831  1.0000
  S   S293      1.0  0.50271  0.35386  0.94141  1.0000
  H   H2311     1.0  0.74621  0.20190  0.87756  1.0000
  C   C1318     1.0  0.88734  0.41889  0.82961  1.0000
  Fe  Fe141     1.0  0.89838  0.47429  0.84601  1.0000
  H   H2312     1.0  0.53137  0.02974  0.90138  1.0000
  H   H2313     1.0  0.97170  0.40038  0.88286  1.0000
  H   H2314     1.0  0.83336  0.17991  0.97304  1.0000
  H   H2315     1.0  0.81014  0.13436  0.82002  1.0000
  H   H2316     1.0  0.86880  0.36963  0.88530  1.0000
  H   H2317     1.0  0.79988  0.21685  0.89231  1.0000
  C   C1319     1.0  0.60192  0.47857  0.89702  1.0000
  N   N73       1.0  0.83035  0.16996  0.93090  1.0000
  C   C1320     1.0  0.84934  0.18273  0.91990  1.0000
  C   C1321     1.0  0.84740  0.16600  0.94181  1.0000
  C   C1322     1.0  0.81233  0.14323  0.92724  1.0000
  C   C1323     1.0  0.81223  0.18518  0.93456  1.0000
  C   C1324     1.0  0.82377  0.21528  0.93236  1.0000
  C   C1325     1.0  0.83517  0.18361  0.90712  1.0000
  C   C1326     1.0  0.79224  0.12601  0.93759  1.0000
  C   C1327     1.0  0.86752  0.19081  0.94729  1.0000
  C   C1328     1.0  0.88617  0.18387  0.95695  1.0000
  C   C1329     1.0  0.80346  0.22763  0.93711  1.0000
  C   C1330     1.0  0.85455  0.20303  0.89759  1.0000
  C   C1331     1.0  0.77215  0.10147  0.93226  1.0000
  H   H2318     1.0  0.86429  0.17243  0.91848  1.0000
  H   H2319     1.0  0.86228  0.20293  0.92182  1.0000
  H   H2320     1.0  0.83410  0.15556  0.94990  1.0000
  H   H2321     1.0  0.85927  0.15336  0.93916  1.0000
  H   H2322     1.0  0.82519  0.13197  0.92396  1.0000
  H   H2323     1.0  0.79925  0.14497  0.91920  1.0000
  H   H2324     1.0  0.79276  0.17883  0.92934  1.0000
  H   H2325     1.0  0.80590  0.18072  0.94464  1.0000
  H   H2326     1.0  0.82730  0.22108  0.92222  1.0000
  H   H2327     1.0  0.84345  0.22403  0.93715  1.0000
  H   H2328     1.0  0.82894  0.16416  0.90307  1.0000
  H   H2329     1.0  0.81653  0.18901  0.90822  1.0000
  H   H2330     1.0  0.78004  0.13676  0.94186  1.0000
  H   H2331     1.0  0.80351  0.11936  0.94514  1.0000
  H   H2332     1.0  0.88097  0.20423  0.93999  1.0000
  H   H2333     1.0  0.85576  0.20113  0.95223  1.0000
  H   H2334     1.0  0.87384  0.17055  0.96464  1.0000
  H   H2335     1.0  0.89940  0.17446  0.95242  1.0000
  H   H2336     1.0  0.89965  0.20185  0.96115  1.0000
  H   H2337     1.0  0.54956  0.07749  0.90624  1.0000
  H   H2338     1.0  0.81166  0.24900  0.93498  1.0000
  C   C1332     1.0  0.80676  0.40982  0.83432  1.0000
  H   H2339     1.0  0.87313  0.19774  0.89594  1.0000
  H   H2340     1.0  0.84405  0.20308  0.88850  1.0000
  H   H2341     1.0  0.86096  0.22299  0.90103  1.0000
  H   H2342     1.0  0.78338  0.08958  0.92820  1.0000
  H   H2343     1.0  0.75835  0.08950  0.93992  1.0000
  H   H2344     1.0  0.75926  0.10651  0.92494  1.0000
  H   H2345     1.0  0.71337  0.07230  0.88893  1.0000
  H   H2346     1.0  0.53501  0.00413  0.88392  1.0000
  H   H2347     1.0  0.71031  0.45768  0.93989  1.0000
  C   C1333     1.0  0.49478  0.15250  0.98068  1.0000
  C   C1334     1.0  0.81951  0.38591  0.85177  1.0000
  C   C1335     1.0  0.77141  0.38375  0.85002  1.0000
  C   C1336     1.0  0.51998  0.38506  0.89540  1.0000
  C   C1337     1.0  0.82979  0.41025  0.85972  1.0000
  H   H2348     1.0  0.72281  0.39642  0.85010  1.0000
  C   C1338     1.0  0.84896  0.40686  0.87004  1.0000
  H   H2349     1.0  0.83772  0.38452  0.84668  1.0000
  H   H2350     1.0  0.81274  0.36877  0.85859  1.0000
  H   H2351     1.0  0.77061  0.37329  0.85935  1.0000
  H   H2352     1.0  0.77229  0.40373  0.85228  1.0000
  C   C1339     1.0  0.68950  0.16895  0.88420  1.0000
  H   H2353     1.0  0.84020  0.46431  0.97703  1.0000
  H   H2354     1.0  0.81240  0.41414  0.86422  1.0000
  H   H2355     1.0  0.84168  0.42758  0.85374  1.0000
  Fe  Fe142     1.0  0.62438  0.48110  0.82320  1.0000
  H   H2356     1.0  0.97121  0.43488  0.97268  1.0000
  H   H2357     1.0  0.88788  0.43791  0.82613  1.0000
  H   H2358     1.0  0.86638  0.40221  0.86597  1.0000
  H   H2359     1.0  0.85742  0.42528  0.87494  1.0000
  H   H2360     1.0  0.83752  0.39115  0.87702  1.0000
  H   H2361     1.0  0.50429  0.17003  0.97431  1.0000
  S   S294      1.0  0.81506  0.22484  0.97466  1.0000
  H   H2362     1.0  0.75837  0.19650  0.96990  1.0000
  C   C1340     1.0  0.92617  0.38959  0.88222  1.0000
  H   H2363     1.0  0.90353  0.33169  0.89953  1.0000
  H   H2364     1.0  0.49811  0.17710  0.83212  1.0000
  H   H2365     1.0  0.79119  0.31478  0.82555  1.0000
  H   H2366     1.0  0.65903  0.18057  0.87376  1.0000
  C   C1341     1.0  0.57070  0.37960  0.86240  1.0000
  C   C1342     1.0  0.70558  0.14968  0.88346  1.0000
  H   H2367     1.0  0.96159  0.35930  0.88296  1.0000
  H   H2368     1.0  0.75730  0.12331  0.87901  1.0000
  H   H2369     1.0  0.72153  0.11256  0.87535  1.0000
  H   H2370     1.0  0.76048  0.17806  0.91343  1.0000
  H   H2371     1.0  0.51838  0.41369  0.84014  1.0000
  H   H2372     1.0  0.53224  0.04630  0.82845  1.0000
  C   C1343     1.0  0.73061  0.12499  0.89483  1.0000
  C   C1344     1.0  0.73010  0.16912  0.92823  1.0000
  S   S295      1.0  0.66013  0.46692  0.82263  1.0000
  C   C1345     1.0  0.69948  0.45825  0.92027  1.0000
  H   H2373     1.0  0.51750  0.09911  0.91316  1.0000
  H   H2374     1.0  0.84610  0.41327  0.93230  1.0000
  H   H2375     1.0  0.79697  0.20998  0.87583  1.0000
  C   C1346     1.0  0.51746  0.13431  0.94307  1.0000
  H   H2376     1.0  0.51756  0.15888  0.85092  1.0000
  C   C1347     1.0  0.97540  0.38559  0.95494  1.0000
  H   H2377     1.0  0.72542  0.39577  0.97113  1.0000
  H   H2378     1.0  0.54893  0.07648  0.84724  1.0000
  H   H2379     1.0  0.81080  0.36569  0.82835  1.0000
  H   H2380     1.0  0.71158  0.46588  0.84633  1.0000
  C   C1348     1.0  0.52626  0.39791  0.84335  1.0000
  C   C1349     1.0  0.55403  0.98623  0.85670  1.0000
  N   N74       1.0  0.50958  0.13306  0.97978  1.0000
  H   H2381     1.0  0.71592  0.17769  0.90453  1.0000
  C   C1350     1.0  0.73978  0.45068  0.89584  1.0000
  C   C1351     1.0  0.84156  0.33608  0.87668  1.0000
  S   S296      1.0  0.82725  0.27180  0.82214  1.0000
  H   H2382     1.0  0.51327  0.33340  0.89417  1.0000
  C   C1352     1.0  0.78845  0.33568  0.84211  1.0000
  H   H2383     1.0  0.52098  0.13490  0.86256  1.0000
  C   C1353     1.0  0.51733  0.08050  0.91792  1.0000
  C   C1354     1.0  0.76926  0.18275  0.96974  1.0000
  H   H2384     1.0  0.54357  0.16826  0.86267  1.0000
  C   C1355     1.0  0.75443  0.15610  0.96835  1.0000
  H   H2385     1.0  0.58703  0.99353  0.94756  1.0000
  S   S297      1.0  0.49247  0.21958  0.84499  1.0000
  C   C1356     1.0  0.54552  0.07770  0.91643  1.0000
  S   S298      1.0  0.88088  0.28907  0.97975  1.0000
  H   H2386     1.0  0.52913  0.36225  0.83684  1.0000
  H   H2387     1.0  0.76907  0.41484  0.82722  1.0000
  H   H2388     1.0  0.48191  0.34631  0.88235  1.0000
  C   C1357     1.0  0.70910  0.44448  0.89245  1.0000
  C   C1358     1.0  0.58859  0.14749  0.98291  1.0000
  H   H2389     1.0  0.58975  0.32157  0.81898  1.0000
  H   H2390     1.0  0.72425  0.39656  0.95423  1.0000
  H   H2391     1.0  0.60380  0.47861  0.91736  1.0000
  H   H2392     1.0  0.53148  0.37318  0.89986  1.0000
  Fe  Fe143     1.0  0.63830  0.43829  0.83813  1.0000
  H   H2393     1.0  0.92112  0.33056  0.92184  1.0000
  N   N75       1.0  0.72802  0.15170  0.89289  1.0000
  H   H2394     1.0  0.50387  0.99218  0.85164  1.0000
  H   H2395     1.0  0.93622  0.28396  0.88918  1.0000
  H   H2396     1.0  0.60915  0.42837  0.89604  1.0000
  C   C1359     1.0  0.49582  0.31902  0.89939  1.0000
  H   H2397     1.0  0.77453  0.41151  0.95267  1.0000
  H   H2398     1.0  0.71544  0.41438  0.82491  1.0000
  C   C1360     1.0  0.54822  0.02145  0.90163  1.0000
  H   H2399     1.0  0.64560  0.45429  0.88041  1.0000
  H   H2400     1.0  0.92187  0.28328  0.91151  1.0000
  H   H2401     1.0  0.54544  0.05670  0.93380  1.0000
  H   H2402     1.0  0.48381  0.07594  0.97754  1.0000
  C   C1361     1.0  0.75130  0.46472  0.85162  1.0000
  S   S299      1.0  0.59962  0.47690  0.87115  1.0000
  H   H2403     1.0  0.74769  0.12546  0.90123  1.0000
  H   H2404     1.0  0.95620  0.41077  0.89575  1.0000
  H   H2405     1.0  0.64762  0.12444  0.91507  1.0000
  C   C1362     1.0  0.52224  0.15551  0.86091  1.0000
  H   H2406     1.0  0.67645  0.16433  0.89286  1.0000
  H   H2407     1.0  0.60007  0.09748  0.91128  1.0000
  C   C1363     1.0  0.80785  0.38294  0.97502  1.0000
  C   C1364     1.0  0.61350  0.08794  0.91597  1.0000
  H   H2408     1.0  0.48419  0.39550  0.89983  1.0000
  H   H2409     1.0  0.96410  0.32762  0.86113  1.0000
  H   H2410     1.0  0.94645  0.39463  0.96669  1.0000
  H   H2411     1.0  0.62819  0.11778  0.92963  1.0000
  C   C1365     1.0  0.63658  0.10889  0.92221  1.0000
  H   H2412     1.0  0.65143  0.10038  0.92646  1.0000
  H   H2413     1.0  0.78858  0.23700  0.88125  1.0000
  H   H2414     1.0  0.56227  0.39028  0.86854  1.0000
  H   H2415     1.0  0.83360  0.43888  0.93654  1.0000
  H   H2416     1.0  0.54076  0.00213  0.90672  1.0000
  C   C1366     1.0  0.50230  0.16192  0.86964  1.0000
  H   H2417     1.0  0.71051  0.15376  0.93128  1.0000
  H   H2418     1.0  0.85039  0.43314  0.96539  1.0000
  H   H2419     1.0  0.94599  0.44329  0.88082  1.0000
  H   H2420     1.0  0.80745  0.13296  0.97060  1.0000
  C   C1367     1.0  0.91677  0.35252  0.89818  1.0000
  C   C1368     1.0  0.71998  0.15902  0.90540  1.0000
  C   C1369     1.0  0.49680  0.38945  0.97889  1.0000
  H   H2421     1.0  0.54662  0.02896  0.97924  1.0000
  H   H2422     1.0  0.61209  0.98600  0.89278  1.0000
  H   H2423     1.0  0.50515  0.18285  0.86775  1.0000
  C   C1370     1.0  0.82858  0.42484  0.96256  1.0000
  H   H2424     1.0  0.80071  0.17413  0.82338  1.0000
  C   C1371     1.0  0.84455  0.42563  0.94000  1.0000
  C   C1372     1.0  0.75240  0.43336  0.88906  1.0000
  H   H2425     1.0  0.95258  0.37925  0.86186  1.0000
  H   H2426     1.0  0.79908  0.37268  0.96648  1.0000
  H   H2427     1.0  0.60811  0.41321  0.88141  1.0000
  H   H2428     1.0  0.83972  0.39428  0.95375  1.0000
  H   H2429     1.0  0.55950  0.99830  0.86495  1.0000
  H   H2430     1.0  0.73868  0.34862  0.84442  1.0000
  Fe  Fe144     1.0  0.62240  0.47775  0.85264  1.0000
  H   H2431     1.0  0.95126  0.33911  0.90274  1.0000
  H   H2432     1.0  0.88988  0.32596  0.87753  1.0000
  Fe  Fe145     1.0  0.85505  0.30840  0.82983  1.0000
  N   N76       1.0  0.81032  0.41133  0.97375  1.0000
  C   C1373     1.0  0.70980  0.43099  0.82086  1.0000
  C   C1374     1.0  0.82907  0.40835  0.95120  1.0000
  C   C1375     1.0  0.96174  0.43449  0.87858  1.0000
  H   H2433     1.0  0.74409  0.17492  0.82310  1.0000
  H   H2434     1.0  0.80822  0.39720  0.94808  1.0000
  H   H2435     1.0  0.58211  0.03781  0.94688  1.0000
  H   H2436     1.0  0.77075  0.40815  0.98167  1.0000
  C   C1376     1.0  0.59750  0.06575  0.92564  1.0000
  H   H2437     1.0  0.61279  0.05654  0.92886  1.0000
  H   H2438     1.0  0.62306  0.07999  0.90860  1.0000
  H   H2439     1.0  0.77406  0.43770  0.89191  1.0000
  S   S300      1.0  0.66334  0.47886  0.95351  1.0000
  H   H2440     1.0  0.51037  0.24711  0.82036  1.0000
  H   H2441     1.0  0.82323  0.44189  0.95894  1.0000
  H   H2442     1.0  0.48458  0.11598  0.96416  1.0000
  C   C1377     1.0  0.66521  0.44956  0.89812  1.0000
  C   C1378     1.0  0.56569  0.02107  0.94321  1.0000
  H   H2443     1.0  0.57963  0.05859  0.90156  1.0000
  H   H2444     1.0  0.50149  0.00057  0.82291  1.0000
  H   H2445     1.0  0.74510  0.17065  0.93587  1.0000
  H   H2446     1.0  0.59451  0.16318  0.97531  1.0000
  H   H2447     1.0  0.87938  0.40336  0.97964  1.0000
  C   C1379     1.0  0.74104  0.16219  0.91608  1.0000
  H   H2448     1.0  0.55620  0.07863  0.87024  1.0000
  C   C1380     1.0  0.87232  0.37223  0.82754  1.0000
  N   N77       1.0  0.57156  0.04536  0.92126  1.0000
  C   C1381     1.0  0.56821  0.02018  0.92876  1.0000
  H   H2449     1.0  0.59150  0.03292  0.90633  1.0000
  H   H2450     1.0  0.58577  0.01342  0.92669  1.0000
  H   H2451     1.0  0.54559  0.02260  0.94582  1.0000
  C   C1382     1.0  0.55789  0.00371  0.84444  1.0000
  C   C1383     1.0  0.78276  0.41492  0.97275  1.0000
  H   H2452     1.0  0.52808  0.42662  0.89142  1.0000
  H   H2453     1.0  0.71157  0.11111  0.89945  1.0000
  H   H2454     1.0  0.51276  0.16173  0.95563  1.0000
  N   N78       1.0  0.92006  0.36063  0.88432  1.0000
  C   C1384     1.0  0.95883  0.38161  0.96716  1.0000
  H   H2455     1.0  0.56078  0.09516  0.92027  1.0000
  C   C1385     1.0  0.54671  0.05294  0.92374  1.0000
  C   C1386     1.0  0.57419  0.04039  0.90760  1.0000
  H   H2456     1.0  0.96216  0.43264  0.86824  1.0000
  C   C1387     1.0  0.50708  0.30117  0.90751  1.0000
  H   H2457     1.0  0.65525  0.46266  0.90214  1.0000
  S   S301      1.0  0.85172  0.34470  0.82025  1.0000
  H   H2458     1.0  0.80038  0.22405  0.94743  1.0000
  H   H2459     1.0  0.76122  0.38086  0.96184  1.0000
  H   H2460     1.0  0.73897  0.42647  0.96206  1.0000
  H   H2461     1.0  0.95937  0.37357  0.90392  1.0000
  Fe  Fe146     1.0  0.62451  0.46621  0.96527  1.0000
  H   H2462     1.0  0.71398  0.15153  0.87373  1.0000
  H   H2463     1.0  0.74090  0.41246  0.89145  1.0000
  S   S302      1.0  0.49616  0.02653  0.96790  1.0000
  H   H2464     1.0  0.77216  0.16892  0.89411  1.0000
  H   H2465     1.0  0.87361  0.43514  0.91044  1.0000
  C   C1388     1.0  0.93703  0.34993  0.91972  1.0000
  C   C1389     1.0  0.76473  0.40204  0.96172  1.0000
  H   H2466     1.0  0.69807  0.42474  0.89686  1.0000
  C   C1390     1.0  0.73300  0.47706  0.84725  1.0000
  H   H2467     1.0  0.54778  0.40687  0.84634  1.0000
  C   C1391     1.0  0.64873  0.43829  0.88635  1.0000
  H   H2468     1.0  0.70020  0.14421  0.90879  1.0000
  C   C1392     1.0  0.73636  0.11257  0.88282  1.0000
  H   H2469     1.0  0.76013  0.16469  0.87860  1.0000
  H   H2470     1.0  0.54308  0.41874  0.90580  1.0000
  H   H2471     1.0  0.50132  0.06426  0.91357  1.0000
  C   C1393     1.0  0.54503  0.39316  0.82202  1.0000
  H   H2472     1.0  0.73897  0.07613  0.87691  1.0000
  H   H2473     1.0  0.89723  0.44637  0.92300  1.0000
  H   H2474     1.0  0.92790  0.34782  0.85873  1.0000
  H   H2475     1.0  0.55636  0.31419  0.82606  1.0000
  H   H2476     1.0  0.70715  0.44192  0.88214  1.0000
  H   H2477     1.0  0.52712  0.11910  0.94263  1.0000
  C   C1394     1.0  0.55973  0.02873  0.82002  1.0000
  C   C1395     1.0  0.97750  0.38650  0.97880  1.0000
  C   C1396     1.0  0.53520  0.07250  0.86635  1.0000
  C   C1397     1.0  0.78765  0.21671  0.88374  1.0000
  C   C1398     1.0  0.73441  0.08429  0.88564  1.0000
  C   C1399     1.0  0.53913  0.14627  0.98321  1.0000
  H   H2478     1.0  0.78340  0.21974  0.93243  1.0000
  H   H2479     1.0  0.66156  0.43292  0.90516  1.0000
  C   C1400     1.0  0.94145  0.35155  0.87839  1.0000
  H   H2480     1.0  0.80844  0.33523  0.84575  1.0000
  C   C1401     1.0  0.62026  0.41914  0.89000  1.0000
  H   H2481     1.0  0.57996  0.01603  0.84389  1.0000
  C   C1402     1.0  0.75527  0.17032  0.88797  1.0000
  H   H2482     1.0  0.89336  0.35447  0.86816  1.0000
  N   N79       1.0  0.54035  0.02086  0.84314  1.0000
  C   C1403     1.0  0.71681  0.47085  0.93132  1.0000
  H   H2483     1.0  0.72669  0.18809  0.92692  1.0000
  C   C1404     1.0  0.87263  0.39689  0.82316  1.0000
  H   H2484     1.0  0.49015  0.28584  0.91267  1.0000
  Fe  Fe147     1.0  0.49386  0.30852  0.85496  1.0000
  C   C1405     1.0  0.89310  0.34701  0.87808  1.0000
  H   H2485     1.0  0.56653  0.05688  0.83369  1.0000
  S   S303      1.0  0.86084  0.46888  0.83464  1.0000
  C   C1406     1.0  0.74324  0.37002  0.84397  1.0000
  H   H2486     1.0  0.60657  0.41266  0.85753  1.0000
  C   C1407     1.0  0.86698  0.34903  0.88439  1.0000
  C   C1408     1.0  0.54469  0.03698  0.85457  1.0000
  H   H2487     1.0  0.82488  0.47491  0.92401  1.0000
  H   H2488     1.0  0.75240  0.47111  0.89335  1.0000
  C   C1409     1.0  0.94311  0.35443  0.90559  1.0000
  H   H2489     1.0  0.56557  0.39567  0.82597  1.0000
  H   H2490     1.0  0.65946  0.42808  0.88069  1.0000
  H   H2491     1.0  0.92978  0.36528  0.92327  1.0000
  C   C1410     1.0  0.84896  0.16462  0.82136  1.0000
  H   H2492     1.0  0.78546  0.43602  0.97151  1.0000
  C   C1411     1.0  0.54912  0.03913  0.83153  1.0000
  C   C1412     1.0  0.51024  0.00485  0.84291  1.0000
  C   C1413     1.0  0.52119  0.14563  0.95604  1.0000
  H   H2493     1.0  0.68948  0.13000  0.88441  1.0000
  H   H2494     1.0  0.74263  0.37631  0.83398  1.0000
  H   H2495     1.0  0.75650  0.31114  0.83039  1.0000
  C   C1414     1.0  0.97423  0.43783  0.98287  1.0000
  H   H2496     1.0  0.51783  0.29166  0.90143  1.0000
  H   H2497     1.0  0.77573  0.29427  0.83920  1.0000
  H   H2498     1.0  0.97295  0.47188  0.89744  1.0000
  H   H2499     1.0  0.67763  0.45394  0.92304  1.0000
  H   H2500     1.0  0.92236  0.39435  0.87230  1.0000
  H   H2501     1.0  0.84405  0.34502  0.86696  1.0000
  H   H2502     1.0  0.48195  0.30692  0.89242  1.0000
  C   C1415     1.0  0.79270  0.36205  0.83471  1.0000
  S   S304      1.0  0.96091  0.30248  0.97541  1.0000
  H   H2503     1.0  0.70003  0.36457  0.84664  1.0000
  H   H2504     1.0  0.57076  0.36996  0.97497  1.0000
  H   H2505     1.0  0.53387  0.02466  0.86288  1.0000
  C   C1416     1.0  0.50674  0.12446  0.96645  1.0000
  H   H2506     1.0  0.48303  0.12274  0.90839  1.0000
  H   H2507     1.0  0.54357  0.15384  0.95766  1.0000
  S   S305      1.0  0.60099  0.45021  0.83777  1.0000
  S   S306      1.0  0.65405  0.01642  0.93244  1.0000
  H   H2508     1.0  0.56684  0.04445  0.85698  1.0000
  H   H2509     1.0  0.75073  0.45774  0.82222  1.0000
  H   H2510     1.0  0.51499  0.10850  0.96534  1.0000
  H   H2511     1.0  0.54786  0.16528  0.97777  1.0000
  H   H2512     1.0  0.74385  0.44405  0.85408  1.0000
  H   H2513     1.0  0.78843  0.45804  0.92360  1.0000
  C   C1417     1.0  0.55176  0.11377  0.82254  1.0000
  H   H2514     1.0  0.90578  0.36369  0.90309  1.0000
  H   H2515     1.0  0.57916  0.36178  0.82299  1.0000
  C   C1418     1.0  0.77725  0.31264  0.83375  1.0000
  H   H2516     1.0  0.83802  0.31491  0.87629  1.0000
  C   C1419     1.0  0.94652  0.35798  0.86407  1.0000
  H   H2517     1.0  0.90137  0.47022  0.89602  1.0000
  N   N80       1.0  0.69568  0.46374  0.89615  1.0000
  C   C1420     1.0  0.67034  0.16666  0.87308  1.0000
  H   H2518     1.0  0.82325  0.33845  0.88113  1.0000
  H   H2519     1.0  0.52190  0.31258  0.91437  1.0000
  H   H2520     1.0  0.84489  0.16970  0.83094  1.0000
  H   H2521     1.0  0.56963  0.00678  0.88796  1.0000
  H   H2522     1.0  0.54944  0.00438  0.92609  1.0000
  H   H2523     1.0  0.56209  0.03545  0.88245  1.0000
  C   C1421     1.0  0.63058  0.00063  0.91015  1.0000
  H   H2524     1.0  0.74174  0.44721  0.90609  1.0000
  H   H2525     1.0  0.55777  0.41672  0.89072  1.0000
  H   H2526     1.0  0.77693  0.20039  0.82399  1.0000
  H   H2527     1.0  0.49538  0.12572  0.94086  1.0000
  C   C1422     1.0  0.53824  0.41354  0.89592  1.0000
  H   H2528     1.0  0.94451  0.36120  0.96774  1.0000
  H   H2529     1.0  0.93567  0.33009  0.87998  1.0000
  H   H2530     1.0  0.60191  0.13542  0.98200  1.0000
  H   H2531     1.0  0.82867  0.38134  0.97580  1.0000
  C   C1423     1.0  0.91131  0.46611  0.90476  1.0000
  C   C1424     1.0  0.55857  0.13042  0.98172  1.0000
  H   H2532     1.0  0.77831  0.32944  0.97716  1.0000
  H   H2533     1.0  0.51318  0.34955  0.98356  1.0000
  C   C1425     1.0  0.97382  0.47116  0.91746  1.0000
  H   H2534     1.0  0.75225  0.43720  0.87872  1.0000
  H   H2535     1.0  0.51771  0.08372  0.98355  1.0000
  H   H2536     1.0  0.97233  0.35341  0.84901  1.0000
  C   C1426     1.0  0.96947  0.34900  0.85931  1.0000
  H   H2537     1.0  0.96119  0.38116  0.94690  1.0000
  H   H2538     1.0  0.61920  0.12000  0.82450  1.0000
  H   H2539     1.0  0.70134  0.43907  0.82857  1.0000
  H   H2540     1.0  0.73884  0.47428  0.92946  1.0000
  H   H2541     1.0  0.49795  0.38256  0.91263  1.0000
  H   H2542     1.0  0.69018  0.47599  0.87693  1.0000
  C   C1427     1.0  0.56731  0.99627  0.94991  1.0000
  H   H2543     1.0  0.80693  0.47290  0.90927  1.0000
  H   H2544     1.0  0.55477  0.99065  0.83654  1.0000
  H   H2545     1.0  0.49243  0.33952  0.91588  1.0000
  H   H2546     1.0  0.95594  0.35044  0.92479  1.0000
  H   H2547     1.0  0.49628  0.40950  0.97902  1.0000
  H   H2548     1.0  0.74971  0.08987  0.82624  1.0000
  C   C1428     1.0  0.49247  0.37972  0.90257  1.0000
  H   H2549     1.0  0.54444  0.41329  0.82030  1.0000
  C   C1429     1.0  0.50035  0.98789  0.83152  1.0000
  Fe  Fe148     1.0  0.48382  0.08376  0.82215  1.0000
  H   H2550     1.0  0.48371  0.39641  0.95394  1.0000
  H   H2551     1.0  0.73930  0.21779  0.82521  1.0000
  C   C1430     1.0  0.80551  0.47499  0.91953  1.0000
  H   H2552     1.0  0.56619  0.99792  0.96022  1.0000
  H   H2553     1.0  0.94512  0.45877  0.98375  1.0000
  C   C1431     1.0  0.82387  0.42395  0.98546  1.0000
  H   H2554     1.0  0.97968  0.47883  0.97947  1.0000
  H   H2555     1.0  0.92271  0.36605  0.98547  1.0000
  Fe  Fe149     1.0  0.56928  0.59323  0.04662  1.0000
  S   S307      1.0  0.54656  0.61891  0.03865  1.0000
  S   S308      1.0  0.59043  0.56942  0.03588  1.0000
  Fe  Fe150     1.0  0.54840  0.59601  0.07400  1.0000
  S   S309      1.0  0.52377  0.62104  0.06753  1.0000
  S   S310      1.0  0.54092  0.57678  0.09378  1.0000
  Fe  Fe151     1.0  0.51170  0.59464  0.05146  1.0000
  C   C1432     1.0  0.53050  0.73573  0.09718  1.0000
  Fe  Fe152     1.0  0.56089  0.64305  0.05557  1.0000
  S   S311      1.0  0.58170  0.68727  0.05568  1.0000
  S   S312      1.0  0.53374  0.56824  0.05863  1.0000
  S   S313      1.0  0.58646  0.61900  0.06280  1.0000
  Fe  Fe153     1.0  0.55284  0.82234  0.05067  1.0000
  S   S314      1.0  0.59658  0.84521  0.05489  1.0000
  S   S315      1.0  0.53494  0.78017  0.04498  1.0000
  Fe  Fe154     1.0  0.53406  0.86768  0.05692  1.0000
  S   S316      1.0  0.57641  0.89346  0.06188  1.0000
  C   C1433     1.0  0.60824  0.67992  0.02199  1.0000
  Fe  Fe155     1.0  0.58965  0.87964  0.04421  1.0000
  S   S317      1.0  0.62013  0.90492  0.02885  1.0000
  Fe  Fe156     1.0  0.57898  0.85709  0.07207  1.0000
  S   S318      1.0  0.59529  0.85202  0.09167  1.0000
  S   S319      1.0  0.54684  0.85554  0.03885  1.0000
  S   S320      1.0  0.53573  0.83257  0.06823  1.0000
  S   S321      1.0  0.53417  0.84969  0.14416  1.0000
  H   H2556     1.0  0.57925  0.87793  0.00597  1.0000
  C   C1434     1.0  0.57728  0.85025  0.10610  1.0000
  C   C1435     1.0  0.58690  0.84163  0.11727  1.0000
  C   C1436     1.0  0.57358  0.84063  0.12894  1.0000
  C   C1437     1.0  0.55066  0.84865  0.12962  1.0000
  C   C1438     1.0  0.54083  0.85688  0.11841  1.0000
  C   C1439     1.0  0.55391  0.85751  0.10673  1.0000
  H   H2557     1.0  0.60505  0.83610  0.11693  1.0000
  H   H2558     1.0  0.58150  0.83440  0.13746  1.0000
  H   H2559     1.0  0.52323  0.86325  0.11881  1.0000
  H   H2560     1.0  0.54649  0.86449  0.09826  1.0000
  C   C1440     1.0  0.56726  0.71251  0.05424  1.0000
  C   C1441     1.0  0.53957  0.70761  0.05154  1.0000
  C   C1442     1.0  0.52982  0.72854  0.04903  1.0000
  C   C1443     1.0  0.54742  0.75453  0.04951  1.0000
  C   C1444     1.0  0.57477  0.75937  0.05280  1.0000
  C   C1445     1.0  0.58465  0.73847  0.05504  1.0000
  H   H2561     1.0  0.52586  0.68776  0.05105  1.0000
  H   H2562     1.0  0.50859  0.72458  0.04653  1.0000
  H   H2563     1.0  0.58857  0.77924  0.05315  1.0000
  H   H2564     1.0  0.60609  0.74249  0.05714  1.0000
  H   H2565     1.0  0.50381  0.65684  0.03490  1.0000
  C   C1446     1.0  0.57098  0.68621  0.14112  1.0000
  H   H2566     1.0  0.51584  0.68272  0.13737  1.0000
  C   C1447     1.0  0.55480  0.59048  0.10805  1.0000
  C   C1448     1.0  0.57727  0.61357  0.10835  1.0000
  C   C1449     1.0  0.58858  0.62279  0.11996  1.0000
  C   C1450     1.0  0.57717  0.60937  0.13135  1.0000
  C   C1451     1.0  0.55431  0.58664  0.13105  1.0000
  C   C1452     1.0  0.54339  0.57713  0.11945  1.0000
  H   H2567     1.0  0.58641  0.62386  0.09964  1.0000
  H   H2568     1.0  0.60653  0.64012  0.12010  1.0000
  H   H2569     1.0  0.54551  0.57597  0.13973  1.0000
  H   H2570     1.0  0.52618  0.55914  0.11931  1.0000
  H   H2571     1.0  0.56910  0.77764  0.00778  1.0000
  H   H2572     1.0  0.63910  0.72014  0.13542  1.0000
  H   H2573     1.0  0.65275  0.69858  0.02078  1.0000
  C   C1453     1.0  0.59372  0.75500  0.01538  1.0000
  H   H2574     1.0  0.55509  0.94874  0.99748  1.0000
  C   C1454     1.0  0.67000  0.59786  0.02895  1.0000
  H   H2575     1.0  0.53743  0.90195  0.99528  1.0000
  C   C1455     1.0  0.60579  0.94864  0.02131  1.0000
  C   C1456     1.0  0.62288  0.93395  0.01949  1.0000
  C   C1457     1.0  0.64315  0.94261  0.00990  1.0000
  C   C1458     1.0  0.64645  0.96553  0.00231  1.0000
  H   H2576     1.0  0.60089  0.71071  0.03174  1.0000
  H   H2577     1.0  0.59014  0.94239  0.02864  1.0000
  H   H2578     1.0  0.65660  0.93155  0.00840  1.0000
  H   H2579     1.0  0.67370  0.60196  0.00893  1.0000
  H   H2580     1.0  0.52561  0.49726  0.98614  1.0000
  C   C1459     1.0  0.60405  0.53647  0.00410  1.0000
  C   C1460     1.0  0.60045  0.54157  0.01672  1.0000
  C   C1461     1.0  0.59242  0.56279  0.01974  1.0000
  C   C1462     1.0  0.58743  0.57851  0.00990  1.0000
  C   C1463     1.0  0.59105  0.57340  0.99728  1.0000
  H   H2581     1.0  0.61011  0.52007  0.00192  1.0000
  H   H2582     1.0  0.60429  0.52918  0.02422  1.0000
  H   H2583     1.0  0.58124  0.59488  0.01202  1.0000
  H   H2584     1.0  0.51943  0.67484  0.00733  1.0000
  C   C1464     1.0  0.58653  0.78248  0.09407  1.0000
  C   C1465     1.0  0.60965  0.79098  0.08420  1.0000
  H   H2585     1.0  0.59159  0.79724  0.10130  1.0000
  H   H2586     1.0  0.58618  0.76374  0.09873  1.0000
  H   H2587     1.0  0.60653  0.77587  0.07723  1.0000
  H   H2588     1.0  0.61048  0.80964  0.07924  1.0000
  H   H2589     1.0  0.62962  0.79391  0.08882  1.0000
  H   H2590     1.0  0.95594  0.62345  0.99229  1.0000
  H   H2591     1.0  0.53989  0.70838  0.99519  1.0000
  H   H2592     1.0  0.52739  0.91001  0.03235  1.0000
  C   C1466     1.0  0.62022  0.70273  0.13490  1.0000
  H   H2593     1.0  0.50118  0.56788  0.00348  1.0000
  H   H2594     1.0  0.68778  0.61558  0.03064  1.0000
  H   H2595     1.0  0.63438  0.49762  0.01461  1.0000
  H   H2596     1.0  0.78272  0.55979  0.00168  1.0000
  H   H2597     1.0  0.97493  0.66966  0.02837  1.0000
  H   H2598     1.0  0.66241  0.97192  0.99514  1.0000
  H   H2599     1.0  0.62257  0.74272  0.14897  1.0000
  C   C1467     1.0  0.70021  0.58054  0.01581  1.0000
  C   C1468     1.0  0.50516  0.57484  0.01313  1.0000
  C   C1469     1.0  0.55221  0.68136  0.02113  1.0000
  C   C1470     1.0  0.60127  0.70542  0.02181  1.0000
  H   H2600     1.0  0.48568  0.53165  0.09526  1.0000
  C   C1471     1.0  0.58425  0.77863  0.01529  1.0000
  C   C1472     1.0  0.51126  0.76346  0.11785  1.0000
  C   C1473     1.0  0.51320  0.55531  0.02164  1.0000
  C   C1474     1.0  0.57821  0.70192  0.00147  1.0000
  H   H2601     1.0  0.50161  0.52080  0.04651  1.0000
  C   C1475     1.0  0.63492  0.70442  0.11201  1.0000
  H   H2602     1.0  0.61914  0.72101  0.01731  1.0000
  H   H2603     1.0  0.67811  0.95561  0.03587  1.0000
  H   H2604     1.0  0.65512  0.56943  0.01530  1.0000
  H   H2605     1.0  0.60006  0.71117  0.99838  1.0000
  H   H2606     1.0  0.64470  0.68951  0.11426  1.0000
  S   S322      1.0  0.59246  0.62117  0.14573  1.0000
  H   H2607     1.0  0.66049  0.54031  0.00340  1.0000
  C   C1476     1.0  0.51173  0.50404  0.00442  1.0000
  C   C1477     1.0  0.68076  0.53839  0.00526  1.0000
  H   H2608     1.0  0.51869  0.76741  0.07023  1.0000
  H   H2609     1.0  0.50732  0.60571  0.13839  1.0000
  C   C1478     1.0  0.56132  0.88464  0.00664  1.0000
  C   C1479     1.0  0.51929  0.92139  0.02541  1.0000
  H   H2610     1.0  0.51793  0.65090  0.14164  1.0000
  H   H2611     1.0  0.55426  0.77196  0.11373  1.0000
  H   H2612     1.0  0.55841  0.80066  0.08651  1.0000
  S   S323      1.0  0.50011  0.88437  0.05872  1.0000
  H   H2613     1.0  0.53321  0.53025  0.03791  1.0000
  H   H2614     1.0  0.96212  0.55055  0.01497  1.0000
  C   C1480     1.0  0.52789  0.49206  0.99620  1.0000
  C   C1481     1.0  0.55846  0.78039  0.08819  1.0000
  H   H2615     1.0  0.54124  0.79656  0.10808  1.0000
  H   H2616     1.0  0.53207  0.55321  0.01774  1.0000
  H   H2617     1.0  0.51973  0.91365  0.01603  1.0000
  H   H2618     1.0  0.51010  0.68560  0.08754  1.0000
  H   H2619     1.0  0.62744  0.70215  0.10221  1.0000
  H   H2620     1.0  0.51817  0.56369  0.03097  1.0000
  H   H2621     1.0  0.54333  0.86789  0.01013  1.0000
  H   H2622     1.0  0.53356  0.72918  0.07688  1.0000
  H   H2623     1.0  0.55804  0.77318  0.07863  1.0000
  H   H2624     1.0  0.56395  0.73214  0.08540  1.0000
  H   H2625     1.0  0.60373  0.75497  0.00620  1.0000
  N   N81       1.0  0.49816  0.50605  0.02789  1.0000
  H   H2626     1.0  0.61213  0.78363  0.14407  1.0000
  C   C1482     1.0  0.54123  0.72434  0.08602  1.0000
  H   H2627     1.0  0.63871  0.69110  0.03666  1.0000
  H   H2628     1.0  0.54148  0.73162  0.10559  1.0000
  H   H2629     1.0  0.62704  0.68554  0.13674  1.0000
  N   N82       1.0  0.53352  0.76430  0.09591  1.0000
  C   C1483     1.0  0.67334  0.58689  0.01639  1.0000
  C   C1484     1.0  0.73015  0.55968  0.00672  1.0000
  C   C1485     1.0  0.53651  0.77503  0.10884  1.0000
  H   H2630     1.0  0.57649  0.76912  0.14884  1.0000
  H   H2631     1.0  0.51716  0.69575  0.01967  1.0000
  C   C1486     1.0  0.59136  0.77189  0.14094  1.0000
  H   H2632     1.0  0.80097  0.59331  0.00475  1.0000
  H   H2633     1.0  0.73179  0.55200  0.01645  1.0000
  H   H2634     1.0  0.50506  0.63655  0.02221  1.0000
  H   H2635     1.0  0.55007  0.49956  0.99841  1.0000
  H   H2636     1.0  0.57309  0.68100  0.99949  1.0000
  C   C1487     1.0  0.97476  0.56655  0.99616  1.0000
  H   H2637     1.0  0.66788  0.58304  0.03678  1.0000
  H   H2638     1.0  0.55507  0.66292  0.01863  1.0000
  N   N83       1.0  0.57494  0.70463  0.01539  1.0000
  H   H2639     1.0  0.60940  0.75753  0.02279  1.0000
  H   H2640     1.0  0.56569  0.89989  0.01360  1.0000
  C   C1488     1.0  0.62950  0.98030  0.00420  1.0000
  H   H2641     1.0  0.55312  0.68145  0.03156  1.0000
  H   H2642     1.0  0.56424  0.72881  0.02835  1.0000
  C   C1489     1.0  0.52243  0.67840  0.01744  1.0000
  H   H2643     1.0  0.53839  0.51037  0.02018  1.0000
  N   N84       1.0  0.59937  0.70301  0.14480  1.0000
  H   H2644     1.0  0.71219  0.97857  0.03758  1.0000
  C   C1490     1.0  0.48965  0.52867  0.02317  1.0000
  C   C1491     1.0  0.97551  0.63884  0.99452  1.0000
  H   H2645     1.0  0.54854  0.87856  0.98762  1.0000
  C   C1492     1.0  0.56951  0.72924  0.01823  1.0000
  C   C1493     1.0  0.59111  0.74554  0.13661  1.0000
  H   H2646     1.0  0.60704  0.67247  0.01244  1.0000
  H   H2647     1.0  0.96488  0.70152  0.04274  1.0000
  H   H2648     1.0  0.60212  0.79676  0.01357  1.0000
  H   H2649     1.0  0.48654  0.57780  0.01693  1.0000
  C   C1494     1.0  0.60913  0.97160  0.01374  1.0000
  H   H2650     1.0  0.56989  0.73471  0.13378  1.0000
  H   H2651     1.0  0.53317  0.76082  0.13508  1.0000
  H   H2652     1.0  0.58744  0.58589  0.98977  1.0000
  H   H2653     1.0  0.55120  0.73069  0.01328  1.0000
  H   H2654     1.0  0.64111  0.66544  0.02728  1.0000
  C   C1495     1.0  0.50115  0.75868  0.07677  1.0000
  H   H2655     1.0  0.53196  0.51209  0.06461  1.0000
  C   C1496     1.0  0.54766  0.68287  0.15082  1.0000
  H   H2656     1.0  0.69615  0.51679  0.01985  1.0000
  H   H2657     1.0  0.60520  0.74965  0.12837  1.0000
  C   C1497     1.0  0.51949  0.67008  0.14517  1.0000
  H   H2658     1.0  0.58554  0.78305  0.13308  1.0000
  H   H2659     1.0  0.56485  0.69367  0.13215  1.0000
  H   H2660     1.0  0.53290  0.94208  0.02527  1.0000
  H   H2661     1.0  0.65044  0.72416  0.11258  1.0000
  H   H2662     1.0  0.57478  0.77961  0.02451  1.0000
  C   C1498     1.0  0.67652  0.57625  0.98610  1.0000
  C   C1499     1.0  0.50185  0.65488  0.02460  1.0000
  H   H2663     1.0  0.78252  0.57098  0.01735  1.0000
  H   H2664     1.0  0.59560  0.68118  0.11964  1.0000
  H   H2665     1.0  0.52768  0.79163  0.13213  1.0000
  H   H2666     1.0  0.53158  0.98094  0.99643  1.0000
  C   C1500     1.0  0.61083  0.70078  0.12101  1.0000
  C   C1501     1.0  0.60102  0.73051  0.14718  1.0000
  H   H2667     1.0  0.59383  0.66474  0.02836  1.0000
  H   H2668     1.0  0.57095  0.66625  0.13932  1.0000
  H   H2669     1.0  0.60118  0.71537  0.11818  1.0000
  H   H2670     1.0  0.97477  0.65798  0.99084  1.0000
  C   C1502     1.0  0.63702  0.68416  0.02697  1.0000
  H   H2671     1.0  0.48241  0.78766  0.07089  1.0000
  C   C1503     1.0  0.97945  0.63877  0.00874  1.0000
  H   H2672     1.0  0.50857  0.72367  0.09894  1.0000
  C   C1504     1.0  0.67716  0.52103  0.01756  1.0000
  H   H2673     1.0  0.54147  0.68726  0.07974  1.0000
  C   C1505     1.0  0.58045  0.91719  0.98822  1.0000
  C   C1506     1.0  0.50834  0.76809  0.09017  1.0000
  C   C1507     1.0  0.54177  0.50332  0.05769  1.0000
  C   C1508     1.0  0.53279  0.69470  0.08763  1.0000
  H   H2674     1.0  0.49072  0.92556  0.03887  1.0000
  H   H2675     1.0  0.71565  0.60039  0.99337  1.0000
  H   H2676     1.0  0.73111  0.54430  0.00044  1.0000
  H   H2677     1.0  0.54746  0.48755  0.06266  1.0000
  C   C1509     1.0  0.48996  0.91877  0.02919  1.0000
  C   C1510     1.0  0.51379  0.51371  0.03988  1.0000
  C   C1511     1.0  0.55499  0.89511  0.99387  1.0000
  H   H2678     1.0  0.70267  0.57093  0.02498  1.0000
  C   C1512     1.0  0.56169  0.71390  0.99235  1.0000
  C   C1513     1.0  0.97871  0.56363  0.00918  1.0000
  H   H2679     1.0  0.75842  0.59017  0.99399  1.0000
  H   H2680     1.0  0.51042  0.78911  0.09005  1.0000
  C   C1514     1.0  0.51856  0.77021  0.13142  1.0000
  C   C1515     1.0  0.51633  0.49913  0.01861  1.0000
  H   H2681     1.0  0.56083  0.51842  0.05387  1.0000
  H   H2682     1.0  0.57044  0.73548  0.99202  1.0000
  C   C1516     1.0  0.70425  0.57924  0.99256  1.0000
  H   H2683     1.0  0.97688  0.61848  0.01207  1.0000
  H   H2684     1.0  0.51890  0.52525  0.00186  1.0000
  C   C1517     1.0  0.52198  0.49213  0.04713  1.0000
  H   H2685     1.0  0.71698  0.59969  0.01546  1.0000
  H   H2686     1.0  0.66102  0.57883  0.99249  1.0000
  H   H2687     1.0  0.49480  0.73714  0.07688  1.0000
  N   N85       1.0  0.70325  0.56463  0.00512  1.0000
  C   C1518     1.0  0.75672  0.58346  0.00406  1.0000
  H   H2688     1.0  0.96271  0.64409  0.01297  1.0000
  C   C1519     1.0  0.78223  0.57637  0.00717  1.0000
  C   C1520     1.0  0.59979  0.55260  0.99427  1.0000
  H   H2689     1.0  0.59661  0.90828  0.98700  1.0000
  H   H2690     1.0  0.67153  0.53060  0.02554  1.0000
  H   H2691     1.0  0.50264  0.74194  0.11761  1.0000
  H   H2692     1.0  0.65910  0.48421  0.00857  1.0000
  H   H2693     1.0  0.54072  0.68879  0.09655  1.0000
  H   H2694     1.0  0.57333  0.97658  0.98730  1.0000
  H   H2695     1.0  0.52217  0.59384  0.01264  1.0000
  S   S324      1.0  0.94170  0.54994  0.98977  1.0000
  H   H2696     1.0  0.65108  0.60317  0.02884  1.0000
  H   H2697     1.0  0.75729  0.60002  0.00975  1.0000
  C   C1521     1.0  0.65435  0.49482  0.01637  1.0000
  H   H2698     1.0  0.48376  0.93170  0.01041  1.0000
  H   H2699     1.0  0.48957  0.95616  0.02150  1.0000
  H   H2700     1.0  0.68435  0.52716  0.99740  1.0000
  H   H2701     1.0  0.51064  0.95130  0.98961  1.0000
  H   H2702     1.0  0.49853  0.84185  0.09307  1.0000
  H   H2703     1.0  0.58864  0.93168  0.99544  1.0000
  H   H2704     1.0  0.48987  0.49594  0.00190  1.0000
  C   C1522     1.0  0.55467  0.95898  0.98826  1.0000
  C   C1523     1.0  0.48724  0.59434  0.13445  1.0000
  H   H2705     1.0  0.49504  0.77171  0.11513  1.0000
  H   H2706     1.0  0.49972  0.76310  0.13744  1.0000
  C   C1524     1.0  0.52994  0.96821  0.98846  1.0000
  H   H2707     1.0  0.49057  0.57962  0.12846  1.0000
  H   H2708     1.0  0.48970  0.75739  0.09592  1.0000
  C   C1525     1.0  0.68999  0.97590  0.03821  1.0000
  H   H2709     1.0  0.68453  0.97855  0.04800  1.0000
  H   H2710     1.0  0.59585  0.98277  0.01534  1.0000
  H   H2711     1.0  0.48062  0.65341  0.02200  1.0000
  H   H2712     1.0  0.48094  0.83731  0.07836  1.0000
  H   H2713     1.0  0.85187  0.48647  0.99674  1.0000
  Fe  Fe157     1.0  0.53811  0.83040  0.16335  1.0000
  S   S325      1.0  0.52351  0.78680  0.16450  1.0000
  Fe  Fe158     1.0  0.54783  0.83338  0.19216  1.0000
  S   S326      1.0  0.53433  0.79016  0.19501  1.0000
  S   S327      1.0  0.56000  0.85880  0.20915  1.0000
  Fe  Fe159     1.0  0.55841  0.79110  0.17756  1.0000
  S   S328      1.0  0.58201  0.76337  0.17780  1.0000
  Fe  Fe160     1.0  0.50046  0.78924  0.18182  1.0000
  C   C1526     1.0  0.60615  0.69105  0.15692  1.0000
  S   S329      1.0  0.57531  0.83486  0.17538  1.0000
  S   S330      1.0  0.51176  0.83265  0.17999  1.0000
  Fe  Fe161     1.0  0.57501  0.60445  0.19362  1.0000
  S   S331      1.0  0.52947  0.59084  0.19625  1.0000
  S   S332      1.0  0.60095  0.60984  0.21114  1.0000
  Fe  Fe162     1.0  0.57058  0.60554  0.16449  1.0000
  Fe  Fe163     1.0  0.53024  0.61987  0.18061  1.0000
  H   H2714     1.0  0.56443  0.92405  0.28913  1.0000
  H   H2715     1.0  0.62697  0.56083  0.27490  1.0000
  Fe  Fe164     1.0  0.52915  0.56390  0.18110  1.0000
  H   H2716     1.0  0.67624  0.68898  0.28277  1.0000
  S   S333      1.0  0.57602  0.63553  0.17882  1.0000
  S   S334      1.0  0.57493  0.57576  0.17914  1.0000
  Fe  Fe165     1.0  0.57026  0.81317  0.31146  1.0000
  S   S335      1.0  0.60856  0.82757  0.29966  1.0000
  H   H2717     1.0  0.62198  0.73639  0.28641  1.0000
  Fe  Fe166     1.0  0.55283  0.85897  0.30296  1.0000
  S   S336      1.0  0.59095  0.87747  0.29082  1.0000
  C   C1527     1.0  0.52458  0.89875  0.23163  1.0000
  Fe  Fe167     1.0  0.58228  0.83677  0.28443  1.0000
  S   S337      1.0  0.57865  0.81953  0.26504  1.0000
  Fe  Fe168     1.0  0.61407  0.86680  0.30728  1.0000
  S   S338      1.0  0.54339  0.81906  0.29594  1.0000
  H   H2718     1.0  0.54394  0.92845  0.24441  1.0000
  Fe  Fe169     1.0  0.55706  0.63214  0.28073  1.0000
  S   S339      1.0  0.51366  0.61367  0.28773  1.0000
  S   S340      1.0  0.56020  0.64755  0.26034  1.0000
  Fe  Fe170     1.0  0.52839  0.58576  0.29929  1.0000
  Fe  Fe171     1.0  0.52676  0.63992  0.30372  1.0000
  S   S341      1.0  0.53832  0.61074  0.31623  1.0000
  S   S342      1.0  0.57187  0.60308  0.29144  1.0000
  S   S343      1.0  0.56900  0.66054  0.29597  1.0000
  H   H2719     1.0  0.49677  0.53426  0.15902  1.0000
  C   C1528     1.0  0.68446  0.75713  0.31063  1.0000
  H   H2720     1.0  0.59916  0.56150  0.28485  1.0000
  C   C1529     1.0  0.48167  0.70448  0.20807  1.0000
  C   C1530     1.0  0.50044  0.90102  0.25802  1.0000
  C   C1531     1.0  0.52207  0.71773  0.30422  1.0000
  C   C1532     1.0  0.53583  0.74316  0.30787  1.0000
  C   C1533     1.0  0.53980  0.90714  0.24414  1.0000
  H   H2721     1.0  0.51190  0.71469  0.29527  1.0000
  H   H2722     1.0  0.53654  0.75969  0.30168  1.0000
  C   C1534     1.0  0.53154  0.51235  0.25957  1.0000
  C   C1535     1.0  0.58807  0.61817  0.22506  1.0000
  C   C1536     1.0  0.56524  0.62635  0.22485  1.0000
  C   C1537     1.0  0.55656  0.63466  0.23583  1.0000
  C   C1538     1.0  0.56997  0.63403  0.24723  1.0000
  C   C1539     1.0  0.59214  0.62488  0.24760  1.0000
  C   C1540     1.0  0.60134  0.61726  0.23650  1.0000
  H   H2723     1.0  0.55496  0.62731  0.21610  1.0000
  H   H2724     1.0  0.53954  0.64190  0.23545  1.0000
  H   H2725     1.0  0.60294  0.62478  0.25628  1.0000
  H   H2726     1.0  0.61906  0.61101  0.23673  1.0000
  H   H2727     1.0  0.65272  0.77521  0.31023  1.0000
  C   C1541     1.0  0.56527  0.84756  0.22463  1.0000
  C   C1542     1.0  0.57926  0.86572  0.23336  1.0000
  C   C1543     1.0  0.58301  0.85766  0.24585  1.0000
  C   C1544     1.0  0.57310  0.83120  0.24970  1.0000
  C   C1545     1.0  0.55936  0.81305  0.24093  1.0000
  C   C1546     1.0  0.55514  0.82116  0.22854  1.0000
  H   H2728     1.0  0.58765  0.88612  0.23038  1.0000
  H   H2729     1.0  0.59418  0.87182  0.25238  1.0000
  H   H2730     1.0  0.55171  0.79256  0.24379  1.0000
  H   H2731     1.0  0.54410  0.80702  0.22201  1.0000
  C   C1547     1.0  0.53196  0.72427  0.17635  1.0000
  C   C1548     1.0  0.63915  0.71060  0.30464  1.0000
  N   N86       1.0  0.53853  0.54134  0.25714  1.0000
  C   C1549     1.0  0.56981  0.71158  0.18391  1.0000
  C   C1550     1.0  0.55969  0.73099  0.17945  1.0000
  C   C1551     1.0  0.51579  0.57691  0.25612  1.0000
  H   H2732     1.0  0.59364  0.71943  0.29654  1.0000
  H   H2733     1.0  0.52104  0.87796  0.23006  1.0000
  H   H2734     1.0  0.59105  0.71670  0.18661  1.0000
  H   H2735     1.0  0.58210  0.95635  0.28242  1.0000
  C   C1552     1.0  0.66708  0.68922  0.29216  1.0000
  H   H2736     1.0  0.53037  0.90792  0.21154  1.0000
  C   C1553     1.0  0.51668  0.86398  0.25436  1.0000
  S   S344      1.0  0.52469  0.59151  0.16556  1.0000
  C   C1554     1.0  0.51478  0.69811  0.17713  1.0000
  C   C1555     1.0  0.51315  0.54820  0.25946  1.0000
  H   H2737     1.0  0.54434  0.93570  0.22099  1.0000
  H   H2738     1.0  0.50369  0.80505  0.27190  1.0000
  H   H2739     1.0  0.50266  0.77482  0.31183  1.0000
  H   H2740     1.0  0.50486  0.85060  0.27411  1.0000
  H   H2741     1.0  0.59357  0.92997  0.27856  1.0000
  S   S345      1.0  0.65751  0.88747  0.31492  1.0000
  S   S346      1.0  0.62318  0.64358  0.31696  1.0000
  H   H2742     1.0  0.50707  0.54465  0.26957  1.0000
  C   C1556     1.0  0.58738  0.54959  0.26586  1.0000
  H   H2743     1.0  0.51895  0.51618  0.23413  1.0000
  H   H2744     1.0  0.71025  0.79561  0.30321  1.0000
  H   H2745     1.0  0.59384  0.76364  0.30354  1.0000
  S   S347      1.0  0.50445  0.64575  0.18103  1.0000
  H   H2746     1.0  0.49535  0.53524  0.25440  1.0000
  H   H2747     1.0  0.50484  0.50541  0.27630  1.0000
  H   H2748     1.0  0.62549  0.68836  0.18126  1.0000
  H   H2749     1.0  0.52145  0.70270  0.20390  1.0000
  H   H2750     1.0  0.55748  0.53827  0.21896  1.0000
  C   C1557     1.0  0.48344  0.89020  0.27023  1.0000
  H   H2751     1.0  0.52372  0.73903  0.17312  1.0000
  C   C1558     1.0  0.48454  0.86105  0.30173  1.0000
  H   H2752     1.0  0.55259  0.55432  0.27562  1.0000
  H   H2753     1.0  0.66202  0.76698  0.29548  1.0000
  S   S348      1.0  0.51974  0.87744  0.30474  1.0000
  H   H2754     1.0  0.49120  0.60201  0.25588  1.0000
  H   H2755     1.0  0.66145  0.69884  0.17713  1.0000
  H   H2756     1.0  0.54947  0.67001  0.15893  1.0000
  H   H2757     1.0  0.55785  0.56990  0.24206  1.0000
  C   C1559     1.0  0.65137  0.70839  0.29161  1.0000
  C   C1560     1.0  0.64043  0.68908  0.17366  1.0000
  H   H2758     1.0  0.49361  0.69300  0.17432  1.0000
  H   H2759     1.0  0.52230  0.58282  0.24621  1.0000
  C   C1561     1.0  0.54880  0.54841  0.24374  1.0000
  H   H2760     1.0  0.48250  0.78057  0.21125  1.0000
  H   H2761     1.0  0.53704  0.84851  0.26925  1.0000
  C   C1562     1.0  0.50166  0.81737  0.26361  1.0000
  H   H2762     1.0  0.51012  0.54535  0.23404  1.0000
  C   C1563     1.0  0.52513  0.67865  0.18134  1.0000
  N   N87       1.0  0.55355  0.72777  0.22421  1.0000
  C   C1564     1.0  0.55867  0.73153  0.23803  1.0000
  C   C1565     1.0  0.56590  0.75366  0.21695  1.0000
  C   C1566     1.0  0.52283  0.71903  0.22239  1.0000
  C   C1567     1.0  0.56432  0.70760  0.21923  1.0000
  C   C1568     1.0  0.59114  0.70547  0.22499  1.0000
  C   C1569     1.0  0.54335  0.70770  0.24699  1.0000
  C   C1570     1.0  0.51293  0.71589  0.20864  1.0000
  C   C1571     1.0  0.59724  0.76746  0.21787  1.0000
  C   C1572     1.0  0.60612  0.79460  0.21123  1.0000
  C   C1573     1.0  0.60522  0.69260  0.21611  1.0000
  C   C1574     1.0  0.55443  0.71133  0.26030  1.0000
  H   H2763     1.0  0.62292  0.77940  0.29342  1.0000
  H   H2764     1.0  0.55260  0.74815  0.24094  1.0000
  H   H2765     1.0  0.58079  0.73725  0.24014  1.0000
  H   H2766     1.0  0.56232  0.75145  0.20672  1.0000
  H   H2767     1.0  0.55562  0.76745  0.21983  1.0000
  H   H2768     1.0  0.51411  0.73281  0.22666  1.0000
  H   H2769     1.0  0.51268  0.69966  0.22731  1.0000
  H   H2770     1.0  0.54877  0.68769  0.22050  1.0000
  H   H2771     1.0  0.56751  0.71100  0.20891  1.0000
  H   H2772     1.0  0.58629  0.69341  0.23396  1.0000
  H   H2773     1.0  0.60629  0.72449  0.22710  1.0000
  H   H2774     1.0  0.52123  0.70533  0.24763  1.0000
  H   H2775     1.0  0.54511  0.68944  0.24365  1.0000
  C   C1575     1.0  0.54035  0.54583  0.22032  1.0000
  H   H2776     1.0  0.51907  0.73488  0.20323  1.0000
  H   H2777     1.0  0.60394  0.77001  0.22773  1.0000
  H   H2778     1.0  0.60823  0.75624  0.21307  1.0000
  H   H2779     1.0  0.60027  0.79339  0.20119  1.0000
  H   H2780     1.0  0.59654  0.80725  0.21583  1.0000
  H   H2781     1.0  0.62875  0.80382  0.21167  1.0000
  H   H2782     1.0  0.59049  0.67424  0.21282  1.0000
  H   H2783     1.0  0.61404  0.70592  0.20779  1.0000
  H   H2784     1.0  0.62206  0.68800  0.22106  1.0000
  H   H2785     1.0  0.57625  0.71245  0.26045  1.0000
  H   H2786     1.0  0.55253  0.72931  0.26394  1.0000
  H   H2787     1.0  0.54242  0.69446  0.26660  1.0000
  C   C1576     1.0  0.65723  0.75942  0.30543  1.0000
  H   H2788     1.0  0.68381  0.69488  0.29909  1.0000
  C   C1577     1.0  0.60463  0.76161  0.29495  1.0000
  C   C1578     1.0  0.54132  0.91469  0.22036  1.0000
  Fe  Fe172     1.0  0.58063  0.63030  0.30755  1.0000
  C   C1579     1.0  0.55234  0.68561  0.18523  1.0000
  S   S349      1.0  0.50263  0.52224  0.18531  1.0000
  H   H2789     1.0  0.52476  0.53794  0.21305  1.0000
  H   H2790     1.0  0.48798  0.79966  0.22497  1.0000
  S   S350      1.0  0.50718  0.54153  0.29765  1.0000
  H   H2791     1.0  0.65334  0.70813  0.31200  1.0000
  H   H2792     1.0  0.53620  0.89034  0.27571  1.0000
  H   H2793     1.0  0.53880  0.93701  0.27164  1.0000
  H   H2794     1.0  0.56026  0.90477  0.24332  1.0000
  H   H2795     1.0  0.56336  0.89472  0.26487  1.0000
  H   H2796     1.0  0.65298  0.66924  0.29473  1.0000
  H   H2797     1.0  0.57837  0.77801  0.28411  1.0000
  N   N88       1.0  0.52522  0.89300  0.25606  1.0000
  C   C1580     1.0  0.56063  0.55640  0.26579  1.0000
  H   H2798     1.0  0.55986  0.67111  0.18947  1.0000
  H   H2799     1.0  0.59601  0.76165  0.27490  1.0000
  H   H2800     1.0  0.56779  0.94208  0.26118  1.0000
  C   C1581     1.0  0.55599  0.93013  0.26934  1.0000
  H   H2801     1.0  0.63839  0.72425  0.16466  1.0000
  H   H2802     1.0  0.66542  0.72751  0.28779  1.0000
  H   H2803     1.0  0.49639  0.85688  0.24974  1.0000
  H   H2804     1.0  0.49714  0.76431  0.28864  1.0000
  C   C1582     1.0  0.54524  0.90075  0.26669  1.0000
  H   H2805     1.0  0.56165  0.91211  0.21983  1.0000
  C   C1583     1.0  0.61283  0.73674  0.29578  1.0000
  C   C1584     1.0  0.51579  0.84602  0.26621  1.0000
  H   H2806     1.0  0.58328  0.52878  0.26867  1.0000
  H   H2807     1.0  0.56698  0.74303  0.28490  1.0000
  C   C1585     1.0  0.57518  0.93532  0.28055  1.0000
  H   H2808     1.0  0.61318  0.58688  0.27261  1.0000
  H   H2809     1.0  0.53117  0.85963  0.24789  1.0000
  H   H2810     1.0  0.62047  0.69309  0.30624  1.0000
  N   N89       1.0  0.63222  0.73502  0.30616  1.0000
  H   H2811     1.0  0.63449  0.70118  0.28482  1.0000
  C   C1586     1.0  0.58536  0.76093  0.28402  1.0000
  C   C1587     1.0  0.52737  0.53774  0.23340  1.0000
  H   H2812     1.0  0.56697  0.57761  0.26321  1.0000
  H   H2813     1.0  0.59193  0.69145  0.16462  1.0000
  C   C1588     1.0  0.63550  0.70417  0.16195  1.0000
  H   H2814     1.0  0.59747  0.55383  0.25645  1.0000
  H   H2815     1.0  0.54831  0.56736  0.21894  1.0000
  H   H2816     1.0  0.56598  0.54113  0.24189  1.0000
  H   H2817     1.0  0.48591  0.89470  0.25025  1.0000
  C   C1589     1.0  0.52366  0.50183  0.27334  1.0000
  C   C1590     1.0  0.60786  0.56574  0.27513  1.0000
  H   H2818     1.0  0.69332  0.74702  0.30398  1.0000
  H   H2819     1.0  0.60317  0.67013  0.15585  1.0000
  H   H2820     1.0  0.54024  0.51112  0.27993  1.0000
  H   H2821     1.0  0.65144  0.70501  0.15485  1.0000
  H   H2822     1.0  0.51377  0.50162  0.25383  1.0000
  H   H2823     1.0  0.53085  0.59010  0.26230  1.0000
  H   H2824     1.0  0.63849  0.66888  0.17145  1.0000
  H   H2825     1.0  0.54869  0.50603  0.25646  1.0000
  S   S351      1.0  0.50133  0.66462  0.30830  1.0000
  H   H2826     1.0  0.72509  0.78183  0.31585  1.0000
  H   H2827     1.0  0.54821  0.70185  0.15420  1.0000
  H   H2828     1.0  0.50634  0.92262  0.25755  1.0000
  C   C1591     1.0  0.52118  0.69621  0.31220  1.0000
  H   H2829     1.0  0.50341  0.66701  0.15253  1.0000
  H   H2830     1.0  0.51140  0.81204  0.25541  1.0000
  C   C1592     1.0  0.48850  0.58117  0.25806  1.0000
  H   H2831     1.0  0.50448  0.90177  0.23153  1.0000
  C   C1593     1.0  0.70575  0.78400  0.31231  1.0000
  H   H2832     1.0  0.49623  0.89531  0.27868  1.0000
  H   H2833     1.0  0.49045  0.82793  0.29383  1.0000
  H   H2834     1.0  0.58965  0.73087  0.15598  1.0000
  H   H2835     1.0  0.59806  0.71432  0.31867  1.0000
  C   C1594     1.0  0.61670  0.73221  0.31846  1.0000
  C   C1595     1.0  0.48023  0.77133  0.31252  1.0000
  H   H2836     1.0  0.48036  0.48642  0.29528  1.0000
  H   H2837     1.0  0.48143  0.57619  0.26800  1.0000
  C   C1596     1.0  0.75298  0.95455  0.43678  1.0000
  S   S352      1.0  0.73930  0.93819  0.47437  1.0000
  C   C1597     1.0  0.96182  0.78436  0.45921  1.0000
  Fe  Fe173     1.0  0.74467  0.95778  0.37626  1.0000
  S   S353      1.0  0.78385  0.95030  0.37212  1.0000
  S   S354      1.0  0.70502  0.94775  0.36481  1.0000
  H   H2838     1.0  0.83426  0.86003  0.39325  1.0000
  C   C1598     1.0  0.71578  0.76852  0.47456  1.0000
  C   C1599     1.0  0.91248  0.73127  0.42773  1.0000
  Fe  Fe174     1.0  0.77983  0.93369  0.39203  1.0000
  S   S355      1.0  0.78263  0.89556  0.39969  1.0000
  S   S356      1.0  0.73959  0.93892  0.39582  1.0000
  C   C1600     1.0  0.69555  0.74064  0.47466  1.0000
  S   S357      1.0  0.92925  0.73983  0.36145  1.0000
  H   H2839     1.0  0.53322  0.68364  0.33005  1.0000
  Fe  Fe175     1.0  0.74833  0.74161  0.40003  1.0000
  S   S358      1.0  0.78898  0.75665  0.38988  1.0000
  S   S359      1.0  0.75055  0.75759  0.41964  1.0000
  Fe  Fe176     1.0  0.71848  0.71710  0.37564  1.0000
  S   S360      1.0  0.75780  0.73047  0.36425  1.0000
  S   S361      1.0  0.67527  0.69715  0.36777  1.0000
  Fe  Fe177     1.0  0.77686  0.71785  0.38135  1.0000
  S   S362      1.0  0.80577  0.69440  0.38231  1.0000
  Fe  Fe178     1.0  0.76651  0.76797  0.37392  1.0000
  S   S363      1.0  0.78241  0.80734  0.36355  1.0000
  S   S364      1.0  0.73687  0.70168  0.39235  1.0000
  S   S365      1.0  0.72641  0.75569  0.38439  1.0000
  H   H2840     1.0  0.74214  0.84714  0.35382  1.0000
  H   H2841     1.0  0.66512  0.90037  0.37636  1.0000
  C   C1601     1.0  0.62720  0.84678  0.35394  1.0000
  C   C1602     1.0  0.71838  0.82458  0.46602  1.0000
  C   C1603     1.0  0.89850  0.82256  0.37202  1.0000
  H   H2842     1.0  0.71749  0.75747  0.35229  1.0000
  C   C1604     1.0  0.63703  0.65984  0.33089  1.0000
  C   C1605     1.0  0.66573  0.67155  0.33183  1.0000
  C   C1606     1.0  0.67782  0.68353  0.34287  1.0000
  C   C1607     1.0  0.66136  0.68365  0.35326  1.0000
  C   C1608     1.0  0.63268  0.67219  0.35226  1.0000
  C   C1609     1.0  0.62058  0.66056  0.34116  1.0000
  H   H2843     1.0  0.74336  0.86530  0.45975  1.0000
  H   H2844     1.0  0.69986  0.69233  0.34340  1.0000
  H   H2845     1.0  0.61964  0.67212  0.36019  1.0000
  H   H2846     1.0  0.59853  0.65161  0.34067  1.0000
  C   C1610     1.0  0.89514  0.72663  0.36749  1.0000
  C   C1611     1.0  0.87418  0.73243  0.36092  1.0000
  C   C1612     1.0  0.84688  0.72300  0.36548  1.0000
  C   C1613     1.0  0.84012  0.70722  0.37656  1.0000
  C   C1614     1.0  0.86093  0.70084  0.38299  1.0000
  C   C1615     1.0  0.88839  0.71079  0.37858  1.0000
  H   H2847     1.0  0.87915  0.74436  0.35225  1.0000
  H   H2848     1.0  0.83099  0.72767  0.36034  1.0000
  H   H2849     1.0  0.85586  0.68837  0.39149  1.0000
  H   H2850     1.0  0.90429  0.70601  0.38368  1.0000
  C   C1616     1.0  0.78207  0.87152  0.38928  1.0000
  C   C1617     1.0  0.77642  0.84591  0.39413  1.0000
  C   C1618     1.0  0.77619  0.82617  0.38622  1.0000
  C   C1619     1.0  0.78220  0.83203  0.37342  1.0000
  C   C1620     1.0  0.78825  0.85773  0.36853  1.0000
  C   C1621     1.0  0.78780  0.87743  0.37643  1.0000
  H   H2851     1.0  0.77239  0.84134  0.40407  1.0000
  H   H2852     1.0  0.77181  0.80649  0.39012  1.0000
  H   H2853     1.0  0.79325  0.86239  0.35865  1.0000
  H   H2854     1.0  0.79253  0.89723  0.37265  1.0000
  C   C1622     1.0  0.69225  0.92983  0.35119  1.0000
  C   C1623     1.0  0.66420  0.92334  0.34839  1.0000
  C   C1624     1.0  0.65312  0.90997  0.33754  1.0000
  H   H2855     1.0  0.58406  0.94913  0.40967  1.0000
  C   C1625     1.0  0.69812  0.90969  0.33197  1.0000
  C   C1626     1.0  0.70912  0.92263  0.34295  1.0000
  H   H2856     1.0  0.65089  0.92888  0.35460  1.0000
  C   C1627     1.0  0.85718  0.83210  0.37760  1.0000
  H   H2857     1.0  0.73074  0.92757  0.34486  1.0000
  C   C1628     1.0  0.75849  0.72397  0.45946  1.0000
  C   C1629     1.0  0.77216  0.75026  0.45605  1.0000
  C   C1630     1.0  0.77093  0.75993  0.44360  1.0000
  C   C1631     1.0  0.75609  0.74349  0.43440  1.0000
  C   C1632     1.0  0.74353  0.71695  0.43768  1.0000
  C   C1633     1.0  0.74477  0.70728  0.45013  1.0000
  H   H2858     1.0  0.78339  0.76314  0.46306  1.0000
  H   H2859     1.0  0.78116  0.78037  0.44112  1.0000
  H   H2860     1.0  0.73188  0.70405  0.43076  1.0000
  H   H2861     1.0  0.73428  0.68687  0.45264  1.0000
  C   C1634     1.0  0.74623  0.95526  0.45948  1.0000
  H   H2862     1.0  0.76717  0.64949  0.36453  1.0000
  H   H2863     1.0  0.92036  0.73416  0.44742  1.0000
  H   H2864     1.0  0.84907  0.79751  0.39472  1.0000
  H   H2865     1.0  0.84521  0.98100  0.43672  1.0000
  H   H2866     1.0  0.90001  0.83584  0.36356  1.0000
  C   C1635     1.0  0.91373  0.80344  0.36915  1.0000
  H   H2867     1.0  0.63156  0.90535  0.33553  1.0000
  C   C1636     1.0  0.94184  0.81778  0.36305  1.0000
  C   C1637     1.0  0.83436  0.78221  0.34514  1.0000
  H   H2868     1.0  0.85828  0.77504  0.36647  1.0000
  H   H2869     1.0  0.87233  0.84340  0.39669  1.0000
  H   H2870     1.0  0.84185  0.81880  0.35322  1.0000
  H   H2871     1.0  0.84369  0.76676  0.34449  1.0000
  C   C1638     1.0  0.70171  0.83634  0.37017  1.0000
  C   C1639     1.0  0.70728  0.86315  0.37590  1.0000
  C   C1640     1.0  0.70670  0.86039  0.39025  1.0000
  H   H2872     1.0  0.68368  0.82174  0.37511  1.0000
  H   H2873     1.0  0.71946  0.83023  0.37293  1.0000
  H   H2874     1.0  0.69180  0.87212  0.37306  1.0000
  H   H2875     1.0  0.72786  0.87680  0.37290  1.0000
  H   H2876     1.0  0.71825  0.79463  0.36432  1.0000
  H   H2877     1.0  0.71221  0.87991  0.39414  1.0000
  C   C1641     1.0  0.63279  0.73138  0.33062  1.0000
  H   H2878     1.0  0.65702  0.91183  0.41903  1.0000
  H   H2879     1.0  0.68590  0.84833  0.39379  1.0000
  H   H2880     1.0  0.83468  0.76300  0.47106  1.0000
  H   H2881     1.0  0.68363  0.80629  0.34246  1.0000
  H   H2882     1.0  0.52769  0.83280  0.34190  1.0000
  H   H2883     1.0  0.89605  0.73067  0.42094  1.0000
  C   C1642     1.0  0.61306  0.92834  0.41285  1.0000
  H   H2884     1.0  0.79049  0.69098  0.35282  1.0000
  H   H2885     1.0  0.62763  0.58244  0.35544  1.0000
  C   C1643     1.0  0.54728  0.72557  0.32756  1.0000
  H   H2886     1.0  0.96399  0.78738  0.46944  1.0000
  H   H2887     1.0  0.69174  0.59353  0.35230  1.0000
  H   H2888     1.0  0.93942  0.69758  0.47409  1.0000
  H   H2889     1.0  0.68441  0.93941  0.39055  1.0000
  H   H2890     1.0  0.77145  0.59563  0.37791  1.0000
  H   H2891     1.0  0.60642  0.91732  0.40429  1.0000
  C   C1644     1.0  0.58910  0.93647  0.41709  1.0000
  H   H2892     1.0  0.82243  0.86642  0.47298  1.0000
  H   H2893     1.0  0.50203  0.71480  0.34684  1.0000
  H   H2894     1.0  0.70794  0.77961  0.48111  1.0000
  H   H2895     1.0  0.69201  0.92833  0.41540  1.0000
  C   C1645     1.0  0.64640  0.89337  0.38242  1.0000
  H   H2896     1.0  0.67580  0.62838  0.34410  1.0000
  H   H2897     1.0  0.67213  0.58844  0.36633  1.0000
  C   C1646     1.0  0.66501  0.61603  0.35237  1.0000
  C   C1647     1.0  0.85168  0.79210  0.36722  1.0000
  H   H2898     1.0  0.63890  0.81301  0.35718  1.0000
  H   H2899     1.0  0.79930  0.93289  0.45335  1.0000
  H   H2900     1.0  0.78690  0.85292  0.45695  1.0000
  H   H2901     1.0  0.66028  0.90732  0.44243  1.0000
  H   H2902     1.0  0.63915  0.87175  0.38313  1.0000
  H   H2903     1.0  0.69608  0.81327  0.46544  1.0000
  H   H2904     1.0  0.55633  0.72849  0.33674  1.0000
  C   C1648     1.0  0.92328  0.67900  0.47190  1.0000
  H   H2905     1.0  0.91479  0.69059  0.45335  1.0000
  H   H2906     1.0  0.63409  0.86760  0.35618  1.0000
  C   C1649     1.0  0.73841  0.59332  0.36480  1.0000
  H   H2907     1.0  0.60506  0.74166  0.34303  1.0000
  H   H2908     1.0  0.64164  0.96590  0.41758  1.0000
  H   H2909     1.0  0.83002  0.78410  0.37070  1.0000
  C   C1650     1.0  0.85132  0.80337  0.35358  1.0000
  C   C1651     1.0  0.50999  0.83634  0.33722  1.0000
  H   H2910     1.0  0.64890  0.75057  0.33169  1.0000
  H   H2911     1.0  0.71153  0.90490  0.32550  1.0000
  C   C1652     1.0  0.67249  0.93159  0.41777  1.0000
  N   N90       1.0  0.86871  0.70854  0.45869  1.0000
  C   C1653     1.0  0.87646  0.71123  0.44493  1.0000
  C   C1654     1.0  0.84289  0.68525  0.46083  1.0000
  C   C1655     1.0  0.86441  0.73324  0.46226  1.0000
  C   C1656     1.0  0.89099  0.70430  0.46679  1.0000
  C   C1657     1.0  0.90324  0.68382  0.46236  1.0000
  C   C1658     1.0  0.90331  0.73376  0.44109  1.0000
  C   C1659     1.0  0.85197  0.73238  0.47556  1.0000
  C   C1660     1.0  0.75415  0.86986  0.33025  1.0000
  H   H2912     1.0  0.93342  0.66602  0.46803  1.0000
  C   C1661     1.0  0.63990  0.59494  0.34751  1.0000
  H   H2913     1.0  0.60682  0.83677  0.35850  1.0000
  C   C1662     1.0  0.84840  0.75828  0.47809  1.0000
  H   H2914     1.0  0.86010  0.71485  0.43913  1.0000
  H   H2915     1.0  0.87776  0.69260  0.44171  1.0000
  H   H2916     1.0  0.84582  0.66752  0.45736  1.0000
  C   C1663     1.0  0.75338  0.98024  0.43513  1.0000
  H   H2917     1.0  0.85128  0.73920  0.45530  1.0000
  H   H2918     1.0  0.88428  0.74969  0.46188  1.0000
  H   H2919     1.0  0.90836  0.72284  0.46776  1.0000
  H   H2920     1.0  0.88323  0.69815  0.47661  1.0000
  H   H2921     1.0  0.69904  0.77726  0.45711  1.0000
  S   S366      1.0  0.80490  0.97122  0.40024  1.0000
  H   H2922     1.0  0.89998  0.75277  0.44139  1.0000
  H   H2923     1.0  0.77584  0.66553  0.34220  1.0000
  H   H2924     1.0  0.77304  0.66576  0.45364  1.0000
  H   H2925     1.0  0.75788  0.89031  0.33266  1.0000
  H   H2926     1.0  0.75471  0.86925  0.31986  1.0000
  H   H2927     1.0  0.81850  0.68737  0.44408  1.0000
  H   H2928     1.0  0.49435  0.83599  0.34440  1.0000
  C   C1664     1.0  0.84259  0.96802  0.34779  1.0000
  H   H2929     1.0  0.70322  0.72876  0.46846  1.0000
  C   C1665     1.0  0.70660  0.86562  0.46880  1.0000
  H   H2930     1.0  0.67505  0.74041  0.47148  1.0000
  H   H2931     1.0  0.75937  0.68935  0.34477  1.0000
  H   H2932     1.0  0.75105  0.67311  0.36732  1.0000
  H   H2933     1.0  0.91783  0.71329  0.42717  1.0000
  H   H2934     1.0  0.83840  0.68068  0.47107  1.0000
  H   H2935     1.0  0.86857  0.77424  0.47792  1.0000
  H   H2936     1.0  0.67875  0.67111  0.32398  1.0000
  H   H2937     1.0  0.93963  0.82740  0.35387  1.0000
  C   C1666     1.0  0.86415  0.76747  0.38991  1.0000
  C   C1667     1.0  0.86607  0.75730  0.40338  1.0000
  H   H2938     1.0  0.88541  0.80706  0.39498  1.0000
  H   H2939     1.0  0.91745  0.79363  0.37799  1.0000
  H   H2940     1.0  0.84376  0.75582  0.38641  1.0000
  H   H2941     1.0  0.87984  0.76350  0.38416  1.0000
  H   H2942     1.0  0.88663  0.76750  0.40722  1.0000
  H   H2943     1.0  0.84995  0.76003  0.40945  1.0000
  H   H2944     1.0  0.86290  0.73615  0.40347  1.0000
  H   H2945     1.0  0.95239  0.80356  0.36136  1.0000
  H   H2946     1.0  0.95481  0.83254  0.36930  1.0000
  C   C1668     1.0  0.71639  0.80928  0.43740  1.0000
  C   C1669     1.0  0.72340  0.82229  0.42422  1.0000
  H   H2947     1.0  0.71011  0.78792  0.43637  1.0000
  H   H2948     1.0  0.69858  0.81357  0.44122  1.0000
  H   H2949     1.0  0.70513  0.81554  0.41818  1.0000
  H   H2950     1.0  0.72995  0.84383  0.42448  1.0000
  H   H2951     1.0  0.74008  0.81679  0.41996  1.0000
  H   H2952     1.0  0.72239  0.82561  0.47631  1.0000
  H   H2953     1.0  0.77076  0.86331  0.33419  1.0000
  C   C1670     1.0  0.53419  0.70019  0.32379  1.0000
  H   H2954     1.0  0.85192  0.88034  0.37981  1.0000
  C   C1671     1.0  0.72168  0.85249  0.46060  1.0000
  C   C1672     1.0  0.76234  0.81546  0.46662  1.0000
  C   C1673     1.0  0.85470  0.87095  0.38898  1.0000
  H   H2955     1.0  0.82677  0.95101  0.34388  1.0000
  H   H2956     1.0  0.81027  0.98120  0.45333  1.0000
  H   H2957     1.0  0.51371  0.81795  0.32042  1.0000
  H   H2958     1.0  0.68271  0.86797  0.35280  1.0000
  H   H2959     1.0  0.77377  0.80360  0.46263  1.0000
  C   C1674     1.0  0.71989  0.78160  0.46110  1.0000
  H   H2960     1.0  0.86573  0.88642  0.39534  1.0000
  H   H2961     1.0  0.96321  0.72939  0.44068  1.0000
  C   C1675     1.0  0.49759  0.81593  0.32763  1.0000
  C   C1676     1.0  0.74900  0.94203  0.44888  1.0000
  H   H2962     1.0  0.68479  0.93385  0.45007  1.0000
  H   H2963     1.0  0.50748  0.78482  0.33679  1.0000
  H   H2964     1.0  0.49794  0.74332  0.32856  1.0000
  H   H2965     1.0  0.75277  0.60661  0.35773  1.0000
  H   H2966     1.0  0.63375  0.89547  0.40132  1.0000
  H   H2967     1.0  0.83364  0.79085  0.33554  1.0000
  H   H2968     1.0  0.67184  0.84379  0.34179  1.0000
  H   H2969     1.0  0.66843  0.89639  0.39965  1.0000
  H   H2970     1.0  0.83883  0.96798  0.35805  1.0000
  H   H2971     1.0  0.81957  0.83457  0.46796  1.0000
  C   C1677     1.0  0.77091  0.67754  0.34929  1.0000
  H   H2972     1.0  0.71583  0.86863  0.47825  1.0000
  H   H2973     1.0  0.71040  0.85905  0.33090  1.0000
  N   N91       1.0  0.73545  0.81060  0.45996  1.0000
  C   C1678     1.0  0.67591  0.84650  0.35197  1.0000
  C   C1679     1.0  0.72479  0.85257  0.34989  1.0000
  C   C1680     1.0  0.80885  0.84575  0.47300  1.0000
  H   H2974     1.0  0.85859  0.84338  0.36850  1.0000
  H   H2975     1.0  0.75508  0.94411  0.42870  1.0000
  H   H2976     1.0  0.80497  0.83798  0.48292  1.0000
  N   N92       1.0  0.70855  0.62297  0.36571  1.0000
  C   C1681     1.0  0.72648  0.64157  0.35574  1.0000
  C   C1682     1.0  0.68447  0.60397  0.35942  1.0000
  C   C1683     1.0  0.69925  0.63855  0.37487  1.0000
  C   C1684     1.0  0.72402  0.60793  0.37286  1.0000
  C   C1685     1.0  0.75434  0.66024  0.36025  1.0000
  C   C1686     1.0  0.67648  0.62267  0.38447  1.0000
  H   H2977     1.0  0.65150  0.94142  0.38793  1.0000
  C   C1687     1.0  0.66989  0.64045  0.39361  1.0000
  H   H2978     1.0  0.71559  0.65426  0.35146  1.0000
  H   H2979     1.0  0.73051  0.63081  0.34782  1.0000
  N   N93       1.0  0.66518  0.94738  0.40717  1.0000
  C   C1688     1.0  0.67624  0.94350  0.43084  1.0000
  H   H2980     1.0  0.69198  0.65322  0.36981  1.0000
  H   H2981     1.0  0.71690  0.65019  0.38044  1.0000
  H   H2982     1.0  0.73967  0.62094  0.37897  1.0000
  H   H2983     1.0  0.70995  0.59293  0.37946  1.0000
  H   H2984     1.0  0.72177  0.85127  0.39367  1.0000
  S   S367      1.0  0.57649  0.85166  0.31970  1.0000
  H   H2985     1.0  0.68291  0.60817  0.39011  1.0000
  H   H2986     1.0  0.65717  0.61229  0.37965  1.0000
  H   H2987     1.0  0.68452  0.85369  0.46982  1.0000
  H   H2988     1.0  0.72308  0.57766  0.35982  1.0000
  C   C1689     1.0  0.67003  0.90321  0.32915  1.0000
  H   H2989     1.0  0.78751  0.66425  0.46888  1.0000
  H   H2990     1.0  0.65749  0.62809  0.35846  1.0000
  H   H2991     1.0  0.68823  0.65063  0.39913  1.0000
  C   C1690     1.0  0.87095  0.85261  0.38731  1.0000
  H   H2992     1.0  0.75146  0.83959  0.44455  1.0000
  H   H2993     1.0  0.71283  0.85172  0.45108  1.0000
  H   H2994     1.0  0.68306  0.75502  0.35649  1.0000
  C   C1691     1.0  0.74144  0.81826  0.44617  1.0000
  H   H2995     1.0  0.65330  0.62870  0.40025  1.0000
  H   H2996     1.0  0.76495  0.57006  0.36710  1.0000
  H   H2997     1.0  0.75669  0.80989  0.44260  1.0000
  H   H2998     1.0  0.91095  0.83524  0.37922  1.0000
  C   C1692     1.0  0.61405  0.72600  0.34223  1.0000
  C   C1693     1.0  0.72618  0.85211  0.33538  1.0000
  H   H2999     1.0  0.83483  0.82361  0.38002  1.0000
  C   C1694     1.0  0.86723  0.79679  0.38933  1.0000
  H   H3000     1.0  0.64948  0.83653  0.36906  1.0000
  H   H3001     1.0  0.62610  0.72530  0.35080  1.0000
  N   N94       1.0  0.86903  0.81053  0.37646  1.0000
  H   H3002     1.0  0.51739  0.85602  0.33237  1.0000
  C   C1695     1.0  0.70139  0.76647  0.35068  1.0000
  H   H3003     1.0  0.59727  0.70694  0.34176  1.0000
  C   C1696     1.0  0.78187  0.84403  0.46661  1.0000
  H   H3004     1.0  0.72310  0.83224  0.33236  1.0000
  H   H3005     1.0  0.62671  0.60421  0.34230  1.0000
  H   H3006     1.0  0.61665  0.91538  0.42048  1.0000
  C   C1697     1.0  0.66361  0.93413  0.39491  1.0000
  C   C1698     1.0  0.71218  0.79478  0.35435  1.0000
  H   H3007     1.0  0.67173  0.79554  0.35799  1.0000
  H   H3008     1.0  0.87234  0.81146  0.34947  1.0000
  H   H3009     1.0  0.74787  0.92190  0.45002  1.0000
  H   H3010     1.0  0.73545  0.76723  0.47813  1.0000
  H   H3011     1.0  0.62487  0.84536  0.34361  1.0000
  S   S368      1.0  0.75800  0.71118  0.47519  1.0000
  H   H3012     1.0  0.89195  0.86470  0.38405  1.0000
  H   H3013     1.0  0.57067  0.91888  0.41895  1.0000
  N   N95       1.0  0.69811  0.83584  0.35611  1.0000
  C   C1699     1.0  0.69008  0.80796  0.35244  1.0000
  C   C1700     1.0  0.68803  0.97345  0.40594  1.0000
  H   H3014     1.0  0.77253  0.85567  0.47208  1.0000
  H   H3015     1.0  0.90222  0.78861  0.36264  1.0000
  H   H3016     1.0  0.84546  0.95961  0.47125  1.0000
  H   H3017     1.0  0.66278  0.65514  0.38846  1.0000
  H   H3018     1.0  0.73084  0.80496  0.34855  1.0000
  H   H3019     1.0  0.79527  0.93419  0.47018  1.0000
  H   H3020     1.0  0.69605  0.76539  0.34061  1.0000
  H   H3021     1.0  0.63017  0.89974  0.37794  1.0000
  H   H3022     1.0  0.73013  0.77096  0.45539  1.0000
  C   C1701     1.0  0.64771  0.83410  0.35880  1.0000
  H   H3023     1.0  0.72938  0.87331  0.35207  1.0000
  H   H3024     1.0  0.81299  0.77337  0.34887  1.0000
  H   H3025     1.0  0.75878  0.80903  0.47670  1.0000
  H   H3026     1.0  0.93104  0.74818  0.42500  1.0000
  C   C1702     1.0  0.63885  0.95244  0.40981  1.0000
  H   H3027     1.0  0.64618  0.58269  0.34099  1.0000
  H   H3028     1.0  0.84845  0.95936  0.45455  1.0000
  C   C1703     1.0  0.65262  0.90385  0.39551  1.0000
  H   H3029     1.0  0.64223  0.71600  0.33066  1.0000
  Fe  Fe179     1.0  0.96731  0.73533  0.37075  1.0000
  C   C1704     1.0  0.81662  0.68733  0.45445  1.0000
  H   H3030     1.0  0.91221  0.66942  0.48072  1.0000
  C   C1705     1.0  0.80991  0.93468  0.46248  1.0000
  H   H3031     1.0  0.63333  0.96295  0.40160  1.0000
  S   S369      1.0  0.97180  0.70093  0.38194  1.0000
  C   C1706     1.0  0.75507  0.58060  0.37303  1.0000
  H   H3032     1.0  0.81690  0.91768  0.46409  1.0000
  C   C1707     1.0  0.67961  0.92413  0.44105  1.0000
  C   C1708     1.0  0.83455  0.95988  0.46232  1.0000
  H   H3033     1.0  0.65833  0.94889  0.43356  1.0000
  H   H3034     1.0  0.69640  0.91688  0.43850  1.0000
  C   C1709     1.0  0.48802  0.78793  0.33391  1.0000
  H   H3035     1.0  0.94211  0.78648  0.45621  1.0000
  H   H3036     1.0  0.70824  0.88498  0.46439  1.0000
  H   H3037     1.0  0.86555  0.72841  0.48284  1.0000
  H   H3038     1.0  0.59414  0.94707  0.42587  1.0000
  H   H3039     1.0  0.74160  0.56643  0.38013  1.0000
  H   H3040     1.0  0.96115  0.76429  0.45747  1.0000
  H   H3041     1.0  0.83142  0.71716  0.47669  1.0000
  H   H3042     1.0  0.79831  0.97889  0.33851  1.0000
  H   H3043     1.0  0.69332  0.73156  0.48434  1.0000
  S   S370      1.0  0.56289  0.77848  0.32512  1.0000
  Fe  Fe180     1.0  0.76489  0.97780  0.40254  1.0000
  H   H3044     1.0  0.86303  0.96605  0.34643  1.0000
  H   H3045     1.0  0.79395  0.64555  0.45642  1.0000
  C   C1710     1.0  0.54805  0.74708  0.31964  1.0000
  C   C1711     1.0  0.79133  0.66422  0.45862  1.0000
  H   H3046     1.0  0.70832  0.97062  0.40593  1.0000
  H   H3047     1.0  0.81249  0.70519  0.45681  1.0000
  C   C1712     1.0  0.74716  0.98110  0.45784  1.0000
  H   H3048     1.0  0.69490  0.96112  0.43081  1.0000
  H   H3049     1.0  0.48272  0.74950  0.35085  1.0000
  H   H3050     1.0  0.88693  0.66489  0.46100  1.0000
  H   H3051     1.0  0.48078  0.82079  0.32295  1.0000
  H   H3052     1.0  0.69818  0.79461  0.31923  1.0000
  H   H3053     1.0  0.81307  0.98358  0.46957  1.0000
  H   H3054     1.0  0.69362  0.98294  0.38555  1.0000
  H   H3055     1.0  0.68172  0.74592  0.31974  1.0000
  H   H3056     1.0  0.60905  0.74868  0.31944  1.0000
  Fe  Fe181     1.0  0.76565  0.92931  0.63211  1.0000
  S   S371      1.0  0.72313  0.93186  0.63124  1.0000
  S   S372      1.0  0.77915  0.89525  0.63875  1.0000
  C   C1713     1.0  0.73687  0.95379  0.55972  1.0000
  Fe  Fe182     1.0  0.73602  0.94896  0.61154  1.0000
  S   S373      1.0  0.70554  0.93719  0.59583  1.0000
  H   H3057     1.0  0.83892  0.74031  0.55652  1.0000
  S   S374      1.0  0.77693  0.94385  0.61205  1.0000
  S   S375      1.0  0.93650  0.76646  0.62162  1.0000
  Fe  Fe183     1.0  0.78405  0.72204  0.64113  1.0000
  S   S376      1.0  0.76603  0.69078  0.62775  1.0000
  H   H3058     1.0  0.68845  0.88194  0.57977  1.0000
  Fe  Fe184     1.0  0.73676  0.74332  0.63838  1.0000
  S   S377      1.0  0.71481  0.71241  0.62519  1.0000
  S   S378      1.0  0.71537  0.77261  0.64184  1.0000
  Fe  Fe185     1.0  0.72662  0.68437  0.63859  1.0000
  Fe  Fe186     1.0  0.75611  0.72160  0.61577  1.0000
  S   S379      1.0  0.77031  0.73907  0.59598  1.0000
  S   S380      1.0  0.82251  0.72116  0.65065  1.0000
  S   S381      1.0  0.77749  0.75345  0.62862  1.0000
  C   C1714     1.0  0.73541  0.94969  0.57301  1.0000
  C   C1715     1.0  0.87524  0.71800  0.50915  1.0000
  H   H3059     1.0  0.82629  0.76039  0.54608  1.0000
  C   C1716     1.0  0.89496  0.76903  0.55298  1.0000
  Fe  Fe187     1.0  0.79336  0.94917  0.51309  1.0000
  S   S382      1.0  0.81811  0.92382  0.51865  1.0000
  S   S383      1.0  0.74819  0.93048  0.51036  1.0000
  Fe  Fe188     1.0  0.76053  0.73318  0.52191  1.0000
  S   S384      1.0  0.78545  0.77543  0.52292  1.0000
  S   S385      1.0  0.74211  0.70753  0.53950  1.0000
  H   H3060     1.0  0.94122  0.82102  0.51322  1.0000
  H   H3061     1.0  0.64307  0.90032  0.59592  1.0000
  Fe  Fe189     1.0  0.81359  0.76715  0.50913  1.0000
  S   S386      1.0  0.85925  0.78503  0.51128  1.0000
  Fe  Fe190     1.0  0.76263  0.78120  0.50575  1.0000
  S   S387      1.0  0.74554  0.81342  0.50191  1.0000
  S   S388      1.0  0.79024  0.72427  0.50903  1.0000
  S   S389      1.0  0.73521  0.73950  0.50558  1.0000
  H   H3062     1.0  0.84035  0.97069  0.57808  1.0000
  C   C1717     1.0  0.87554  0.76249  0.50850  1.0000
  C   C1718     1.0  0.86233  0.73601  0.51159  1.0000
  H   H3063     1.0  0.94803  0.79528  0.55923  1.0000
  C   C1719     1.0  0.90179  0.72659  0.50402  1.0000
  C   C1720     1.0  0.91530  0.75312  0.50112  1.0000
  C   C1721     1.0  0.90200  0.77104  0.50323  1.0000
  H   H3064     1.0  0.84245  0.72941  0.51614  1.0000
  H   H3065     1.0  0.78550  0.91739  0.56019  1.0000
  H   H3066     1.0  0.93581  0.75981  0.49710  1.0000
  H   H3067     1.0  0.83886  0.75677  0.48752  1.0000
  C   C1722     1.0  0.80133  0.89320  0.51279  1.0000
  C   C1723     1.0  0.78322  0.89092  0.50283  1.0000
  C   C1724     1.0  0.76667  0.86631  0.49930  1.0000
  C   C1725     1.0  0.76874  0.84386  0.50547  1.0000
  C   C1726     1.0  0.78809  0.84610  0.51491  1.0000
  C   C1727     1.0  0.80429  0.87079  0.51863  1.0000
  H   H3068     1.0  0.78175  0.90815  0.49788  1.0000
  H   H3069     1.0  0.67008  0.73647  0.62902  1.0000
  H   H3070     1.0  0.78991  0.82886  0.51967  1.0000
  H   H3071     1.0  0.81851  0.87250  0.52625  1.0000
  C   C1728     1.0  0.76078  0.73005  0.58045  1.0000
  C   C1729     1.0  0.74258  0.70549  0.57780  1.0000
  C   C1730     1.0  0.73695  0.69896  0.56521  1.0000
  C   C1731     1.0  0.74930  0.71690  0.55518  1.0000
  C   C1732     1.0  0.76727  0.74156  0.55788  1.0000
  C   C1733     1.0  0.77304  0.74804  0.57044  1.0000
  H   H3072     1.0  0.73308  0.69143  0.58540  1.0000
  H   H3073     1.0  0.72300  0.67984  0.56321  1.0000
  H   H3074     1.0  0.77681  0.75556  0.55028  1.0000
  H   H3075     1.0  0.78726  0.76705  0.57239  1.0000
  H   H3076     1.0  0.75342  0.94996  0.57823  1.0000
  C   C1734     1.0  0.90408  0.75297  0.62898  1.0000
  C   C1735     1.0  0.89830  0.73094  0.63713  1.0000
  H   H3077     1.0  0.91200  0.79142  0.50057  1.0000
  C   C1736     1.0  0.85299  0.73291  0.64159  1.0000
  C   C1737     1.0  0.85830  0.75440  0.63304  1.0000
  C   C1738     1.0  0.88402  0.76466  0.62688  1.0000
  Fe  Fe191     1.0  0.74261  0.97287  0.63759  1.0000
  S   S390      1.0  0.79330  0.77725  0.49196  1.0000
  H   H3078     1.0  0.88858  0.78186  0.62062  1.0000
  C   C1739     1.0  0.76074  0.86129  0.63916  1.0000
  C   C1740     1.0  0.73240  0.85117  0.63734  1.0000
  C   C1741     1.0  0.71869  0.82396  0.63812  1.0000
  C   C1742     1.0  0.73323  0.80667  0.64056  1.0000
  C   C1743     1.0  0.76153  0.81683  0.64227  1.0000
  C   C1744     1.0  0.77516  0.84396  0.64161  1.0000
  H   H3079     1.0  0.72101  0.86430  0.63558  1.0000
  H   H3080     1.0  0.69673  0.81628  0.63691  1.0000
  H   H3081     1.0  0.62394  0.91320  0.64145  1.0000
  H   H3082     1.0  0.87312  0.78842  0.54043  1.0000
  C   C1745     1.0  0.71030  0.94461  0.57945  1.0000
  C   C1746     1.0  0.68705  0.94389  0.57260  1.0000
  C   C1747     1.0  0.68850  0.94796  0.55953  1.0000
  H   H3083     1.0  0.79529  0.94067  0.54692  1.0000
  H   H3084     1.0  0.86264  0.63575  0.63960  1.0000
  H   H3085     1.0  0.67013  0.94707  0.55443  1.0000
  H   H3086     1.0  0.67221  0.92868  0.61787  1.0000
  N   N96       1.0  0.83100  0.69979  0.58796  1.0000
  C   C1748     1.0  0.83518  0.72853  0.58684  1.0000
  C   C1749     1.0  0.82986  0.69012  0.57489  1.0000
  C   C1750     1.0  0.80466  0.68599  0.59523  1.0000
  C   C1751     1.0  0.85426  0.69465  0.59486  1.0000
  C   C1752     1.0  0.88349  0.70997  0.58955  1.0000
  C   C1753     1.0  0.84134  0.74305  0.59923  1.0000
  C   C1754     1.0  0.79575  0.65579  0.59631  1.0000
  C   C1755     1.0  0.80395  0.68918  0.56726  1.0000
  C   C1756     1.0  0.80600  0.68128  0.55386  1.0000
  C   C1757     1.0  0.90532  0.70531  0.59804  1.0000
  C   C1758     1.0  0.84649  0.77211  0.59667  1.0000
  C   C1759     1.0  0.76717  0.64366  0.60229  1.0000
  H   H3087     1.0  0.81668  0.73178  0.58291  1.0000
  H   H3088     1.0  0.85188  0.73886  0.57995  1.0000
  H   H3089     1.0  0.84799  0.70258  0.56921  1.0000
  H   H3090     1.0  0.83162  0.67035  0.57514  1.0000
  H   H3091     1.0  0.78751  0.69161  0.59117  1.0000
  H   H3092     1.0  0.80630  0.69240  0.60502  1.0000
  H   H3093     1.0  0.85351  0.69843  0.60500  1.0000
  H   H3094     1.0  0.85201  0.67367  0.59475  1.0000
  H   H3095     1.0  0.88763  0.73126  0.58890  1.0000
  H   H3096     1.0  0.88628  0.70367  0.58007  1.0000
  H   H3097     1.0  0.82385  0.73531  0.60599  1.0000
  H   H3098     1.0  0.85987  0.74124  0.60382  1.0000
  H   H3099     1.0  0.81021  0.64950  0.60227  1.0000
  H   H3100     1.0  0.79505  0.64745  0.58702  1.0000
  H   H3101     1.0  0.78512  0.67485  0.57165  1.0000
  H   H3102     1.0  0.80108  0.70836  0.56665  1.0000
  H   H3103     1.0  0.82405  0.69537  0.54877  1.0000
  H   H3104     1.0  0.80758  0.66150  0.55393  1.0000
  H   H3105     1.0  0.78727  0.68099  0.54866  1.0000
  H   H3106     1.0  0.90329  0.68438  0.59865  1.0000
  H   H3107     1.0  0.92605  0.71667  0.59418  1.0000
  H   H3108     1.0  0.90365  0.71183  0.60762  1.0000
  H   H3109     1.0  0.86461  0.78099  0.59033  1.0000
  H   H3110     1.0  0.82825  0.77530  0.59238  1.0000
  H   H3111     1.0  0.85065  0.78199  0.60565  1.0000
  H   H3112     1.0  0.76724  0.64926  0.61214  1.0000
  H   H3113     1.0  0.75188  0.64993  0.59690  1.0000
  H   H3114     1.0  0.76079  0.62210  0.60237  1.0000
  H   H3115     1.0  0.91122  0.79144  0.52932  1.0000
  N   N97       1.0  0.64556  0.94432  0.62778  1.0000
  C   C1760     1.0  0.84341  0.76030  0.55236  1.0000
  C   C1761     1.0  0.63082  0.90221  0.61534  1.0000
  H   H3116     1.0  0.75705  0.87158  0.55615  1.0000
  C   C1762     1.0  0.65135  0.93011  0.61693  1.0000
  H   H3117     1.0  0.65163  0.94112  0.60782  1.0000
  H   H3118     1.0  0.92723  0.69938  0.54076  1.0000
  H   H3119     1.0  0.95232  0.68951  0.56137  1.0000
  H   H3120     1.0  0.75605  0.95750  0.55473  1.0000
  S   S391      1.0  0.80024  0.97332  0.49506  1.0000
  H   H3121     1.0  0.94251  0.73712  0.56151  1.0000
  N   N98       1.0  0.92089  0.77132  0.54582  1.0000
  Fe  Fe192     1.0  0.75471  0.95680  0.49284  1.0000
  H   H3122     1.0  0.90341  0.69878  0.52832  1.0000
  H   H3123     1.0  0.80077  0.97964  0.56837  1.0000
  H   H3124     1.0  0.88840  0.75154  0.55951  1.0000
  H   H3125     1.0  0.89165  0.67945  0.54268  1.0000
  C   C1763     1.0  0.64833  0.73051  0.63216  1.0000
  C   C1764     1.0  0.64066  0.88885  0.60504  1.0000
  H   H3126     1.0  0.92309  0.75118  0.57124  1.0000
  H   H3127     1.0  0.76574  0.90965  0.53300  1.0000
  C   C1765     1.0  0.89950  0.72080  0.54425  1.0000
  H   H3128     1.0  0.93902  0.74651  0.53659  1.0000
  H   H3129     1.0  0.86757  0.75527  0.53697  1.0000
  H   H3130     1.0  0.75204  0.86474  0.49189  1.0000
  C   C1766     1.0  0.94377  0.56890  0.64329  1.0000
  H   H3131     1.0  0.63527  0.72679  0.62372  1.0000
  H   H3132     1.0  0.84305  0.76370  0.63158  1.0000
  H   H3133     1.0  0.90134  0.71863  0.55453  1.0000
  H   H3134     1.0  0.57737  0.98094  0.63763  1.0000
  H   H3135     1.0  0.67965  0.71238  0.64935  1.0000
  S   S392      1.0  0.95044  0.69965  0.62173  1.0000
  H   H3136     1.0  0.84467  0.77384  0.55993  1.0000
  H   H3137     1.0  0.66068  0.88673  0.60754  1.0000
  H   H3138     1.0  0.74628  0.91333  0.54615  1.0000
  S   S393      1.0  0.71203  0.95604  0.53634  1.0000
  C   C1767     1.0  0.87295  0.72120  0.64354  1.0000
  N   N99       1.0  0.72441  0.85984  0.54268  1.0000
  C   C1768     1.0  0.70381  0.86878  0.54940  1.0000
  C   C1769     1.0  0.72128  0.86352  0.52872  1.0000
  C   C1770     1.0  0.71908  0.83156  0.54659  1.0000
  C   C1771     1.0  0.75338  0.87540  0.54607  1.0000
  C   C1772     1.0  0.91831  0.74768  0.53847  1.0000
  C   C1773     1.0  0.70837  0.87258  0.56368  1.0000
  C   C1774     1.0  0.73500  0.81741  0.53910  1.0000
  C   C1775     1.0  0.69321  0.84731  0.52335  1.0000
  C   C1776     1.0  0.69279  0.85204  0.50910  1.0000
  H   H3139     1.0  0.89883  0.78569  0.55916  1.0000
  C   C1777     1.0  0.68373  0.87674  0.56989  1.0000
  C   C1778     1.0  0.72841  0.78928  0.54426  1.0000
  H   H3140     1.0  0.68273  0.85465  0.54835  1.0000
  H   H3141     1.0  0.70292  0.88742  0.54496  1.0000
  H   H3142     1.0  0.72394  0.88421  0.52617  1.0000
  H   H3143     1.0  0.73789  0.85964  0.52347  1.0000
  H   H3144     1.0  0.69684  0.82006  0.54603  1.0000
  H   H3145     1.0  0.72421  0.82956  0.55663  1.0000
  H   H3146     1.0  0.72662  0.88999  0.56522  1.0000
  H   H3147     1.0  0.76834  0.86918  0.54077  1.0000
  S   S394      1.0  0.78452  0.96923  0.63996  1.0000
  C   C1779     1.0  0.87011  0.76864  0.54470  1.0000
  H   H3148     1.0  0.71152  0.85546  0.56859  1.0000
  H   H3149     1.0  0.80522  0.91213  0.54717  1.0000
  H   H3150     1.0  0.75747  0.82717  0.53967  1.0000
  H   H3151     1.0  0.72937  0.81674  0.52906  1.0000
  H   H3152     1.0  0.68863  0.82613  0.52534  1.0000
  H   H3153     1.0  0.67645  0.85289  0.52744  1.0000
  H   H3154     1.0  0.67209  0.84131  0.50556  1.0000
  H   H3155     1.0  0.69776  0.87311  0.50649  1.0000
  H   H3156     1.0  0.70781  0.84488  0.50446  1.0000
  C   C1780     1.0  0.76207  0.90523  0.54323  1.0000
  H   H3157     1.0  0.91015  0.74960  0.52895  1.0000
  H   H3158     1.0  0.87769  0.71823  0.54232  1.0000
  C   C1781     1.0  0.94444  0.77634  0.55485  1.0000
  C   C1782     1.0  0.94202  0.75529  0.56550  1.0000
  H   H3159     1.0  0.66549  0.85873  0.56985  1.0000
  H   H3160     1.0  0.73513  0.78864  0.55414  1.0000
  H   H3161     1.0  0.70606  0.77837  0.54377  1.0000
  H   H3162     1.0  0.73931  0.77930  0.53854  1.0000
  N   N100      1.0  0.77203  0.82239  0.59983  1.0000
  C   C1783     1.0  0.74880  0.79908  0.59573  1.0000
  C   C1784     1.0  0.79180  0.83442  0.58895  1.0000
  C   C1785     1.0  0.78738  0.81278  0.60993  1.0000
  C   C1786     1.0  0.76170  0.84226  0.60539  1.0000
  C   C1787     1.0  0.74453  0.85417  0.59672  1.0000
  C   C1788     1.0  0.72772  0.78347  0.60606  1.0000
  C   C1789     1.0  0.81455  0.83299  0.61436  1.0000
  C   C1790     1.0  0.77966  0.83322  0.57555  1.0000
  C   C1791     1.0  0.80128  0.84953  0.56591  1.0000
  C   C1792     1.0  0.73206  0.87088  0.60407  1.0000
  C   C1793     1.0  0.70471  0.76137  0.60044  1.0000
  C   C1794     1.0  0.82860  0.82057  0.62415  1.0000
  H   H3163     1.0  0.75734  0.78518  0.59149  1.0000
  H   H3164     1.0  0.73685  0.80462  0.58816  1.0000
  H   H3165     1.0  0.80380  0.85513  0.59061  1.0000
  H   H3166     1.0  0.80724  0.82437  0.58830  1.0000
  H   H3167     1.0  0.79233  0.79572  0.60672  1.0000
  H   H3168     1.0  0.77434  0.80568  0.61852  1.0000
  H   H3169     1.0  0.74969  0.83400  0.61417  1.0000
  H   H3170     1.0  0.77912  0.85912  0.60842  1.0000
  H   H3171     1.0  0.72736  0.83904  0.59242  1.0000
  H   H3172     1.0  0.75794  0.86711  0.58923  1.0000
  H   H3173     1.0  0.73750  0.77436  0.61330  1.0000
  H   H3174     1.0  0.71818  0.79607  0.61070  1.0000
  H   H3175     1.0  0.81063  0.84934  0.61878  1.0000
  H   H3176     1.0  0.82935  0.84112  0.60645  1.0000
  H   H3177     1.0  0.77261  0.81279  0.57262  1.0000
  H   H3178     1.0  0.76198  0.84022  0.57507  1.0000
  H   H3179     1.0  0.79269  0.84698  0.55633  1.0000
  H   H3180     1.0  0.80770  0.87052  0.56785  1.0000
  H   H3181     1.0  0.81955  0.84322  0.56610  1.0000
  H   H3182     1.0  0.71642  0.85847  0.61095  1.0000
  H   H3183     1.0  0.74817  0.88564  0.60919  1.0000
  H   H3184     1.0  0.72199  0.88123  0.59753  1.0000
  H   H3185     1.0  0.71318  0.74768  0.59600  1.0000
  H   H3186     1.0  0.69003  0.75035  0.60799  1.0000
  H   H3187     1.0  0.69340  0.76917  0.59333  1.0000
  H   H3188     1.0  0.83328  0.80406  0.62028  1.0000
  H   H3189     1.0  0.84813  0.83524  0.62699  1.0000
  H   H3190     1.0  0.81535  0.81337  0.63265  1.0000
  H   H3191     1.0  0.65861  0.91604  0.63881  1.0000
  H   H3192     1.0  0.96698  0.78189  0.57897  1.0000
  C   C1795     1.0  0.90589  0.69831  0.53864  1.0000
  H   H3193     1.0  0.86490  0.69749  0.51152  1.0000
  H   H3194     1.0  0.56618  0.94974  0.63073  1.0000
  H   H3195     1.0  0.60138  0.92849  0.62641  1.0000
  H   H3196     1.0  0.92580  0.81203  0.54176  1.0000
  C   C1796     1.0  0.92697  0.79498  0.53678  1.0000
  S   S395      1.0  0.91820  0.70409  0.50167  1.0000
  H   H3197     1.0  0.91372  0.72189  0.63860  1.0000
  H   H3198     1.0  0.67879  0.89284  0.56483  1.0000
  Fe  Fe193     1.0  0.74473  0.96332  0.52116  1.0000
  Fe  Fe194     1.0  0.79219  0.98361  0.61974  1.0000
  H   H3199     1.0  0.77281  0.80376  0.64443  1.0000
  H   H3200     1.0  0.92820  0.62968  0.64767  1.0000
  Fe  Fe195     1.0  0.96354  0.72442  0.50100  1.0000
  H   H3201     1.0  0.61041  0.90294  0.61260  1.0000
  S   S396      1.0  0.69837  0.64309  0.64496  1.0000
  C   C1797     1.0  0.64483  0.92777  0.63974  1.0000
  C   C1798     1.0  0.71317  0.95265  0.55295  1.0000
  C   C1799     1.0  0.95502  0.80383  0.52976  1.0000
  C   C1800     1.0  0.78866  0.91962  0.54983  1.0000
  H   H3202     1.0  0.62832  0.88974  0.62412  1.0000
  Fe  Fe196     1.0  0.76764  0.73498  0.49271  1.0000
  H   H3203     1.0  0.97778  0.83181  0.51510  1.0000
  H   H3204     1.0  0.79702  0.85160  0.64319  1.0000
  H   H3205     1.0  0.92390  0.57155  0.64535  1.0000
  H   H3206     1.0  0.95758  0.58711  0.63845  1.0000
  H   H3207     1.0  0.64512  0.74668  0.63709  1.0000
  H   H3208     1.0  0.68844  0.96662  0.62977  1.0000
  H   H3209     1.0  0.96375  0.77805  0.54975  1.0000
  H   H3210     1.0  0.89928  0.65187  0.63891  1.0000
  H   H3211     1.0  0.62548  0.86915  0.60389  1.0000
  C   C1801     1.0  0.58306  0.96881  0.63083  1.0000
  H   H3212     1.0  0.95752  0.78752  0.52473  1.0000
  H   H3213     1.0  0.66757  0.93986  0.57743  1.0000
  H   H3214     1.0  0.83480  0.95979  0.56231  1.0000
  H   H3215     1.0  0.61688  0.95534  0.61586  1.0000
  H   H3216     1.0  0.58533  0.97887  0.62136  1.0000
  Fe  Fe197     1.0  0.96495  0.74291  0.62351  1.0000
  C   C1802     1.0  0.60993  0.96506  0.63476  1.0000
  C   C1803     1.0  0.66872  0.97009  0.62805  1.0000
  H   H3217     1.0  0.64469  0.69042  0.63538  1.0000
  C   C1804     1.0  0.95780  0.82646  0.52020  1.0000
  C   C1805     1.0  0.61813  0.94772  0.62565  1.0000
  C   C1806     1.0  0.96635  0.76395  0.57435  1.0000
  H   H3218     1.0  0.95698  0.84375  0.52499  1.0000
  H   H3219     1.0  0.97730  0.70472  0.54095  1.0000
  C   C1807     1.0  0.64094  0.70582  0.64078  1.0000
  C   C1808     1.0  0.97391  0.70101  0.56127  1.0000
  H   H3220     1.0  0.61874  0.69956  0.64291  1.0000
  C   C1809     1.0  0.84106  0.97724  0.56799  1.0000
  H   H3221     1.0  0.87668  0.67074  0.63825  1.0000
  C   C1810     1.0  0.87967  0.65299  0.64255  1.0000
  H   H3222     1.0  0.96434  0.74837  0.58178  1.0000
  S   S397      1.0  0.78954  0.98043  0.52501  1.0000
  H   H3223     1.0  0.97199  0.81107  0.53643  1.0000
  H   H3224     1.0  0.66635  0.98135  0.63606  1.0000
  H   H3225     1.0  0.60653  0.95561  0.64436  1.0000
  H   H3226     1.0  0.94024  0.55274  0.63688  1.0000
  H   H3227     1.0  0.86857  0.70450  0.65002  1.0000
  H   H3228     1.0  0.67667  0.95187  0.65167  1.0000
  S   S398      1.0  0.96940  0.69362  0.58704  1.0000
  H   H3229     1.0  0.68296  0.98107  0.60847  1.0000
  C   C1811     1.0  0.65409  0.94214  0.65202  1.0000
  H   H3230     1.0  0.65315  0.65950  0.65166  1.0000
  H   H3231     1.0  0.97623  0.57095  0.70518  1.0000
  C   C1812     1.0  0.87978  0.65340  0.65690  1.0000
  S   S399      1.0  0.86758  0.51113  0.80634  1.0000
  H   H3232     1.0  0.70576  0.55859  0.80447  1.0000
  Fe  Fe198     1.0  0.90100  0.53437  0.73319  1.0000
  C   C1813     1.0  0.71007  0.53315  0.67306  1.0000
  S   S400      1.0  0.92302  0.54668  0.75164  1.0000
  Fe  Fe199     1.0  0.89421  0.54587  0.70455  1.0000
  S   S401      1.0  0.86462  0.50470  0.70271  1.0000
  S   S402      1.0  0.90055  0.57164  0.68597  1.0000
  Fe  Fe200     1.0  0.84621  0.51045  0.72095  1.0000
  C   C1814     1.0  0.61430  0.61383  0.66151  1.0000
  H   H3233     1.0  0.85771  0.72078  0.69114  1.0000
  S   S403      1.0  0.87365  0.55204  0.72227  1.0000
  S   S404      1.0  0.92415  0.53183  0.71562  1.0000
  H   H3234     1.0  0.96309  0.50990  0.65799  1.0000
  S   S405      1.0  0.62025  0.52256  0.72254  1.0000
  C   C1815     1.0  0.80072  0.58008  0.67958  1.0000
  C   C1816     1.0  0.63786  0.66269  0.65814  1.0000
  S   S406      1.0  0.68293  0.52685  0.71679  1.0000
  H   H3235     1.0  0.94651  0.67742  0.67774  1.0000
  Fe  Fe201     1.0  0.65071  0.50600  0.73139  1.0000
  H   H3236     1.0  0.94551  0.73325  0.67168  1.0000
  Fe  Fe202     1.0  0.65174  0.54058  0.70683  1.0000
  S   S407      1.0  0.67015  0.58356  0.69947  1.0000
  H   H3237     1.0  0.97800  0.49514  0.68477  1.0000
  S   S408      1.0  0.63611  0.50542  0.69530  1.0000
  C   C1817     1.0  0.86137  0.69154  0.67869  1.0000
  C   C1818     1.0  0.55599  0.48799  0.74239  1.0000
  C   C1819     1.0  0.62999  0.69476  0.67233  1.0000
  H   H3238     1.0  0.68863  0.68306  0.66469  1.0000
  Fe  Fe203     1.0  0.89361  0.49123  0.71479  1.0000
  H   H3239     1.0  0.68032  0.49176  0.77616  1.0000
  H   H3240     1.0  0.76239  0.60538  0.67958  1.0000
  H   H3241     1.0  0.57511  0.48574  0.73878  1.0000
  H   H3242     1.0  0.91839  0.66154  0.70026  1.0000
  H   H3243     1.0  0.90653  0.69390  0.65579  1.0000
  H   H3244     1.0  0.79547  0.49609  0.70124  1.0000
  C   C1820     1.0  0.70401  0.63854  0.67108  1.0000
  C   C1821     1.0  0.69685  0.62515  0.68297  1.0000
  C   C1822     1.0  0.67948  0.59893  0.68411  1.0000
  C   C1823     1.0  0.66952  0.58622  0.67313  1.0000
  H   H3245     1.0  0.70291  0.53587  0.66343  1.0000
  H   H3246     1.0  0.71757  0.65856  0.67043  1.0000
  H   H3247     1.0  0.70475  0.63521  0.69137  1.0000
  H   H3248     1.0  0.65616  0.56610  0.67379  1.0000
  H   H3249     1.0  0.91420  0.49102  0.74982  1.0000
  C   C1824     1.0  0.93639  0.69229  0.67859  1.0000
  C   C1825     1.0  0.88404  0.52041  0.79129  1.0000
  C   C1826     1.0  0.86783  0.51469  0.78050  1.0000
  C   C1827     1.0  0.87948  0.52216  0.76834  1.0000
  C   C1828     1.0  0.90759  0.53584  0.76679  1.0000
  C   C1829     1.0  0.92394  0.54122  0.77756  1.0000
  C   C1830     1.0  0.91229  0.53346  0.78974  1.0000
  C   C1831     1.0  0.74833  0.48785  0.72467  1.0000
  H   H3250     1.0  0.86657  0.51792  0.76018  1.0000
  H   H3251     1.0  0.76532  0.51618  0.81851  1.0000
  C   C1832     1.0  0.60934  0.49989  0.77928  1.0000
  C   C1833     1.0  0.62240  0.50343  0.76737  1.0000
  C   C1834     1.0  0.64794  0.50022  0.76616  1.0000
  C   C1835     1.0  0.62183  0.49347  0.79010  1.0000
  C   C1836     1.0  0.77935  0.65366  0.68692  1.0000
  H   H3252     1.0  0.64463  0.95717  0.65344  1.0000
  H   H3253     1.0  0.61293  0.50894  0.75915  1.0000
  C   C1837     1.0  0.77577  0.49253  0.70576  1.0000
  C   C1838     1.0  0.78173  0.62992  0.69442  1.0000
  H   H3254     1.0  0.92072  0.54582  0.66720  1.0000
  H   H3255     1.0  0.89770  0.59212  0.66082  1.0000
  H   H3256     1.0  0.65768  0.48624  0.79709  1.0000
  H   H3257     1.0  0.79188  0.49576  0.76157  1.0000
  C   C1839     1.0  0.90672  0.48634  0.67289  1.0000
  H   H3258     1.0  0.77599  0.95625  0.68115  1.0000
  C   C1840     1.0  0.89415  0.65568  0.68303  1.0000
  C   C1841     1.0  0.95863  0.64243  0.66185  1.0000
  H   H3259     1.0  0.53831  0.98260  0.75524  1.0000
  C   C1842     1.0  0.95357  0.71707  0.67059  1.0000
  H   H3260     1.0  0.75814  0.65416  0.68758  1.0000
  H   H3261     1.0  0.97622  0.55987  0.65286  1.0000
  H   H3262     1.0  0.73129  0.55774  0.73246  1.0000
  H   H3263     1.0  0.92672  0.52467  0.65641  1.0000
  S   S409      1.0  0.60417  0.48799  0.80484  1.0000
  C   C1843     1.0  0.91680  0.60440  0.66461  1.0000
  H   H3264     1.0  0.79275  0.54580  0.79949  1.0000
  H   H3265     1.0  0.88666  0.61539  0.70111  1.0000
  H   H3266     1.0  0.73879  0.58254  0.71175  1.0000
  C   C1844     1.0  0.83019  0.57995  0.67883  1.0000
  H   H3267     1.0  0.60978  0.59709  0.66853  1.0000
  H   H3268     1.0  0.72093  0.55182  0.69664  1.0000
  H   H3269     1.0  0.75130  0.53730  0.73649  1.0000
  H   H3270     1.0  0.57937  0.67800  0.68531  1.0000
  C   C1845     1.0  0.89671  0.65732  0.69748  1.0000
  N   N101      1.0  0.76263  0.57925  0.69566  1.0000
  H   H3271     1.0  0.59109  0.67263  0.66331  1.0000
  C   C1846     1.0  0.54600  0.50388  0.73250  1.0000
  H   H3272     1.0  0.89981  0.71759  0.67116  1.0000
  N   N102      1.0  0.95002  0.52750  0.67351  1.0000
  H   H3273     1.0  0.77842  0.55150  0.71690  1.0000
  H   H3274     1.0  0.69129  0.96457  0.69152  1.0000
  C   C1847     1.0  0.67615  0.59982  0.66125  1.0000
  H   H3275     1.0  0.72004  0.51806  0.67303  1.0000
  H   H3276     1.0  0.88303  0.63272  0.71453  1.0000
  H   H3277     1.0  0.69191  0.52629  0.67951  1.0000
  C   C1848     1.0  0.75844  0.57920  0.70970  1.0000
  H   H3278     1.0  0.62760  0.61095  0.65397  1.0000
  C   C1849     1.0  0.64764  0.49086  0.78889  1.0000
  H   H3279     1.0  0.92298  0.67105  0.65842  1.0000
  H   H3280     1.0  0.80630  0.59083  0.69897  1.0000
  H   H3281     1.0  0.95489  0.61081  0.69096  1.0000
  H   H3282     1.0  0.66768  0.58992  0.65288  1.0000
  H   H3283     1.0  0.96229  0.58091  0.66091  1.0000
  H   H3284     1.0  0.74252  0.53674  0.71385  1.0000
  H   H3285     1.0  0.80303  0.63002  0.69323  1.0000
  H   H3286     1.0  0.95010  0.55748  0.68596  1.0000
  C   C1850     1.0  0.89310  0.70082  0.67821  1.0000
  C   C1851     1.0  0.73992  0.55620  0.69080  1.0000
  C   C1852     1.0  0.87996  0.63143  0.70424  1.0000
  H   H3287     1.0  0.76762  0.57215  0.73541  1.0000
  C   C1853     1.0  0.96994  0.51096  0.74014  1.0000
  H   H3288     1.0  0.93883  0.69774  0.68854  1.0000
  H   H3289     1.0  0.78788  0.56351  0.67427  1.0000
  H   H3290     1.0  0.75327  0.48739  0.68843  1.0000
  H   H3291     1.0  0.64665  0.63675  0.67281  1.0000
  C   C1854     1.0  0.93405  0.62584  0.65711  1.0000
  C   C1855     1.0  0.96483  0.54886  0.68205  1.0000
  C   C1856     1.0  0.73027  0.55890  0.67715  1.0000
  H   H3292     1.0  0.89122  0.49423  0.66876  1.0000
  C   C1857     1.0  0.69265  0.71646  0.67552  1.0000
  C   C1858     1.0  0.75815  0.55418  0.71739  1.0000
  S   S410      1.0  0.66545  0.50408  0.75150  1.0000
  H   H3293     1.0  0.75047  0.96815  0.68743  1.0000
  H   H3294     1.0  0.83687  0.55845  0.81074  1.0000
  C   C1859     1.0  0.75168  0.55556  0.73127  1.0000
  H   H3295     1.0  0.83153  0.56143  0.68313  1.0000
  H   H3296     1.0  0.78162  0.49388  0.81484  1.0000
  H   H3297     1.0  0.95853  0.52398  0.73692  1.0000
  H   H3298     1.0  0.70779  0.51550  0.81012  1.0000
  C   C1860     1.0  0.79040  0.57682  0.69337  1.0000
  N   N103      1.0  0.75054  0.49596  0.80163  1.0000
  C   C1861     1.0  0.73834  0.51526  0.79575  1.0000
  H   H3299     1.0  0.62469  0.91310  0.66452  1.0000
  H   H3300     1.0  0.87206  0.64644  0.68098  1.0000
  C   C1862     1.0  0.64721  0.92313  0.66356  1.0000
  C   C1863     1.0  0.77392  0.49262  0.71886  1.0000
  C   C1864     1.0  0.72564  0.52944  0.80488  1.0000
  H   H3301     1.0  0.78394  0.97632  0.69449  1.0000
  C   C1865     1.0  0.77172  0.49870  0.77900  1.0000
  H   H3302     1.0  0.88940  0.67272  0.70087  1.0000
  H   H3303     1.0  0.69928  0.53922  0.79091  1.0000
  C   C1866     1.0  0.71516  0.54909  0.79772  1.0000
  N   N104      1.0  0.90639  0.68097  0.67534  1.0000
  H   H3304     1.0  0.72191  0.50521  0.78915  1.0000
  H   H3305     1.0  0.75377  0.53075  0.78993  1.0000
  H   H3306     1.0  0.70234  0.73054  0.66757  1.0000
  H   H3307     1.0  0.94570  0.55177  0.77650  1.0000
  S   S411      1.0  0.74525  0.71468  0.65239  1.0000
  H   H3308     1.0  0.90409  0.64153  0.68028  1.0000
  H   H3309     1.0  0.84440  0.59647  0.68376  1.0000
  H   H3310     1.0  0.62764  0.68239  0.68118  1.0000
  C   C1867     1.0  0.85146  0.71406  0.68159  1.0000
  H   H3311     1.0  0.81021  0.52225  0.79848  1.0000
  H   H3312     1.0  0.72876  0.73308  0.68676  1.0000
  H   H3313     1.0  0.74103  0.54028  0.81164  1.0000
  C   C1868     1.0  0.66049  0.49407  0.77699  1.0000
  C   C1869     1.0  0.62872  0.63916  0.66790  1.0000
  H   H3314     1.0  0.75490  0.50289  0.77381  1.0000
  H   H3315     1.0  0.78788  0.51752  0.78061  1.0000
  H   H3316     1.0  0.71064  0.96183  0.67049  1.0000
  C   C1870     1.0  0.94891  0.61477  0.68155  1.0000
  C   C1871     1.0  0.81818  0.54370  0.81506  1.0000
  C   C1872     1.0  0.77277  0.97307  0.68549  1.0000
  H   H3317     1.0  0.77498  0.59533  0.71383  1.0000
  C   C1873     1.0  0.95668  0.49531  0.75215  1.0000
  H   H3318     1.0  0.71944  0.57333  0.67656  1.0000
  H   H3319     1.0  0.80058  0.59865  0.67493  1.0000
  H   H3320     1.0  0.73229  0.56441  0.79264  1.0000
  H   H3321     1.0  0.74752  0.56543  0.67028  1.0000
  S   S412      1.0  0.87247  0.49343  0.73277  1.0000
  H   H3322     1.0  0.61424  0.64150  0.67499  1.0000
  H   H3323     1.0  0.56260  0.52265  0.73012  1.0000
  H   H3324     1.0  0.74553  0.53823  0.69174  1.0000
  H   H3325     1.0  0.82877  0.70771  0.68107  1.0000
  H   H3326     1.0  0.85279  0.67579  0.68608  1.0000
  C   C1874     1.0  0.92393  0.59871  0.67692  1.0000
  C   C1875     1.0  0.96604  0.63638  0.67407  1.0000
  H   H3327     1.0  0.79041  0.55725  0.69687  1.0000
  H   H3328     1.0  0.96698  0.52471  0.69908  1.0000
  C   C1876     1.0  0.79859  0.53052  0.80477  1.0000
  Fe  Fe204     1.0  0.60740  0.48581  0.71166  1.0000
  H   H3329     1.0  0.59086  0.71301  0.68230  1.0000
  H   H3330     1.0  0.66925  0.67580  0.67901  1.0000
  C   C1877     1.0  0.92700  0.50726  0.68086  1.0000
  H   H3331     1.0  0.68035  0.72505  0.68118  1.0000
  H   H3332     1.0  0.66044  0.72957  0.65628  1.0000
  C   C1878     1.0  0.69562  0.98088  0.68470  1.0000
  H   H3333     1.0  0.95715  0.50944  0.75936  1.0000
  H   H3334     1.0  0.85993  0.73066  0.67456  1.0000
  H   H3335     1.0  0.92507  0.53808  0.79792  1.0000
  C   C1879     1.0  0.76055  0.60441  0.68997  1.0000
  H   H3336     1.0  0.73969  0.60516  0.69197  1.0000
  C   C1880     1.0  0.70653  0.97924  0.67275  1.0000
  H   H3337     1.0  0.72846  0.70454  0.67896  1.0000
  H   H3338     1.0  0.65756  0.90844  0.66288  1.0000
  C   C1881     1.0  0.69308  0.62619  0.66012  1.0000
  H   H3339     1.0  0.78489  0.65339  0.67687  1.0000
  H   H3340     1.0  0.72177  0.48412  0.81740  1.0000
  H   H3341     1.0  0.55360  0.96671  0.73567  1.0000
  H   H3342     1.0  0.85265  0.68468  0.66956  1.0000
  H   H3343     1.0  0.77801  0.63250  0.70443  1.0000
  C   C1882     1.0  0.77335  0.50855  0.81049  1.0000
  H   H3344     1.0  0.61986  0.66118  0.65221  1.0000
  C   C1883     1.0  0.71550  0.71358  0.68395  1.0000
  H   H3345     1.0  0.85775  0.62676  0.70239  1.0000
  C   C1884     1.0  0.90486  0.67590  0.66147  1.0000
  C   C1885     1.0  0.93715  0.53946  0.66322  1.0000
  S   S413      1.0  0.80282  0.49882  0.72844  1.0000
  H   H3346     1.0  0.59469  0.61409  0.65738  1.0000
  H   H3347     1.0  0.60234  0.70764  0.66025  1.0000
  H   H3348     1.0  0.93492  0.49721  0.68846  1.0000
  H   H3349     1.0  0.91453  0.51685  0.68593  1.0000
  H   H3350     1.0  0.79345  0.67169  0.69080  1.0000
  H   H3351     1.0  0.58972  0.50259  0.78016  1.0000
  H   H3352     1.0  0.84600  0.50474  0.78158  1.0000
  Fe  Fe205     1.0  0.66637  0.49139  0.70587  1.0000
  H   H3353     1.0  0.90029  0.70939  0.68738  1.0000
  H   H3354     1.0  0.88062  0.63434  0.66063  1.0000
  H   H3355     1.0  0.70666  0.70132  0.69258  1.0000
  C   C1886     1.0  0.67490  0.68972  0.67064  1.0000
  C   C1887     1.0  0.96976  0.51623  0.66760  1.0000
  H   H3356     1.0  0.56145  0.49986  0.75069  1.0000
  H   H3357     1.0  0.83704  0.58179  0.66886  1.0000
  H   H3358     1.0  0.53096  0.97307  0.77569  1.0000
  C   C1888     1.0  0.65861  0.71018  0.65280  1.0000
  N   N105      1.0  0.64968  0.68930  0.66338  1.0000
  C   C1889     1.0  0.60104  0.69174  0.66738  1.0000
  H   H3359     1.0  0.63845  0.71510  0.67530  1.0000
  H   H3360     1.0  0.74682  0.48793  0.73479  1.0000
  H   H3361     1.0  0.51132  0.96726  0.79695  1.0000
  H   H3362     1.0  0.95346  0.71325  0.66047  1.0000
  H   H3363     1.0  0.97015  0.49779  0.73258  1.0000
  H   H3364     1.0  0.86004  0.65478  0.65997  1.0000
  C   C1890     1.0  0.75191  0.48755  0.69855  1.0000
  H   H3365     1.0  0.65442  0.93396  0.67215  1.0000
  H   H3366     1.0  0.52802  0.50817  0.73616  1.0000
  H   H3367     1.0  0.56176  0.69235  0.67415  1.0000
  C   C1891     1.0  0.97398  0.49226  0.67467  1.0000
  C   C1892     1.0  0.58220  0.69393  0.67797  1.0000
  H   H3368     1.0  0.54013  0.49323  0.72378  1.0000
  S   S414      1.0  0.97998  0.67156  0.65330  1.0000
  C   C1893     1.0  0.95697  0.56318  0.65543  1.0000
  Fe  Fe206     1.0  0.62544  0.52128  0.96903  1.0000
  C   C1894     1.0  0.64097  0.50872  0.88565  1.0000
  H   H3369     1.0  0.69790  0.49242  0.90974  1.0000
  C   C1895     1.0  0.82349  0.52422  0.91646  1.0000
  H   H3370     1.0  0.78890  0.54450  0.90747  1.0000
  H   H3371     1.0  0.71391  0.48961  0.93314  1.0000
  C   C1896     1.0  0.56728  0.92178  0.95243  1.0000
  Fe  Fe207     1.0  0.67965  0.50969  0.96738  1.0000
  H   H3372     1.0  0.92038  0.50619  0.90898  1.0000
  S   S415      1.0  0.82146  0.49140  0.95623  1.0000
  S   S416      1.0  0.66382  0.53832  0.95699  1.0000
  H   H3373     1.0  0.81176  0.53923  0.93964  1.0000
  S   S417      1.0  0.94757  0.53622  0.95260  1.0000
  Fe  Fe208     1.0  0.86779  0.51069  0.95786  1.0000
  S   S418      1.0  0.89367  0.55273  0.95938  1.0000
  H   H3374     1.0  0.62345  0.93230  0.96143  1.0000
  Fe  Fe209     1.0  0.91503  0.54710  0.94186  1.0000
  S   S419      1.0  0.92270  0.57570  0.92492  1.0000
  Fe  Fe210     1.0  0.92413  0.53812  0.97013  1.0000
  H   H3375     1.0  0.82459  0.52915  0.82072  1.0000
  H   H3376     1.0  0.76845  0.52560  0.93000  1.0000
  N   N106      1.0  0.57600  0.93042  0.97602  1.0000
  H   H3377     1.0  0.84277  0.57022  0.95777  1.0000
  H   H3378     1.0  0.55991  0.90863  0.93347  1.0000
  H   H3379     1.0  0.74986  0.53629  0.87001  1.0000
  H   H3380     1.0  0.66982  0.96430  0.96319  1.0000
  N   N107      1.0  0.95843  0.50300  0.90240  1.0000
  H   H3381     1.0  0.66038  0.59236  0.97016  1.0000
  H   H3382     1.0  0.72937  0.54102  0.92770  1.0000
  C   C1897     1.0  0.72874  0.52533  0.87356  1.0000
  S   S420      1.0  0.64206  0.51021  0.83798  1.0000
  Fe  Fe211     1.0  0.90018  0.52690  0.85374  1.0000
  H   H3383     1.0  0.93443  0.48913  0.91969  1.0000
  S   S421      1.0  0.92374  0.55953  0.86606  1.0000
  H   H3384     1.0  0.53263  0.97265  0.85784  1.0000
  H   H3385     1.0  0.97843  0.57453  0.91949  1.0000
  C   C1898     1.0  0.65288  0.51783  0.89718  1.0000
  S   S422      1.0  0.65744  0.51763  0.92285  1.0000
  H   H3386     1.0  0.65140  0.51725  0.87687  1.0000
  S   S423      1.0  0.86307  0.52625  0.84244  1.0000
  S   S424      1.0  0.92020  0.51442  0.83747  1.0000
  C   C1899     1.0  0.74262  0.50375  0.84390  1.0000
  H   H3387     1.0  0.83603  0.60046  0.95587  1.0000
  H   H3388     1.0  0.55065  0.93028  0.95171  1.0000
  S   S425      1.0  0.60504  0.54767  0.97816  1.0000
  S   S426      1.0  0.72272  0.52527  0.97534  1.0000
  H   H3389     1.0  0.67254  0.53331  0.89716  1.0000
  H   H3390     1.0  0.54123  0.88477  0.94547  1.0000
  C   C1900     1.0  0.68034  0.59581  0.97489  1.0000
  C   C1901     1.0  0.92211  0.56889  0.90879  1.0000
  C   C1902     1.0  0.93975  0.58796  0.90056  1.0000
  C   C1903     1.0  0.93978  0.58444  0.88764  1.0000
  C   C1904     1.0  0.92185  0.56197  0.88258  1.0000
  C   C1905     1.0  0.90369  0.54277  0.89073  1.0000
  C   C1906     1.0  0.90389  0.54622  0.90385  1.0000
  H   H3391     1.0  0.95359  0.60569  0.90420  1.0000
  H   H3392     1.0  0.95375  0.59946  0.88148  1.0000
  H   H3393     1.0  0.88956  0.52542  0.88692  1.0000
  H   H3394     1.0  0.88979  0.53160  0.91009  1.0000
  H   H3395     1.0  0.86855  0.59296  0.88200  1.0000
  C   C1907     1.0  0.77687  0.52862  0.97400  1.0000
  C   C1908     1.0  0.61544  0.48891  0.88549  1.0000
  H   H3396     1.0  0.56812  0.95679  0.84879  1.0000
  H   H3397     1.0  0.58365  0.89992  0.96605  1.0000
  C   C1909     1.0  0.63989  0.50681  0.90871  1.0000
  H   H3398     1.0  0.86161  0.61212  0.89399  1.0000
  H   H3399     1.0  0.86673  0.56972  0.91627  1.0000
  H   H3400     1.0  0.77788  0.53882  0.84266  1.0000
  C   C1910     1.0  0.79461  0.50154  0.96162  1.0000
  H   H3401     1.0  0.63382  0.93589  0.97755  1.0000
  H   H3402     1.0  0.66779  0.55642  0.98256  1.0000
  H   H3403     1.0  0.77755  0.55858  0.93418  1.0000
  C   C1911     1.0  0.61420  0.48716  0.90858  1.0000
  C   C1912     1.0  0.65158  0.96979  0.96532  1.0000
  H   H3404     1.0  0.80823  0.55358  0.82135  1.0000
  H   H3405     1.0  0.84354  0.52210  0.91906  1.0000
  H   H3406     1.0  0.58681  0.93704  0.94933  1.0000
  H   H3407     1.0  0.96033  0.52706  0.92598  1.0000
  Fe  Fe212     1.0  0.88099  0.50991  0.82689  1.0000
  H   H3408     1.0  0.82103  0.59059  0.93394  1.0000
  C   C1913     1.0  0.78869  0.50576  0.84940  1.0000
  C   C1914     1.0  0.84675  0.57016  0.89842  1.0000
  C   C1915     1.0  0.62739  0.94550  0.96929  1.0000
  H   H3409     1.0  0.93700  0.51418  0.88681  1.0000
  C   C1916     1.0  0.84675  0.57096  0.91297  1.0000
  N   N108      1.0  0.82318  0.55052  0.91999  1.0000
  H   H3410     1.0  0.82176  0.52234  0.90615  1.0000
  H   H3411     1.0  0.71591  0.57250  0.98552  1.0000
  S   S427      1.0  0.72046  0.51950  0.83799  1.0000
  H   H3412     1.0  0.55133  0.95252  0.96856  1.0000
  H   H3413     1.0  0.72105  0.53866  0.87876  1.0000
  S   S428      1.0  0.88779  0.50627  0.93985  1.0000
  C   C1917     1.0  0.75013  0.51603  0.96979  1.0000
  C   C1918     1.0  0.83442  0.58083  0.93857  1.0000
  H   H3414     1.0  0.80808  0.57007  0.95527  1.0000
  H   H3415     1.0  0.84697  0.54745  0.93639  1.0000
  H   H3416     1.0  0.62267  0.98175  0.91513  1.0000
  C   C1919     1.0  0.56114  0.90031  0.94310  1.0000
  C   C1920     1.0  0.96937  0.51266  0.86589  1.0000
  Fe  Fe213     1.0  0.64523  0.50659  0.94361  1.0000
  H   H3417     1.0  0.82628  0.56822  0.89457  1.0000
  H   H3418     1.0  0.68778  0.49752  0.88835  1.0000
  H   H3419     1.0  0.74878  0.56775  0.91718  1.0000
  C   C1921     1.0  0.82874  0.55310  0.93387  1.0000
  H   H3420     1.0  0.80010  0.57548  0.91385  1.0000
  C   C1922     1.0  0.60186  0.95284  0.97259  1.0000
  H   H3421     1.0  0.81949  0.53114  0.97330  1.0000
  C   C1923     1.0  0.79905  0.52143  0.96993  1.0000
  H   H3422     1.0  0.80997  0.51710  0.85050  1.0000
  H   H3423     1.0  0.54857  0.89561  0.96815  1.0000
  C   C1924     1.0  0.95223  0.50413  0.88854  1.0000
  Fe  Fe214     1.0  0.84544  0.48519  0.85057  1.0000
  C   C1925     1.0  0.86759  0.59486  0.89231  1.0000
  H   H3424     1.0  0.73978  0.53461  0.91246  1.0000
  H   H3425     1.0  0.78044  0.54403  0.98043  1.0000
  Fe  Fe215     1.0  0.91807  0.49528  0.95184  1.0000
  C   C1926     1.0  0.77266  0.54576  0.92614  1.0000
  C   C1927     1.0  0.72886  0.50207  0.88215  1.0000
  C   C1928     1.0  0.79659  0.55449  0.91627  1.0000
  H   H3426     1.0  0.71538  0.51870  0.86538  1.0000
  C   C1929     1.0  0.74611  0.54740  0.92047  1.0000
  H   H3427     1.0  0.85612  0.59297  0.93639  1.0000
  C   C1930     1.0  0.83004  0.58025  0.95275  1.0000
  C   C1931     1.0  0.56891  0.91077  0.96603  1.0000
  C   C1932     1.0  0.77043  0.51810  0.84510  1.0000
  H   H3428     1.0  0.84721  0.59084  0.91505  1.0000
  H   H3429     1.0  0.57772  0.89166  0.94312  1.0000
  H   H3430     1.0  0.68766  0.61604  0.97804  1.0000
  H   H3431     1.0  0.65679  0.98351  0.97300  1.0000
  H   H3432     1.0  0.79808  0.50070  0.93235  1.0000
  H   H3433     1.0  0.59475  0.98281  0.85592  1.0000
  H   H3434     1.0  0.59830  0.96538  0.96469  1.0000
  Fe  Fe216     1.0  0.67637  0.49371  0.83819  1.0000
  H   H3435     1.0  0.53266  0.92486  0.97803  1.0000
  H   H3436     1.0  0.55310  0.68397  0.97866  1.0000
  H   H3437     1.0  0.60798  0.96592  0.98048  1.0000
  C   C1933     1.0  0.55277  0.94097  0.97725  1.0000
  C   C1934     1.0  0.97709  0.51781  0.87959  1.0000
  H   H3438     1.0  0.64662  0.97975  0.95676  1.0000
  H   H3439     1.0  0.88836  0.59798  0.89611  1.0000
  C   C1935     1.0  0.80021  0.50016  0.92207  1.0000
  H   H3440     1.0  0.52909  0.97961  0.97961  1.0000
  H   H3441     1.0  0.55150  0.71482  0.97261  1.0000
  S   S429      1.0  0.64246  0.49455  0.98019  1.0000
  C   C1936     1.0  0.93140  0.49197  0.90948  1.0000
  C   C1937     1.0  0.56282  0.70543  0.97899  1.0000
  H   H3442     1.0  0.85265  0.55357  0.89549  1.0000
  H   H3443     1.0  0.58440  0.71132  0.97553  1.0000
  H   H3444     1.0  0.51263  0.97512  0.83011  1.0000
  C   C1938     1.0  0.74576  0.49615  0.96146  1.0000
  S   S430      1.0  0.89607  0.49606  0.96978  1.0000
  H   H3445     1.0  0.57012  0.95793  0.86566  1.0000
  H   H3446     1.0  0.74124  0.51002  0.89040  1.0000
  H   H3447     1.0  0.95209  0.51954  0.86331  1.0000
  H   H3448     1.0  0.69525  0.59349  0.96798  1.0000
  C   C1939     1.0  0.97918  0.53475  0.92005  1.0000
  H   H3449     1.0  0.73904  0.49078  0.87685  1.0000
  C   C1940     1.0  0.69921  0.48462  0.88581  1.0000
  C   C1941     1.0  0.97276  0.53066  0.90598  1.0000
  H   H3450     1.0  0.78053  0.49910  0.91760  1.0000
  H   H3451     1.0  0.96041  0.54306  0.90295  1.0000
  C   C1942     1.0  0.57291  0.96995  0.85671  1.0000
  S   S431      1.0  0.88121  0.48697  0.86275  1.0000
  H   H3452     1.0  0.72895  0.48642  0.90772  1.0000
  C   C1943     1.0  0.76788  0.48888  0.95744  1.0000
  S   S432      1.0  0.60507  0.49199  0.95461  1.0000
  H   H3453     1.0  0.96333  0.49155  0.86426  1.0000
  H   H3454     1.0  0.54995  0.97908  0.94716  1.0000
  C   C1944     1.0  0.97670  0.48669  0.90458  1.0000
  H   H3455     1.0  0.94247  0.48421  0.88522  1.0000
  H   H3456     1.0  0.72524  0.48617  0.95829  1.0000
