data_image0
_chemical_formula_structural       HFeS2FeS2FeSFeCS2CH2C2HCH2CH3CFeHCHCH2CH7C2HCHC2HCH2SHCH3CHC4H4C3H15SH3C3FeHSHCHCHC3H8CH2NHSCSCH2C2H3CHCH4C2H2C3HC2H2SCH2CH5CFeNCH13SH3CH2CH2CH2CH2CH4C2H3CH2CH2CHCH2CHCSH5CNH2CSC2HCH4CHC2H5CHNHSH2CH3SCH2FeSHSFeS2FeSC2HFeS3FeS2H3FeSHFeH2CH7CSH3CH4FeHCSHCSH2CH3CH3CHCSNHC6H2SC7H4C2HC4H8C4H5CHC6H5CH5FeC2H3CH4C2H2C2HCH3CHSCH3CHCHCHSH4C5HNH2CHCHCH2CH4C2HNH3CHSNC9H23CH4CHFeCHCH4CHCH3CSHSFeHC3H5CHNH2C2HCH2C3HCFeCH4CH2CFeC2H3CH3SH4FeSHCH5SFeCH3C2HCSFeS2FeS2FeSFeS3HCHFeS2C2HS2FeS2FeS2FeSFeS3FeS2FeS2FeSFeS3CHSHFeHSCHCFeS2HCFeSHSHCH7C2H4CHCHC2HSHC6H3CH4CH2CH2C2FeC2H3C6H4C5H2C2HC6HC6H4SC3H3C2H2C6H3C7H4C3H2C6H5C2SHCH3C2H4CH2SH4CH4CHCH2CH2C2H4C2H6NH3CH5CHC2H3C2NHSFeH2CH2CH5C2HC2H3C3H12C3SH3NC12H28NC10H23NC9H15CH4C2FeHC2SH2CH6CH2C2SCH3C2HCH4C2H3C5H12SHCHNH3CH3CHC2H2SH6C4H6FeH3FeH4CHC2H3N2H5CHFeHCH4CHCH6CHCHC2H3CHCSHFeCH2CH5CH3C3H3SH3FeH2SH4CH4CHC2H3C2HCH2CHSH7C2H2CHCHCH2CH3CH2CHCH2C2HCH2CHCH2NH5CH4CHNH4CHCHC2H4CH2C3HCHFeS2FeHSFeCFeHS2FeS2FeSHFeSFeS3HCH2SCH4CHSH2SCHCH2FeHCHC5H2C3SHCH2C2HC3H5C7H4C6H5CH3CH2CH4CH3C2H10CHCHCHCH2C2HCH2CNH2CHC3H2NCH4CH2C2H3NCHCH5C2H5SH9NCH5C3H2C4NC3H3C4HCH21CH4CH2C2H9CHCSNH6CHCH2CH2CHCH4CHCHS2H2CHC2H2C2H5CH2C2HSCH3NC3HCHCHC2H2C2FeCH3CH2FeS2FeS2FeSFeS3FeH2CH2CHCHCH3SHCH2SFeS2FeS2FeSFeS3HCH2CH2SH3SH6CH5C2H3C2HC3HSCHC5H2C6H3CHCHC2FeH3C2SC5H7SC2H2CHC6H4CHSC4H4C4H5C4H2C4H3NC11H26CFeHCH3CFeC2HCH3SH3SHCHCHCH2CHCH2C2H4CH3CFeH6CFeHC2FeHCSCSNH5CHC3HSCH3CHCH2C2HCH9CH2C3H8C2H2NCH2CHCH2CH4C3H5CH3SH4NH2CH2NC8FeCH21SC2H11C2HSHSC2HCH10CH2C3SH2SHCHCH6CNHC2HSH4CHC3HNH4CHC2HC2H4C2HCH10FeH2FeHCH2CH2CH5C2H2NH3CNH6CH2C3H4C4H5CHCH2SH2C3HCHCH2CHFeC4SHCH4CH5C2HCHC2HC2H3SH2SHFeHFeSH2FeS2FeSCFeSFeS3CSHC4HCH2NH2NC3H3SC6H3C3H5C7H4SNHC3H4CH3C3HCHC2H2C2H2CH7CH4C3HSCH2CHSH3CH3CH4CH2C2HFeHCHCHCH2CHCSH3CNHCH3C2HCHFeH2CH5CH9C2SH6C2FeHCH3CH4CH2CH2CH2SCHCH2CHCHCHCHCHC4NH3CHCHC2H9C2H4CH2CHCH8C2H6CH3C2H5CH4SH2CH3CHCHCHC2HSCH2FeSHSFeS2FeS2FeSFeS2FeSHSCSH2NHCHCHCHC6H4C6H4C6H3SC6H7NH3SCFeH6CHCFeCH15NH12CH3CHC2H6C2HSHCH2CH2CH2SH2CNH4FeH2CH3C4NC2HC3HC5H12CH4C2H6SH2FeH5SCH4CHFeHCHCHC2HCH4FeH3C2H2NC3H2CHSHCH2CH3C3SH4CFeH2CH2CH5CH2CH2SC2H2CH2CHCHC3HCH3CHCFeH2CNHCH3CHCHCH2CH6SH2NHCHCHCSC2H4C2HSH3CFeS2C3H3SC4HCHCFeH6C3HCHCHC2S2H4CH5SHC2HCHC2H2CFeCHCHCSH2SH2FeSFeS2FeSFeS3HS2CFeSH6SFeS2FeS2FeSFeS4FeS2FeS2FeSFeS3CHSH2CHCHFeS2FeS2FeSFeS2C7H4CHNCH3C7H5C4H4CHC8H4C4H2C6H4C6H6CH2CH2CHC2HCHC2H2SC6H4C6H4C6H3C6H4CNHC4H2CSCH2CHCH4NC8H18NC12H20CH7NC6H16C2HSNC11H29FeH2CH11CH2NCHC2H2FeH4CHC2H4CH2NH2SCH2CH3CH3CH3C3H2SCHCHCH4C2H3C2H2NH2NHCH4CHNC5HC2H10CH15CHCH2C2H4CH3C3H3NC12H22CHC2HCS2H4FeCH2CHSCH2CHCHFeH3CH3CHCHC2FeS2H3SHFeHFeC2H2SH2FeS2H2CH2CHC3FeH8NHCSHCNC2HCH3C5HC2H4CH4CH6NH4CH5CH3SH3S2H3C2H2C2HCHC2H2CH4CHCH3CH2CNCH4C3H3CH3FeH3CH3CHC5H2CHC2H7CH5CH4CH2CH5CH2CH8CHCH2CH7NHFeHFeH2FeC2H3C2H2C2HCH3SH3NH2CH2SC4HSHFeSH2C2FeS2HC3SFeS2FeS2FeSFeS3FeS2FeS2FeSFeS3FeSFeS2FeSFeS3FeSFeS3CFeSH2S2FeSCSHCHCH2C2H3C5H4C7H4C6HCH2C6H6CH4C6H5C5H4CHFeC6H5CSH4C7H4C5H3CH7CH2CHCSNCHCH3C3H6CH6SHCHCH5CHSH2CHNCHC2HC2FeCHC2H11CH2CHCH4CH8C2H2CH2SHC2HCSNH2CH3C2H3CH2CHCH2SFeH4CHFeH3SH3FeH2CHSHCHCHC2H5CHNC9HC2H16C2H2CH7NC12H28NCHC2HC5H8C2H3SCHNCH4C4H2CHNSC3H2CH3C3H4CNH6CH2CHCH7FeH6C3H3C2H2CH5C2H2C2FeCHSH2C2H6SC2H2CHCH2CH3C2H3CH3CH2NH3SC2FeH5C2HCHCH4SH6CH6C2H2NH2C2HCH3FeHCH3CH2CHC2SH5C2H5C2H2C2H2SCHCH2CHSHNH4FeH10CHCHCH2CHC2H2CFeH5FeCNHC2HCHCSCHSCHNHCHCHC2HC2FeHC2FeSHNHS2H2CSFe2S2FeS2FeSFeS3FeSFeSHFeSFeS3H3SH3CH3CHSHC2H2CHCH3CH2C6HC2HCH2CNC6H4C6H4C2H2C2H5C3H3C6H6CH4CH2C3H4CH5CH6CH3CH2C3SCH11CH9CHCHCH5CH11C2NH3CHCH4SH2C2SC3H3C4NH7CNC2HCH2C3HCH11SH2CHC2H7C2HFeNH4CH4CH3C3HCHCH4CHNC4HC2NC3H6C2H2C3H2C2H3FeHC2H4CHCH3CHC2HC2HCHCSHCH4CH3FeHCH2C3HSCH6CH5C2H2SH2CS2HC3H3CH2SHSFeS2FeS2FeSFeS3CH2SCH3SH2FeS2FeS2Fe2S3C7H5C6H4C6H4C3H2C2HCHC2H8C6H4C6H5CH2CH2CH5CH8SCH4CH3C2FeH2CH2CHSH3C2HCH7SHC3HCH3NHCH6C2HCH5C5H3CHFeH3CH4C2HCH2C2H6NC12H30C2H4N2HCH4C2H4CHCHNSCH3CNH5CHCH3CH2CHC2HC2H2CHCH3CH3C2H2CHCSHC2FeCH3CHCHCNH5NCH2C2HFeH5CH2C2HC4H2CHCH2CH2CH2CH2C2HSH2C2HC2HFeH3C2H3CH6FeSCFeS2FeSFeS3FeS2FeSCFeSFeS3H2CHC3H2FeSHSFeSH2FeSFeS2FeS2CSHFeSFeS3C2SH3C6H5C6H9C2HC2H2C2H2CHSHC6H5C5HC2H4C6H7C2H3CHC8H4C3H4CH7CHCH4CHFeHCSH10CH4CH6CH10CHFeCSH2CH2NC7NHC2H3SH10CHCH5C2HC2H7NC11H14CH2CHCH8C2HNC3H2C3H3CH8CH2CH6C3H7FeH2C2HC3H2C3H6SHC2H3CH4NHNCH6CSCH3CH2CH2C2H2CHCH5CHCNHCHC2H2C2HCH7CH2CH2CH3SCHCHCHSNH2C2H2CH6CHC2HCHCH3CH3CH2CH2CH3SH5CSCH4CH4CH2C2HCH2CHCH2SHCH8C2H4C2H2CHSC2SH4SHCH2SHFeC3H4NSCH3C7H3CHC5H2CHCHC2SFeCFeH9C4H4SCH7NH2CFeHFeHCHSHFeHC2HC3H2SH2C2H6SCH4FeC2HC2H6C2H2NS2H2CSCH4CSCHCHSHSHFeH2CSCH2CSH2CH3FeCHFeHC2SHCHC3HCH4C2H3CH6C4H2CHCH2CSH3CH5CSCFeH3CH2CH4CSC2FeSH5FeS2H3FeSCHSH10SHSH3FeS2FeS2FeSFeS3FeS2FeS2FeSFeS3FeS2FeHSCFeS3HCSFeHSH3SCH3C6H4C6H4C5H2C6H4C6H4C6H4C5H3CH2C3H2C6H4CHSH3C8H4CH3CH3C2HC5H4CHC5H6SNC12H32C2H2NHC3H3C3HSH7C2HCH4CHFeH4CH2CH3CHCH4CH2C2H3CH6CHCH2CHCHCH8C2H7C3NH3SC2HNC12H18SH7CHNC4FeCH3CH7CH4CH2CH3CH3C2HC2H7CH3CH4C2H4C4H8CHCNH3CH3CHCHCHCFeH2CH3CHCHC3HSCHCH3CH3CH2SCHNCH5CH3CNHCNSC2H2CH6SCH2SCHCHFeC3H11CH3C2HC3H2SH3C2H7C3H7C3H2CH4CH2CH3CNCHC2NC2SCH3CH4CH6CSH3C2H3FeHCH3CHC2H2FeNH2SHCHC2HFeH4CH2SHCH2NFeH4CHCH4CHCH2CHCNH6NH6SCHCHCHSFeS2FeS2FeSFeS4HSCHSHCFeSHSFeCSCHCH2SFeSFeS2FeSFeS4FeS2CSFeCFeSH2FeSHFeS2FeS2FeSFeS3C7H5C6H3C6H4SC6H2CHC6H3C6H5CH4SC5H2C5H3CSC6H4C6H4C6H3C3H2C6H4NC7HCH16CH2CH2C2HCHCH10SH2SHCH2CH5CH4CNC3SHFeCHCH2CH7CH2CH5CH3C2H6CSCH2CH5NH8CHCH4NCH4C4HCH5CH5C3HFeH8C2H2CH2CHCH2CHCH2CFeH2C2HSCHCHC2HCH10C2HCHCHCHFeH4SH13NC9H9C2H11CHNC2H10C2HSHC3H4CH2SH2C3H2CSCHC2HFeH2SH2SHCH2SCFeH5SHCH3CHCH2NSHFeCH3SCH3CFe2H3CHC3H2CH5SC3HSH2CHFeCHNH2C6H2CH3CHCH3CFeCH2CH3C3HSHFeH3C3H4CH3C2H3CHSH5CH2CH2CH4CH4CH2FeC2H4CH2CHC2SNC2H2C2HCHC3HCH4CHCSCHCH3CH2CHSHC2SHC2H3CH2CHC2H3CSCHNCH2C2HCH2CH4CH6CHNC2HC2H3NCHNH3CHCHC2H3C2H4CSH3FeCH5CHCH7CH4FeH3CHCH5C2NH2C2H4SCHCNH5SHCHNHCH2CH2CH8CH4NHCH6CH7CFe2HSFeSHSFeS2FeSHFeS3H3SH2CHCSFeSC2FeS2FeS2FeCFeHS2C6H5FeHC2H6CH2CH3CHC6H4C3H3C6H4C6H2SHC2H3C2H2CH7CH2CH5SH4CH5CH7NHCNH6SH2CHCH4CHC2HCH4C2H3NC2HC3HC3HCH3CH3CH4CH9CHCH3SCH4FeH3NHCH5CH4CH2C2HCH2CH3C3HCH6CHCHC2H4CSC2HC2HFeHCH5Fe2HCHCHSH9C2H2C2H3CSCHCHCHSCH3CH2CH4NH3CH2SH3CHCH2C2H2C2H5CSHC2H2CH2SFeS3CFeSHC2SHSHFeSFeHSCHS2FeSFeSFeS2FeS2FeSFeHS2H7FeCH2C2H3CHCH5FeHC7H6CH4SC6H4C6H4CHCHC2HCHC6H4C2HC3H4SH3C2H3NHFeH2NC2H3FeH3SH3CHCH5C2H2CH3CH10CHCHC2HCH4CHC8H2C2H3CHCHCH3C2H6CHCH3NC11H15SCHSHCH3CSHC2H6CHC2H4C2HCH4C2HCNSCH3FeH3NH5CHCH3CH3CHSNH5CHSH3CH2CH2CHC2HCHSH8CFeHCHC2H3CHCHCHNH2CHCNC2H2C2H2C2H2C3H3C2H4SH3CFeSHFeS2HCFeS3FeS2H2C3FeS3H5CHC3FeSHFeS2FeSFeS3FeSHFeS2FeSCSHSH4CNH3CH2CFeCHC6H4C6H4C5H5CHSC3HC2H2CH2FeH3CFeH2C6H4C6H2CH3CH3CH5NC4H2C4HCH8CH12C2H5SH8C3HCHC3FeCHNH2C2H2CHSH3CH2CHC2H6CHC2HCHCH3CH2NSCHSH4SCHCH2CH7C2HCH4FeCH3CH5CH2C3HNHCFeHSHCH15CH5CHCHNC9HCH8S2H10CHC2H2C3H3CH2CHFeHCHC2H2CH5C2SHNC12H25CH2CH4SNH2SNCHCHCHCH2C3H3CH2C3H6CH2CHC2H6CH2CH2FeC2H5CSCH4CH3CHCH5CHC2HCH2CH9FeS2FeS2FeSFeS3FeS2FeS2FeSFeS3FeS2FeS2FeSFeS3NSCSFeS2CFeSHFeH2SFeSFeS3FeSHFeS2FeSFeS2H2CHCSFeH2CH2SC7H5C2HC2H2C2HCHCHCHCHC6H5NH2C6H7C4HCHCHC7H4C6H2C6H4C6H4C6H4C5H3CNC7H18CHNCHCH4CFeH7CH4SHCH9C4HCH13CH3CSHCHCH2CH2CH3CHCH14CFeH2C4H2CH2CH2NH2C2HC2H3CH2C2HCH2C2HCH2CH4NH3CHCHCH10CH2C4H3CHC2H3FeSH6CHCH2C2H6C3HFeCH6C2H11CH2CH4CHCSH3SCHNC7H10NH6C2H3C3HCH2NH2CHCH2CH2CH2FeCHC2HC4H3CH10CNH2CH2CHCH3CH2CH2C2H6SCHC2H3CH8C2HC2H2SC3H3SNC12H28CHFeHCH2SCH3C2H2NCH2C3H3CH3CS2HCHCH8CH2CHCH3CHCH3C2HNCH4CH2CH3SH2CH2CH7FeSHFeSFeSFeS3FeS2FeS2FeSFeS3HSFeSFeSHCSH2SHC2HCNHFeH2SHCHCH3SH4CH2C2H2C6H2CHC6H5CHC3H4C3H2C7H6C2H3C6H4NH4CH2CH4C2FeCH5CH3CH4CH3C2NH6CH2C2H3CH4CHCH5SHCHCHCN2CSC2HC2H2C3H3SH5CH5NH4C2H10CH3C4H2CHC3HCHCHNCH3C2H2FeH3CHCH4C2H2CHCH5SH5CH3SFeCH2FeHCHCHSHSC2HCH3C2HC5H2C2H2CH4CH2C2HCHCHSH2CH4CHSCH8CH2SCHSHSCH2CH2FeH2CHCSH7CHCFeS2FeS2FeSFeS3CHSHCH5SFeHSFeS2FeSCS3FeS2FeS2FeSFeS4FeS2FeH4CHS2FeS2FeS2FeSFeS3H2CH2CSH2C7H6C7H4C3H2C6H4C6SH7C7H5C4H3S2CH4CHC6H3C6H4C6H4C3H2C6H4NC2HC3H4CH8CH7NC4HCH2SHCHCH2NC6H4CH13CHCH3C3SHCH5CH11CH2CHC3HC3HFeHCH2C2HFeH4C2HCH2CH2CSCHCHCFeH3CHNH3CHCH3CH8CH3CH4CNH2CH3CHCH4NHC6H9CH4C2H2CHC2HCH4CH4NC12H27NCHC2HC2SH2C2H7CSH3CHC2H3CHSH7NC12H25NC9H20NC6HC4FeH12FeH14C2NCHFeH2CH4NCH5NSH3C2H3C2HC5H5SH4CNH2CHCHCH2FeSC2H3FeC2H4C2H2CH2CSC2FeSHCHC2H2CH7CSH6CH6CH2CH3NCSH2CH3CHCHC2H2CSH2CH2SCH3CH5NCH2C2HCH4C4NH3CH2CH7SH4FeC6H2C5H9CH2CH5CH5FeCHSC3H3CH2CFeS2FeS2FeSFeS3H2SC2SFeSHFeSFeS2NHCSFeHSCH3SH4CHCH2CHFeH2CHCH3C2H2NCHC3H6C3H2CHSHC6H4C6H4C3HCH3CHC6H8CH4C2HCH5CHSC3HC2HFeCH2CH3CH2CNHFeSCH2CHCH2CH12CH2CH7NC8H22C2H3CHS2H2C2HC3HC2HFeHC2H2CH5CH3FeHSFeC2NC3H4C4H10C5HNCHCH2CH5C2HCHC2H2SH2SCHCHCH2FeCH3SC2HC4HC2H3CH4CH2CH2C2S2H4CH2SH2C2H3CNHCHC3NCH7CH5SHC2H2SCH2SH2SHCH4CSCHC2S2C5H2CHC2H2C2SHC3HFeH2CFeHCH5SH4CH4FeSCHSHSFeHC2HNFeH5CH2SH2CHCH2SHC4NH3NHCH3CHCHNH2CHCH3C3H2C2H6CH2CHCH3SHCH3C2H2SH3C2FeHC2HSHC3H2C2H2CH4C2H3FeCH2CH8CH3CH2CH12CH2CH2CH2Fe2S2H2FeSHS4HFeS2FeS2FeSFeS3FeS2FeS2Fe3S3CHCH6C2FeS2FeSFeSFeS5FeS2FeHFeSC8H4CH4C6H4C3H7C3H3C3H2C6H4C6H4C6H5C6H4CH7SHC6H4C4H4CHFeC3H10NCH9CH3CH2C2H2NC6H12NC12H24CH3NHCSC2HC4HC2H3C2H4CH12FeH2FeHCHCFeH2NC2HCHSHCNCHC2H4NSH4C3H4NCHC5H2C3HFeH7SH12CH6CHCH2NC12H18CH3SH5CH6CH2CSHC2SFeH7CH2CH3SCH2C3HSNHCH2C2HC4H5CHCH5CH3CNSC8H7NC10H25CH3CH2CH2S3CH3CHCHC4HSH2CH2SCHCH4FeHS2C2H2CH3CH10CH4CH2CHCH2CSHCHCHC2HCNHCHCH3CSH2C3H7FeCSCH7C2HCH2CH2CH2SHC2HC3H4FeH2C3HCH7CH2CFeC2H4C2SH7CH2SHCH2C2HC2HFeS2FeS2FeSFeS3FeS2FeS2FeSFeS3CSHSHFe2S2HFeSFeS2FeSFeS3FeS2HCFeH3CH4S2H2CHNCH3C6H4C2NHCH2CH2CHCH2C7H5C6H4C3H3C6H5C5H4C6H4C3H5C3H5CH6CH4C2HCH2CFeSHCH5CNC12H32CH3C2H2SHCHCHCHC3H2CH3SH2CH5C3HCHCH4CNH3CHCNC12H22FeH5C4H9FeCH2CH2NHCHCHC2H5CH2C3H5C2NH2CH3C2HCSCNHNCH3CHCHCH3CH2SCHCHCH4CH6CH3C2HC2H2C3HCSHSHSCH2CH2CH4CSC4H3CNH2CH4CHFeHC2HCSCH4CH3CHCH2SH2C3HCHCH6CH3SCHC2H2CHCSH2C2H4CH4CH10CHC3H4CFeH6SCHCSHCHCHCH5C3HC2HCH7C3NH2CH2C2H4CH4C3HCSH2FeCH2FeCH5C2SHC2SH17C3FeCSHCH2CH3CHC2H7C3H4CHCH2C3H3FeH3C2HCHSC2HNHC2H3SFeCH2FeH4C2FeS2FeSHFeSFeS3FeS2FeS2FeSFeHS3HSH2CH5C6H4C6H3C2H4C2H2C6H4C5H5FeHC2H6CHSCH2CFeSH2NHCH4CFeHSHCHCH4C2H8SCH2CH3CH3SH4C2H2CH2CSHCHCHCHC2H8SHC2H8NH4NH2SCFeCH4CH2C3H4CH3CHCHNC9HSCH4SH3CH3CH2CH3C2H3FeHFeHCHCH10C4HFeC3H2CH6C2H3CHC2H5S2C2NHSC2H5C2H2C2HC2H3CHCHSH2FeS2CHCFeHFeSHSH2CSHC2HCH5FeH5CH4FeH3C2H2CHCHC6H4C2H5NHCH3C6H5SC2H4CH2CH3C2H2SC2H3CHS2CFeH2CH3NCH3SH2CHCSHCHC2H4CH2CHNH3CHCH4CHCSCHC2HNH6CFeH4CHCHC2HC2H3SC3H2CH5CH4SH4C2H9CH3C2NC2FeS2CH2CH2FeS2HCHFeSH2SCHCHSH2SHFeSFeSH4CHCH2CHFeHSCHC3H4FeS2H2CFeH3S2H2FeHSCH5C2SNH5C3HC2H2C3H2SCFeCSCH2CH6C3HFeC6H4CS2H3NCH6C6H4C6H4CHCH3CHC5HCHC2H4CHCHC2H2CHCH3C2H2C3H4CHSCHFeH4C2NCFeH8CH3C2H6CH10CHCH6CH4CH4CH7CHSHC2H3CH6CHSH4CSH5CH2CSH2CHCH2CFeH4C2H4SFeSNS2HCFeHSC2H2CHSH2C2HCH2CH4CH3FeHCHC2SHCH3C2HCH2C6H4C4HC6H3SHCH2SCHNSHCNH6NC2H5FeCHFeH2CH2C2NC4HC5HFeHCH5CH2CHSH3FeH11CH2CH2CHNCH2CH2FeCHCH2C2H3CH2FeHC3H2C2HC3H9SH2CSH4CHCSHCH2CH3C2H2C3H2CH2CHSHSH3SH2CSFeSCSHCHC2H2CHC3H5C2NH3CH3CH4C2HCHC2HCH2CH3CH4CH4CH3CH4C2HCHCH5C2H13CHSCHS4FeSH6FeS2FeS2FeSFeS3HFeS2FeS2FeSFeS3C2SHFeSHFeSFeSHSHCH5CHCFeS2FeS2FeSFeS2H2SC6H7CH6CH2CH2FeH3C6H4CHC5FeH2C6H4C6H4C6H4CH2C2FeCH3C4HCHNCH6C2HCHC6H3FeC2H3C4HCH2CSH3CH5CNCH3CHCH2SH2CH3C4H2CFeH2NC12H28NC12H18CH8CH2C2H2C3HCH2CH3CHCH4C2HSFeSHFeC2H2CHNH2CH2SHCH2C2H8C3HSH3CNH2C2H3NC11H28SH3C3NC6HC3H15CHCH6C2HFeC2H3S2CH6C2H5CNHCH4CH2CHCH5CFeH4NC2HSCH7CSFeH2C2HCHCH2CH2CH6CHC3H9CHCH4CH3C2HCNCH5C2HS2C3H3SH4C2SCHC3N2H5CHCH2C2H5CHSHC3H2CH5C2H2CH4CH2CH2C3SH3C2H2SC2H2CH4FeH6C2H2SHCHC4HS2C2HCHC2S2CH2CHNHCH2CFeCH13CH4CSHCH3CH6SH3C2FeCH2SHCHSH2SCNH2SCHSHSCFe2CSC2HSCFeS2FeS2FeSFeS3FeS2FeS2FeSFeS3HC2HCHSHCHCH5CH2C6H6SCHCH4C6H3SH2SH6C6H5C2H3CH4C8H3CSC3H6CHC6H7CFeCH5C4NHC4HC4SCHCH6CH2CH7SNCH2CH3C2H2C2HCH2CH8C2H2SH4CH2C3H5CH2CH3CH2CHCHCH3CHCHCH3CFeNC10FeCH22C2H4NC5H2C4NSH5C2H4FeCH3CHC2H6CHNC12H31C2H4SHCHCH4C2FeH2C2HCH2CH10CHNH2FeH6NC9HC2H20CH4FeH3C2H2CHC3H3CH7CHCHC2H5SCH2C2H4NH2CSH2CHSHC3H2CHCHCH7C2H2CHC2HCHC4HSCHCSH2FeCHCH3CHCSHCHFeS2FeS2FeSFeCS2CH3CSCHSHSHC3HCHC2H2CHC6H4C2H2NH4C4H3FeH2C5H2CSHC5NH2CHC3H2C2H3C2HCHCH2SH19C2H5CH2SNC2H2CH4CHC2H3CH7NH2C3HCHCHC2H4CH3SH2CH3CHNCHCHC5HCH4CHNHNCH2NCH2CH4CHCH5FeH4C2HCHSCHCHSHC2H2SHFeCH3CH7CH2C3HC3H3CH10CHC2H2C2H3SCFeH4
_chemical_formula_sum              "H9216 Fe576 S1152 C5184 N288"
_cell_length_a       98.0044
_cell_length_b       99.4169
_cell_length_c       99.7776
_cell_angle_alpha    73.5853
_cell_angle_beta     73.5657
_cell_angle_gamma    73.6663

_space_group_name_H-M_alt    "P 1"
_space_group_IT_number       1

loop_
  _space_group_symop_operation_xyz
  'x, y, z'

loop_
  _atom_site_type_symbol
  _atom_site_label
  _atom_site_symmetry_multiplicity
  _atom_site_fract_x
  _atom_site_fract_y
  _atom_site_fract_z
  _atom_site_occupancy
  H   H1        1.0  0.46509  0.11442  0.09627  1.0000
  Fe  Fe1       1.0  0.46325  0.17493  0.12863  1.0000
  S   S1        1.0  0.47221  0.19477  0.11917  1.0000
  S   S2        1.0  0.47267  0.15452  0.12089  1.0000
  Fe  Fe2       1.0  0.44169  0.18706  0.15287  1.0000
  S   S3        1.0  0.44852  0.20816  0.14561  1.0000
  S   S4        1.0  0.42481  0.18088  0.17266  1.0000
  Fe  Fe3       1.0  0.44873  0.20646  0.12350  1.0000
  S   S5        1.0  0.44161  0.22591  0.10668  1.0000
  Fe  Fe4       1.0  0.47133  0.19482  0.14181  1.0000
  C   C1        1.0  0.44845  0.14185  0.18857  1.0000
  S   S6        1.0  0.43982  0.18644  0.13112  1.0000
  S   S7        1.0  0.46439  0.17388  0.15090  1.0000
  C   C2        1.0  0.41432  0.10035  0.21712  1.0000
  H   H2        1.0  0.46154  0.03407  0.19428  1.0000
  H   H3        1.0  0.43572  0.20880  0.02091  1.0000
  C   C3        1.0  0.42585  0.20395  0.07879  1.0000
  C   C4        1.0  0.46455  0.14421  0.00046  1.0000
  H   H4        1.0  0.46297  0.21791  0.00481  1.0000
  C   C5        1.0  0.43938  0.13266  0.18998  1.0000
  H   H5        1.0  0.48832  0.19631  0.08790  1.0000
  H   H6        1.0  0.48356  0.08811  0.14910  1.0000
  C   C6        1.0  0.40767  0.10863  0.22905  1.0000
  H   H7        1.0  0.48190  0.06435  0.09799  1.0000
  H   H8        1.0  0.46576  0.07023  0.14269  1.0000
  H   H9        1.0  0.44076  0.19926  0.05157  1.0000
  C   C7        1.0  0.49580  0.06386  0.17620  1.0000
  Fe  Fe5       1.0  0.48763  0.10740  0.21855  1.0000
  H   H10       1.0  0.44895  0.19377  0.07700  1.0000
  C   C8        1.0  0.46522  0.13116  0.15697  1.0000
  H   H11       1.0  0.43925  0.21789  0.06328  1.0000
  C   C9        1.0  0.49918  0.05473  0.20051  1.0000
  H   H12       1.0  0.47651  0.12556  0.11712  1.0000
  H   H13       1.0  0.48458  0.14298  0.18605  1.0000
  C   C10       1.0  0.46841  0.03878  0.19805  1.0000
  H   H14       1.0  0.48028  0.08317  0.12110  1.0000
  H   H15       1.0  0.49347  0.16656  0.12567  1.0000
  H   H16       1.0  0.48137  0.02959  0.22775  1.0000
  H   H17       1.0  0.47279  0.16950  0.18304  1.0000
  H   H18       1.0  0.39662  0.11475  0.22762  1.0000
  H   H19       1.0  0.49648  0.05622  0.10741  1.0000
  H   H20       1.0  0.41477  0.20739  0.05099  1.0000
  C   C11       1.0  0.39426  0.23688  0.10263  1.0000
  C   C12       1.0  0.42355  0.22982  0.10473  1.0000
  H   H21       1.0  0.48881  0.15833  0.16254  1.0000
  C   C13       1.0  0.43911  0.19651  0.08541  1.0000
  H   H22       1.0  0.49691  0.02936  0.10645  1.0000
  C   C14       1.0  0.40061  0.22286  0.10890  1.0000
  C   C15       1.0  0.41526  0.21933  0.10986  1.0000
  H   H23       1.0  0.48816  0.12469  0.13537  1.0000
  C   C16       1.0  0.42760  0.21878  0.06878  1.0000
  H   H24       1.0  0.39416  0.21476  0.11312  1.0000
  H   H25       1.0  0.42015  0.20849  0.11463  1.0000
  S   S8        1.0  0.48976  0.19722  0.14960  1.0000
  H   H26       1.0  0.46071  0.12748  0.13868  1.0000
  C   C17       1.0  0.49627  0.14991  0.08176  1.0000
  H   H27       1.0  0.37530  0.21786  0.07055  1.0000
  H   H28       1.0  0.49455  0.07466  0.09770  1.0000
  H   H29       1.0  0.48323  0.10240  0.03488  1.0000
  C   C18       1.0  0.40228  0.22518  0.06650  1.0000
  H   H30       1.0  0.48804  0.09934  0.10332  1.0000
  C   C19       1.0  0.44396  0.15671  0.18333  1.0000
  C   C20       1.0  0.43028  0.16242  0.17985  1.0000
  C   C21       1.0  0.42105  0.15326  0.18173  1.0000
  C   C22       1.0  0.42569  0.13840  0.18655  1.0000
  H   H31       1.0  0.45103  0.16380  0.18204  1.0000
  H   H32       1.0  0.41052  0.15760  0.17897  1.0000
  H   H33       1.0  0.41868  0.13133  0.18754  1.0000
  H   H34       1.0  0.47197  0.15697  0.01044  1.0000
  C   C23       1.0  0.47796  0.11377  0.11858  1.0000
  C   C24       1.0  0.47523  0.17142  0.09368  1.0000
  C   C25       1.0  0.48001  0.15816  0.10247  1.0000
  H   H35       1.0  0.42415  0.22965  0.13441  1.0000
  H   H36       1.0  0.43255  0.19243  0.03375  1.0000
  H   H37       1.0  0.44619  0.23096  0.00870  1.0000
  H   H38       1.0  0.46697  0.17969  0.09827  1.0000
  H   H39       1.0  0.47827  0.03050  0.20037  1.0000
  H   H40       1.0  0.41763  0.22273  0.03721  1.0000
  H   H41       1.0  0.44122  0.20356  0.09114  1.0000
  H   H42       1.0  0.47204  0.04767  0.18932  1.0000
  H   H43       1.0  0.42426  0.19667  0.07302  1.0000
  H   H44       1.0  0.45080  0.19545  0.02692  1.0000
  H   H45       1.0  0.48981  0.07147  0.16866  1.0000
  H   H46       1.0  0.50141  0.01308  0.11940  1.0000
  H   H47       1.0  0.47882  0.11537  0.99750  1.0000
  H   H48       1.0  0.46122  0.11238  0.15373  1.0000
  H   H49       1.0  0.49835  0.04943  0.06249  1.0000
  S   S9        1.0  0.48530  0.09765  0.20184  1.0000
  H   H50       1.0  0.49514  0.11461  0.03061  1.0000
  H   H51       1.0  0.49954  0.14645  0.19062  1.0000
  H   H52       1.0  0.50142  0.19623  0.09738  1.0000
  C   C26       1.0  0.43732  0.20789  0.04257  1.0000
  C   C27       1.0  0.43917  0.20073  0.03028  1.0000
  C   C28       1.0  0.37810  0.15338  0.22524  1.0000
  Fe  Fe6       1.0  0.46134  0.10568  0.20948  1.0000
  H   H53       1.0  0.43712  0.18642  0.09322  1.0000
  S   S10       1.0  0.45859  0.08536  0.22584  1.0000
  H   H54       1.0  0.45452  0.15257  0.99887  1.0000
  C   C29       1.0  0.37537  0.22948  0.06669  1.0000
  H   H55       1.0  0.49990  0.10033  0.02122  1.0000
  C   C30       1.0  0.49177  0.16318  0.07292  1.0000
  H   H56       1.0  0.46805  0.09505  0.14169  1.0000
  C   C31       1.0  0.39429  0.14742  0.22519  1.0000
  C   C32       1.0  0.39186  0.20449  0.14917  1.0000
  C   C33       1.0  0.48300  0.11528  0.14078  1.0000
  H   H57       1.0  0.36701  0.23466  0.06016  1.0000
  H   H58       1.0  0.40751  0.09280  0.21795  1.0000
  H   H59       1.0  0.49868  0.14460  0.14546  1.0000
  H   H60       1.0  0.49191  0.07659  0.04583  1.0000
  H   H61       1.0  0.44396  0.15859  0.21209  1.0000
  H   H62       1.0  0.42213  0.14918  0.21584  1.0000
  H   H63       1.0  0.42550  0.09406  0.21797  1.0000
  H   H64       1.0  0.45093  0.05372  0.20821  1.0000
  C   C34       1.0  0.42123  0.21589  0.04711  1.0000
  H   H65       1.0  0.41613  0.20542  0.08768  1.0000
  H   H66       1.0  0.48151  0.05808  0.13484  1.0000
  N   N1        1.0  0.48592  0.10563  0.13052  1.0000
  H   H67       1.0  0.49648  0.07579  0.12839  1.0000
  S   S11       1.0  0.46368  0.11709  0.22485  1.0000
  C   C35       1.0  0.50221  0.10214  0.12466  1.0000
  S   S12       1.0  0.49997  0.16646  0.05462  1.0000
  C   C36       1.0  0.49962  0.19734  0.08662  1.0000
  H   H68       1.0  0.47229  0.13037  0.09233  1.0000
  H   H69       1.0  0.47122  0.13985  0.15134  1.0000
  C   C37       1.0  0.48448  0.07979  0.13099  1.0000
  C   C38       1.0  0.48116  0.16416  0.18950  1.0000
  H   H70       1.0  0.45001  0.22287  0.99356  1.0000
  H   H71       1.0  0.47768  0.18425  0.07204  1.0000
  H   H72       1.0  0.48880  0.07219  0.07063  1.0000
  C   C39       1.0  0.45982  0.04456  0.21139  1.0000
  H   H73       1.0  0.45354  0.13626  0.16031  1.0000
  C   C40       1.0  0.48518  0.11089  0.10336  1.0000
  H   H74       1.0  0.42981  0.05136  0.23198  1.0000
  H   H75       1.0  0.47913  0.13781  0.01524  1.0000
  H   H76       1.0  0.49853  0.99333  0.14114  1.0000
  H   H77       1.0  0.41869  0.12574  0.21766  1.0000
  C   C41       1.0  0.48116  0.17394  0.07886  1.0000
  C   C42       1.0  0.40002  0.19022  0.14500  1.0000
  H   H78       1.0  0.49475  0.13750  0.10333  1.0000
  H   H79       1.0  0.49411  0.21067  0.11940  1.0000
  C   C43       1.0  0.46671  0.12122  0.14719  1.0000
  C   C44       1.0  0.41724  0.11888  0.22861  1.0000
  C   C45       1.0  0.42975  0.14367  0.22299  1.0000
  H   H80       1.0  0.39962  0.23135  0.07501  1.0000
  C   C46       1.0  0.39034  0.23161  0.05758  1.0000
  C   C47       1.0  0.48017  0.09235  0.13871  1.0000
  H   H81       1.0  0.45903  0.13749  0.19123  1.0000
  H   H82       1.0  0.50069  0.20820  0.08001  1.0000
  S   S13       1.0  0.49400  0.05582  0.21848  1.0000
  C   C48       1.0  0.49067  0.14753  0.09653  1.0000
  H   H83       1.0  0.49751  0.12768  0.16764  1.0000
  H   H84       1.0  0.44276  0.23784  0.04850  1.0000
  C   C49       1.0  0.47520  0.11861  0.09291  1.0000
  H   H85       1.0  0.43718  0.23808  0.03255  1.0000
  H   H86       1.0  0.48757  0.17203  0.18885  1.0000
  H   H87       1.0  0.39276  0.22660  0.04830  1.0000
  H   H88       1.0  0.37238  0.23451  0.07604  1.0000
  H   H89       1.0  0.42839  0.11229  0.22941  1.0000
  C   C50       1.0  0.47786  0.06711  0.14042  1.0000
  Fe  Fe7       1.0  0.48277  0.07848  0.21987  1.0000
  N   N2        1.0  0.41786  0.22478  0.05818  1.0000
  C   C51       1.0  0.49482  0.10326  0.03176  1.0000
  H   H90       1.0  0.43768  0.13507  0.21808  1.0000
  H   H91       1.0  0.39209  0.18392  0.14551  1.0000
  H   H92       1.0  0.40669  0.19209  0.13389  1.0000
  H   H93       1.0  0.40721  0.18377  0.15244  1.0000
  H   H94       1.0  0.41019  0.20688  0.15592  1.0000
  H   H95       1.0  0.48097  0.11680  0.08203  1.0000
  H   H96       1.0  0.50190  0.16527  0.16593  1.0000
  H   H97       1.0  0.40964  0.21497  0.13804  1.0000
  H   H98       1.0  0.46716  0.04883  0.21497  1.0000
  H   H99       1.0  0.46664  0.11207  0.12149  1.0000
  H   H100      1.0  0.38483  0.21026  0.14143  1.0000
  H   H101      1.0  0.39512  0.20427  0.17775  1.0000
  H   H102      1.0  0.46941  0.12498  0.16670  1.0000
  S   S14       1.0  0.44489  0.11395  0.19565  1.0000
  H   H103      1.0  0.43059  0.16366  0.22743  1.0000
  H   H104      1.0  0.39908  0.15675  0.22373  1.0000
  H   H105      1.0  0.44502  0.21511  0.03911  1.0000
  C   C52       1.0  0.46935  0.14624  0.01295  1.0000
  H   H106      1.0  0.46158  0.13365  0.00368  1.0000
  H   H107      1.0  0.40078  0.21416  0.07219  1.0000
  C   C53       1.0  0.49121  0.15105  0.18409  1.0000
  H   H108      1.0  0.47754  0.09155  0.99567  1.0000
  H   H109      1.0  0.47558  0.16076  0.20086  1.0000
  C   C54       1.0  0.43816  0.15442  0.22317  1.0000
  H   H110      1.0  0.49757  0.09710  0.05329  1.0000
  H   H111      1.0  0.38478  0.20198  0.15997  1.0000
  C   C55       1.0  0.41903  0.24014  0.05115  1.0000
  H   H112      1.0  0.48799  0.10955  0.15014  1.0000
  H   H113      1.0  0.42559  0.22638  0.07584  1.0000
  C   C56       1.0  0.49345  0.06387  0.09764  1.0000
  H   H114      1.0  0.49535  0.11500  0.09904  1.0000
  H   H115      1.0  0.48234  0.07279  0.19412  1.0000
  H   H116      1.0  0.46043  0.14540  0.02272  1.0000
  H   H117      1.0  0.46106  0.02241  0.22315  1.0000
  C   C57       1.0  0.46248  0.23896  0.99047  1.0000
  C   C58       1.0  0.45320  0.03285  0.22346  1.0000
  H   H118      1.0  0.44361  0.03163  0.22036  1.0000
  H   H119      1.0  0.41484  0.10786  0.20645  1.0000
  H   H120      1.0  0.39922  0.14239  0.21583  1.0000
  C   C59       1.0  0.45493  0.22695  0.99997  1.0000
  H   H121      1.0  0.44640  0.14918  0.22982  1.0000
  H   H122      1.0  0.37271  0.14461  0.22617  1.0000
  C   C60       1.0  0.40257  0.21353  0.14893  1.0000
  H   H123      1.0  0.48147  0.06327  0.15071  1.0000
  H   H124      1.0  0.37689  0.16132  0.21504  1.0000
  C   C61       1.0  0.49162  0.06467  0.19062  1.0000
  H   H125      1.0  0.44460  0.05904  0.23079  1.0000
  C   C62       1.0  0.49813  0.15514  0.16786  1.0000
  H   H126      1.0  0.37259  0.15885  0.23427  1.0000
  H   H127      1.0  0.50123  0.05354  0.03734  1.0000
  C   C63       1.0  0.50061  0.07029  0.07046  1.0000
  H   H128      1.0  0.38492  0.20674  0.20255  1.0000
  C   C64       1.0  0.39155  0.21528  0.17975  1.0000
  S   S15       1.0  0.48686  0.08758  0.23608  1.0000
  H   H129      1.0  0.50134  0.04846  0.08447  1.0000
  H   H130      1.0  0.41463  0.22676  0.16047  1.0000
  H   H131      1.0  0.40103  0.21822  0.18130  1.0000
  H   H132      1.0  0.37054  0.21137  0.19301  1.0000
  H   H133      1.0  0.50227  0.08045  0.07172  1.0000
  C   C65       1.0  0.38013  0.21471  0.19385  1.0000
  N   N3        1.0  0.39565  0.22792  0.15283  1.0000
  H   H134      1.0  0.39417  0.23725  0.13076  1.0000
  H   H135      1.0  0.46383  0.11640  0.98966  1.0000
  C   C66       1.0  0.47583  0.11456  0.98787  1.0000
  S   S16       1.0  0.37566  0.24133  0.10247  1.0000
  C   C67       1.0  0.50307  0.09353  0.04315  1.0000
  C   C68       1.0  0.38525  0.22630  0.16728  1.0000
  H   H136      1.0  0.43534  0.23921  0.14856  1.0000
  C   C69       1.0  0.40754  0.23451  0.15342  1.0000
  H   H137      1.0  0.37651  0.22536  0.19674  1.0000
  H   H138      1.0  0.37530  0.22335  0.16673  1.0000
  H   H139      1.0  0.48742  0.14022  0.98921  1.0000
  H   H140      1.0  0.37789  0.23290  0.14206  1.0000
  C   C70       1.0  0.41796  0.23916  0.13887  1.0000
  H   H141      1.0  0.38124  0.23679  0.17055  1.0000
  C   C71       1.0  0.38727  0.23730  0.14170  1.0000
  C   C72       1.0  0.43859  0.05056  0.23744  1.0000
  H   H142      1.0  0.24154  0.01123  0.45764  1.0000
  H   H143      1.0  0.11724  0.09833  0.48153  1.0000
  H   H144      1.0  0.23190  0.10065  0.46450  1.0000
  H   H145      1.0  0.10947  0.14632  0.42940  1.0000
  H   H146      1.0  0.46406  0.04672  0.24074  1.0000
  C   C73       1.0  0.46295  0.02508  0.31931  1.0000
  H   H147      1.0  0.46830  0.02109  0.30934  1.0000
  N   N4        1.0  0.41164  0.12775  0.23989  1.0000
  H   H148      1.0  0.16408  0.05409  0.45898  1.0000
  S   S17       1.0  0.44727  0.09330  0.26243  1.0000
  H   H149      1.0  0.07422  0.12187  0.47981  1.0000
  H   H150      1.0  0.08703  0.23268  0.40429  1.0000
  C   C74       1.0  0.28980  0.04709  0.38235  1.0000
  H   H151      1.0  0.47493  0.01454  0.23984  1.0000
  H   H152      1.0  0.13713  0.14366  0.42246  1.0000
  H   H153      1.0  0.43142  0.07778  0.24457  1.0000
  S   S18       1.0  0.40331  0.99841  0.32780  1.0000
  C   C75       1.0  0.15883  0.13476  0.46793  1.0000
  H   H154      1.0  0.28062  0.05307  0.34211  1.0000
  H   H155      1.0  0.30863  0.06071  0.39870  1.0000
  Fe  Fe8       1.0  0.11886  0.19101  0.45787  1.0000
  S   S19       1.0  0.12038  0.20575  0.43603  1.0000
  H   H156      1.0  0.13617  0.08614  0.46721  1.0000
  S   S20       1.0  0.11699  0.16802  0.46295  1.0000
  Fe  Fe9       1.0  0.19651  0.08793  0.44409  1.0000
  S   S21       1.0  0.21681  0.09079  0.44806  1.0000
  S   S22       1.0  0.17953  0.10632  0.43536  1.0000
  Fe  Fe10      1.0  0.20171  0.05642  0.45873  1.0000
  S   S23       1.0  0.22211  0.05654  0.46449  1.0000
  C   C76       1.0  0.29342  0.06863  0.33050  1.0000
  C   C77       1.0  0.25430  0.04800  0.48215  1.0000
  H   H157      1.0  0.43135  0.13047  0.24361  1.0000
  Fe  Fe11      1.0  0.22736  0.06949  0.44212  1.0000
  S   S24       1.0  0.25093  0.06489  0.43066  1.0000
  S   S25       1.0  0.18894  0.07629  0.46654  1.0000
  S   S26       1.0  0.20772  0.06783  0.43576  1.0000
  Fe  Fe12      1.0  0.43311  0.01834  0.30184  1.0000
  S   S27       1.0  0.41997  0.02517  0.32206  1.0000
  S   S28       1.0  0.45240  0.02654  0.28684  1.0000
  H   H158      1.0  0.35628  0.01515  0.40248  1.0000
  H   H159      1.0  0.08890  0.15122  0.44921  1.0000
  H   H160      1.0  0.49746  0.01658  0.24440  1.0000
  Fe  Fe13      1.0  0.40094  0.02153  0.31629  1.0000
  S   S29       1.0  0.37986  0.03806  0.31794  1.0000
  H   H161      1.0  0.26050  0.06733  0.36731  1.0000
  Fe  Fe14      1.0  0.31954  0.00593  0.37772  1.0000
  H   H162      1.0  0.26502  0.00768  0.38852  1.0000
  H   H163      1.0  0.16597  0.00429  0.46870  1.0000
  C   C78       1.0  0.25974  0.04251  0.46802  1.0000
  H   H164      1.0  0.27735  0.07069  0.47723  1.0000
  H   H165      1.0  0.25464  0.05016  0.45943  1.0000
  H   H166      1.0  0.48215  0.01718  0.32776  1.0000
  H   H167      1.0  0.08517  0.16379  0.43296  1.0000
  H   H168      1.0  0.31598  0.04634  0.38921  1.0000
  H   H169      1.0  0.26553  0.03112  0.39181  1.0000
  H   H170      1.0  0.37428  0.01387  0.34205  1.0000
  C   C79       1.0  0.41096  0.11737  0.25434  1.0000
  S   S30       1.0  0.32054  0.02365  0.35792  1.0000
  H   H171      1.0  0.38850  0.12973  0.24267  1.0000
  H   H172      1.0  0.40221  0.11141  0.25667  1.0000
  H   H173      1.0  0.30037  0.05141  0.35502  1.0000
  C   C80       1.0  0.11320  0.16832  0.42086  1.0000
  H   H174      1.0  0.41814  0.10448  0.28106  1.0000
  H   H175      1.0  0.39299  0.01129  0.35571  1.0000
  H   H176      1.0  0.45873  0.03332  0.25576  1.0000
  H   H177      1.0  0.29936  0.06628  0.37681  1.0000
  Fe  Fe15      1.0  0.09957  0.17391  0.48171  1.0000
  H   H178      1.0  0.11965  0.13566  0.46317  1.0000
  C   C81       1.0  0.20236  0.99486  0.47179  1.0000
  S   S31       1.0  0.13589  0.18648  0.47051  1.0000
  H   H179      1.0  0.46550  0.02116  0.34077  1.0000
  C   C82       1.0  0.36791  0.00466  0.38458  1.0000
  S   S32       1.0  0.27377  0.00300  0.41703  1.0000
  H   H180      1.0  0.27401  0.01211  0.36991  1.0000
  H   H181      1.0  0.13591  0.11961  0.47898  1.0000
  C   C83       1.0  0.25105  0.07357  0.47108  1.0000
  H   H182      1.0  0.39762  0.13197  0.26862  1.0000
  H   H183      1.0  0.40539  0.11738  0.29062  1.0000
  H   H184      1.0  0.40525  0.00054  0.37632  1.0000
  C   C84       1.0  0.15274  0.06817  0.47370  1.0000
  H   H185      1.0  0.36872  0.02496  0.38918  1.0000
  H   H186      1.0  0.30370  0.06044  0.32847  1.0000
  H   H187      1.0  0.39875  0.10670  0.28301  1.0000
  C   C85       1.0  0.28289  0.06263  0.34398  1.0000
  H   H188      1.0  0.23743  0.06865  0.40438  1.0000
  C   C86       1.0  0.26713  0.06362  0.37557  1.0000
  S   S33       1.0  0.06775  0.24107  0.37455  1.0000
  N   N5        1.0  0.44874  0.03586  0.23828  1.0000
  H   H189      1.0  0.49691  0.99877  0.33786  1.0000
  C   C87       1.0  0.36383  0.03350  0.32964  1.0000
  C   C88       1.0  0.35052  0.04286  0.32789  1.0000
  C   C89       1.0  0.33742  0.03965  0.33671  1.0000
  C   C90       1.0  0.33747  0.02711  0.34749  1.0000
  C   C91       1.0  0.35078  0.01775  0.34950  1.0000
  C   C92       1.0  0.36400  0.02098  0.34055  1.0000
  H   H190      1.0  0.35033  0.05258  0.31955  1.0000
  H   H191      1.0  0.32721  0.04692  0.33511  1.0000
  S   S34       1.0  0.15068  0.14480  0.48118  1.0000
  C   C93       1.0  0.42338  0.07089  0.24979  1.0000
  C   C94       1.0  0.25717  0.04717  0.42827  1.0000
  C   C95       1.0  0.27218  0.04149  0.42465  1.0000
  C   C96       1.0  0.27738  0.02776  0.42159  1.0000
  C   C97       1.0  0.26759  0.01973  0.42195  1.0000
  C   C98       1.0  0.25257  0.02524  0.42601  1.0000
  C   C99       1.0  0.24736  0.03891  0.42924  1.0000
  H   H192      1.0  0.27977  0.04779  0.42412  1.0000
  H   H193      1.0  0.28895  0.02343  0.41891  1.0000
  H   H194      1.0  0.24493  0.01905  0.42640  1.0000
  H   H195      1.0  0.23575  0.04320  0.43207  1.0000
  C   C100      1.0  0.38298  0.99421  0.40221  1.0000
  C   C101      1.0  0.43100  0.05501  0.25193  1.0000
  H   H196      1.0  0.34259  0.03676  0.38926  1.0000
  C   C102      1.0  0.10401  0.20991  0.43035  1.0000
  C   C103      1.0  0.09329  0.20204  0.43762  1.0000
  C   C104      1.0  0.08042  0.20508  0.43278  1.0000
  C   C105      1.0  0.07809  0.21619  0.42083  1.0000
  H   H197      1.0  0.30174  0.04451  0.40527  1.0000
  H   H198      1.0  0.38027  0.02433  0.36497  1.0000
  H   H199      1.0  0.09494  0.19355  0.44695  1.0000
  H   H200      1.0  0.07213  0.19898  0.43847  1.0000
  H   H201      1.0  0.45310  0.00552  0.24050  1.0000
  H   H202      1.0  0.39283  0.14340  0.24766  1.0000
  H   H203      1.0  0.06687  0.20092  0.47751  1.0000
  H   H204      1.0  0.25528  0.07160  0.46006  1.0000
  C   C106      1.0  0.17762  0.11519  0.45962  1.0000
  C   C107      1.0  0.17173  0.11747  0.44772  1.0000
  C   C108      1.0  0.15938  0.12851  0.44591  1.0000
  C   C109      1.0  0.15294  0.13714  0.45602  1.0000
  H   H205      1.0  0.18022  0.01393  0.45929  1.0000
  H   H206      1.0  0.18726  0.10690  0.46105  1.0000
  H   H207      1.0  0.15473  0.13023  0.43682  1.0000
  H   H208      1.0  0.14328  0.14542  0.45483  1.0000
  H   H209      1.0  0.46356  0.03651  0.31711  1.0000
  C   C110      1.0  0.47062  0.01620  0.33137  1.0000
  H   H210      1.0  0.10876  0.17843  0.42486  1.0000
  C   C111      1.0  0.44881  0.07487  0.27030  1.0000
  C   C112      1.0  0.43756  0.06986  0.28121  1.0000
  C   C113      1.0  0.43861  0.05498  0.28676  1.0000
  C   C114      1.0  0.45113  0.04520  0.28171  1.0000
  C   C115      1.0  0.46260  0.05033  0.27138  1.0000
  C   C116      1.0  0.46124  0.06503  0.26535  1.0000
  H   H211      1.0  0.42787  0.07741  0.28506  1.0000
  H   H212      1.0  0.42967  0.05111  0.29474  1.0000
  H   H213      1.0  0.47239  0.04286  0.26763  1.0000
  H   H214      1.0  0.46982  0.06873  0.25682  1.0000
  H   H215      1.0  0.29173  0.06892  0.35802  1.0000
  C   C117      1.0  0.14474  0.08407  0.47334  1.0000
  H   H216      1.0  0.25580  0.02205  0.37636  1.0000
  H   H217      1.0  0.28187  0.03771  0.48646  1.0000
  H   H218      1.0  0.28515  0.03418  0.36146  1.0000
  H   H219      1.0  0.09065  0.16945  0.44601  1.0000
  H   H220      1.0  0.49524  0.05637  0.28073  1.0000
  Fe  Fe16      1.0  0.20996  0.07766  0.47003  1.0000
  C   C118      1.0  0.46937  0.00027  0.33505  1.0000
  C   C119      1.0  0.08878  0.22410  0.41354  1.0000
  H   H221      1.0  0.13452  0.16067  0.43557  1.0000
  H   H222      1.0  0.15962  0.12765  0.41180  1.0000
  H   H223      1.0  0.13623  0.11240  0.46422  1.0000
  C   C120      1.0  0.47626  0.02541  0.23908  1.0000
  H   H224      1.0  0.42892  0.00043  0.25478  1.0000
  H   H225      1.0  0.35236  0.03228  0.37230  1.0000
  H   H226      1.0  0.46130  0.99892  0.38751  1.0000
  H   H227      1.0  0.41330  0.02162  0.35636  1.0000
  C   C121      1.0  0.09226  0.16045  0.44079  1.0000
  C   C122      1.0  0.07641  0.14194  0.48236  1.0000
  H   H228      1.0  0.45759  0.00008  0.33831  1.0000
  H   H229      1.0  0.11007  0.13046  0.48128  1.0000
  C   C123      1.0  0.45527  0.00643  0.37944  1.0000
  C   C124      1.0  0.27617  0.03961  0.36921  1.0000
  H   H230      1.0  0.27047  0.07334  0.37583  1.0000
  C   C125      1.0  0.25643  0.05920  0.38988  1.0000
  H   H231      1.0  0.35087  0.00802  0.35777  1.0000
  H   H232      1.0  0.07160  0.14836  0.47343  1.0000
  H   H233      1.0  0.49074  0.06750  0.26424  1.0000
  C   C126      1.0  0.40814  0.12401  0.26750  1.0000
  H   H234      1.0  0.37961  0.00424  0.40628  1.0000
  S   S35       1.0  0.41384  0.01684  0.29494  1.0000
  C   C127      1.0  0.47393  0.99601  0.35942  1.0000
  H   H235      1.0  0.06968  0.21937  0.45523  1.0000
  H   H236      1.0  0.10731  0.16952  0.41238  1.0000
  H   H237      1.0  0.15521  0.10035  0.48275  1.0000
  C   C128      1.0  0.42215  0.13697  0.23838  1.0000
  H   H238      1.0  0.42252  0.04880  0.25807  1.0000
  C   C129      1.0  0.40179  0.02765  0.35826  1.0000
  H   H239      1.0  0.30258  0.04472  0.46707  1.0000
  C   C130      1.0  0.30589  0.05216  0.39546  1.0000
  H   H240      1.0  0.06233  0.22731  0.47051  1.0000
  S   S36       1.0  0.10013  0.19723  0.47547  1.0000
  H   H241      1.0  0.23908  0.07825  0.38594  1.0000
  H   H242      1.0  0.25957  0.02476  0.45959  1.0000
  H   H243      1.0  0.24575  0.11095  0.45863  1.0000
  H   H244      1.0  0.29980  0.03923  0.37855  1.0000
  C   C131      1.0  0.29447  0.05887  0.38635  1.0000
  C   C132      1.0  0.40755  0.11240  0.28136  1.0000
  C   C133      1.0  0.44020  0.02505  0.24838  1.0000
  C   C134      1.0  0.28950  0.05878  0.35740  1.0000
  C   C135      1.0  0.10178  0.22092  0.41827  1.0000
  H   H245      1.0  0.25024  0.05199  0.38867  1.0000
  N   N6        1.0  0.28039  0.05221  0.37146  1.0000
  H   H246      1.0  0.28342  0.02120  0.38574  1.0000
  H   H247      1.0  0.48263  0.01920  0.25960  1.0000
  C   C136      1.0  0.12958  0.11490  0.47459  1.0000
  H   H248      1.0  0.29598  0.07841  0.33159  1.0000
  C   C137      1.0  0.24698  0.99964  0.45957  1.0000
  H   H249      1.0  0.24897  0.09199  0.48050  1.0000
  C   C138      1.0  0.15872  0.06558  0.45851  1.0000
  H   H250      1.0  0.04591  0.22376  0.44997  1.0000
  H   H251      1.0  0.39422  0.01417  0.38530  1.0000
  C   C139      1.0  0.27463  0.06074  0.47673  1.0000
  H   H252      1.0  0.43655  0.02724  0.25934  1.0000
  H   H253      1.0  0.15258  0.09078  0.46635  1.0000
  H   H254      1.0  0.45128  0.02452  0.32228  1.0000
  H   H255      1.0  0.39960  0.03485  0.34798  1.0000
  C   C140      1.0  0.49987  0.06150  0.26954  1.0000
  C   C141      1.0  0.39396  0.00717  0.37844  1.0000
  H   H256      1.0  0.28432  0.04105  0.39265  1.0000
  N   N7        1.0  0.25842  0.06170  0.48173  1.0000
  H   H257      1.0  0.25471  0.99749  0.44946  1.0000
  H   H258      1.0  0.14979  0.06830  0.45276  1.0000
  H   H259      1.0  0.16691  0.07215  0.45236  1.0000
  C   C142      1.0  0.26657  0.01666  0.37902  1.0000
  H   H260      1.0  0.25077  0.07953  0.39656  1.0000
  S   S37       1.0  0.31323  0.01158  0.39922  1.0000
  N   N8        1.0  0.12945  0.16648  0.41470  1.0000
  C   C143      1.0  0.13160  0.17737  0.40067  1.0000
  C   C144      1.0  0.13545  0.15139  0.41222  1.0000
  C   C145      1.0  0.13610  0.16891  0.42551  1.0000
  C   C146      1.0  0.15261  0.16860  0.42131  1.0000
  C   C147      1.0  0.12537  0.19335  0.40153  1.0000
  C   C148      1.0  0.14966  0.14881  0.40054  1.0000
  C   C149      1.0  0.15618  0.13276  0.40149  1.0000
  C   C150      1.0  0.15703  0.17404  0.43202  1.0000
  C   C151      1.0  0.12826  0.20336  0.38676  1.0000
  H   H261      1.0  0.12652  0.17517  0.39305  1.0000
  H   H262      1.0  0.14330  0.17645  0.39537  1.0000
  H   H263      1.0  0.12734  0.14795  0.40875  1.0000
  H   H264      1.0  0.13024  0.17922  0.42869  1.0000
  H   H265      1.0  0.15582  0.17546  0.41059  1.0000
  H   H266      1.0  0.15890  0.15738  0.42158  1.0000
  H   H267      1.0  0.11339  0.19550  0.40569  1.0000
  H   H268      1.0  0.13053  0.19634  0.40851  1.0000
  H   H269      1.0  0.14720  0.15353  0.38974  1.0000
  H   H270      1.0  0.15814  0.15375  0.40124  1.0000
  H   H271      1.0  0.16596  0.13124  0.39265  1.0000
  H   H272      1.0  0.14816  0.12729  0.40055  1.0000
  H   H273      1.0  0.16900  0.17315  0.42917  1.0000
  H   H274      1.0  0.15155  0.18549  0.43184  1.0000
  H   H275      1.0  0.15410  0.16758  0.44307  1.0000
  H   H276      1.0  0.12359  0.21469  0.38777  1.0000
  H   H277      1.0  0.14016  0.20213  0.38219  1.0000
  H   H278      1.0  0.12302  0.20108  0.37936  1.0000
  H   H279      1.0  0.14537  0.06071  0.47947  1.0000
  H   H280      1.0  0.43320  0.00201  0.27070  1.0000
  H   H281      1.0  0.28488  0.06523  0.39266  1.0000
  H   H282      1.0  0.36405  0.99605  0.32570  1.0000
  H   H283      1.0  0.27174  0.04091  0.46429  1.0000
  C   C152      1.0  0.34820  0.02774  0.38382  1.0000
  H   H284      1.0  0.45908  0.01666  0.37580  1.0000
  H   H285      1.0  0.16194  0.06519  0.47897  1.0000
  H   H286      1.0  0.27261  0.07092  0.34510  1.0000
  H   H287      1.0  0.34021  0.02138  0.38469  1.0000
  C   C153      1.0  0.36074  0.01833  0.39077  1.0000
  H   H288      1.0  0.10896  0.12229  0.46763  1.0000
  Fe  Fe17      1.0  0.13229  0.16398  0.47738  1.0000
  C   C154      1.0  0.25270  0.08898  0.46994  1.0000
  H   H289      1.0  0.24220  0.04942  0.48533  1.0000
  C   C155      1.0  0.24527  0.07226  0.39437  1.0000
  H   H290      1.0  0.11475  0.15293  0.44167  1.0000
  H   H291      1.0  0.41665  0.14583  0.24415  1.0000
  H   H292      1.0  0.26648  0.04345  0.36431  1.0000
  H   H293      1.0  0.30383  0.05729  0.47654  1.0000
  C   C156      1.0  0.10826  0.15603  0.43342  1.0000
  H   H294      1.0  0.41697  0.12937  0.26665  1.0000
  C   C157      1.0  0.46159  0.03581  0.24386  1.0000
  H   H295      1.0  0.43905  0.05310  0.25844  1.0000
  H   H296      1.0  0.03659  0.23007  0.46586  1.0000
  H   H297      1.0  0.45099  0.00744  0.35924  1.0000
  C   C158      1.0  0.11618  0.12647  0.47150  1.0000
  S   S38       1.0  0.06142  0.22032  0.41573  1.0000
  H   H298      1.0  0.47853  0.00567  0.35714  1.0000
  S   S39       1.0  0.19221  0.03688  0.46553  1.0000
  Fe  Fe18      1.0  0.46264  0.09607  0.24079  1.0000
  H   H299      1.0  0.11009  0.22699  0.41261  1.0000
  C   C159      1.0  0.27308  0.02725  0.38246  1.0000
  C   C160      1.0  0.17117  0.12377  0.46971  1.0000
  C   C161      1.0  0.39137  0.01739  0.36394  1.0000
  H   H300      1.0  0.28839  0.07153  0.32110  1.0000
  H   H301      1.0  0.26219  0.05373  0.39865  1.0000
  H   H302      1.0  0.40015  0.03445  0.36595  1.0000
  H   H303      1.0  0.24669  0.09758  0.44919  1.0000
  H   H304      1.0  0.36729  0.00752  0.37320  1.0000
  C   C162      1.0  0.05982  0.22157  0.46380  1.0000
  H   H305      1.0  0.05532  0.20055  0.46653  1.0000
  N   N9        1.0  0.38327  0.99763  0.38637  1.0000
  H   H306      1.0  0.43010  0.02606  0.24478  1.0000
  H   H307      1.0  0.42131  0.10906  0.25429  1.0000
  C   C163      1.0  0.25588  0.02811  0.47000  1.0000
  C   C164      1.0  0.18090  0.03745  0.48252  1.0000
  H   H308      1.0  0.20385  0.00613  0.46781  1.0000
  C   C165      1.0  0.24372  0.10017  0.45992  1.0000
  H   H309      1.0  0.41521  0.07331  0.24320  1.0000
  H   H310      1.0  0.17580  0.12189  0.47889  1.0000
  C   C166      1.0  0.04658  0.23033  0.45710  1.0000
  C   C167      1.0  0.44828  0.00906  0.25073  1.0000
  C   C168      1.0  0.39647  0.13676  0.23950  1.0000
  H   H311      1.0  0.41770  0.07350  0.26038  1.0000
  C   C169      1.0  0.28444  0.04821  0.48527  1.0000
  Fe  Fe19      1.0  0.42338  0.00164  0.33201  1.0000
  C   C170      1.0  0.43791  0.99933  0.26001  1.0000
  H   H312      1.0  0.26423  0.08985  0.46554  1.0000
  H   H313      1.0  0.22231  0.00409  0.47825  1.0000
  H   H314      1.0  0.16591  0.02661  0.48000  1.0000
  H   H315      1.0  0.27827  0.06030  0.46520  1.0000
  C   C171      1.0  0.05716  0.20701  0.47306  1.0000
  H   H316      1.0  0.23917  0.07377  0.47367  1.0000
  H   H317      1.0  0.48922  0.03448  0.24726  1.0000
  C   C172      1.0  0.30052  0.04711  0.47779  1.0000
  Fe  Fe20      1.0  0.29711  0.99766  0.40477  1.0000
  C   C173      1.0  0.17793  0.00310  0.46456  1.0000
  C   C174      1.0  0.48703  0.02385  0.24818  1.0000
  H   H318      1.0  0.40663  0.10055  0.23931  1.0000
  H   H319      1.0  0.06646  0.23996  0.43319  1.0000
  H   H320      1.0  0.45693  0.00731  0.25660  1.0000
  C   C175      1.0  0.45752  0.99973  0.36674  1.0000
  H   H321      1.0  0.26139  0.01970  0.47795  1.0000
  H   H322      1.0  0.44349  0.00876  0.38461  1.0000
  H   H323      1.0  0.01919  0.23826  0.34045  1.0000
  S   S40       1.0  0.43824  0.99499  0.31235  1.0000
  H   H324      1.0  0.24391  0.02904  0.47361  1.0000
  H   H325      1.0  0.39489  0.99614  0.42415  1.0000
  H   H326      1.0  0.02014  0.23885  0.42668  1.0000
  H   H327      1.0  0.47329  0.99658  0.32480  1.0000
  Fe  Fe21      1.0  0.05750  0.23978  0.39790  1.0000
  S   S41       1.0  0.30229  0.99334  0.38272  1.0000
  H   H328      1.0  0.18155  0.99631  0.45653  1.0000
  C   C176      1.0  0.18567  0.99613  0.47695  1.0000
  H   H329      1.0  0.36065  0.99692  0.38978  1.0000
  H   H330      1.0  0.25329  0.99716  0.46795  1.0000
  H   H331      1.0  0.02043  0.23803  0.45155  1.0000
  H   H332      1.0  0.04760  0.20842  0.48211  1.0000
  H   H333      1.0  0.30736  0.03827  0.48429  1.0000
  S   S42       1.0  0.42989  0.99332  0.35313  1.0000
  Fe  Fe22      1.0  0.41793  0.99383  0.30703  1.0000
  C   C177      1.0  0.12541  0.10122  0.48541  1.0000
  H   H334      1.0  0.18106  0.00278  0.48508  1.0000
  H   H335      1.0  0.12128  0.07086  0.48616  1.0000
  H   H336      1.0  0.22963  0.99342  0.45537  1.0000
  C   C178      1.0  0.07788  0.12699  0.48598  1.0000
  C   C179      1.0  0.16853  0.03156  0.48701  1.0000
  H   H337      1.0  0.04404  0.10366  0.48666  1.0000
  C   C180      1.0  0.22526  0.99232  0.47865  1.0000
  S   S43       1.0  0.07830  0.16736  0.48644  1.0000
  Fe  Fe23      1.0  0.04874  0.10175  0.55024  1.0000
  S   S44       1.0  0.05367  0.08803  0.53458  1.0000
  S   S45       1.0  0.02725  0.11775  0.55261  1.0000
  Fe  Fe24      1.0  0.07880  0.08986  0.55718  1.0000
  S   S46       1.0  0.08621  0.07510  0.54192  1.0000
  S   S47       1.0  0.09339  0.09015  0.57092  1.0000
  Fe  Fe25      1.0  0.07538  0.09393  0.52706  1.0000
  S   S48       1.0  0.08366  0.10035  0.50330  1.0000
  Fe  Fe26      1.0  0.06382  0.07052  0.55084  1.0000
  S   S49       1.0  0.05729  0.04933  0.55668  1.0000
  S   S50       1.0  0.06975  0.10917  0.54151  1.0000
  S   S51       1.0  0.05713  0.08382  0.56736  1.0000
  H   H338      1.0  0.24129  0.07191  0.49731  1.0000
  C   C181      1.0  0.02947  0.06669  0.53158  1.0000
  H   H339      1.0  0.42684  0.00338  0.57125  1.0000
  Fe  Fe27      1.0  0.14847  0.01991  0.53866  1.0000
  S   S52       1.0  0.16639  0.00531  0.54923  1.0000
  S   S53       1.0  0.15007  0.04185  0.52540  1.0000
  C   C182      1.0  0.04458  0.14962  0.51540  1.0000
  C   C183      1.0  0.01256  0.20791  0.67172  1.0000
  H   H340      1.0  0.42952  0.04613  0.67630  1.0000
  S   S54       1.0  0.14474  0.00316  0.52992  1.0000
  S   S55       1.0  0.13068  0.01741  0.55833  1.0000
  Fe  Fe28      1.0  0.10760  0.15936  0.57693  1.0000
  S   S56       1.0  0.10600  0.18267  0.57488  1.0000
  S   S57       1.0  0.09697  0.15444  0.56221  1.0000
  Fe  Fe29      1.0  0.12826  0.15010  0.59721  1.0000
  S   S58       1.0  0.12839  0.17285  0.59683  1.0000
  S   S59       1.0  0.14116  0.13022  0.60953  1.0000
  Fe  Fe30      1.0  0.10421  0.17714  0.59856  1.0000
  S   S60       1.0  0.08567  0.19113  0.61134  1.0000
  Fe  Fe31      1.0  0.13004  0.17639  0.57319  1.0000
  S   S61       1.0  0.14428  0.18882  0.55515  1.0000
  S   S62       1.0  0.10380  0.15402  0.60089  1.0000
  S   S63       1.0  0.13186  0.15350  0.57347  1.0000
  Fe  Fe32      1.0  0.20305  0.07246  0.57680  1.0000
  S   S64       1.0  0.22463  0.06219  0.56451  1.0000
  S   S65       1.0  0.19557  0.09656  0.57063  1.0000
  Fe  Fe33      1.0  0.19693  0.04386  0.59443  1.0000
  S   S66       1.0  0.21799  0.03108  0.58406  1.0000
  S   S67       1.0  0.18036  0.03348  0.61162  1.0000
  Fe  Fe34      1.0  0.22796  0.04809  0.58581  1.0000
  S   S68       1.0  0.25111  0.04268  0.58861  1.0000
  Fe  Fe35      1.0  0.21301  0.04610  0.56377  1.0000
  S   S69       1.0  0.21611  0.03697  0.54471  1.0000
  S   S70       1.0  0.20724  0.05961  0.59824  1.0000
  S   S71       1.0  0.19107  0.05765  0.57399  1.0000
  C   C184      1.0  0.49531  0.03608  0.65131  1.0000
  H   H341      1.0  0.05121  0.07758  0.51218  1.0000
  S   S72       1.0  0.40861  0.02919  0.71282  1.0000
  H   H342      1.0  0.48534  0.02115  0.68118  1.0000
  Fe  Fe36      1.0  0.42058  0.00665  0.71125  1.0000
  H   H343      1.0  0.06671  0.99911  0.53815  1.0000
  S   S73       1.0  0.37503  0.03472  0.69716  1.0000
  C   C185      1.0  0.14783  0.07754  0.60075  1.0000
  H   H344      1.0  0.10759  0.03684  0.61014  1.0000
  C   C186      1.0  0.04176  0.07829  0.50779  1.0000
  Fe  Fe37      1.0  0.29447  0.02634  0.64596  1.0000
  S   S74       1.0  0.31341  0.03563  0.64489  1.0000
  S   S75       1.0  0.27113  0.03823  0.64517  1.0000
  H   H345      1.0  0.38188  0.00675  0.63930  1.0000
  C   C187      1.0  0.20157  0.12437  0.59716  1.0000
  Fe  Fe38      1.0  0.31836  0.01700  0.66332  1.0000
  S   S76       1.0  0.32364  0.01569  0.68459  1.0000
  H   H346      1.0  0.18856  0.01521  0.51677  1.0000
  S   S77       1.0  0.29841  0.00885  0.66532  1.0000
  H   H347      1.0  0.45495  0.03190  0.67567  1.0000
  C   C188      1.0  0.07243  0.99327  0.52944  1.0000
  H   H348      1.0  0.11399  0.00811  0.59311  1.0000
  H   H349      1.0  0.25874  0.07560  0.58295  1.0000
  H   H350      1.0  0.00967  0.14391  0.56741  1.0000
  H   H351      1.0  0.00358  0.21156  0.72853  1.0000
  H   H352      1.0  0.14416  0.00578  0.61842  1.0000
  H   H353      1.0  0.07278  0.19854  0.54206  1.0000
  H   H354      1.0  0.23730  0.08068  0.60195  1.0000
  C   C189      1.0  0.02409  0.19030  0.62914  1.0000
  C   C190      1.0  0.25997  0.00133  0.60194  1.0000
  H   H355      1.0  0.03425  0.15694  0.51302  1.0000
  H   H356      1.0  0.01567  0.09318  0.55481  1.0000
  H   H357      1.0  0.14954  0.02822  0.50377  1.0000
  H   H358      1.0  0.41167  0.00501  0.60822  1.0000
  C   C191      1.0  0.45607  0.02945  0.66514  1.0000
  H   H359      1.0  0.21026  0.08659  0.51716  1.0000
  C   C192      1.0  0.43901  0.99747  0.68089  1.0000
  H   H360      1.0  0.02552  0.20314  0.68732  1.0000
  C   C193      1.0  0.18401  0.04423  0.49146  1.0000
  C   C194      1.0  0.12737  0.19835  0.51464  1.0000
  H   H361      1.0  0.03230  0.18084  0.62593  1.0000
  S   S78       1.0  0.11459  0.16803  0.49672  1.0000
  H   H362      1.0  0.06168  0.20923  0.65139  1.0000
  C   C195      1.0  0.36131  0.02868  0.69352  1.0000
  C   C196      1.0  0.35784  0.03385  0.67995  1.0000
  C   C197      1.0  0.34650  0.02984  0.67692  1.0000
  C   C198      1.0  0.33815  0.02103  0.68763  1.0000
  C   C199      1.0  0.34152  0.01602  0.70125  1.0000
  C   C200      1.0  0.35321  0.01957  0.70410  1.0000
  H   H363      1.0  0.36394  0.04103  0.67175  1.0000
  H   H364      1.0  0.34400  0.03382  0.66643  1.0000
  H   H365      1.0  0.44921  0.00002  0.57765  1.0000
  C   C201      1.0  0.02199  0.21087  0.67821  1.0000
  H   H366      1.0  0.11575  0.05861  0.51887  1.0000
  H   H367      1.0  0.20064  0.09106  0.60418  1.0000
  H   H368      1.0  0.38357  0.06458  0.71811  1.0000
  H   H369      1.0  0.49584  0.05879  0.64311  1.0000
  C   C202      1.0  0.46610  0.01296  0.64157  1.0000
  H   H370      1.0  0.41739  0.01097  0.68233  1.0000
  H   H371      1.0  0.09787  0.01310  0.60602  1.0000
  C   C203      1.0  0.01644  0.05746  0.55713  1.0000
  H   H372      1.0  0.02628  0.05605  0.56121  1.0000
  H   H373      1.0  0.11943  0.10425  0.49581  1.0000
  C   C204      1.0  0.07597  0.18280  0.67796  1.0000
  C   C205      1.0  0.08511  0.17359  0.68915  1.0000
  Fe  Fe39      1.0  0.32633  0.01990  0.63094  1.0000
  C   C206      1.0  0.21104  0.07194  0.50454  1.0000
  C   C207      1.0  0.11401  0.23549  0.53368  1.0000
  H   H374      1.0  0.19864  0.06347  0.63848  1.0000
  H   H375      1.0  0.07482  0.21413  0.52765  1.0000
  H   H376      1.0  0.07039  0.00871  0.60631  1.0000
  C   C208      1.0  0.25615  0.04167  0.60451  1.0000
  C   C209      1.0  0.27104  0.03863  0.60439  1.0000
  C   C210      1.0  0.27567  0.03758  0.61680  1.0000
  C   C211      1.0  0.26545  0.03958  0.62946  1.0000
  C   C212      1.0  0.25051  0.04269  0.62959  1.0000
  C   C213      1.0  0.24585  0.04366  0.61715  1.0000
  H   H377      1.0  0.27906  0.03714  0.59463  1.0000
  H   H378      1.0  0.28717  0.03552  0.61647  1.0000
  H   H379      1.0  0.24255  0.04424  0.63936  1.0000
  H   H380      1.0  0.23435  0.04589  0.61734  1.0000
  C   C214      1.0  0.21329  0.05054  0.52955  1.0000
  C   C215      1.0  0.21325  0.04693  0.51698  1.0000
  C   C216      1.0  0.06308  0.16057  0.52860  1.0000
  C   C217      1.0  0.21084  0.07556  0.51716  1.0000
  C   C218      1.0  0.21170  0.06490  0.52974  1.0000
  H   H381      1.0  0.21428  0.03583  0.51688  1.0000
  H   H382      1.0  0.21161  0.06776  0.53944  1.0000
  C   C219      1.0  0.08865  0.20585  0.61576  1.0000
  C   C220      1.0  0.07657  0.21553  0.62172  1.0000
  H   H383      1.0  0.25077  0.99530  0.69992  1.0000
  C   C221      1.0  0.39627  0.00846  0.59504  1.0000
  C   C222      1.0  0.10457  0.21926  0.61848  1.0000
  C   C223      1.0  0.10268  0.20770  0.61420  1.0000
  C   C224      1.0  0.20119  0.00292  0.50075  1.0000
  C   C225      1.0  0.22998  0.99712  0.61673  1.0000
  C   C226      1.0  0.26615  0.99884  0.62486  1.0000
  H   H384      1.0  0.11208  0.20017  0.60981  1.0000
  C   C227      1.0  0.15657  0.12095  0.59891  1.0000
  C   C228      1.0  0.16226  0.10631  0.60398  1.0000
  C   C229      1.0  0.17411  0.09862  0.59535  1.0000
  C   C230      1.0  0.18045  0.10560  0.58168  1.0000
  C   C231      1.0  0.17493  0.12027  0.57672  1.0000
  C   C232      1.0  0.16307  0.12793  0.58530  1.0000
  H   H385      1.0  0.15728  0.10084  0.61449  1.0000
  H   H386      1.0  0.17827  0.08728  0.59924  1.0000
  H   H387      1.0  0.17986  0.12576  0.56620  1.0000
  H   H388      1.0  0.15908  0.13927  0.58144  1.0000
  S   S79       1.0  0.30703  0.01229  0.63059  1.0000
  C   C233      1.0  0.13895  0.19127  0.53909  1.0000
  C   C234      1.0  0.12937  0.18354  0.53825  1.0000
  C   C235      1.0  0.12377  0.18691  0.52592  1.0000
  H   H389      1.0  0.09791  0.19834  0.67512  1.0000
  H   H390      1.0  0.12594  0.17522  0.54722  1.0000
  H   H391      1.0  0.11587  0.18136  0.52558  1.0000
  C   C236      1.0  0.16213  0.03976  0.50913  1.0000
  C   C237      1.0  0.17459  0.04545  0.50475  1.0000
  H   H392      1.0  0.35567  0.01558  0.71461  1.0000
  H   H393      1.0  0.17700  0.05079  0.51161  1.0000
  C   C238      1.0  0.15646  0.00901  0.59660  1.0000
  C   C239      1.0  0.16780  0.01495  0.58683  1.0000
  C   C240      1.0  0.17546  0.02229  0.59138  1.0000
  C   C241      1.0  0.17159  0.02387  0.60560  1.0000
  C   C242      1.0  0.16032  0.01785  0.61528  1.0000
  C   C243      1.0  0.15286  0.01037  0.61082  1.0000
  H   H394      1.0  0.17075  0.01378  0.57586  1.0000
  H   H395      1.0  0.18433  0.02673  0.58390  1.0000
  H   H396      1.0  0.15733  0.01898  0.62627  1.0000
  C   C244      1.0  0.11741  0.05778  0.50761  1.0000
  C   C245      1.0  0.09558  0.10765  0.56835  1.0000
  C   C246      1.0  0.09718  0.11234  0.57970  1.0000
  C   C247      1.0  0.09789  0.12669  0.57786  1.0000
  C   C248      1.0  0.09703  0.13628  0.56468  1.0000
  C   C249      1.0  0.09588  0.13144  0.55326  1.0000
  C   C250      1.0  0.09535  0.11712  0.55504  1.0000
  H   H397      1.0  0.09747  0.10500  0.59000  1.0000
  H   H398      1.0  0.09878  0.13040  0.58672  1.0000
  H   H399      1.0  0.09547  0.13873  0.54299  1.0000
  H   H400      1.0  0.09486  0.11339  0.54606  1.0000
  C   C251      1.0  0.08334  0.11877  0.49802  1.0000
  C   C252      1.0  0.08699  0.14033  0.50207  1.0000
  C   C253      1.0  0.08788  0.12545  0.50609  1.0000
  H   H401      1.0  0.09061  0.14552  0.50816  1.0000
  H   H402      1.0  0.09217  0.11912  0.51535  1.0000
  C   C254      1.0  0.07125  0.03425  0.55398  1.0000
  C   C255      1.0  0.08556  0.03555  0.54718  1.0000
  C   C256      1.0  0.09669  0.02320  0.54605  1.0000
  C   C257      1.0  0.09345  0.00960  0.55164  1.0000
  C   C258      1.0  0.07906  0.00831  0.55782  1.0000
  C   C259      1.0  0.06797  0.02064  0.55901  1.0000
  H   H403      1.0  0.08812  0.04601  0.54304  1.0000
  H   H404      1.0  0.10780  0.02422  0.54109  1.0000
  H   H405      1.0  0.02287  0.07392  0.49835  1.0000
  H   H406      1.0  0.05688  0.01963  0.56416  1.0000
  H   H407      1.0  0.01133  0.17007  0.62519  1.0000
  C   C260      1.0  0.35025  0.00615  0.60584  1.0000
  C   C261      1.0  0.07278  0.99683  0.60813  1.0000
  S   S80       1.0  0.14624  0.00002  0.59160  1.0000
  H   H408      1.0  0.21154  0.99852  0.63512  1.0000
  C   C262      1.0  0.48010  0.01257  0.68133  1.0000
  H   H409      1.0  0.04638  0.07733  0.49643  1.0000
  H   H410      1.0  0.03793  0.18484  0.54649  1.0000
  H   H411      1.0  0.08350  0.16827  0.71211  1.0000
  C   C263      1.0  0.16010  0.08218  0.49991  1.0000
  C   C264      1.0  0.17057  0.08898  0.50326  1.0000
  H   H412      1.0  0.19364  0.04863  0.48810  1.0000
  H   H413      1.0  0.12872  0.08039  0.50965  1.0000
  H   H414      1.0  0.14142  0.06717  0.50101  1.0000
  H   H415      1.0  0.28925  0.00739  0.57295  1.0000
  C   C265      1.0  0.11921  0.03513  0.60437  1.0000
  H   H416      1.0  0.44953  0.05235  0.65509  1.0000
  H   H417      1.0  0.15460  0.07616  0.51027  1.0000
  S   S81       1.0  0.21076  0.08534  0.48882  1.0000
  H   H418      1.0  0.43946  0.01141  0.59007  1.0000
  H   H419      1.0  0.17839  0.08045  0.50893  1.0000
  H   H420      1.0  0.25841  0.03899  0.49051  1.0000
  H   H421      1.0  0.02924  0.09610  0.51848  1.0000
  C   C266      1.0  0.32280  0.99224  0.57331  1.0000
  H   H422      1.0  0.05238  0.23500  0.72607  1.0000
  H   H423      1.0  0.14297  0.10102  0.49960  1.0000
  H   H424      1.0  0.21764  0.07053  0.61772  1.0000
  H   H425      1.0  0.09641  0.21537  0.56428  1.0000
  C   C267      1.0  0.02499  0.19871  0.53181  1.0000
  H   H426      1.0  0.10864  0.20921  0.58464  1.0000
  C   C268      1.0  0.04594  0.13556  0.51123  1.0000
  H   H427      1.0  0.27754  0.00898  0.64095  1.0000
  H   H428      1.0  0.39095  0.99925  0.60021  1.0000
  C   C269      1.0  0.14340  0.20192  0.52736  1.0000
  H   H429      1.0  0.41167  0.08984  0.72849  1.0000
  H   H430      1.0  0.03663  0.13055  0.51732  1.0000
  C   C270      1.0  0.36099  0.06870  0.70437  1.0000
  C   C271      1.0  0.41211  0.00498  0.59694  1.0000
  H   H431      1.0  0.04205  0.18890  0.65426  1.0000
  H   H432      1.0  0.04682  0.05142  0.50237  1.0000
  H   H433      1.0  0.02544  0.17078  0.53659  1.0000
  H   H434      1.0  0.25905  0.07295  0.49723  1.0000
  C   C272      1.0  0.14890  0.09374  0.49211  1.0000
  C   C273      1.0  0.08102  0.14861  0.49038  1.0000
  H   H435      1.0  0.03771  0.17522  0.51986  1.0000
  H   H436      1.0  0.05604  0.12778  0.51349  1.0000
  H   H437      1.0  0.20664  0.00161  0.61822  1.0000
  H   H438      1.0  0.07934  0.03304  0.51968  1.0000
  H   H439      1.0  0.20862  0.14269  0.58128  1.0000
  H   H440      1.0  0.02002  0.21390  0.71493  1.0000
  N   N10       1.0  0.25692  0.99433  0.61775  1.0000
  H   H441      1.0  0.30640  0.00199  0.59825  1.0000
  H   H442      1.0  0.11455  0.21091  0.55416  1.0000
  H   H443      1.0  0.01236  0.24018  0.71248  1.0000
  C   C274      1.0  0.19589  0.07381  0.63078  1.0000
  H   H444      1.0  0.36535  0.01333  0.58641  1.0000
  H   H445      1.0  0.24817  0.10466  0.59966  1.0000
  H   H446      1.0  0.08996  0.19885  0.52928  1.0000
  H   H447      1.0  0.12687  0.20879  0.57371  1.0000
  H   H448      1.0  0.21214  0.05482  0.49481  1.0000
  C   C275      1.0  0.25243  0.05316  0.50977  1.0000
  H   H449      1.0  0.01773  0.22713  0.61903  1.0000
  C   C276      1.0  0.38659  0.00773  0.64777  1.0000
  C   C277      1.0  0.09520  0.01659  0.58429  1.0000
  H   H450      1.0  0.10589  0.00476  0.50074  1.0000
  H   H451      1.0  0.42598  0.03444  0.66730  1.0000
  H   H452      1.0  0.02191  0.18897  0.64094  1.0000
  C   C278      1.0  0.37913  0.99994  0.66275  1.0000
  C   C279      1.0  0.03786  0.18636  0.53507  1.0000
  N   N11       1.0  0.04767  0.15898  0.53602  1.0000
  H   H453      1.0  0.05244  0.13692  0.53413  1.0000
  S   S82       1.0  0.40135  0.99948  0.71010  1.0000
  Fe  Fe40      1.0  0.11693  0.19088  0.48866  1.0000
  H   H454      1.0  0.00510  0.14815  0.55023  1.0000
  H   H455      1.0  0.03437  0.22673  0.60535  1.0000
  C   C280      1.0  0.02221  0.23365  0.66115  1.0000
  H   H456      1.0  0.02870  0.19999  0.62399  1.0000
  H   H457      1.0  0.12309  0.99685  0.49019  1.0000
  C   C281      1.0  0.47364  0.02429  0.64267  1.0000
  H   H458      1.0  0.05376  0.15447  0.50849  1.0000
  H   H459      1.0  0.20436  0.12752  0.60570  1.0000
  H   H460      1.0  0.27132  0.01853  0.57653  1.0000
  H   H461      1.0  0.46977  0.03472  0.63557  1.0000
  H   H462      1.0  0.06569  0.21429  0.62279  1.0000
  C   C282      1.0  0.27233  0.99999  0.64751  1.0000
  C   C283      1.0  0.38431  0.02374  0.64706  1.0000
  H   H463      1.0  0.42326  0.05347  0.65981  1.0000
  C   C284      1.0  0.12419  0.01283  0.50015  1.0000
  C   C285      1.0  0.38699  0.02111  0.60172  1.0000
  H   H464      1.0  0.39612  0.01166  0.58350  1.0000
  H   H465      1.0  0.12221  0.02172  0.49077  1.0000
  H   H466      1.0  0.24910  0.99840  0.68173  1.0000
  C   C286      1.0  0.03236  0.09381  0.50765  1.0000
  C   C287      1.0  0.19891  0.13783  0.58533  1.0000
  C   C288      1.0  0.24093  0.99975  0.62381  1.0000
  H   H467      1.0  0.04627  0.13765  0.49962  1.0000
  H   H468      1.0  0.28316  0.05014  0.49602  1.0000
  H   H469      1.0  0.07498  0.18657  0.70518  1.0000
  H   H470      1.0  0.06941  0.03059  0.50814  1.0000
  H   H471      1.0  0.30943  0.99267  0.53185  1.0000
  H   H472      1.0  0.16452  0.09666  0.51023  1.0000
  H   H473      1.0  0.19645  0.13518  0.57629  1.0000
  H   H474      1.0  0.24798  0.04986  0.53293  1.0000
  H   H475      1.0  0.13616  0.00920  0.49932  1.0000
  H   H476      1.0  0.11867  0.00083  0.61614  1.0000
  H   H477      1.0  0.11545  0.22071  0.61717  1.0000
  H   H478      1.0  0.26736  0.01006  0.61962  1.0000
  C   C289      1.0  0.11663  0.21589  0.57821  1.0000
  C   C290      1.0  0.15921  0.03260  0.50039  1.0000
  C   C291      1.0  0.04089  0.10501  0.49788  1.0000
  S   S83       1.0  0.41800  0.99836  0.73497  1.0000
  H   H479      1.0  0.37251  0.02891  0.64874  1.0000
  H   H480      1.0  0.38888  0.02537  0.65535  1.0000
  H   H481      1.0  0.38992  0.02905  0.63636  1.0000
  N   N12       1.0  0.14612  0.12794  0.53686  1.0000
  C   C292      1.0  0.14166  0.12744  0.55273  1.0000
  C   C293      1.0  0.15020  0.14212  0.52865  1.0000
  C   C294      1.0  0.13293  0.12713  0.53238  1.0000
  C   C295      1.0  0.15826  0.11541  0.53319  1.0000
  C   C296      1.0  0.17195  0.11231  0.53934  1.0000
  C   C297      1.0  0.13694  0.11355  0.56239  1.0000
  C   C298      1.0  0.13435  0.12949  0.51605  1.0000
  C   C299      1.0  0.15839  0.14871  0.53555  1.0000
  C   C300      1.0  0.16464  0.16103  0.52478  1.0000
  C   C301      1.0  0.18175  0.09775  0.53725  1.0000
  C   C302      1.0  0.13455  0.11331  0.57824  1.0000
  C   C303      1.0  0.12079  0.12735  0.51301  1.0000
  H   H482      1.0  0.13234  0.13662  0.55482  1.0000
  H   H483      1.0  0.15047  0.12890  0.55678  1.0000
  H   H484      1.0  0.15672  0.14127  0.51765  1.0000
  H   H485      1.0  0.14021  0.15063  0.52701  1.0000
  H   H486      1.0  0.12329  0.13532  0.53626  1.0000
  H   H487      1.0  0.12999  0.11651  0.53737  1.0000
  H   H488      1.0  0.15407  0.10537  0.53650  1.0000
  H   H489      1.0  0.16232  0.11696  0.52138  1.0000
  H   H490      1.0  0.16924  0.11201  0.55096  1.0000
  H   H491      1.0  0.17845  0.12055  0.53351  1.0000
  H   H492      1.0  0.12653  0.11281  0.56065  1.0000
  H   H493      1.0  0.14538  0.10388  0.56021  1.0000
  H   H494      1.0  0.14388  0.12193  0.51117  1.0000
  H   H495      1.0  0.13547  0.14063  0.51061  1.0000
  H   H496      1.0  0.15066  0.15319  0.54457  1.0000
  H   H497      1.0  0.16742  0.14075  0.53982  1.0000
  H   H498      1.0  0.16940  0.16628  0.53029  1.0000
  H   H499      1.0  0.17333  0.15693  0.51607  1.0000
  H   H500      1.0  0.15597  0.16925  0.52002  1.0000
  H   H501      1.0  0.18460  0.09726  0.52578  1.0000
  H   H502      1.0  0.19199  0.09613  0.54079  1.0000
  H   H503      1.0  0.17625  0.08888  0.54372  1.0000
  H   H504      1.0  0.12954  0.10417  0.58486  1.0000
  H   H505      1.0  0.14512  0.11197  0.58098  1.0000
  H   H506      1.0  0.12715  0.12337  0.58093  1.0000
  H   H507      1.0  0.12157  0.13017  0.50127  1.0000
  H   H508      1.0  0.11973  0.11601  0.51723  1.0000
  H   H509      1.0  0.11092  0.13445  0.51808  1.0000
  N   N13       1.0  0.14240  0.05907  0.57339  1.0000
  C   C304      1.0  0.15819  0.05463  0.56606  1.0000
  C   C305      1.0  0.14117  0.07037  0.58132  1.0000
  C   C306      1.0  0.13762  0.04595  0.58354  1.0000
  C   C307      1.0  0.13275  0.06518  0.56275  1.0000
  C   C308      1.0  0.13653  0.07848  0.55105  1.0000
  C   C309      1.0  0.16125  0.04588  0.55451  1.0000
  C   C310      1.0  0.12193  0.04862  0.59297  1.0000
  C   C311      1.0  0.14833  0.06505  0.59447  1.0000
  C   C312      1.0  0.12831  0.08185  0.53917  1.0000
  C   C313      1.0  0.17759  0.04126  0.54852  1.0000
  H   H510      1.0  0.16469  0.04800  0.57407  1.0000
  H   H511      1.0  0.16319  0.06414  0.56096  1.0000
  H   H512      1.0  0.14633  0.07918  0.57395  1.0000
  H   H513      1.0  0.12956  0.07573  0.58488  1.0000
  H   H514      1.0  0.14532  0.04040  0.59074  1.0000
  H   H515      1.0  0.13816  0.03786  0.57754  1.0000
  H   H516      1.0  0.13253  0.05671  0.55754  1.0000
  H   H517      1.0  0.12124  0.06872  0.56828  1.0000
  H   H518      1.0  0.14832  0.07695  0.54602  1.0000
  H   H519      1.0  0.13325  0.08800  0.55588  1.0000
  H   H520      1.0  0.15670  0.03610  0.55887  1.0000
  H   H521      1.0  0.15641  0.05256  0.54537  1.0000
  H   H522      1.0  0.11376  0.05158  0.58629  1.0000
  H   H523      1.0  0.11990  0.05735  0.59862  1.0000
  H   H524      1.0  0.14262  0.05739  0.60310  1.0000
  H   H525      1.0  0.15992  0.05958  0.59148  1.0000
  H   H526      1.0  0.11634  0.08435  0.54355  1.0000
  H   H527      1.0  0.13132  0.09128  0.53085  1.0000
  H   H528      1.0  0.13120  0.07251  0.53410  1.0000
  H   H529      1.0  0.18251  0.05081  0.54366  1.0000
  H   H530      1.0  0.18316  0.03415  0.55708  1.0000
  H   H531      1.0  0.17943  0.03527  0.54008  1.0000
  H   H532      1.0  0.12181  0.02581  0.59937  1.0000
  N   N14       1.0  0.08357  0.18438  0.66227  1.0000
  C   C314      1.0  0.09492  0.17090  0.65975  1.0000
  C   C315      1.0  0.07228  0.18622  0.65388  1.0000
  C   C316      1.0  0.09000  0.19756  0.65700  1.0000
  C   C317      1.0  0.10241  0.19742  0.66381  1.0000
  C   C318      1.0  0.10320  0.17080  0.64397  1.0000
  C   C319      1.0  0.05865  0.19866  0.65595  1.0000
  C   C320      1.0  0.10955  0.21018  0.65614  1.0000
  C   C321      1.0  0.11514  0.15714  0.64301  1.0000
  C   C322      1.0  0.04738  0.19802  0.64834  1.0000
  H   H533      1.0  0.08971  0.16145  0.66376  1.0000
  H   H534      1.0  0.10335  0.16849  0.66601  1.0000
  H   H535      1.0  0.06656  0.17763  0.68036  1.0000
  H   H536      1.0  0.06840  0.17607  0.65645  1.0000
  H   H537      1.0  0.07711  0.18831  0.64221  1.0000
  H   H538      1.0  0.09394  0.19970  0.64518  1.0000
  H   H539      1.0  0.11116  0.18759  0.66330  1.0000
  H   H540      1.0  0.09573  0.17106  0.63734  1.0000
  H   H541      1.0  0.10852  0.18007  0.63913  1.0000
  H   H542      1.0  0.08727  0.16204  0.68897  1.0000
  H   H543      1.0  0.11472  0.20967  0.64481  1.0000
  H   H544      1.0  0.10137  0.22045  0.65649  1.0000
  H   H545      1.0  0.11040  0.14745  0.64742  1.0000
  H   H546      1.0  0.12066  0.15725  0.63160  1.0000
  H   H547      1.0  0.12344  0.15648  0.64891  1.0000
  C   C323      1.0  0.09723  0.22048  0.53605  1.0000
  H   H548      1.0  0.03889  0.20813  0.64787  1.0000
  H   H549      1.0  0.07367  0.15838  0.54609  1.0000
  H   H550      1.0  0.23319  0.09793  0.57178  1.0000
  H   H551      1.0  0.19042  0.07201  0.62330  1.0000
  C   C324      1.0  0.31726  0.00467  0.59377  1.0000
  C   C325      1.0  0.02096  0.06822  0.50985  1.0000
  Fe  Fe41      1.0  0.31251  0.99554  0.64967  1.0000
  H   H552      1.0  0.46171  0.02341  0.62038  1.0000
  C   C326      1.0  0.08043  0.20549  0.53537  1.0000
  C   C327      1.0  0.02062  0.05560  0.54168  1.0000
  S   S84       1.0  0.34241  0.02322  0.60970  1.0000
  H   H553      1.0  0.06674  0.05653  0.50802  1.0000
  H   H554      1.0  0.10178  0.01313  0.57435  1.0000
  C   C328      1.0  0.37249  0.06907  0.72412  1.0000
  H   H555      1.0  0.31621  0.01533  0.58620  1.0000
  H   H556      1.0  0.01455  0.19606  0.53862  1.0000
  H   H557      1.0  0.37577  0.02378  0.59993  1.0000
  H   H558      1.0  0.34266  0.08285  0.73670  1.0000
  H   H559      1.0  0.07056  0.00058  0.51910  1.0000
  H   H560      1.0  0.28147  0.00626  0.59846  1.0000
  C   C329      1.0  0.10555  0.22015  0.55695  1.0000
  H   H561      1.0  0.35388  0.06340  0.70162  1.0000
  H   H562      1.0  0.18943  0.14587  0.58962  1.0000
  C   C330      1.0  0.21426  0.00353  0.62352  1.0000
  C   C331      1.0  0.07692  0.17526  0.70430  1.0000
  S   S85       1.0  0.07478  0.23950  0.67117  1.0000
  C   C332      1.0  0.43025  0.04415  0.66567  1.0000
  H   H563      1.0  0.38322  0.00234  0.67100  1.0000
  H   H564      1.0  0.03454  0.22605  0.62365  1.0000
  H   H565      1.0  0.08399  0.01548  0.58558  1.0000
  C   C333      1.0  0.01240  0.23081  0.65483  1.0000
  C   C334      1.0  0.00385  0.23379  0.71714  1.0000
  H   H566      1.0  0.37017  0.99636  0.56014  1.0000
  C   C335      1.0  0.00996  0.19213  0.62450  1.0000
  H   H567      1.0  0.23874  0.01158  0.62296  1.0000
  H   H568      1.0  0.45617  0.99795  0.60638  1.0000
  H   H569      1.0  0.00898  0.19788  0.67580  1.0000
  H   H570      1.0  0.25458  0.01295  0.60027  1.0000
  C   C336      1.0  0.20980  0.07919  0.62267  1.0000
  C   C337      1.0  0.13251  0.07685  0.49932  1.0000
  H   H571      1.0  0.11906  0.01704  0.51005  1.0000
  H   H572      1.0  0.39199  0.08397  0.72167  1.0000
  H   H573      1.0  0.34784  0.00131  0.54200  1.0000
  C   C338      1.0  0.44600  0.04217  0.65700  1.0000
  C   C339      1.0  0.07114  0.16641  0.53637  1.0000
  C   C340      1.0  0.05429  0.14000  0.55834  1.0000
  C   C341      1.0  0.05614  0.13889  0.57333  1.0000
  C   C342      1.0  0.08557  0.16953  0.52675  1.0000
  H   H574      1.0  0.04787  0.16314  0.55619  1.0000
  H   H575      1.0  0.06335  0.16752  0.51764  1.0000
  H   H576      1.0  0.41664  0.01443  0.59033  1.0000
  H   H577      1.0  0.06465  0.17635  0.53985  1.0000
  H   H578      1.0  0.04854  0.13156  0.55907  1.0000
  H   H579      1.0  0.06530  0.13749  0.55140  1.0000
  H   H580      1.0  0.06222  0.12789  0.57742  1.0000
  H   H581      1.0  0.06253  0.14665  0.57304  1.0000
  H   H582      1.0  0.04535  0.14097  0.58078  1.0000
  H   H583      1.0  0.09138  0.17306  0.53277  1.0000
  H   H584      1.0  0.09267  0.15969  0.52334  1.0000
  H   H585      1.0  0.08369  0.17814  0.51713  1.0000
  S   S86       1.0  0.11681  0.20596  0.50171  1.0000
  H   H586      1.0  0.11355  0.23466  0.51206  1.0000
  C   C343      1.0  0.21381  0.11235  0.59123  1.0000
  H   H587      1.0  0.17902  0.00376  0.51359  1.0000
  N   N15       1.0  0.03413  0.06614  0.51593  1.0000
  H   H588      1.0  0.24682  0.10689  0.62414  1.0000
  H   H589      1.0  0.35091  0.06421  0.72670  1.0000
  H   H590      1.0  0.17690  0.09467  0.49322  1.0000
  C   C344      1.0  0.04476  0.05219  0.51373  1.0000
  H   H591      1.0  0.46208  0.00444  0.62572  1.0000
  H   H592      1.0  0.03894  0.06580  0.53599  1.0000
  H   H593      1.0  0.01137  0.07544  0.51533  1.0000
  C   C345      1.0  0.24296  0.11639  0.61598  1.0000
  H   H594      1.0  0.10711  0.21253  0.53240  1.0000
  C   C346      1.0  0.23990  0.09332  0.57999  1.0000
  C   C347      1.0  0.00764  0.21786  0.66009  1.0000
  H   H595      1.0  0.16673  0.07456  0.49321  1.0000
  H   H596      1.0  0.01250  0.19438  0.61260  1.0000
  S   S87       1.0  0.33274  0.00215  0.64928  1.0000
  H   H597      1.0  0.18817  0.08173  0.63685  1.0000
  H   H598      1.0  0.36636  0.05063  0.72130  1.0000
  H   H599      1.0  0.35619  0.08042  0.70261  1.0000
  H   H600      1.0  0.11911  0.22120  0.58537  1.0000
  H   H601      1.0  0.25203  0.12206  0.61064  1.0000
  H   H602      1.0  0.38621  0.01836  0.61346  1.0000
  C   C348      1.0  0.27767  0.00725  0.57815  1.0000
  C   C349      1.0  0.47849  0.03853  0.65658  1.0000
  C   C350      1.0  0.11966  0.07202  0.49727  1.0000
  C   C351      1.0  0.01155  0.10193  0.54665  1.0000
  H   H603      1.0  0.22426  0.08109  0.59258  1.0000
  H   H604      1.0  0.34418  0.00667  0.55869  1.0000
  H   H605      1.0  0.11903  0.23318  0.55995  1.0000
  H   H606      1.0  0.40378  0.99269  0.57451  1.0000
  H   H607      1.0  0.47381  0.00356  0.66751  1.0000
  H   H608      1.0  0.01694  0.21893  0.73171  1.0000
  Fe  Fe42      1.0  0.12857  0.99920  0.55061  1.0000
  H   H609      1.0  0.44599  0.04034  0.64655  1.0000
  H   H610      1.0  0.06246  0.02719  0.52741  1.0000
  H   H611      1.0  0.01570  0.04675  0.52056  1.0000
  Fe  Fe43      1.0  0.40448  0.02046  0.73673  1.0000
  H   H612      1.0  0.23172  0.00228  0.60515  1.0000
  H   H613      1.0  0.05249  0.19673  0.63720  1.0000
  H   H614      1.0  0.47385  0.04825  0.64908  1.0000
  H   H615      1.0  0.39851  0.00327  0.64522  1.0000
  C   C352      1.0  0.06003  0.04986  0.51686  1.0000
  H   H616      1.0  0.10764  0.05501  0.50649  1.0000
  C   C353      1.0  0.25001  0.05862  0.52332  1.0000
  C   C354      1.0  0.08780  0.24147  0.54700  1.0000
  H   H617      1.0  0.12610  0.03270  0.61225  1.0000
  H   H618      1.0  0.14008  0.21458  0.50664  1.0000
  H   H619      1.0  0.23782  0.99499  0.63541  1.0000
  N   N16       1.0  0.10106  0.22976  0.54350  1.0000
  N   N17       1.0  0.21936  0.09948  0.60218  1.0000
  H   H620      1.0  0.09343  0.22706  0.52621  1.0000
  H   H621      1.0  0.33518  0.00914  0.70959  1.0000
  H   H622      1.0  0.25143  0.00887  0.64213  1.0000
  H   H623      1.0  0.43036  0.04195  0.73579  1.0000
  H   H624      1.0  0.02461  0.20096  0.52034  1.0000
  C   C355      1.0  0.06827  0.03418  0.51805  1.0000
  H   H625      1.0  0.09278  0.99838  0.52756  1.0000
  Fe  Fe44      1.0  0.38889  0.02141  0.71319  1.0000
  H   H626      1.0  0.05326  0.19819  0.66740  1.0000
  C   C356      1.0  0.04540  0.15501  0.55214  1.0000
  H   H627      1.0  0.08059  0.23737  0.55733  1.0000
  H   H628      1.0  0.24330  0.04801  0.51105  1.0000
  H   H629      1.0  0.13638  0.08291  0.60474  1.0000
  H   H630      1.0  0.08146  0.20731  0.65900  1.0000
  C   C357      1.0  0.02820  0.23075  0.61515  1.0000
  H   H631      1.0  0.33604  0.99558  0.62391  1.0000
  C   C358      1.0  0.47941  0.01232  0.66607  1.0000
  H   H632      1.0  0.15340  0.07348  0.60985  1.0000
  H   H633      1.0  0.07112  0.19361  0.68053  1.0000
  H   H634      1.0  0.09574  0.17648  0.68704  1.0000
  H   H635      1.0  0.50092  0.02694  0.65861  1.0000
  H   H636      1.0  0.11812  0.21003  0.66150  1.0000
  H   H637      1.0  0.45432  0.01510  0.64668  1.0000
  C   C359      1.0  0.21205  0.05765  0.50449  1.0000
  H   H638      1.0  0.26256  0.04472  0.50917  1.0000
  C   C360      1.0  0.07848  0.22665  0.62660  1.0000
  H   H639      1.0  0.45137  0.01984  0.66788  1.0000
  C   C361      1.0  0.26034  0.99916  0.64099  1.0000
  C   C362      1.0  0.18977  0.00453  0.51457  1.0000
  H   H640      1.0  0.03369  0.15503  0.55718  1.0000
  H   H641      1.0  0.07014  0.14998  0.52692  1.0000
  H   H642      1.0  0.04790  0.18982  0.52818  1.0000
  C   C363      1.0  0.13738  0.20566  0.51528  1.0000
  H   H643      1.0  0.15354  0.08547  0.59253  1.0000
  C   C364      1.0  0.02696  0.22366  0.67294  1.0000
  S   S88       1.0  0.03829  0.22691  0.68213  1.0000
  H   H644      1.0  0.37031  0.08081  0.71929  1.0000
  Fe  Fe45      1.0  0.39748  0.99321  0.73396  1.0000
  C   C365      1.0  0.03671  0.17253  0.53166  1.0000
  H   H645      1.0  0.07571  0.21880  0.55050  1.0000
  H   H646      1.0  0.12388  0.22659  0.53294  1.0000
  C   C366      1.0  0.01153  0.21859  0.72345  1.0000
  H   H647      1.0  0.03359  0.14495  0.53768  1.0000
  H   H648      1.0  0.48539  0.02088  0.63771  1.0000
  H   H649      1.0  0.24526  0.10167  0.58011  1.0000
  H   H650      1.0  0.01021  0.05721  0.53851  1.0000
  H   H651      1.0  0.19113  0.12073  0.60154  1.0000
  C   C367      1.0  0.04444  0.14711  0.53151  1.0000
  H   H652      1.0  0.05086  0.10409  0.50159  1.0000
  H   H653      1.0  0.49067  0.00864  0.66004  1.0000
  H   H654      1.0  0.05929  0.05285  0.52693  1.0000
  C   C368      1.0  0.42384  0.00133  0.66405  1.0000
  C   C369      1.0  0.39252  0.08099  0.73313  1.0000
  C   C370      1.0  0.46734  0.01287  0.62599  1.0000
  H   H655      1.0  0.07654  0.99779  0.56212  1.0000
  H   H656      1.0  0.02244  0.07727  0.53286  1.0000
  H   H657      1.0  0.08865  0.03660  0.59179  1.0000
  S   S89       1.0  0.44198  0.00083  0.69607  1.0000
  H   H658      1.0  0.36829  0.00982  0.54395  1.0000
  H   H659      1.0  0.24043  0.06776  0.52405  1.0000
  H   H660      1.0  0.21141  0.00481  0.50193  1.0000
  Fe  Fe46      1.0  0.14814  0.00133  0.56832  1.0000
  H   H661      1.0  0.08942  0.03884  0.57309  1.0000
  H   H662      1.0  0.12703  0.04900  0.50525  1.0000
  S   S90       1.0  0.10735  0.99412  0.55197  1.0000
  H   H663      1.0  0.41366  0.00625  0.66069  1.0000
  H   H664      1.0  0.25978  0.06217  0.52334  1.0000
  H   H665      1.0  0.47131  0.00202  0.64675  1.0000
  H   H666      1.0  0.45758  0.18834  0.72785  1.0000
  C   C371      1.0  0.01627  0.05445  0.51006  1.0000
  H   H667      1.0  0.19746  0.01140  0.49183  1.0000
  H   H668      1.0  0.08989  0.20277  0.55303  1.0000
  H   H669      1.0  0.48919  0.99860  0.69919  1.0000
  H   H670      1.0  0.00463  0.17459  0.64221  1.0000
  C   C372      1.0  0.35072  0.99836  0.55259  1.0000
  H   H671      1.0  0.21258  0.01535  0.62210  1.0000
  C   C373      1.0  0.45920  0.99749  0.59489  1.0000
  C   C374      1.0  0.11769  0.00045  0.50034  1.0000
  H   H672      1.0  0.32139  0.00546  0.60270  1.0000
  H   H673      1.0  0.00944  0.06826  0.55791  1.0000
  H   H674      1.0  0.15084  0.20787  0.52794  1.0000
  C   C375      1.0  0.25279  0.06563  0.49623  1.0000
  C   C376      1.0  0.23012  0.08808  0.59479  1.0000
  H   H675      1.0  0.41748  0.00402  0.55069  1.0000
  C   C377      1.0  0.09485  0.03254  0.58201  1.0000
  H   H676      1.0  0.36738  0.00539  0.66423  1.0000
  H   H677      1.0  0.22276  0.11745  0.58409  1.0000
  C   C378      1.0  0.44555  0.00036  0.58917  1.0000
  H   H678      1.0  0.10090  0.23457  0.57145  1.0000
  S   S91       1.0  0.38341  0.01468  0.73732  1.0000
  H   H679      1.0  0.04008  0.04283  0.52026  1.0000
  H   H680      1.0  0.46900  0.01424  0.68831  1.0000
  H   H681      1.0  0.19310  0.99608  0.52377  1.0000
  H   H682      1.0  0.35681  0.99605  0.68582  1.0000
  H   H683      1.0  0.21447  0.08100  0.63076  1.0000
  H   H684      1.0  0.32103  0.00320  0.56629  1.0000
  H   H685      1.0  0.37193  0.06674  0.69711  1.0000
  C   C379      1.0  0.20642  0.09324  0.61124  1.0000
  C   C380      1.0  0.36179  0.00413  0.59398  1.0000
  H   H686      1.0  0.02623  0.20858  0.53405  1.0000
  H   H687      1.0  0.10610  0.03429  0.57913  1.0000
  C   C381      1.0  0.11044  0.22722  0.56624  1.0000
  H   H688      1.0  0.01025  0.04927  0.56410  1.0000
  C   C382      1.0  0.08540  0.21191  0.54494  1.0000
  H   H689      1.0  0.19833  0.10105  0.61722  1.0000
  C   C383      1.0  0.32790  0.99306  0.58638  1.0000
  H   H690      1.0  0.06947  0.24063  0.72084  1.0000
  H   H691      1.0  0.02225  0.09557  0.50387  1.0000
  C   C384      1.0  0.25178  0.08092  0.57502  1.0000
  H   H692      1.0  0.39170  0.03079  0.59682  1.0000
  H   H693      1.0  0.20946  0.10879  0.58396  1.0000
  H   H694      1.0  0.25879  0.08501  0.56460  1.0000
  C   C385      1.0  0.23839  0.11175  0.60484  1.0000
  H   H695      1.0  0.10948  0.08013  0.49957  1.0000
  H   H696      1.0  0.23370  0.12384  0.62141  1.0000
  C   C386      1.0  0.09248  0.22860  0.62495  1.0000
  H   H697      1.0  0.24680  0.07286  0.57352  1.0000
  C   C387      1.0  0.10229  0.00746  0.59700  1.0000
  H   H698      1.0  0.02693  0.04444  0.54168  1.0000
  H   H699      1.0  0.46563  0.00576  0.58882  1.0000
  C   C388      1.0  0.36208  0.06243  0.71999  1.0000
  C   C389      1.0  0.42589  0.00385  0.67642  1.0000
  H   H700      1.0  0.21746  0.10980  0.61926  1.0000
  C   C390      1.0  0.01562  0.11510  0.54344  1.0000
  H   H701      1.0  0.02419  0.04879  0.50192  1.0000
  H   H702      1.0  0.23087  0.09365  0.61927  1.0000
  C   C391      1.0  0.01001  0.12646  0.53308  1.0000
  H   H703      1.0  0.23502  0.12160  0.59687  1.0000
  C   C392      1.0  0.22603  0.10348  0.61201  1.0000
  H   H704      1.0  0.06629  0.17208  0.70710  1.0000
  H   H705      1.0  0.47548  0.04166  0.66708  1.0000
  N   N18       1.0  0.47190  0.02616  0.65761  1.0000
  H   H706      1.0  0.44895  0.17567  0.72543  1.0000
  H   H707      1.0  0.03397  0.11595  0.49813  1.0000
  H   H708      1.0  0.06910  0.23372  0.63159  1.0000
  H   H709      1.0  0.01292  0.13672  0.53062  1.0000
  H   H710      1.0  0.47895  0.01043  0.62029  1.0000
  C   C393      1.0  0.27625  0.00039  0.59412  1.0000
  H   H711      1.0  0.26764  0.00201  0.65843  1.0000
  H   H712      1.0  0.50196  0.99915  0.62830  1.0000
  H   H713      1.0  0.33873  0.99584  0.58319  1.0000
  H   H714      1.0  0.00857  0.23857  0.64591  1.0000
  C   C394      1.0  0.36673  0.99889  0.54985  1.0000
  H   H715      1.0  0.27369  0.00109  0.57289  1.0000
  N   N19       1.0  0.13812  0.08860  0.48751  1.0000
  H   H716      1.0  0.41569  0.07114  0.72803  1.0000
  H   H717      1.0  0.04968  0.99705  0.61571  1.0000
  H   H718      1.0  0.08620  0.99555  0.62212  1.0000
  H   H719      1.0  0.00335  0.22649  0.69883  1.0000
  C   C395      1.0  0.40829  0.07949  0.73374  1.0000
  H   H720      1.0  0.49884  0.03389  0.64041  1.0000
  C   C396      1.0  0.45088  0.18021  0.73353  1.0000
  H   H721      1.0  0.50029  0.99630  0.68182  1.0000
  C   C397      1.0  0.42570  0.99228  0.57713  1.0000
  C   C398      1.0  0.34540  0.99425  0.61527  1.0000
  H   H722      1.0  0.32720  0.99501  0.54502  1.0000
  H   H723      1.0  0.25519  0.99659  0.59596  1.0000
  H   H724      1.0  0.05892  0.99492  0.62969  1.0000
  H   H725      1.0  0.07307  0.99374  0.59821  1.0000
  C   C399      1.0  0.48891  0.99828  0.68824  1.0000
  H   H726      1.0  0.00416  0.14933  0.63959  1.0000
  H   H727      1.0  0.49785  0.05172  0.66148  1.0000
  C   C400      1.0  0.50069  0.04931  0.65068  1.0000
  C   C401      1.0  0.43489  0.99235  0.65616  1.0000
  C   C402      1.0  0.00367  0.17838  0.63086  1.0000
  H   H728      1.0  0.39556  0.05787  0.73684  1.0000
  C   C403      1.0  0.41912  0.99216  0.55437  1.0000
  H   H729      1.0  0.11721  0.99226  0.52302  1.0000
  Fe  Fe47      1.0  0.44705  0.06365  0.81482  1.0000
  S   S92       1.0  0.46326  0.05727  0.79551  1.0000
  S   S93       1.0  0.43821  0.04851  0.83472  1.0000
  Fe  Fe48      1.0  0.44306  0.09547  0.80183  1.0000
  H   H730      1.0  0.50180  0.07666  0.75550  1.0000
  S   S94       1.0  0.43216  0.11719  0.80769  1.0000
  Fe  Fe49      1.0  0.44757  0.07350  0.78303  1.0000
  C   C404      1.0  0.50037  0.08980  0.83798  1.0000
  Fe  Fe50      1.0  0.47255  0.07582  0.79482  1.0000
  H   H731      1.0  0.46252  0.10264  0.91349  1.0000
  S   S95       1.0  0.43083  0.07902  0.80255  1.0000
  S   S96       1.0  0.45794  0.08032  0.81551  1.0000
  Fe  Fe51      1.0  0.44453  0.17613  0.87856  1.0000
  S   S97       1.0  0.43659  0.15551  0.88424  1.0000
  S   S98       1.0  0.43100  0.19850  0.87997  1.0000
  Fe  Fe52      1.0  0.47651  0.16107  0.87369  1.0000
  S   S99       1.0  0.47104  0.13959  0.87923  1.0000
  H   H732      1.0  0.47033  0.23576  0.89190  1.0000
  Fe  Fe53      1.0  0.45457  0.14954  0.86551  1.0000
  S   S100      1.0  0.45851  0.13458  0.85046  1.0000
  Fe  Fe54      1.0  0.45386  0.14714  0.89716  1.0000
  S   S101      1.0  0.45188  0.13184  0.91877  1.0000
  S   S102      1.0  0.46121  0.17088  0.85879  1.0000
  S   S103      1.0  0.46050  0.16804  0.89273  1.0000
  H   H733      1.0  0.39821  0.99734  0.76409  1.0000
  C   C405      1.0  0.38246  0.21618  0.94851  1.0000
  H   H734      1.0  0.49146  0.05065  0.85216  1.0000
  H   H735      1.0  0.43050  0.11300  0.78040  1.0000
  S   S104      1.0  0.47506  0.02405  0.88245  1.0000
  C   C406      1.0  0.49852  0.05732  0.75281  1.0000
  H   H736      1.0  0.47446  0.14737  0.91244  1.0000
  H   H737      1.0  0.46592  0.13136  0.78951  1.0000
  H   H738      1.0  0.44844  0.14263  0.79474  1.0000
  H   H739      1.0  0.48670  0.02392  0.93171  1.0000
  C   C407      1.0  0.46440  0.23533  0.90322  1.0000
  H   H740      1.0  0.48689  0.09439  0.91998  1.0000
  S   S105      1.0  0.40524  0.03025  0.75482  1.0000
  H   H741      1.0  0.49813  0.07036  0.86541  1.0000
  H   H742      1.0  0.48542  0.16449  0.82267  1.0000
  S   S106      1.0  0.42537  0.21041  0.94068  1.0000
  C   C408      1.0  0.47600  0.20184  0.87277  1.0000
  H   H743      1.0  0.48337  0.00666  0.81097  1.0000
  C   C409      1.0  0.45656  0.00373  0.84155  1.0000
  H   H744      1.0  0.45194  0.02617  0.82060  1.0000
  H   H745      1.0  0.48404  0.14503  0.95105  1.0000
  Fe  Fe55      1.0  0.41796  0.23253  0.94555  1.0000
  H   H746      1.0  0.44817  0.15251  0.74361  1.0000
  C   C410      1.0  0.42846  0.20205  0.89697  1.0000
  H   H747      1.0  0.45505  0.21650  0.90935  1.0000
  C   C411      1.0  0.43652  0.05316  0.74817  1.0000
  C   C412      1.0  0.42553  0.20766  0.92394  1.0000
  C   C413      1.0  0.42727  0.19360  0.92253  1.0000
  C   C414      1.0  0.42882  0.19080  0.90910  1.0000
  C   C415      1.0  0.47010  0.20765  0.88643  1.0000
  H   H748      1.0  0.42782  0.18477  0.93180  1.0000
  H   H749      1.0  0.43029  0.17988  0.90815  1.0000
  C   C416      1.0  0.46781  0.12800  0.92518  1.0000
  C   C417      1.0  0.47128  0.11536  0.93539  1.0000
  C   C418      1.0  0.48414  0.11227  0.94035  1.0000
  S   S107      1.0  0.45829  0.09175  0.78086  1.0000
  H   H750      1.0  0.46597  0.14336  0.80789  1.0000
  C   C419      1.0  0.47706  0.13762  0.92021  1.0000
  H   H751      1.0  0.46413  0.10788  0.93930  1.0000
  H   H752      1.0  0.45662  0.01404  0.84382  1.0000
  C   C420      1.0  0.39430  0.99406  0.77586  1.0000
  C   C421      1.0  0.46642  0.14961  0.79669  1.0000
  H   H753      1.0  0.43303  0.00872  0.84177  1.0000
  C   C422      1.0  0.42265  0.05228  0.77248  1.0000
  C   C423      1.0  0.41417  0.04401  0.77029  1.0000
  C   C424      1.0  0.41680  0.04020  0.75705  1.0000
  H   H754      1.0  0.44337  0.24113  0.89738  1.0000
  H   H755      1.0  0.47962  0.09755  0.97653  1.0000
  H   H756      1.0  0.42035  0.05518  0.78268  1.0000
  H   H757      1.0  0.40544  0.04059  0.77892  1.0000
  H   H758      1.0  0.43409  0.13763  0.75395  1.0000
  C   C425      1.0  0.47796  0.12271  0.76496  1.0000
  C   C426      1.0  0.43913  0.12206  0.81985  1.0000
  C   C427      1.0  0.45348  0.11612  0.82133  1.0000
  C   C428      1.0  0.45905  0.12036  0.83061  1.0000
  C   C429      1.0  0.45044  0.13045  0.83870  1.0000
  C   C430      1.0  0.43611  0.13664  0.83710  1.0000
  C   C431      1.0  0.43052  0.13252  0.82761  1.0000
  H   H759      1.0  0.46047  0.10855  0.81503  1.0000
  H   H760      1.0  0.47023  0.11603  0.83134  1.0000
  H   H761      1.0  0.42935  0.14450  0.84321  1.0000
  H   H762      1.0  0.41944  0.13731  0.82643  1.0000
  C   C432      1.0  0.44881  0.04243  0.84763  1.0000
  C   C433      1.0  0.46405  0.03896  0.84367  1.0000
  C   C434      1.0  0.47228  0.03296  0.85426  1.0000
  C   C435      1.0  0.46527  0.03083  0.86880  1.0000
  C   C436      1.0  0.45005  0.03450  0.87267  1.0000
  C   C437      1.0  0.44185  0.04012  0.86213  1.0000
  H   H763      1.0  0.46943  0.04052  0.83246  1.0000
  H   H764      1.0  0.48399  0.03007  0.85117  1.0000
  H   H765      1.0  0.44457  0.03287  0.88387  1.0000
  H   H766      1.0  0.43006  0.04268  0.86521  1.0000
  H   H767      1.0  0.40946  0.07654  0.74503  1.0000
  C   C438      1.0  0.43384  0.05703  0.76138  1.0000
  H   H768      1.0  0.47629  0.21093  0.79973  1.0000
  H   H769      1.0  0.47532  0.16617  0.93148  1.0000
  H   H770      1.0  0.50024  0.04898  0.81413  1.0000
  C   C439      1.0  0.46460  0.17374  0.93109  1.0000
  H   H771      1.0  0.39609  0.22937  0.93295  1.0000
  H   H772      1.0  0.45537  0.19367  0.91844  1.0000
  C   C440      1.0  0.49327  0.10193  0.79373  1.0000
  H   H773      1.0  0.49647  0.14245  0.92194  1.0000
  H   H774      1.0  0.45714  0.16799  0.92954  1.0000
  H   H775      1.0  0.43307  0.14049  0.97027  1.0000
  H   H776      1.0  0.36541  0.22993  0.92967  1.0000
  C   C441      1.0  0.49846  0.15077  0.96001  1.0000
  H   H777      1.0  0.43875  0.16244  0.75714  1.0000
  H   H778      1.0  0.47117  0.23450  0.98205  1.0000
  H   H779      1.0  0.47061  0.18250  0.90871  1.0000
  C   C442      1.0  0.48258  0.20623  0.89387  1.0000
  C   C443      1.0  0.44012  0.14510  0.96012  1.0000
  H   H780      1.0  0.50089  0.16625  0.91436  1.0000
  H   H781      1.0  0.39607  0.22671  0.90331  1.0000
  H   H782      1.0  0.38579  0.23785  0.89079  1.0000
  H   H783      1.0  0.48862  0.20927  0.78260  1.0000
  H   H784      1.0  0.39540  0.20447  0.89701  1.0000
  H   H785      1.0  0.37452  0.20985  0.94911  1.0000
  H   H786      1.0  0.47067  0.11633  0.77321  1.0000
  H   H787      1.0  0.34223  0.06818  0.75231  1.0000
  H   H788      1.0  0.46871  0.02534  0.79814  1.0000
  H   H789      1.0  0.46162  0.20183  0.89335  1.0000
  C   C444      1.0  0.48997  0.21435  0.91137  1.0000
  H   H790      1.0  0.47693  0.01836  0.82308  1.0000
  C   C445      1.0  0.46004  0.01925  0.80067  1.0000
  H   H791      1.0  0.47757  0.14209  0.74905  1.0000
  C   C446      1.0  0.47685  0.19494  0.91996  1.0000
  H   H792      1.0  0.36535  0.22523  0.90200  1.0000
  C   C447      1.0  0.50042  0.16450  0.89350  1.0000
  H   H793      1.0  0.48348  0.10778  0.75090  1.0000
  H   H794      1.0  0.33662  0.08545  0.76793  1.0000
  C   C448      1.0  0.38452  0.20999  0.89461  1.0000
  C   C449      1.0  0.46945  0.13556  0.75548  1.0000
  H   H795      1.0  0.48922  0.16359  0.89654  1.0000
  C   C450      1.0  0.45367  0.01603  0.81708  1.0000
  H   H796      1.0  0.48197  0.06702  0.89672  1.0000
  H   H797      1.0  0.49762  0.04622  0.92015  1.0000
  C   C451      1.0  0.48952  0.13484  0.92561  1.0000
  N   N20       1.0  0.46290  0.00389  0.82584  1.0000
  H   H798      1.0  0.33720  0.10016  0.75229  1.0000
  H   H799      1.0  0.46038  0.21991  0.92320  1.0000
  C   C452      1.0  0.49589  0.15673  0.82363  1.0000
  H   H800      1.0  0.49742  0.20661  0.81059  1.0000
  C   C453      1.0  0.44100  0.00096  0.84776  1.0000
  C   C454      1.0  0.46018  0.15127  0.77315  1.0000
  C   C455      1.0  0.42650  0.12196  0.77191  1.0000
  H   H801      1.0  0.44323  0.99458  0.86998  1.0000
  H   H802      1.0  0.48194  0.10345  0.79361  1.0000
  N   N21       1.0  0.47508  0.14105  0.97398  1.0000
  C   C456      1.0  0.46402  0.21965  0.91160  1.0000
  H   H803      1.0  0.49681  0.18421  0.79501  1.0000
  H   H804      1.0  0.44253  0.01429  0.81899  1.0000
  H   H805      1.0  0.45986  0.17726  0.94137  1.0000
  H   H806      1.0  0.49696  0.11830  0.74775  1.0000
  C   C457      1.0  0.42477  0.21900  0.91190  1.0000
  H   H807      1.0  0.47014  0.02772  0.91599  1.0000
  H   H808      1.0  0.36316  0.08892  0.74022  1.0000
  C   C458      1.0  0.45926  0.14429  0.97324  1.0000
  C   C459      1.0  0.48387  0.01431  0.93062  1.0000
  H   H809      1.0  0.46688  0.20308  0.86766  1.0000
  H   H810      1.0  0.43508  0.01340  0.86419  1.0000
  H   H811      1.0  0.48227  0.00231  0.96069  1.0000
  N   N22       1.0  0.50177  0.99536  0.94524  1.0000
  C   C460      1.0  0.46629  0.18669  0.91862  1.0000
  H   H812      1.0  0.48420  0.04786  0.90033  1.0000
  C   C461      1.0  0.36540  0.03279  0.77078  1.0000
  H   H813      1.0  0.45242  0.16171  0.77434  1.0000
  H   H814      1.0  0.43695  0.15703  0.95800  1.0000
  H   H815      1.0  0.45052  0.99325  0.80750  1.0000
  H   H816      1.0  0.48404  0.12673  0.77030  1.0000
  H   H817      1.0  0.48932  0.21385  0.88651  1.0000
  C   C462      1.0  0.42622  0.21620  0.89843  1.0000
  C   C463      1.0  0.45989  0.14266  0.78883  1.0000
  H   H818      1.0  0.42594  0.22494  0.88907  1.0000
  H   H819      1.0  0.46502  0.00926  0.79664  1.0000
  H   H820      1.0  0.39199  0.20868  0.95249  1.0000
  H   H821      1.0  0.32348  0.08974  0.75702  1.0000
  H   H822      1.0  0.43831  0.14163  0.95121  1.0000
  S   S108      1.0  0.49680  0.07433  0.79051  1.0000
  H   H823      1.0  0.46252  0.14445  0.95022  1.0000
  H   H824      1.0  0.37828  0.20167  0.89626  1.0000
  H   H825      1.0  0.47002  0.24020  0.90827  1.0000
  H   H826      1.0  0.49166  0.22436  0.90322  1.0000
  H   H827      1.0  0.43506  0.14324  0.77723  1.0000
  H   H828      1.0  0.39261  0.21572  0.92660  1.0000
  H   H829      1.0  0.49829  0.15692  0.96779  1.0000
  H   H830      1.0  0.44847  0.12728  0.77995  1.0000
  H   H831      1.0  0.48746  0.18717  0.91939  1.0000
  N   N23       1.0  0.47821  0.20876  0.90893  1.0000
  C   C464      1.0  0.47663  0.14582  0.98651  1.0000
  H   H832      1.0  0.50054  0.18007  0.83104  1.0000
  H   H833      1.0  0.48849  0.02059  0.90728  1.0000
  H   H834      1.0  0.38782  0.06509  0.75237  1.0000
  H   H835      1.0  0.46654  0.13157  0.74753  1.0000
  H   H836      1.0  0.48653  0.21733  0.92199  1.0000
  C   C465      1.0  0.49923  0.20285  0.80064  1.0000
  C   C466      1.0  0.33503  0.08919  0.75677  1.0000
  C   C467      1.0  0.49139  0.06171  0.83033  1.0000
  H   H837      1.0  0.38232  0.99820  0.77851  1.0000
  H   H838      1.0  0.49498  0.11207  0.83960  1.0000
  C   C468      1.0  0.47928  0.01812  0.91637  1.0000
  C   C469      1.0  0.44457  0.13624  0.77143  1.0000
  C   C470      1.0  0.49314  0.12217  0.93559  1.0000
  C   C471      1.0  0.48289  0.14965  0.96034  1.0000
  N   N24       1.0  0.48271  0.07312  0.85252  1.0000
  C   C472      1.0  0.48449  0.08771  0.84342  1.0000
  C   C473      1.0  0.46724  0.07195  0.85439  1.0000
  C   C474      1.0  0.48621  0.07159  0.86676  1.0000
  H   H839      1.0  0.35526  0.03175  0.76864  1.0000
  H   H840      1.0  0.44510  0.05678  0.73947  1.0000
  H   H841      1.0  0.49145  0.12392  0.79431  1.0000
  C   C475      1.0  0.48185  0.05873  0.87875  1.0000
  C   C476      1.0  0.45518  0.08297  0.86198  1.0000
  C   C477      1.0  0.44018  0.07986  0.86429  1.0000
  C   C478      1.0  0.50264  0.08849  0.79316  1.0000
  H   H842      1.0  0.46391  0.08622  0.92702  1.0000
  C   C479      1.0  0.48718  0.05738  0.89215  1.0000
  H   H843      1.0  0.47825  0.09616  0.84953  1.0000
  H   H844      1.0  0.47963  0.09035  0.83391  1.0000
  H   H845      1.0  0.46468  0.07357  0.84383  1.0000
  H   H846      1.0  0.46581  0.06091  0.86010  1.0000
  H   H847      1.0  0.48098  0.08151  0.87098  1.0000
  H   H848      1.0  0.48119  0.19022  0.87532  1.0000
  H   H849      1.0  0.48412  0.20775  0.86506  1.0000
  H   H850      1.0  0.48937  0.07765  0.91522  1.0000
  H   H851      1.0  0.48060  0.23676  0.93687  1.0000
  H   H852      1.0  0.48079  0.05946  0.83096  1.0000
  H   H853      1.0  0.48185  0.12227  0.96491  1.0000
  H   H854      1.0  0.49996  0.11637  0.89990  1.0000
  H   H855      1.0  0.48668  0.04859  0.87512  1.0000
  H   H856      1.0  0.46985  0.05989  0.88193  1.0000
  H   H857      1.0  0.45688  0.08274  0.87257  1.0000
  H   H858      1.0  0.45494  0.09404  0.85532  1.0000
  H   H859      1.0  0.43166  0.08802  0.86946  1.0000
  H   H860      1.0  0.43784  0.08032  0.85388  1.0000
  H   H861      1.0  0.43963  0.06905  0.87133  1.0000
  H   H862      1.0  0.38603  0.21579  0.88318  1.0000
  H   H863      1.0  0.46508  0.08569  0.90880  1.0000
  C   C480      1.0  0.46800  0.09109  0.91560  1.0000
  H   H864      1.0  0.44000  0.02227  0.79364  1.0000
  H   H865      1.0  0.46014  0.16076  0.79702  1.0000
  H   H866      1.0  0.41731  0.12966  0.77706  1.0000
  H   H867      1.0  0.35964  0.04994  0.74604  1.0000
  C   C481      1.0  0.48852  0.99233  0.95688  1.0000
  H   H868      1.0  0.47661  0.15751  0.98352  1.0000
  H   H869      1.0  0.36433  0.03034  0.78255  1.0000
  C   C482      1.0  0.49299  0.06135  0.84548  1.0000
  C   C483      1.0  0.47787  0.00715  0.82227  1.0000
  H   H870      1.0  0.39944  0.99907  0.78125  1.0000
  H   H871      1.0  0.46458  0.21909  0.88338  1.0000
  H   H872      1.0  0.45453  0.15602  0.97239  1.0000
  H   H873      1.0  0.47116  0.15381  0.76844  1.0000
  H   H874      1.0  0.49517  0.10362  0.76319  1.0000
  H   H875      1.0  0.37785  0.04847  0.76725  1.0000
  H   H876      1.0  0.45340  0.03141  0.78085  1.0000
  H   H877      1.0  0.47419  0.01215  0.93919  1.0000
  H   H878      1.0  0.44290  0.03839  0.79636  1.0000
  C   C484      1.0  0.43873  0.12943  0.76255  1.0000
  H   H879      1.0  0.47800  0.14975  0.79139  1.0000
  C   C485      1.0  0.36965  0.05170  0.74773  1.0000
  S   S109      1.0  0.44428  0.06839  0.76314  1.0000
  N   N25       1.0  0.45617  0.14468  0.76322  1.0000
  H   H880      1.0  0.37866  0.04338  0.74321  1.0000
  H   H881      1.0  0.48687  0.10245  0.94813  1.0000
  H   H882      1.0  0.45888  0.12799  0.96234  1.0000
  H   H883      1.0  0.47362  0.19701  0.93097  1.0000
  H   H884      1.0  0.49786  0.15572  0.83434  1.0000
  H   H885      1.0  0.49922  0.05593  0.88965  1.0000
  C   C486      1.0  0.44834  0.02837  0.79242  1.0000
  H   H886      1.0  0.50249  0.13086  0.84986  1.0000
  C   C487      1.0  0.38756  0.22399  0.93306  1.0000
  H   H887      1.0  0.37734  0.22397  0.95555  1.0000
  H   H888      1.0  0.48538  0.13868  0.83218  1.0000
  C   C488      1.0  0.43572  0.00232  0.86337  1.0000
  H   H889      1.0  0.49160  0.11445  0.86950  1.0000
  H   H890      1.0  0.42350  0.22983  0.91292  1.0000
  C   C489      1.0  0.49405  0.14219  0.82304  1.0000
  H   H891      1.0  0.42237  0.11740  0.76526  1.0000
  C   C490      1.0  0.48452  0.08934  0.91258  1.0000
  H   H892      1.0  0.49204  0.07228  0.82294  1.0000
  H   H893      1.0  0.36280  0.07744  0.75736  1.0000
  H   H894      1.0  0.48398  0.10738  0.89447  1.0000
  H   H895      1.0  0.49432  0.99258  0.92792  1.0000
  C   C491      1.0  0.48213  0.12536  0.97465  1.0000
  H   H896      1.0  0.49934  0.01671  0.94832  1.0000
  C   C492      1.0  0.42815  0.04474  0.74603  1.0000
  H   H897      1.0  0.49512  0.10958  0.82240  1.0000
  S   S110      1.0  0.39874  0.23666  0.96367  1.0000
  S   S111      1.0  0.43228  0.24075  0.95387  1.0000
  H   H898      1.0  0.50051  0.12367  0.87660  1.0000
  H   H899      1.0  0.48819  0.09046  0.88988  1.0000
  C   C493      1.0  0.44977  0.15678  0.75209  1.0000
  H   H900      1.0  0.49860  0.16919  0.94173  1.0000
  C   C494      1.0  0.49064  0.09622  0.89672  1.0000
  C   C495      1.0  0.49868  0.11351  0.79405  1.0000
  H   H901      1.0  0.46091  0.17365  0.75147  1.0000
  H   H902      1.0  0.47559  0.00910  0.91499  1.0000
  C   C496      1.0  0.37470  0.23520  0.92739  1.0000
  C   C497      1.0  0.49849  0.18684  0.80447  1.0000
  H   H903      1.0  0.47642  0.16088  0.95796  1.0000
  H   H904      1.0  0.48888  0.06316  0.74813  1.0000
  H   H905      1.0  0.48769  0.22368  0.79068  1.0000
  H   H906      1.0  0.48536  0.99962  0.84246  1.0000
  H   H907      1.0  0.49421  0.09651  0.98480  1.0000
  C   C498      1.0  0.49706  0.00122  0.93113  1.0000
  H   H908      1.0  0.49392  0.12327  0.97441  1.0000
  H   H909      1.0  0.46550  0.23783  0.96119  1.0000
  C   C499      1.0  0.45618  0.13987  0.96080  1.0000
  C   C500      1.0  0.48856  0.99712  0.83167  1.0000
  H   H910      1.0  0.42470  0.99994  0.86774  1.0000
  S   S112      1.0  0.50020  0.16253  0.86654  1.0000
  C   C501      1.0  0.36129  0.07817  0.74650  1.0000
  H   H911      1.0  0.37486  0.21387  0.91560  1.0000
  H   H912      1.0  0.48988  0.19539  0.89370  1.0000
  H   H913      1.0  0.46339  0.99520  0.84827  1.0000
  N   N26       1.0  0.37228  0.06647  0.73990  1.0000
  C   C502      1.0  0.38472  0.23216  0.90224  1.0000
  C   C503      1.0  0.45887  0.16839  0.74401  1.0000
  C   C504      1.0  0.38724  0.06685  0.74102  1.0000
  H   H914      1.0  0.37474  0.02479  0.76628  1.0000
  C   C505      1.0  0.48907  0.11253  0.75607  1.0000
  H   H915      1.0  0.49456  0.05312  0.76446  1.0000
  C   C506      1.0  0.37627  0.22037  0.90446  1.0000
  H   H916      1.0  0.44755  0.12125  0.75771  1.0000
  C   C507      1.0  0.34507  0.07880  0.74753  1.0000
  C   C508      1.0  0.48221  0.09912  0.98606  1.0000
  H   H917      1.0  0.48818  0.18611  0.81266  1.0000
  H   H918      1.0  0.49099  0.14284  0.81295  1.0000
  C   C509      1.0  0.48720  0.21221  0.79294  1.0000
  C   C510      1.0  0.50233  0.11566  0.87015  1.0000
  Fe  Fe56      1.0  0.49941  0.01698  0.87587  1.0000
  C   C511      1.0  0.36798  0.04799  0.76424  1.0000
  H   H919      1.0  0.38581  0.08997  0.73827  1.0000
  H   H920      1.0  0.35853  0.05546  0.76935  1.0000
  H   H921      1.0  0.45261  0.13891  0.98321  1.0000
  C   C512      1.0  0.50065  0.10554  0.83145  1.0000
  H   H922      1.0  0.44025  0.18570  0.73935  1.0000
  H   H923      1.0  0.46953  0.16367  0.73768  1.0000
  Fe  Fe57      1.0  0.25967  0.37833  0.03118  1.0000
  S   S113      1.0  0.28116  0.38466  0.02322  1.0000
  S   S114      1.0  0.24970  0.37032  0.01810  1.0000
  Fe  Fe58      1.0  0.25471  0.38500  0.06027  1.0000
  S   S115      1.0  0.27592  0.39184  0.05484  1.0000
  S   S116      1.0  0.23844  0.38452  0.08148  1.0000
  Fe  Fe59      1.0  0.27010  0.40314  0.03374  1.0000
  S   S117      1.0  0.27463  0.42457  0.02154  1.0000
  Fe  Fe60      1.0  0.28528  0.37265  0.04487  1.0000
  S   S118      1.0  0.30822  0.36013  0.04567  1.0000
  S   S119      1.0  0.24803  0.39800  0.03986  1.0000
  S   S120      1.0  0.26458  0.36465  0.05211  1.0000
  Fe  Fe61      1.0  0.37548  0.29031  0.06917  1.0000
  H   H924      1.0  0.33700  0.27492  0.02263  1.0000
  H   H925      1.0  0.35109  0.38755  0.02317  1.0000
  C   C513      1.0  0.32496  0.26196  0.01890  1.0000
  H   H926      1.0  0.34559  0.36700  0.01202  1.0000
  H   H927      1.0  0.37229  0.25373  0.15297  1.0000
  C   C514      1.0  0.07492  0.48793  0.22682  1.0000
  H   H928      1.0  0.32843  0.39749  0.01368  1.0000
  C   C515      1.0  0.32052  0.36516  0.00800  1.0000
  H   H929      1.0  0.41309  0.25752  0.01520  1.0000
  C   C516      1.0  0.43403  0.25861  0.03686  1.0000
  H   H930      1.0  0.40284  0.24396  0.15845  1.0000
  H   H931      1.0  0.40428  0.36352  0.03087  1.0000
  H   H932      1.0  0.15344  0.46927  0.21894  1.0000
  S   S121      1.0  0.34031  0.42329  0.01847  1.0000
  H   H933      1.0  0.18335  0.45771  0.02978  1.0000
  C   C517      1.0  0.39928  0.29492  0.03931  1.0000
  H   H934      1.0  0.41472  0.46451  0.00313  1.0000
  H   H935      1.0  0.07826  0.48278  0.21752  1.0000
  S   S122      1.0  0.45260  0.32483  0.99977  1.0000
  Fe  Fe62      1.0  0.18404  0.44972  0.14647  1.0000
  S   S123      1.0  0.20622  0.45413  0.14169  1.0000
  S   S124      1.0  0.16632  0.46746  0.13874  1.0000
  Fe  Fe63      1.0  0.19314  0.41956  0.16292  1.0000
  S   S125      1.0  0.21631  0.42135  0.15953  1.0000
  S   S126      1.0  0.18630  0.39874  0.17464  1.0000
  Fe  Fe64      1.0  0.20614  0.44315  0.16454  1.0000
  S   S127      1.0  0.21291  0.45154  0.17986  1.0000
  Fe  Fe65      1.0  0.21438  0.43214  0.13690  1.0000
  S   S128      1.0  0.23257  0.43018  0.11718  1.0000
  S   S129      1.0  0.18319  0.44045  0.16976  1.0000
  S   S130      1.0  0.19201  0.42864  0.13980  1.0000
  H   H936      1.0  0.20063  0.40445  0.03451  1.0000
  C   C518      1.0  0.37502  0.25233  0.01642  1.0000
  H   H937      1.0  0.42376  0.25186  0.09389  1.0000
  H   H938      1.0  0.26457  0.36216  0.12053  1.0000
  C   C519      1.0  0.16922  0.40833  0.23640  1.0000
  H   H939      1.0  0.01382  0.47235  0.13052  1.0000
  H   H940      1.0  0.24232  0.48463  0.17790  1.0000
  S   S131      1.0  0.05846  0.46931  0.17482  1.0000
  H   H941      1.0  0.19988  0.47294  0.07279  1.0000
  H   H942      1.0  0.30740  0.26582  0.05793  1.0000
  H   H943      1.0  0.39023  0.38706  0.03158  1.0000
  S   S132      1.0  0.16882  0.46676  0.07513  1.0000
  H   H944      1.0  0.18810  0.46304  0.04340  1.0000
  H   H945      1.0  0.18631  0.41151  0.05754  1.0000
  H   H946      1.0  0.38668  0.33220  0.03798  1.0000
  H   H947      1.0  0.43670  0.24892  0.13020  1.0000
  H   H948      1.0  0.17273  0.45471  0.04788  1.0000
  H   H949      1.0  0.36051  0.35800  0.99329  1.0000
  C   C520      1.0  0.32719  0.27050  0.02838  1.0000
  H   H950      1.0  0.43373  0.45684  0.99656  1.0000
  H   H951      1.0  0.01299  0.48330  0.06487  1.0000
  H   H952      1.0  0.38807  0.30727  0.00178  1.0000
  H   H953      1.0  0.30392  0.27794  0.03643  1.0000
  H   H954      1.0  0.32496  0.34682  0.99790  1.0000
  C   C521      1.0  0.17037  0.47914  0.09590  1.0000
  C   C522      1.0  0.31625  0.38130  0.06576  1.0000
  H   H955      1.0  0.14331  0.49025  0.15665  1.0000
  H   H956      1.0  0.23991  0.49001  0.08559  1.0000
  H   H957      1.0  0.37214  0.40289  0.04652  1.0000
  C   C523      1.0  0.28194  0.32470  0.03516  1.0000
  C   C524      1.0  0.37241  0.47640  0.99801  1.0000
  H   H958      1.0  0.06677  0.46395  0.12443  1.0000
  C   C525      1.0  0.20014  0.39639  0.04485  1.0000
  C   C526      1.0  0.42819  0.47973  0.99263  1.0000
  C   C527      1.0  0.37442  0.37404  0.04575  1.0000
  H   H959      1.0  0.08760  0.44541  0.21087  1.0000
  S   S133      1.0  0.39028  0.30553  0.06350  1.0000
  C   C528      1.0  0.09332  0.46538  0.19842  1.0000
  H   H960      1.0  0.38925  0.25859  0.14288  1.0000
  C   C529      1.0  0.11775  0.48298  0.04698  1.0000
  C   C530      1.0  0.07166  0.46789  0.18410  1.0000
  C   C531      1.0  0.07464  0.45584  0.19507  1.0000
  C   C532      1.0  0.08540  0.45465  0.20235  1.0000
  C   C533      1.0  0.05678  0.47188  0.23601  1.0000
  H   H961      1.0  0.34714  0.34737  0.99900  1.0000
  H   H962      1.0  0.06858  0.44748  0.19796  1.0000
  C   C534      1.0  0.17207  0.39856  0.19006  1.0000
  C   C535      1.0  0.16898  0.38537  0.19828  1.0000
  C   C536      1.0  0.15767  0.38484  0.21060  1.0000
  C   C537      1.0  0.14931  0.39751  0.21478  1.0000
  C   C538      1.0  0.15233  0.41072  0.20651  1.0000
  C   C539      1.0  0.16369  0.41125  0.19420  1.0000
  H   H963      1.0  0.17538  0.37551  0.19511  1.0000
  H   H964      1.0  0.14580  0.42055  0.20942  1.0000
  H   H965      1.0  0.16586  0.42146  0.18787  1.0000
  C   C540      1.0  0.21974  0.46728  0.17224  1.0000
  H   H966      1.0  0.19916  0.47241  0.22566  1.0000
  C   C541      1.0  0.40967  0.34532  0.04804  1.0000
  H   H967      1.0  0.38526  0.36365  0.02139  1.0000
  C   C542      1.0  0.42897  0.24641  0.14065  1.0000
  C   C543      1.0  0.22903  0.47028  0.17884  1.0000
  Fe  Fe66      1.0  0.43675  0.34354  0.98990  1.0000
  H   H968      1.0  0.11010  0.48315  0.08810  1.0000
  H   H969      1.0  0.32608  0.30432  0.02072  1.0000
  H   H970      1.0  0.23196  0.46292  0.18841  1.0000
  C   C544      1.0  0.16762  0.46718  0.12100  1.0000
  C   C545      1.0  0.31412  0.26396  0.07704  1.0000
  S   S134      1.0  0.41613  0.24314  0.99296  1.0000
  C   C546      1.0  0.16891  0.46688  0.09265  1.0000
  C   C547      1.0  0.16727  0.45462  0.10355  1.0000
  C   C548      1.0  0.16686  0.45471  0.11768  1.0000
  C   C549      1.0  0.40490  0.38666  0.99692  1.0000
  C   C550      1.0  0.23055  0.37759  0.98857  1.0000
  H   H971      1.0  0.16599  0.44517  0.10113  1.0000
  H   H972      1.0  0.16554  0.44526  0.12608  1.0000
  H   H973      1.0  0.25121  0.47427  0.10503  1.0000
  H   H974      1.0  0.20217  0.45402  0.08021  1.0000
  H   H975      1.0  0.38896  0.29177  0.04233  1.0000
  H   H976      1.0  0.41764  0.42536  0.00275  1.0000
  H   H977      1.0  0.42630  0.26369  0.02968  1.0000
  S   S135      1.0  0.08221  0.48948  0.10634  1.0000
  C   C551      1.0  0.40258  0.30227  0.04763  1.0000
  C   C552      1.0  0.31687  0.31624  0.07587  1.0000
  H   H978      1.0  0.09652  0.48566  0.18437  1.0000
  H   H979      1.0  0.35774  0.40161  0.03921  1.0000
  C   C553      1.0  0.14376  0.48042  0.00939  1.0000
  H   H980      1.0  0.33884  0.31904  0.07107  1.0000
  C   C554      1.0  0.23749  0.39671  0.09173  1.0000
  C   C555      1.0  0.22717  0.39683  0.10474  1.0000
  C   C556      1.0  0.22556  0.40702  0.11270  1.0000
  C   C557      1.0  0.23435  0.41710  0.10769  1.0000
  C   C558      1.0  0.24484  0.41683  0.09479  1.0000
  C   C559      1.0  0.24643  0.40665  0.08684  1.0000
  H   H981      1.0  0.22027  0.38911  0.10861  1.0000
  H   H982      1.0  0.21752  0.40710  0.12269  1.0000
  H   H983      1.0  0.25169  0.42459  0.09089  1.0000
  H   H984      1.0  0.25438  0.40669  0.07681  1.0000
  C   C560      1.0  0.29282  0.42430  0.02076  1.0000
  H   H985      1.0  0.30360  0.31822  0.02309  1.0000
  S   S136      1.0  0.37164  0.44116  0.99102  1.0000
  C   C561      1.0  0.32200  0.42384  0.01934  1.0000
  C   C562      1.0  0.31297  0.41896  0.03246  1.0000
  C   C563      1.0  0.29843  0.41906  0.03315  1.0000
  C   C564      1.0  0.31413  0.34151  0.10097  1.0000
  H   H986      1.0  0.40862  0.33626  0.04440  1.0000
  H   H987      1.0  0.31719  0.41515  0.04209  1.0000
  H   H988      1.0  0.29146  0.41546  0.04333  1.0000
  H   H989      1.0  0.27532  0.37796  0.99690  1.0000
  C   C565      1.0  0.38078  0.25316  0.14294  1.0000
  C   C566      1.0  0.26027  0.34925  0.00308  1.0000
  C   C567      1.0  0.26228  0.36196  0.00485  1.0000
  C   C568      1.0  0.37366  0.26173  0.13039  1.0000
  H   H990      1.0  0.00817  0.43431  0.05944  1.0000
  H   H991      1.0  0.16116  0.41401  0.22971  1.0000
  H   H992      1.0  0.25122  0.34467  0.00998  1.0000
  H   H993      1.0  0.12410  0.48439  0.05389  1.0000
  H   H994      1.0  0.01381  0.42647  0.04398  1.0000
  C   C569      1.0  0.41581  0.30666  0.04341  1.0000
  C   C570      1.0  0.42574  0.30370  0.03084  1.0000
  C   C571      1.0  0.42261  0.29590  0.02283  1.0000
  C   C572      1.0  0.40939  0.29155  0.02704  1.0000
  H   H995      1.0  0.41858  0.31194  0.05005  1.0000
  H   H996      1.0  0.32939  0.30879  0.04890  1.0000
  C   C573      1.0  0.29989  0.33599  0.06428  1.0000
  C   C574      1.0  0.31115  0.34327  0.05736  1.0000
  C   C575      1.0  0.32516  0.33717  0.05990  1.0000
  C   C576      1.0  0.32800  0.32370  0.06915  1.0000
  H   H997      1.0  0.28905  0.34072  0.06240  1.0000
  H   H998      1.0  0.33384  0.34286  0.05467  1.0000
  H   H999      1.0  0.40703  0.28554  0.02080  1.0000
  N   N27       1.0  0.12879  0.44392  0.17016  1.0000
  C   C577      1.0  0.11597  0.44872  0.16309  1.0000
  C   C578      1.0  0.12500  0.43403  0.18464  1.0000
  C   C579      1.0  0.13185  0.45715  0.17236  1.0000
  C   C580      1.0  0.14241  0.43678  0.16086  1.0000
  C   C581      1.0  0.14219  0.42225  0.15821  1.0000
  C   C582      1.0  0.11697  0.46083  0.14929  1.0000
  C   C583      1.0  0.14172  0.45455  0.18304  1.0000
  C   C584      1.0  0.11489  0.42383  0.18614  1.0000
  C   C585      1.0  0.11600  0.41143  0.19923  1.0000
  C   C586      1.0  0.15625  0.41647  0.14816  1.0000
  C   C587      1.0  0.10383  0.46351  0.14273  1.0000
  H   H1000     1.0  0.32467  0.25656  0.07378  1.0000
  H   H1001     1.0  0.10590  0.45269  0.17083  1.0000
  H   H1002     1.0  0.11380  0.43960  0.16032  1.0000
  H   H1003     1.0  0.13515  0.42752  0.18809  1.0000
  H   H1004     1.0  0.11904  0.44037  0.19294  1.0000
  H   H1005     1.0  0.12145  0.46445  0.17636  1.0000
  H   H1006     1.0  0.13706  0.46345  0.16194  1.0000
  H   H1007     1.0  0.14532  0.44415  0.15033  1.0000
  H   H1008     1.0  0.15195  0.43451  0.16570  1.0000
  H   H1009     1.0  0.13299  0.42330  0.15332  1.0000
  H   H1010     1.0  0.14144  0.41406  0.16844  1.0000
  H   H1011     1.0  0.11690  0.47106  0.15177  1.0000
  H   H1012     1.0  0.12697  0.45802  0.14110  1.0000
  H   H1013     1.0  0.15180  0.44631  0.18085  1.0000
  H   H1014     1.0  0.13592  0.45081  0.19420  1.0000
  H   H1015     1.0  0.10338  0.42997  0.18746  1.0000
  H   H1016     1.0  0.11735  0.41908  0.17675  1.0000
  H   H1017     1.0  0.10779  0.40506  0.20076  1.0000
  H   H1018     1.0  0.12700  0.40422  0.19771  1.0000
  H   H1019     1.0  0.11397  0.41554  0.20901  1.0000
  H   H1020     1.0  0.16583  0.41503  0.15269  1.0000
  H   H1021     1.0  0.15595  0.40583  0.14687  1.0000
  H   H1022     1.0  0.15752  0.42384  0.13744  1.0000
  H   H1023     1.0  0.10403  0.45396  0.13894  1.0000
  H   H1024     1.0  0.09348  0.46588  0.15074  1.0000
  H   H1025     1.0  0.15035  0.46715  0.19190  1.0000
  C   C588      1.0  0.20952  0.47070  0.00387  1.0000
  Fe  Fe67      1.0  0.35076  0.43369  0.99628  1.0000
  H   H1026     1.0  0.39142  0.42616  0.01082  1.0000
  C   C589      1.0  0.38903  0.34083  0.02840  1.0000
  H   H1027     1.0  0.06766  0.44680  0.12119  1.0000
  H   H1028     1.0  0.06873  0.46592  0.09898  1.0000
  H   H1029     1.0  0.19136  0.39074  0.04628  1.0000
  C   C590      1.0  0.38126  0.35595  0.03129  1.0000
  Fe  Fe68      1.0  0.44154  0.31144  0.99359  1.0000
  C   C591      1.0  0.30182  0.35325  0.10736  1.0000
  C   C592      1.0  0.33128  0.38590  0.01864  1.0000
  H   H1030     1.0  0.29410  0.31673  0.07883  1.0000
  C   C593      1.0  0.37892  0.47931  0.00745  1.0000
  H   H1031     1.0  0.37477  0.37622  0.05601  1.0000
  H   H1032     1.0  0.21506  0.41753  0.19616  1.0000
  H   H1033     1.0  0.43080  0.26407  0.04594  1.0000
  S   S137      1.0  0.42284  0.36032  0.00213  1.0000
  H   H1034     1.0  0.12533  0.47849  0.03793  1.0000
  H   H1035     1.0  0.34982  0.27917  0.99527  1.0000
  H   H1036     1.0  0.34790  0.38343  0.99948  1.0000
  S   S138      1.0  0.13157  0.43724  0.22873  1.0000
  H   H1037     1.0  0.39878  0.38327  0.00758  1.0000
  C   C594      1.0  0.38711  0.24755  0.00604  1.0000
  H   H1038     1.0  0.34497  0.30190  0.99600  1.0000
  C   C595      1.0  0.23084  0.46840  0.10622  1.0000
  H   H1039     1.0  0.41205  0.24687  0.13086  1.0000
  C   C596      1.0  0.39028  0.26112  0.02575  1.0000
  H   H1040     1.0  0.30741  0.34215  0.02148  1.0000
  H   H1041     1.0  0.17240  0.48834  0.08748  1.0000
  C   C597      1.0  0.21129  0.46486  0.09035  1.0000
  H   H1042     1.0  0.18583  0.48102  0.99285  1.0000
  C   C598      1.0  0.43421  0.24259  0.04222  1.0000
  H   H1043     1.0  0.38822  0.44301  0.01611  1.0000
  H   H1044     1.0  0.33815  0.32441  0.01742  1.0000
  C   C599      1.0  0.20757  0.46317  0.07713  1.0000
  C   C600      1.0  0.40246  0.25603  0.01558  1.0000
  H   H1045     1.0  0.31172  0.36159  0.99127  1.0000
  H   H1046     1.0  0.22401  0.46126  0.11419  1.0000
  H   H1047     1.0  0.23764  0.46186  0.09826  1.0000
  H   H1048     1.0  0.43621  0.43720  0.99008  1.0000
  C   C601      1.0  0.32115  0.38970  0.99260  1.0000
  H   H1049     1.0  0.27153  0.36364  0.08032  1.0000
  H   H1050     1.0  0.31554  0.27078  0.08343  1.0000
  H   H1051     1.0  0.10403  0.47281  0.13345  1.0000
  C   C602      1.0  0.24860  0.45627  0.12269  1.0000
  Fe  Fe69      1.0  0.12318  0.41709  0.23718  1.0000
  H   H1052     1.0  0.28963  0.37385  0.07708  1.0000
  H   H1053     1.0  0.20108  0.46563  0.09874  1.0000
  H   H1054     1.0  0.21908  0.45490  0.09412  1.0000
  H   H1055     1.0  0.31384  0.39457  0.00160  1.0000
  H   H1056     1.0  0.36618  0.46813  0.00172  1.0000
  H   H1057     1.0  0.30620  0.25737  0.08393  1.0000
  C   C603      1.0  0.00597  0.42667  0.05447  1.0000
  Fe  Fe70      1.0  0.36391  0.27246  0.05677  1.0000
  H   H1058     1.0  0.30234  0.38729  0.08493  1.0000
  C   C604      1.0  0.29794  0.36734  0.08328  1.0000
  C   C605      1.0  0.07941  0.47872  0.18047  1.0000
  Fe  Fe71      1.0  0.16524  0.48904  0.06126  1.0000
  H   H1059     1.0  0.26038  0.36538  0.09772  1.0000
  C   C606      1.0  0.00897  0.48374  0.12849  1.0000
  S   S139      1.0  0.12791  0.47928  0.99115  1.0000
  C   C607      1.0  0.40271  0.24726  0.09695  1.0000
  S   S140      1.0  0.32070  0.29893  0.08662  1.0000
  N   N28       1.0  0.04303  0.48804  0.09230  1.0000
  H   H1060     1.0  0.04042  0.46927  0.08701  1.0000
  H   H1061     1.0  0.42333  0.25659  0.14420  1.0000
  H   H1062     1.0  0.32593  0.35757  0.01652  1.0000
  H   H1063     1.0  0.50126  0.29555  0.02278  1.0000
  H   H1064     1.0  0.43263  0.33623  0.04767  1.0000
  C   C608      1.0  0.31649  0.42864  0.00690  1.0000
  H   H1065     1.0  0.40701  0.34267  0.05995  1.0000
  C   C609      1.0  0.31876  0.28333  0.05440  1.0000
  C   C610      1.0  0.20576  0.41208  0.19974  1.0000
  C   C611      1.0  0.42564  0.34644  0.04306  1.0000
  H   H1066     1.0  0.33003  0.34167  0.11241  1.0000
  S   S141      1.0  0.36086  0.26616  0.03805  1.0000
  C   C612      1.0  0.32745  0.31276  0.03794  1.0000
  H   H1067     1.0  0.22989  0.46829  0.01008  1.0000
  H   H1068     1.0  0.29745  0.27958  0.06776  1.0000
  H   H1069     1.0  0.16541  0.43460  0.21694  1.0000
  C   C613      1.0  0.26113  0.38282  0.12499  1.0000
  H   H1070     1.0  0.13648  0.47756  0.18235  1.0000
  C   C614      1.0  0.05596  0.49066  0.08010  1.0000
  H   H1071     1.0  0.20104  0.46433  0.00678  1.0000
  H   H1072     1.0  0.16805  0.46759  0.22739  1.0000
  C   C615      1.0  0.30032  0.30233  0.04372  1.0000
  C   C616      1.0  0.21776  0.47839  0.08674  1.0000
  H   H1073     1.0  0.21471  0.48352  0.12856  1.0000
  C   C617      1.0  0.38308  0.29774  0.00625  1.0000
  H   H1074     1.0  0.08207  0.47353  0.05455  1.0000
  H   H1075     1.0  0.39768  0.45400  0.99126  1.0000
  H   H1076     1.0  0.29159  0.29626  0.04928  1.0000
  H   H1077     1.0  0.36929  0.27338  0.99371  1.0000
  H   H1078     1.0  0.32318  0.37158  0.06191  1.0000
  H   H1079     1.0  0.27806  0.33192  0.02559  1.0000
  H   H1080     1.0  0.17889  0.48606  0.18598  1.0000
  H   H1081     1.0  0.18924  0.44841  0.23077  1.0000
  H   H1082     1.0  0.17034  0.48896  0.11264  1.0000
  C   C618      1.0  0.27390  0.36797  0.99576  1.0000
  H   H1083     1.0  0.36493  0.25686  0.12994  1.0000
  H   H1084     1.0  0.10424  0.48079  0.22637  1.0000
  C   C619      1.0  0.37859  0.34876  0.05792  1.0000
  C   C620      1.0  0.36252  0.34730  0.06127  1.0000
  C   C621      1.0  0.35872  0.33697  0.07567  1.0000
  H   H1085     1.0  0.38026  0.35174  0.06722  1.0000
  H   H1086     1.0  0.38533  0.33773  0.05800  1.0000
  H   H1087     1.0  0.35469  0.35768  0.06201  1.0000
  H   H1088     1.0  0.36072  0.34304  0.05290  1.0000
  H   H1089     1.0  0.29765  0.43294  0.99800  1.0000
  H   H1090     1.0  0.34703  0.33667  0.07816  1.0000
  H   H1091     1.0  0.36529  0.32593  0.07534  1.0000
  H   H1092     1.0  0.36071  0.34052  0.08442  1.0000
  C   C622      1.0  0.39626  0.43283  0.01465  1.0000
  C   C623      1.0  0.26850  0.35778  0.09157  1.0000
  H   H1093     1.0  0.18979  0.43186  0.19903  1.0000
  H   H1094     1.0  0.49025  0.25641  0.99371  1.0000
  N   N29       1.0  0.31486  0.29214  0.04042  1.0000
  C   C624      1.0  0.28093  0.37369  0.10493  1.0000
  H   H1095     1.0  0.42974  0.48025  0.00307  1.0000
  H   H1096     1.0  0.28509  0.33129  0.04065  1.0000
  C   C625      1.0  0.16895  0.44041  0.22288  1.0000
  H   H1097     1.0  0.26736  0.39050  0.12520  1.0000
  C   C626      1.0  0.20697  0.48607  0.10929  1.0000
  H   H1098     1.0  0.23997  0.45216  0.13158  1.0000
  H   H1099     1.0  0.25406  0.44806  0.11615  1.0000
  C   C627      1.0  0.27008  0.34225  0.99267  1.0000
  H   H1100     1.0  0.22186  0.38464  0.99496  1.0000
  H   H1101     1.0  0.02562  0.47654  0.09950  1.0000
  H   H1102     1.0  0.25678  0.45799  0.12742  1.0000
  H   H1103     1.0  0.09399  0.40200  0.22947  1.0000
  C   C628      1.0  0.30187  0.42909  0.00764  1.0000
  C   C629      1.0  0.27140  0.36950  0.12015  1.0000
  C   C630      1.0  0.41759  0.37736  0.99146  1.0000
  H   H1104     1.0  0.21594  0.46130  0.02418  1.0000
  H   H1105     1.0  0.39132  0.28807  0.00357  1.0000
  H   H1106     1.0  0.18909  0.48431  0.13777  1.0000
  H   H1107     1.0  0.37785  0.47312  0.01838  1.0000
  H   H1108     1.0  0.33768  0.29263  0.03179  1.0000
  C   C631      1.0  0.30846  0.37718  0.08144  1.0000
  H   H1109     1.0  0.29144  0.30713  0.02456  1.0000
  H   H1110     1.0  0.30956  0.33318  0.09941  1.0000
  H   H1111     1.0  0.02151  0.48855  0.14038  1.0000
  S   S142      1.0  0.38377  0.26780  0.06566  1.0000
  H   H1112     1.0  0.38935  0.24332  0.05351  1.0000
  H   H1113     1.0  0.31881  0.32860  0.12147  1.0000
  H   H1114     1.0  0.38190  0.26203  0.12009  1.0000
  H   H1115     1.0  0.27837  0.36415  0.12804  1.0000
  N   N30       1.0  0.33014  0.37515  0.99822  1.0000
  H   H1116     1.0  0.41547  0.44128  0.00893  1.0000
  H   H1117     1.0  0.27853  0.34460  0.10912  1.0000
  C   C632      1.0  0.19207  0.42158  0.20691  1.0000
  H   H1118     1.0  0.01251  0.47139  0.08228  1.0000
  H   H1119     1.0  0.33322  0.32551  0.10608  1.0000
  N   N31       1.0  0.20573  0.42197  0.06520  1.0000
  C   C633      1.0  0.20942  0.41104  0.05613  1.0000
  C   C634      1.0  0.21966  0.42596  0.06472  1.0000
  C   C635      1.0  0.20003  0.41468  0.08051  1.0000
  C   C636      1.0  0.19433  0.43514  0.06070  1.0000
  C   C637      1.0  0.19695  0.40372  0.05730  1.0000
  C   C638      1.0  0.19655  0.42369  0.09196  1.0000
  C   C639      1.0  0.22713  0.43436  0.05020  1.0000
  C   C640      1.0  0.24206  0.43582  0.05081  1.0000
  Fe  Fe72      1.0  0.36897  0.26209  0.08707  1.0000
  C   C641      1.0  0.18791  0.41658  0.10627  1.0000
  H   H1120     1.0  0.21866  0.40218  0.05918  1.0000
  H   H1121     1.0  0.21346  0.41575  0.04468  1.0000
  H   H1122     1.0  0.21784  0.43281  0.07238  1.0000
  H   H1123     1.0  0.22775  0.41609  0.06819  1.0000
  H   H1124     1.0  0.20790  0.40450  0.08385  1.0000
  H   H1125     1.0  0.18973  0.41151  0.08142  1.0000
  H   H1126     1.0  0.18314  0.43362  0.06647  1.0000
  H   H1127     1.0  0.19547  0.44446  0.06406  1.0000
  H   H1128     1.0  0.19591  0.39527  0.06736  1.0000
  H   H1129     1.0  0.20012  0.41430  0.22654  1.0000
  H   H1130     1.0  0.19002  0.43458  0.08851  1.0000
  H   H1131     1.0  0.20672  0.42475  0.09400  1.0000
  H   H1132     1.0  0.22890  0.42897  0.04135  1.0000
  H   H1133     1.0  0.22039  0.44538  0.04767  1.0000
  H   H1134     1.0  0.24105  0.44122  0.05949  1.0000
  H   H1135     1.0  0.24952  0.42508  0.05266  1.0000
  H   H1136     1.0  0.24700  0.44230  0.04044  1.0000
  H   H1137     1.0  0.21069  0.38836  0.04444  1.0000
  H   H1138     1.0  0.18592  0.42311  0.11427  1.0000
  H   H1139     1.0  0.17719  0.41590  0.10513  1.0000
  H   H1140     1.0  0.19409  0.40564  0.11031  1.0000
  S   S143      1.0  0.13511  0.39643  0.23025  1.0000
  C   C642      1.0  0.30372  0.34853  0.01156  1.0000
  C   C643      1.0  0.34074  0.38416  0.02907  1.0000
  H   H1141     1.0  0.31056  0.37142  0.01395  1.0000
  H   H1142     1.0  0.32108  0.38240  0.02482  1.0000
  H   H1143     1.0  0.17021  0.45493  0.20174  1.0000
  H   H1144     1.0  0.13362  0.48351  0.09582  1.0000
  H   H1145     1.0  0.29379  0.35677  0.01449  1.0000
  H   H1146     1.0  0.33490  0.39111  0.03682  1.0000
  H   H1147     1.0  0.34302  0.37283  0.03511  1.0000
  H   H1148     1.0  0.32941  0.26284  0.03843  1.0000
  H   H1149     1.0  0.36482  0.29031  0.00568  1.0000
  H   H1150     1.0  0.42736  0.35536  0.04659  1.0000
  H   H1151     1.0  0.31172  0.28932  0.02089  1.0000
  C   C644      1.0  0.40727  0.44502  0.98929  1.0000
  C   C645      1.0  0.41028  0.43592  0.00404  1.0000
  H   H1152     1.0  0.39149  0.26660  0.03314  1.0000
  S   S144      1.0  0.34967  0.26493  0.07794  1.0000
  H   H1153     1.0  0.02879  0.46930  0.06812  1.0000
  S   S145      1.0  0.43522  0.29134  0.00768  1.0000
  C   C646      1.0  0.37858  0.38685  0.03350  1.0000
  C   C647      1.0  0.14605  0.46837  0.18238  1.0000
  H   H1154     1.0  0.18292  0.41629  0.20906  1.0000
  C   C648      1.0  0.30845  0.27324  0.06385  1.0000
  H   H1155     1.0  0.25448  0.37965  0.13593  1.0000
  H   H1156     1.0  0.42909  0.34827  0.03120  1.0000
  H   H1157     1.0  0.27279  0.31994  0.04248  1.0000
  H   H1158     1.0  0.36174  0.30944  0.00350  1.0000
  H   H1159     1.0  0.37987  0.29618  0.01810  1.0000
  H   H1160     1.0  0.38987  0.40706  0.99265  1.0000
  H   H1161     1.0  0.31818  0.32491  0.98807  1.0000
  H   H1162     1.0  0.18982  0.43228  0.04138  1.0000
  H   H1163     1.0  0.15538  0.37458  0.21687  1.0000
  H   H1164     1.0  0.30694  0.36079  0.10965  1.0000
  C   C649      1.0  0.31572  0.35558  0.00104  1.0000
  H   H1165     1.0  0.32333  0.38871  0.06463  1.0000
  H   H1166     1.0  0.31885  0.29050  0.06114  1.0000
  C   C650      1.0  0.16944  0.47940  0.11011  1.0000
  C   C651      1.0  0.26095  0.34624  0.09163  1.0000
  C   C652      1.0  0.37653  0.25932  0.02610  1.0000
  S   S146      1.0  0.36220  0.28430  0.09143  1.0000
  H   H1167     1.0  0.20160  0.47680  0.11413  1.0000
  H   H1168     1.0  0.46310  0.26548  0.99770  1.0000
  S   S147      1.0  0.35706  0.29552  0.05819  1.0000
  H   H1169     1.0  0.33994  0.32913  0.03288  1.0000
  C   C653      1.0  0.29496  0.31294  0.03056  1.0000
  H   H1170     1.0  0.20438  0.48096  0.00735  1.0000
  C   C654      1.0  0.30275  0.32247  0.07359  1.0000
  H   H1171     1.0  0.36280  0.37473  0.04628  1.0000
  H   H1172     1.0  0.43604  0.30696  0.02763  1.0000
  H   H1173     1.0  0.29638  0.34773  0.11808  1.0000
  H   H1174     1.0  0.07678  0.48830  0.17248  1.0000
  H   H1175     1.0  0.31538  0.25702  0.02423  1.0000
  H   H1176     1.0  0.32064  0.34619  0.09050  1.0000
  C   C655      1.0  0.18394  0.45475  0.04123  1.0000
  N   N32       1.0  0.29069  0.36135  0.09846  1.0000
  H   H1177     1.0  0.25128  0.35138  0.08682  1.0000
  C   C656      1.0  0.39938  0.35956  0.04238  1.0000
  C   C657      1.0  0.38423  0.33799  0.01635  1.0000
  H   H1178     1.0  0.20490  0.44047  0.03757  1.0000
  S   S148      1.0  0.10677  0.46448  0.20713  1.0000
  H   H1179     1.0  0.32349  0.43188  0.99665  1.0000
  H   H1180     1.0  0.25719  0.34036  0.10276  1.0000
  H   H1181     1.0  0.22580  0.45153  0.01033  1.0000
  H   H1182     1.0  0.18520  0.45334  0.20895  1.0000
  C   C658      1.0  0.31366  0.28273  0.03149  1.0000
  H   H1183     1.0  0.44504  0.26018  0.03065  1.0000
  C   C659      1.0  0.28210  0.35102  0.09816  1.0000
  C   C660      1.0  0.32466  0.33391  0.11089  1.0000
  C   C661      1.0  0.36959  0.40120  0.03704  1.0000
  H   H1184     1.0  0.15467  0.47071  0.17261  1.0000
  N   N33       1.0  0.38355  0.35926  0.04426  1.0000
  H   H1185     1.0  0.30236  0.38414  0.98938  1.0000
  H   H1186     1.0  0.05042  0.45697  0.12925  1.0000
  H   H1187     1.0  0.20864  0.40159  0.20718  1.0000
  H   H1188     1.0  0.40099  0.34003  0.02489  1.0000
  C   C662      1.0  0.33950  0.37748  0.00673  1.0000
  H   H1189     1.0  0.31699  0.37182  0.08769  1.0000
  C   C663      1.0  0.16541  0.46783  0.21722  1.0000
  C   C664      1.0  0.17327  0.45402  0.21191  1.0000
  H   H1190     1.0  0.38688  0.34602  0.00627  1.0000
  C   C665      1.0  0.19400  0.43994  0.04453  1.0000
  C   C666      1.0  0.32679  0.30012  0.03212  1.0000
  H   H1191     1.0  0.20197  0.43177  0.21675  1.0000
  H   H1192     1.0  0.39788  0.25811  0.09209  1.0000
  H   H1193     1.0  0.40027  0.36736  0.04805  1.0000
  H   H1194     1.0  0.32334  0.26902  0.00838  1.0000
  C   C667      1.0  0.06082  0.45780  0.12123  1.0000
  C   C668      1.0  0.36967  0.29980  0.00036  1.0000
  H   H1195     1.0  0.39871  0.42680  0.02522  1.0000
  C   C669      1.0  0.05797  0.46506  0.10628  1.0000
  H   H1196     1.0  0.20835  0.47492  0.15508  1.0000
  H   H1197     1.0  0.05310  0.45791  0.10318  1.0000
  H   H1198     1.0  0.36942  0.35756  0.03189  1.0000
  H   H1199     1.0  0.30081  0.34141  0.00652  1.0000
  H   H1200     1.0  0.33011  0.27677  0.05253  1.0000
  H   H1201     1.0  0.28753  0.38070  0.10585  1.0000
  H   H1202     1.0  0.14015  0.47501  0.11209  1.0000
  H   H1203     1.0  0.21760  0.46110  0.06869  1.0000
  H   H1204     1.0  0.10454  0.38476  0.22620  1.0000
  H   H1205     1.0  0.39017  0.32713  0.01450  1.0000
  Fe  Fe73      1.0  0.34423  0.28775  0.08014  1.0000
  H   H1206     1.0  0.36442  0.25072  0.01687  1.0000
  H   H1207     1.0  0.33477  0.25323  0.01698  1.0000
  Fe  Fe74      1.0  0.10854  0.44785  0.22737  1.0000
  H   H1208     1.0  0.06499  0.46808  0.07767  1.0000
  C   C670      1.0  0.19416  0.42449  0.22063  1.0000
  H   H1209     1.0  0.37630  0.38628  0.02343  1.0000
  H   H1210     1.0  0.30824  0.38683  0.05889  1.0000
  C   C671      1.0  0.21592  0.47691  0.15991  1.0000
  H   H1211     1.0  0.15880  0.44378  0.23080  1.0000
  H   H1212     1.0  0.16869  0.47726  0.20919  1.0000
  C   C672      1.0  0.09042  0.47732  0.18740  1.0000
  H   H1213     1.0  0.18218  0.49103  0.16685  1.0000
  H   H1214     1.0  0.20370  0.40992  0.19024  1.0000
  H   H1215     1.0  0.26844  0.33850  0.08523  1.0000
  H   H1216     1.0  0.27365  0.38080  0.09773  1.0000
  H   H1217     1.0  0.37217  0.41013  0.02779  1.0000
  C   C673      1.0  0.17736  0.45913  0.99020  1.0000
  C   C674      1.0  0.24208  0.47042  0.11343  1.0000
  H   H1218     1.0  0.28915  0.34296  0.09192  1.0000
  H   H1219     1.0  0.37234  0.33834  0.01927  1.0000
  N   N34       1.0  0.22126  0.48179  0.09908  1.0000
  H   H1220     1.0  0.35048  0.31235  0.02843  1.0000
  H   H1221     1.0  0.31720  0.32111  0.03826  1.0000
  H   H1222     1.0  0.30035  0.30846  0.05148  1.0000
  C   C675      1.0  0.33979  0.32007  0.02853  1.0000
  N   N35       1.0  0.18053  0.43069  0.23062  1.0000
  H   H1223     1.0  0.30393  0.35855  0.07763  1.0000
  H   H1224     1.0  0.25359  0.38829  0.11766  1.0000
  H   H1225     1.0  0.12084  0.49001  0.12582  1.0000
  H   H1226     1.0  0.05555  0.47939  0.06421  1.0000
  H   H1227     1.0  0.36876  0.27295  0.13162  1.0000
  H   H1228     1.0  0.44394  0.25635  0.99358  1.0000
  C   C676      1.0  0.04793  0.48020  0.10605  1.0000
  H   H1229     1.0  0.19346  0.48686  0.20287  1.0000
  H   H1230     1.0  0.08483  0.38776  0.23227  1.0000
  C   C677      1.0  0.22161  0.48939  0.15407  1.0000
  C   C678      1.0  0.40084  0.24943  0.00559  1.0000
  C   C679      1.0  0.48532  0.26811  0.99143  1.0000
  H   H1231     1.0  0.03828  0.47926  0.11511  1.0000
  H   H1232     1.0  0.31849  0.30712  0.99957  1.0000
  H   H1233     1.0  0.20961  0.48744  0.08203  1.0000
  H   H1234     1.0  0.48417  0.27231  0.00098  1.0000
  C   C680      1.0  0.12110  0.49055  0.21159  1.0000
  C   C681      1.0  0.22104  0.46242  0.01258  1.0000
  C   C682      1.0  0.15361  0.48599  0.01301  1.0000
  C   C683      1.0  0.07736  0.48180  0.06109  1.0000
  H   H1235     1.0  0.05413  0.48642  0.10878  1.0000
  H   H1236     1.0  0.12891  0.48139  0.21654  1.0000
  H   H1237     1.0  0.41537  0.24674  0.05943  1.0000
  H   H1238     1.0  0.14030  0.47083  0.01616  1.0000
  H   H1239     1.0  0.00778  0.41571  0.06145  1.0000
  C   C684      1.0  0.06289  0.47909  0.07101  1.0000
  H   H1240     1.0  0.22772  0.47700  0.07799  1.0000
  C   C685      1.0  0.01958  0.47720  0.07296  1.0000
  H   H1241     1.0  0.17875  0.40182  0.23023  1.0000
  H   H1242     1.0  0.12318  0.47265  0.11058  1.0000
  S   S149      1.0  0.05002  0.48896  0.13802  1.0000
  H   H1243     1.0  0.23741  0.47832  0.12029  1.0000
  H   H1244     1.0  0.21553  0.47623  0.21291  1.0000
  C   C686      1.0  0.23490  0.48255  0.17289  1.0000
  C   C687      1.0  0.13032  0.48042  0.10769  1.0000
  C   C688      1.0  0.03383  0.47965  0.08955  1.0000
  H   H1245     1.0  0.08148  0.48063  0.23454  1.0000
  C   C689      1.0  0.09485  0.39023  0.23320  1.0000
  H   H1246     1.0  0.35751  0.25380  0.99464  1.0000
  C   C690      1.0  0.35193  0.35531  0.98992  1.0000
  H   H1247     1.0  0.41165  0.24506  0.04360  1.0000
  H   H1248     1.0  0.17513  0.45935  0.00170  1.0000
  C   C691      1.0  0.21635  0.47320  0.98752  1.0000
  H   H1249     1.0  0.11102  0.47511  0.05350  1.0000
  Fe  Fe75      1.0  0.05791  0.48891  0.15690  1.0000
  C   C692      1.0  0.13895  0.48689  0.99665  1.0000
  C   C693      1.0  0.42428  0.46548  0.99401  1.0000
  C   C694      1.0  0.20507  0.48106  0.21952  1.0000
  C   C695      1.0  0.41733  0.24372  0.09801  1.0000
  S   S150      1.0  0.10043  0.42750  0.23429  1.0000
  H   H1250     1.0  0.23103  0.36630  0.99468  1.0000
  C   C696      1.0  0.05894  0.48703  0.23410  1.0000
  H   H1251     1.0  0.12088  0.48862  0.20124  1.0000
  H   H1252     1.0  0.26859  0.33226  0.99158  1.0000
  H   H1253     1.0  0.08524  0.48117  0.06749  1.0000
  H   H1254     1.0  0.20734  0.48586  0.22723  1.0000
  C   C697      1.0  0.02524  0.48759  0.07764  1.0000
  H   H1255     1.0  0.05904  0.46913  0.22542  1.0000
  H   H1256     1.0  0.38587  0.24222  0.99853  1.0000
  H   H1257     1.0  0.17751  0.44817  0.98941  1.0000
  H   H1258     1.0  0.15767  0.48071  0.02263  1.0000
  H   H1259     1.0  0.46042  0.49032  0.03516  1.0000
  C   C698      1.0  0.38651  0.49042  0.00290  1.0000
  C   C699      1.0  0.31941  0.31338  0.98838  1.0000
  H   H1260     1.0  0.46784  0.24204  0.99721  1.0000
  C   C700      1.0  0.36039  0.27580  0.98805  1.0000
  H   H1261     1.0  0.41932  0.48892  0.98955  1.0000
  C   C701      1.0  0.10597  0.49181  0.22165  1.0000
  C   C702      1.0  0.20759  0.49166  0.12198  1.0000
  H   H1262     1.0  0.20051  0.45512  0.98745  1.0000
  C   C703      1.0  0.47032  0.27082  0.98818  1.0000
  C   C704      1.0  0.39992  0.40008  0.98848  1.0000
  H   H1263     1.0  0.13971  0.49201  0.13309  1.0000
  H   H1264     1.0  0.05765  0.34473  0.36833  1.0000
  H   H1265     1.0  0.04749  0.36197  0.37129  1.0000
  S   S151      1.0  0.11817  0.41871  0.26010  1.0000
  H   H1266     1.0  0.06256  0.29312  0.35302  1.0000
  H   H1267     1.0  0.20765  0.43595  0.26081  1.0000
  S   S152      1.0  0.10219  0.45265  0.24928  1.0000
  H   H1268     1.0  0.04793  0.29810  0.38460  1.0000
  Fe  Fe76      1.0  0.12467  0.43998  0.25127  1.0000
  H   H1269     1.0  0.01572  0.33788  0.48260  1.0000
  Fe  Fe77      1.0  0.09605  0.43112  0.25645  1.0000
  S   S153      1.0  0.07625  0.42749  0.27406  1.0000
  H   H1270     1.0  0.03803  0.45382  0.41656  1.0000
  H   H1271     1.0  0.02765  0.45006  0.28964  1.0000
  Fe  Fe78      1.0  0.06005  0.33628  0.30565  1.0000
  S   S154      1.0  0.05436  0.34026  0.28440  1.0000
  S   S155      1.0  0.08264  0.32482  0.30861  1.0000
  Fe  Fe79      1.0  0.03052  0.35204  0.31880  1.0000
  S   S156      1.0  0.02215  0.35740  0.29887  1.0000
  C   C705      1.0  0.14327  0.35970  0.25431  1.0000
  Fe  Fe80      1.0  0.03303  0.33476  0.29732  1.0000
  S   S157      1.0  0.02312  0.31922  0.29256  1.0000
  Fe  Fe81      1.0  0.04393  0.36262  0.28772  1.0000
  S   S158      1.0  0.04554  0.38159  0.26898  1.0000
  S   S159      1.0  0.03962  0.32891  0.31823  1.0000
  S   S160      1.0  0.05149  0.35912  0.30792  1.0000
  C   C706      1.0  0.03596  0.25979  0.31655  1.0000
  S   S161      1.0  0.14047  0.44554  0.26032  1.0000
  H   H1272     1.0  0.03156  0.32803  0.35546  1.0000
  C   C707      1.0  0.00876  0.25174  0.37044  1.0000
  C   C708      1.0  0.04473  0.27155  0.30827  1.0000
  C   C709      1.0  0.02193  0.45456  0.37510  1.0000
  C   C710      1.0  0.01650  0.31495  0.36999  1.0000
  H   H1273     1.0  0.07104  0.26012  0.31262  1.0000
  C   C711      1.0  0.06515  0.42829  0.39318  1.0000
  H   H1274     1.0  0.06076  0.29494  0.31477  1.0000
  H   H1275     1.0  0.02879  0.30266  0.32300  1.0000
  N   N36       1.0  0.03840  0.33831  0.39566  1.0000
  H   H1276     1.0  0.06569  0.29954  0.37346  1.0000
  H   H1277     1.0  0.04825  0.29814  0.30394  1.0000
  N   N37       1.0  0.04684  0.24567  0.44886  1.0000
  C   C712      1.0  0.02655  0.29175  0.32748  1.0000
  C   C713      1.0  0.02890  0.25603  0.30664  1.0000
  C   C714      1.0  0.03428  0.29398  0.43086  1.0000
  H   H1278     1.0  0.01985  0.31541  0.37946  1.0000
  H   H1279     1.0  0.03759  0.28074  0.30235  1.0000
  H   H1280     1.0  0.04055  0.43223  0.41291  1.0000
  S   S162      1.0  0.05945  0.26180  0.39767  1.0000
  C   C715      1.0  0.08371  0.31044  0.32365  1.0000
  C   C716      1.0  0.07117  0.30717  0.33362  1.0000
  C   C717      1.0  0.07227  0.29552  0.34541  1.0000
  C   C718      1.0  0.08594  0.28725  0.34746  1.0000
  C   C719      1.0  0.09851  0.29063  0.33760  1.0000
  C   C720      1.0  0.09740  0.30213  0.32568  1.0000
  H   H1281     1.0  0.06063  0.31368  0.33245  1.0000
  H   H1282     1.0  0.10913  0.28430  0.33916  1.0000
  H   H1283     1.0  0.10716  0.30462  0.31806  1.0000
  C   C721      1.0  0.05072  0.34613  0.39130  1.0000
  C   C722      1.0  0.02031  0.28824  0.41749  1.0000
  C   C723      1.0  0.03987  0.25614  0.45851  1.0000
  H   H1284     1.0  0.02957  0.41393  0.29958  1.0000
  H   H1285     1.0  0.15930  0.38984  0.24483  1.0000
  H   H1286     1.0  0.03000  0.45766  0.30302  1.0000
  H   H1287     1.0  0.02569  0.36673  0.38740  1.0000
  H   H1288     1.0  0.05919  0.25540  0.32935  1.0000
  C   C724      1.0  0.05390  0.31842  0.38189  1.0000
  C   C725      1.0  0.06705  0.41533  0.27255  1.0000
  C   C726      1.0  0.06106  0.40613  0.28494  1.0000
  C   C727      1.0  0.05427  0.39586  0.28396  1.0000
  C   C728      1.0  0.05318  0.39494  0.27059  1.0000
  C   C729      1.0  0.05845  0.40467  0.25826  1.0000
  C   C730      1.0  0.06551  0.41477  0.25921  1.0000
  H   H1289     1.0  0.06192  0.40678  0.29530  1.0000
  H   H1290     1.0  0.04980  0.38874  0.29356  1.0000
  H   H1291     1.0  0.05747  0.40413  0.24790  1.0000
  H   H1292     1.0  0.06982  0.42205  0.24963  1.0000
  S   S163      1.0  0.08766  0.27279  0.36232  1.0000
  N   N38       1.0  0.05162  0.27666  0.31714  1.0000
  H   H1293     1.0  0.20687  0.44850  0.24388  1.0000
  C   C731      1.0  0.02922  0.47647  0.41249  1.0000
  C   C732      1.0  0.01843  0.41778  0.29748  1.0000
  C   C733      1.0  0.20049  0.44201  0.25322  1.0000
  H   H1294     1.0  0.06433  0.32188  0.37939  1.0000
  H   H1295     1.0  0.11756  0.37324  0.26926  1.0000
  H   H1296     1.0  0.15989  0.45944  0.26515  1.0000
  H   H1297     1.0  0.05963  0.25460  0.46595  1.0000
  C   C734      1.0  0.17418  0.41891  0.24182  1.0000
  H   H1298     1.0  0.01905  0.29431  0.34955  1.0000
  H   H1299     1.0  0.10653  0.38810  0.24932  1.0000
  H   H1300     1.0  0.06675  0.27084  0.34009  1.0000
  C   C735      1.0  0.02272  0.38389  0.33222  1.0000
  C   C736      1.0  0.09819  0.34784  0.27443  1.0000
  C   C737      1.0  0.09129  0.37170  0.27951  1.0000
  H   H1301     1.0  0.03373  0.37853  0.32808  1.0000
  C   C738      1.0  0.00435  0.32455  0.29273  1.0000
  H   H1302     1.0  0.08901  0.38710  0.29984  1.0000
  C   C739      1.0  0.09310  0.36591  0.29523  1.0000
  C   C740      1.0  0.00793  0.29017  0.42851  1.0000
  H   H1303     1.0  0.16351  0.48441  0.25665  1.0000
  H   H1304     1.0  0.01181  0.38272  0.25516  1.0000
  C   C741      1.0  0.07414  0.30134  0.28633  1.0000
  C   C742      1.0  0.06223  0.24696  0.44108  1.0000
  H   H1305     1.0  0.08497  0.36823  0.25600  1.0000
  H   H1306     1.0  0.00945  0.38431  0.28352  1.0000
  C   C743      1.0  0.00867  0.29416  0.44061  1.0000
  H   H1307     1.0  0.08627  0.34834  0.27645  1.0000
  H   H1308     1.0  0.07958  0.37289  0.27967  1.0000
  H   H1309     1.0  0.05767  0.26732  0.42520  1.0000
  H   H1310     1.0  0.00740  0.47075  0.29450  1.0000
  H   H1311     1.0  0.14401  0.36969  0.25672  1.0000
  H   H1312     1.0  0.01186  0.46603  0.40171  1.0000
  H   H1313     1.0  0.00580  0.36117  0.37146  1.0000
  C   C744      1.0  0.19510  0.43150  0.24841  1.0000
  H   H1314     1.0  0.08171  0.27294  0.41952  1.0000
  H   H1315     1.0  0.02044  0.40043  0.28772  1.0000
  H   H1316     1.0  0.08846  0.35620  0.30028  1.0000
  H   H1317     1.0  0.01537  0.25735  0.44833  1.0000
  C   C745      1.0  0.04413  0.32246  0.39599  1.0000
  C   C746      1.0  0.03775  0.43387  0.40242  1.0000
  C   C747      1.0  0.06375  0.26455  0.32188  1.0000
  H   H1318     1.0  0.16471  0.42369  0.24961  1.0000
  S   S164      1.0  0.04573  0.27306  0.36861  1.0000
  C   C748      1.0  0.13533  0.48806  0.24151  1.0000
  H   H1319     1.0  0.02138  0.26569  0.30186  1.0000
  H   H1320     1.0  0.05149  0.44931  0.38944  1.0000
  C   C749      1.0  0.00390  0.37659  0.26298  1.0000
  H   H1321     1.0  0.04447  0.29551  0.43173  1.0000
  S   S165      1.0  0.03462  0.24701  0.39464  1.0000
  H   H1322     1.0  0.03736  0.25165  0.29795  1.0000
  H   H1323     1.0  0.00952  0.35989  0.39557  1.0000
  H   H1324     1.0  0.04918  0.33677  0.41958  1.0000
  C   C750      1.0  0.02931  0.31723  0.35728  1.0000
  H   H1325     1.0  0.04322  0.28792  0.41051  1.0000
  H   H1326     1.0  0.03020  0.46399  0.39224  1.0000
  H   H1327     1.0  0.02053  0.33452  0.41388  1.0000
  C   C751      1.0  0.04782  0.25507  0.47025  1.0000
  H   H1328     1.0  0.01900  0.48424  0.41052  1.0000
  H   H1329     1.0  0.04574  0.28549  0.33602  1.0000
  H   H1330     1.0  0.09322  0.38281  0.27621  1.0000
  H   H1331     1.0  0.01899  0.45912  0.42487  1.0000
  C   C752      1.0  0.01969  0.39843  0.33284  1.0000
  H   H1332     1.0  0.06307  0.29658  0.39245  1.0000
  H   H1333     1.0  0.10474  0.36313  0.29575  1.0000
  C   C753      1.0  0.16202  0.39780  0.24895  1.0000
  C   C754      1.0  0.05069  0.43817  0.39037  1.0000
  H   H1334     1.0  0.06480  0.30886  0.28204  1.0000
  Fe  Fe82      1.0  0.04492  0.25018  0.37128  1.0000
  H   H1335     1.0  0.03994  0.32967  0.46882  1.0000
  C   C755      1.0  0.01477  0.24842  0.43139  1.0000
  H   H1336     1.0  0.08338  0.29923  0.27717  1.0000
  C   C756      1.0  0.02168  0.29666  0.44151  1.0000
  H   H1337     1.0  0.06040  0.33891  0.39528  1.0000
  C   C757      1.0  0.03862  0.33346  0.42268  1.0000
  H   H1338     1.0  0.06980  0.24299  0.44845  1.0000
  H   H1339     1.0  0.06678  0.28261  0.28779  1.0000
  C   C758      1.0  0.02776  0.34433  0.38595  1.0000
  H   H1340     1.0  0.05096  0.31734  0.40403  1.0000
  C   C759      1.0  0.02998  0.33975  0.41063  1.0000
  S   S166      1.0  0.02195  0.30401  0.45542  1.0000
  H   H1341     1.0  0.08721  0.39205  0.25505  1.0000
  H   H1342     1.0  0.02691  0.31620  0.34745  1.0000
  H   H1343     1.0  0.04848  0.32332  0.37277  1.0000
  C   C760      1.0  0.08034  0.26188  0.42511  1.0000
  N   N39       1.0  0.02301  0.44386  0.40207  1.0000
  H   H1344     1.0  0.02867  0.25477  0.46428  1.0000
  C   C761      1.0  0.11672  0.36284  0.26771  1.0000
  H   H1345     1.0  0.04771  0.35537  0.39659  1.0000
  H   H1346     1.0  0.03326  0.34380  0.37469  1.0000
  H   H1347     1.0  0.02836  0.40424  0.32918  1.0000
  C   C762      1.0  0.05580  0.35251  0.37503  1.0000
  C   C763      1.0  0.05723  0.28978  0.30814  1.0000
  H   H1348     1.0  0.01649  0.43743  0.42524  1.0000
  C   C764      1.0  0.15506  0.48153  0.25376  1.0000
  H   H1349     1.0  0.07311  0.36239  0.36034  1.0000
  Fe  Fe83      1.0  0.06772  0.26385  0.37392  1.0000
  H   H1350     1.0  0.06853  0.36579  0.37808  1.0000
  H   H1351     1.0  0.02535  0.35126  0.41093  1.0000
  C   C765      1.0  0.01899  0.35996  0.38627  1.0000
  H   H1352     1.0  0.07309  0.37941  0.30482  1.0000
  H   H1353     1.0  0.07975  0.27990  0.29850  1.0000
  H   H1354     1.0  0.04628  0.24535  0.47883  1.0000
  H   H1355     1.0  0.03767  0.26027  0.43119  1.0000
  H   H1356     1.0  0.04076  0.32156  0.42530  1.0000
  C   C766      1.0  0.04077  0.28071  0.33024  1.0000
  H   H1357     1.0  0.06715  0.42924  0.40326  1.0000
  H   H1358     1.0  0.01883  0.41499  0.41731  1.0000
  H   H1359     1.0  0.01498  0.30399  0.37123  1.0000
  H   H1360     1.0  0.02957  0.26916  0.48159  1.0000
  H   H1361     1.0  0.02244  0.35306  0.47013  1.0000
  H   H1362     1.0  0.11816  0.33361  0.26556  1.0000
  H   H1363     1.0  0.00517  0.30053  0.33914  1.0000
  H   H1364     1.0  0.02796  0.43990  0.36070  1.0000
  H   H1365     1.0  0.10665  0.31529  0.26369  1.0000
  C   C767      1.0  0.09629  0.36935  0.25484  1.0000
  C   C768      1.0  0.02990  0.33836  0.43647  1.0000
  S   S167      1.0  0.01543  0.35765  0.33884  1.0000
  H   H1366     1.0  0.01162  0.28153  0.34564  1.0000
  H   H1367     1.0  0.03745  0.42297  0.40177  1.0000
  H   H1368     1.0  0.03920  0.30897  0.35941  1.0000
  H   H1369     1.0  0.02860  0.35011  0.43502  1.0000
  H   H1370     1.0  0.01896  0.33572  0.43973  1.0000
  H   H1371     1.0  0.10212  0.31786  0.28172  1.0000
  C   C769      1.0  0.06991  0.28725  0.29506  1.0000
  C   C770      1.0  0.03359  0.28970  0.41887  1.0000
  Fe  Fe84      1.0  0.03744  0.26915  0.39236  1.0000
  H   H1372     1.0  0.04315  0.24979  0.32120  1.0000
  C   C771      1.0  0.12771  0.36062  0.25340  1.0000
  H   H1373     1.0  0.03574  0.33270  0.44522  1.0000
  H   H1374     1.0  0.07893  0.34834  0.37484  1.0000
  H   H1375     1.0  0.02261  0.45863  0.35238  1.0000
  C   C772      1.0  0.01490  0.29204  0.34135  1.0000
  H   H1376     1.0  0.06414  0.46381  0.24257  1.0000
  H   H1377     1.0  0.18959  0.42479  0.25826  1.0000
  H   H1378     1.0  0.10552  0.34084  0.25377  1.0000
  H   H1379     1.0  0.01887  0.42592  0.28721  1.0000
  C   C773      1.0  0.06449  0.26229  0.43316  1.0000
  H   H1380     1.0  0.02238  0.36775  0.36317  1.0000
  H   H1381     1.0  0.15178  0.40361  0.25502  1.0000
  C   C774      1.0  0.10649  0.33675  0.26506  1.0000
  H   H1382     1.0  0.10124  0.34286  0.28494  1.0000
  H   H1383     1.0  0.12096  0.35449  0.27656  1.0000
  C   C775      1.0  0.02298  0.45909  0.40203  1.0000
  H   H1384     1.0  0.07755  0.30641  0.29307  1.0000
  H   H1385     1.0  0.03487  0.31689  0.39942  1.0000
  S   S168      1.0  0.01871  0.28521  0.40163  1.0000
  C   C776      1.0  0.02749  0.46111  0.41491  1.0000
  H   H1386     1.0  0.03786  0.27100  0.33808  1.0000
  C   C777      1.0  0.05780  0.30217  0.38327  1.0000
  H   H1387     1.0  0.03830  0.26736  0.45201  1.0000
  H   H1388     1.0  0.07838  0.27728  0.32329  1.0000
  C   C778      1.0  0.14227  0.46349  0.25465  1.0000
  H   H1389     1.0  0.02177  0.28933  0.31987  1.0000
  C   C779      1.0  0.03883  0.33534  0.47732  1.0000
  H   H1390     1.0  0.06180  0.26931  0.44086  1.0000
  C   C780      1.0  0.01162  0.37619  0.33767  1.0000
  H   H1391     1.0  0.01961  0.33753  0.38882  1.0000
  C   C781      1.0  0.06996  0.35755  0.37196  1.0000
  H   H1392     1.0  0.04958  0.43702  0.38001  1.0000
  C   C782      1.0  0.01763  0.44366  0.38933  1.0000
  H   H1393     1.0  0.06513  0.41692  0.39394  1.0000
  C   C783      1.0  0.00358  0.37494  0.48587  1.0000
  C   C784      1.0  0.01296  0.40512  0.29671  1.0000
  C   C785      1.0  0.03795  0.24916  0.43766  1.0000
  C   C786      1.0  0.10064  0.32301  0.27064  1.0000
  N   N40       1.0  0.10099  0.36284  0.26887  1.0000
  H   H1394     1.0  0.07424  0.43139  0.38422  1.0000
  H   H1395     1.0  0.01463  0.46528  0.37575  1.0000
  H   H1396     1.0  0.00900  0.44901  0.36382  1.0000
  C   C787      1.0  0.15304  0.46739  0.25852  1.0000
  H   H1397     1.0  0.05323  0.26694  0.29972  1.0000
  C   C788      1.0  0.02352  0.34487  0.48015  1.0000
  H   H1398     1.0  0.03828  0.47884  0.40318  1.0000
  C   C789      1.0  0.01803  0.24633  0.35869  1.0000
  C   C790      1.0  0.08497  0.37699  0.30433  1.0000
  H   H1399     1.0  0.14675  0.35030  0.26273  1.0000
  H   H1400     1.0  0.00684  0.31672  0.39980  1.0000
  H   H1401     1.0  0.02251  0.24777  0.31288  1.0000
  H   H1402     1.0  0.04687  0.26681  0.48597  1.0000
  H   H1403     1.0  0.02713  0.26335  0.32539  1.0000
  H   H1404     1.0  0.12520  0.36973  0.24442  1.0000
  H   H1405     1.0  0.15083  0.35850  0.24386  1.0000
  H   H1406     1.0  0.08668  0.37264  0.31542  1.0000
  H   H1407     1.0  0.01122  0.42281  0.30638  1.0000
  C   C791      1.0  0.01320  0.36716  0.37271  1.0000
  C   C792      1.0  0.09645  0.38551  0.24874  1.0000
  H   H1408     1.0  0.00707  0.46923  0.31945  1.0000
  H   H1409     1.0  0.16949  0.39189  0.25628  1.0000
  H   H1410     1.0  0.03165  0.47796  0.42213  1.0000
  H   H1411     1.0  0.03327  0.45578  0.37288  1.0000
  C   C793      1.0  0.07333  0.26815  0.32979  1.0000
  H   H1412     1.0  0.00532  0.30805  0.28220  1.0000
  H   H1413     1.0  0.09243  0.25804  0.33885  1.0000
  C   C794      1.0  0.02315  0.45173  0.30074  1.0000
  H   H1414     1.0  0.08888  0.32545  0.27056  1.0000
  C   C795      1.0  0.00894  0.42378  0.41692  1.0000
  H   H1415     1.0  0.04340  0.27808  0.46912  1.0000
  H   H1416     1.0  0.00744  0.38823  0.45631  1.0000
  H   H1417     1.0  0.01569  0.25829  0.42287  1.0000
  H   H1418     1.0  0.02106  0.43264  0.38717  1.0000
  H   H1419     1.0  0.00710  0.37829  0.37324  1.0000
  H   H1420     1.0  0.02380  0.44103  0.30825  1.0000
  H   H1421     1.0  0.00545  0.44614  0.39178  1.0000
  H   H1422     1.0  0.04534  0.47131  0.24154  1.0000
  C   C796      1.0  0.13337  0.47385  0.24616  1.0000
  C   C797      1.0  0.00735  0.46024  0.30222  1.0000
  H   H1423     1.0  0.08779  0.25730  0.43264  1.0000
  H   H1424     1.0  0.08116  0.24595  0.34033  1.0000
  H   H1425     1.0  0.20474  0.42449  0.24292  1.0000
  H   H1426     1.0  0.01379  0.39705  0.30681  1.0000
  H   H1427     1.0  0.00444  0.42388  0.40786  1.0000
  H   H1428     1.0  0.09280  0.25217  0.32324  1.0000
  C   C798      1.0  0.00556  0.40519  0.33882  1.0000
  H   H1429     1.0  0.00992  0.36712  0.26968  1.0000
  H   H1430     1.0  0.05616  0.48929  0.24493  1.0000
  H   H1431     1.0  0.12759  0.35081  0.25039  1.0000
  C   C799      1.0  0.02026  0.45023  0.36223  1.0000
  C   C800      1.0  0.01244  0.43849  0.41555  1.0000
  H   H1432     1.0  0.02179  0.48722  0.35656  1.0000
  H   H1433     1.0  0.17424  0.44500  0.24521  1.0000
  H   H1434     1.0  0.18228  0.41197  0.24814  1.0000
  H   H1435     1.0  0.01397  0.37839  0.48007  1.0000
  H   H1436     1.0  0.04722  0.34191  0.47375  1.0000
  C   C801      1.0  0.04149  0.26807  0.47714  1.0000
  H   H1437     1.0  0.12501  0.47089  0.24318  1.0000
  H   H1438     1.0  0.01324  0.25477  0.37758  1.0000
  H   H1439     1.0  0.01614  0.49084  0.37420  1.0000
  H   H1440     1.0  0.00520  0.33717  0.36606  1.0000
  S   S169      1.0  0.03706  0.24410  0.35522  1.0000
  H   H1441     1.0  0.08345  0.25527  0.41696  1.0000
  H   H1442     1.0  0.19113  0.44931  0.25873  1.0000
  C   C802      1.0  0.02171  0.24808  0.44343  1.0000
  H   H1443     1.0  0.10313  0.36353  0.24642  1.0000
  H   H1444     1.0  0.00667  0.36559  0.42626  1.0000
  H   H1445     1.0  0.00504  0.40096  0.27181  1.0000
  C   C803      1.0  0.08566  0.25525  0.33323  1.0000
  H   H1446     1.0  0.00338  0.45187  0.32520  1.0000
  C   C804      1.0  0.01209  0.24256  0.34944  1.0000
  H   H1447     1.0  0.04315  0.24210  0.42987  1.0000
  C   C805      1.0  0.18433  0.43962  0.23848  1.0000
  H   H1448     1.0  0.04087  0.32709  0.48712  1.0000
  C   C806      1.0  0.14620  0.49190  0.24524  1.0000
  C   C807      1.0  0.10662  0.32474  0.68204  1.0000
  H   H1449     1.0  0.01886  0.33820  0.62102  1.0000
  S   S170      1.0  0.04040  0.34580  0.55143  1.0000
  C   C808      1.0  0.09210  0.34847  0.58241  1.0000
  H   H1450     1.0  0.02620  0.38514  0.67154  1.0000
  H   H1451     1.0  0.02554  0.27688  0.70233  1.0000
  Fe  Fe85      1.0  0.03978  0.33160  0.57329  1.0000
  S   S171      1.0  0.05973  0.32064  0.58210  1.0000
  H   H1452     1.0  0.02657  0.35304  0.60955  1.0000
  S   S172      1.0  0.07670  0.44982  0.67057  1.0000
  Fe  Fe86      1.0  0.06852  0.39413  0.62939  1.0000
  S   S173      1.0  0.04982  0.39482  0.64837  1.0000
  S   S174      1.0  0.09191  0.38502  0.63054  1.0000
  Fe  Fe87      1.0  0.04889  0.40648  0.60806  1.0000
  S   S175      1.0  0.02834  0.40831  0.62518  1.0000
  S   S176      1.0  0.04944  0.41309  0.58452  1.0000
  Fe  Fe88      1.0  0.04089  0.41648  0.63575  1.0000
  S   S177      1.0  0.03097  0.43535  0.64617  1.0000
  Fe  Fe89      1.0  0.03922  0.38660  0.63611  1.0000
  S   S178      1.0  0.06059  0.41659  0.61764  1.0000
  S   S179      1.0  0.05869  0.38415  0.61814  1.0000
  Fe  Fe90      1.0  0.08583  0.35541  0.71204  1.0000
  S   S180      1.0  0.10303  0.36273  0.69314  1.0000
  H   H1453     1.0  0.03398  0.42701  0.70363  1.0000
  S   S181      1.0  0.06806  0.34548  0.71170  1.0000
  C   C809      1.0  0.02133  0.35209  0.49267  1.0000
  S   S182      1.0  0.03607  0.29517  0.64733  1.0000
  H   H1454     1.0  0.02700  0.31383  0.50811  1.0000
  H   H1455     1.0  0.10280  0.36895  0.58790  1.0000
  N   N41       1.0  0.02721  0.27809  0.72313  1.0000
  H   H1456     1.0  0.06352  0.25623  0.61461  1.0000
  C   C810      1.0  0.07907  0.29544  0.71911  1.0000
  H   H1457     1.0  0.05929  0.26636  0.58929  1.0000
  C   C811      1.0  0.09038  0.27329  0.71069  1.0000
  H   H1458     1.0  0.07099  0.38257  0.58442  1.0000
  C   C812      1.0  0.00592  0.35679  0.65762  1.0000
  H   H1459     1.0  0.10426  0.31387  0.70462  1.0000
  C   C813      1.0  0.09964  0.36778  0.67587  1.0000
  C   C814      1.0  0.11082  0.37174  0.66433  1.0000
  C   C815      1.0  0.10838  0.37676  0.65045  1.0000
  C   C816      1.0  0.09470  0.37792  0.64801  1.0000
  C   C817      1.0  0.08361  0.37347  0.65948  1.0000
  C   C818      1.0  0.08608  0.36835  0.67344  1.0000
  H   H1460     1.0  0.12136  0.37116  0.66617  1.0000
  H   H1461     1.0  0.11703  0.38002  0.64162  1.0000
  H   H1462     1.0  0.07321  0.37379  0.65759  1.0000
  H   H1463     1.0  0.07749  0.36502  0.68227  1.0000
  C   C819      1.0  0.06394  0.44591  0.66379  1.0000
  C   C820      1.0  0.05046  0.45540  0.66310  1.0000
  C   C821      1.0  0.04030  0.45205  0.65777  1.0000
  C   C822      1.0  0.04373  0.43936  0.65287  1.0000
  C   C823      1.0  0.05729  0.42995  0.65342  1.0000
  C   C824      1.0  0.06734  0.43319  0.65895  1.0000
  H   H1464     1.0  0.04779  0.46530  0.66671  1.0000
  H   H1465     1.0  0.02983  0.45935  0.65738  1.0000
  H   H1466     1.0  0.06006  0.42017  0.64958  1.0000
  H   H1467     1.0  0.07782  0.42591  0.65929  1.0000
  C   C825      1.0  0.02716  0.39126  0.56470  1.0000
  C   C826      1.0  0.03148  0.38400  0.57761  1.0000
  C   C827      1.0  0.03816  0.39064  0.58401  1.0000
  C   C828      1.0  0.04090  0.40434  0.57725  1.0000
  C   C829      1.0  0.03684  0.41137  0.56425  1.0000
  C   C830      1.0  0.02981  0.40496  0.55813  1.0000
  H   H1468     1.0  0.02946  0.37341  0.58276  1.0000
  H   H1469     1.0  0.04117  0.38521  0.59412  1.0000
  H   H1470     1.0  0.03894  0.42194  0.55898  1.0000
  S   S183      1.0  0.08244  0.26380  0.69166  1.0000
  C   C831      1.0  0.05347  0.31301  0.60015  1.0000
  C   C832      1.0  0.06327  0.30574  0.60901  1.0000
  C   C833      1.0  0.05802  0.30017  0.62359  1.0000
  C   C834      1.0  0.04298  0.30218  0.62931  1.0000
  C   C835      1.0  0.03326  0.30952  0.62045  1.0000
  C   C836      1.0  0.03850  0.31458  0.60585  1.0000
  H   H1471     1.0  0.07488  0.30448  0.60465  1.0000
  H   H1472     1.0  0.06559  0.29458  0.63040  1.0000
  H   H1473     1.0  0.02165  0.31086  0.62474  1.0000
  H   H1474     1.0  0.03086  0.31961  0.59906  1.0000
  H   H1475     1.0  0.09331  0.30335  0.64831  1.0000
  H   H1476     1.0  0.06415  0.37655  0.53936  1.0000
  H   H1477     1.0  0.07197  0.33292  0.60173  1.0000
  N   N42       1.0  0.00647  0.36136  0.49726  1.0000
  H   H1478     1.0  0.00778  0.38419  0.69472  1.0000
  H   H1479     1.0  0.01962  0.38184  0.50018  1.0000
  H   H1480     1.0  0.05543  0.45950  0.61268  1.0000
  S   S184      1.0  0.07492  0.27251  0.65309  1.0000
  C   C837      1.0  0.09302  0.39097  0.58876  1.0000
  Fe  Fe91      1.0  0.02060  0.35989  0.56215  1.0000
  H   H1481     1.0  0.09832  0.34385  0.61784  1.0000
  H   H1482     1.0  0.10380  0.27736  0.65204  1.0000
  H   H1483     1.0  0.08457  0.33608  0.68193  1.0000
  H   H1484     1.0  0.08256  0.37018  0.55389  1.0000
  H   H1485     1.0  0.07619  0.42939  0.69818  1.0000
  H   H1486     1.0  0.06565  0.34423  0.65881  1.0000
  C   C838      1.0  0.09463  0.33193  0.63994  1.0000
  H   H1487     1.0  0.01160  0.28086  0.68086  1.0000
  C   C839      1.0  0.12014  0.48379  0.58874  1.0000
  Fe  Fe92      1.0  0.07528  0.32881  0.73017  1.0000
  C   C840      1.0  0.00425  0.40435  0.60134  1.0000
  H   H1488     1.0  0.09801  0.34688  0.59095  1.0000
  H   H1489     1.0  0.04292  0.29055  0.72128  1.0000
  H   H1490     1.0  0.09696  0.48644  0.59419  1.0000
  H   H1491     1.0  0.09836  0.26321  0.71135  1.0000
  H   H1492     1.0  0.04404  0.36312  0.67837  1.0000
  H   H1493     1.0  0.02945  0.40633  0.69788  1.0000
  H   H1494     1.0  0.01162  0.24768  0.68383  1.0000
  H   H1495     1.0  0.08950  0.33790  0.58379  1.0000
  H   H1496     1.0  0.11108  0.30782  0.66106  1.0000
  H   H1497     1.0  0.10544  0.36161  0.56463  1.0000
  H   H1498     1.0  0.04864  0.34934  0.62282  1.0000
  H   H1499     1.0  0.06309  0.29258  0.69383  1.0000
  H   H1500     1.0  0.06136  0.30910  0.70950  1.0000
  H   H1501     1.0  0.10165  0.25036  0.51788  1.0000
  H   H1502     1.0  0.05152  0.47854  0.61207  1.0000
  N   N43       1.0  0.09410  0.46269  0.61968  1.0000
  H   H1503     1.0  0.06817  0.26785  0.54774  1.0000
  H   H1504     1.0  0.10829  0.34749  0.62859  1.0000
  H   H1505     1.0  0.08510  0.29404  0.66572  1.0000
  H   H1506     1.0  0.03913  0.38809  0.67966  1.0000
  H   H1507     1.0  0.09777  0.39523  0.57733  1.0000
  H   H1508     1.0  0.07235  0.45202  0.70680  1.0000
  H   H1509     1.0  0.08307  0.44000  0.61578  1.0000
  H   H1510     1.0  0.09684  0.44040  0.69436  1.0000
  H   H1511     1.0  0.03241  0.41141  0.67901  1.0000
  H   H1512     1.0  0.02690  0.31845  0.73495  1.0000
  H   H1513     1.0  0.11481  0.31536  0.67874  1.0000
  H   H1514     1.0  0.12961  0.48000  0.59392  1.0000
  C   C841      1.0  0.10649  0.46572  0.60706  1.0000
  H   H1515     1.0  0.01139  0.37707  0.60617  1.0000
  H   H1516     1.0  0.11717  0.46081  0.61015  1.0000
  H   H1517     1.0  0.02072  0.38603  0.70320  1.0000
  C   C842      1.0  0.00993  0.35855  0.72167  1.0000
  H   H1518     1.0  0.01591  0.47772  0.64002  1.0000
  C   C843      1.0  0.09965  0.30693  0.66648  1.0000
  C   C844      1.0  0.00656  0.28203  0.63433  1.0000
  H   H1519     1.0  0.00658  0.25867  0.69620  1.0000
  H   H1520     1.0  0.01602  0.26433  0.52958  1.0000
  H   H1521     1.0  0.08883  0.48198  0.62802  1.0000
  H   H1522     1.0  0.04415  0.32751  0.68142  1.0000
  H   H1523     1.0  0.03364  0.27609  0.55515  1.0000
  H   H1524     1.0  0.03994  0.34491  0.66987  1.0000
  C   C845      1.0  0.02312  0.29946  0.70130  1.0000
  C   C846      1.0  0.10768  0.46792  0.63581  1.0000
  H   H1525     1.0  0.02305  0.28982  0.56475  1.0000
  S   S185      1.0  0.07164  0.36969  0.72688  1.0000
  H   H1526     1.0  0.02353  0.31548  0.68130  1.0000
  C   C847      1.0  0.00807  0.27211  0.53566  1.0000
  H   H1527     1.0  0.14911  0.48568  0.71212  1.0000
  H   H1528     1.0  0.01869  0.27364  0.59400  1.0000
  C   C848      1.0  0.10709  0.28391  0.65742  1.0000
  H   H1529     1.0  0.00776  0.27283  0.61699  1.0000
  H   H1530     1.0  0.01723  0.41021  0.66632  1.0000
  C   C849      1.0  0.06978  0.35619  0.59951  1.0000
  H   H1531     1.0  0.01605  0.36997  0.53271  1.0000
  H   H1532     1.0  0.03870  0.36452  0.69676  1.0000
  S   S186      1.0  0.02586  0.31845  0.57092  1.0000
  H   H1533     1.0  0.08612  0.31763  0.69043  1.0000
  H   H1534     1.0  0.01836  0.25125  0.60374  1.0000
  C   C850      1.0  0.06896  0.36038  0.57432  1.0000
  N   N44       1.0  0.01153  0.40575  0.68959  1.0000
  H   H1535     1.0  0.02950  0.36497  0.50904  1.0000
  H   H1536     1.0  0.07057  0.31380  0.67849  1.0000
  H   H1537     1.0  0.12459  0.34139  0.55704  1.0000
  H   H1538     1.0  0.09903  0.33325  0.70119  1.0000
  Fe  Fe93      1.0  0.05458  0.35780  0.72846  1.0000
  H   H1539     1.0  0.13388  0.38709  0.70964  1.0000
  H   H1540     1.0  0.08368  0.26290  0.59540  1.0000
  C   C851      1.0  0.09205  0.43494  0.70535  1.0000
  H   H1541     1.0  0.10813  0.44249  0.62744  1.0000
  H   H1542     1.0  0.15654  0.47234  0.73489  1.0000
  H   H1543     1.0  0.07692  0.28171  0.59593  1.0000
  C   C852      1.0  0.01046  0.48029  0.63095  1.0000
  C   C853      1.0  0.05334  0.46765  0.61911  1.0000
  C   C854      1.0  0.02962  0.38327  0.68172  1.0000
  C   C855      1.0  0.10697  0.32401  0.69741  1.0000
  N   N45       1.0  0.09405  0.41054  0.69924  1.0000
  C   C856      1.0  0.08433  0.40055  0.70070  1.0000
  C   C857      1.0  0.10521  0.40351  0.70842  1.0000
  H   H1544     1.0  0.04065  0.30276  0.68228  1.0000
  C   C858      1.0  0.10137  0.41561  0.68384  1.0000
  C   C859      1.0  0.11121  0.40379  0.67592  1.0000
  C   C860      1.0  0.07369  0.40560  0.69042  1.0000
  H   H1545     1.0  0.12195  0.47784  0.58028  1.0000
  C   C861      1.0  0.11152  0.38708  0.71000  1.0000
  C   C862      1.0  0.12478  0.38213  0.71677  1.0000
  C   C863      1.0  0.11492  0.40973  0.65973  1.0000
  C   C864      1.0  0.06301  0.39575  0.69440  1.0000
  C   C865      1.0  0.09454  0.43733  0.61689  1.0000
  H   H1546     1.0  0.07797  0.39825  0.71192  1.0000
  H   H1547     1.0  0.09073  0.38995  0.69874  1.0000
  H   H1548     1.0  0.11455  0.40896  0.70444  1.0000
  H   H1549     1.0  0.10047  0.40491  0.71964  1.0000
  H   H1550     1.0  0.11526  0.32864  0.57054  1.0000
  H   H1551     1.0  0.02580  0.24367  0.65714  1.0000
  H   H1552     1.0  0.09307  0.42214  0.67760  1.0000
  H   H1553     1.0  0.10841  0.42298  0.68297  1.0000
  H   H1554     1.0  0.10591  0.39477  0.67780  1.0000
  H   H1555     1.0  0.12163  0.39962  0.67956  1.0000
  H   H1556     1.0  0.06719  0.41666  0.69049  1.0000
  H   H1557     1.0  0.07992  0.40524  0.67929  1.0000
  C   C866      1.0  0.02979  0.28337  0.70703  1.0000
  H   H1558     1.0  0.06300  0.34067  0.67803  1.0000
  H   H1559     1.0  0.10314  0.38108  0.71703  1.0000
  H   H1560     1.0  0.11496  0.38386  0.69962  1.0000
  H   H1561     1.0  0.09947  0.48544  0.64702  1.0000
  C   C867      1.0  0.00935  0.33338  0.72607  1.0000
  C   C868      1.0  0.01319  0.28020  0.61898  1.0000
  H   H1562     1.0  0.12032  0.41888  0.65716  1.0000
  H   H1563     1.0  0.12243  0.40116  0.65440  1.0000
  H   H1564     1.0  0.10488  0.41336  0.65544  1.0000
  H   H1565     1.0  0.05540  0.39682  0.70485  1.0000
  H   H1566     1.0  0.05663  0.39871  0.68601  1.0000
  H   H1567     1.0  0.06894  0.38437  0.69510  1.0000
  S   S187      1.0  0.04645  0.26488  0.67899  1.0000
  H   H1568     1.0  0.08087  0.46383  0.60514  1.0000
  H   H1569     1.0  0.10021  0.39138  0.59541  1.0000
  Fe  Fe94      1.0  0.05101  0.27488  0.65551  1.0000
  H   H1570     1.0  0.02902  0.48344  0.72465  1.0000
  H   H1571     1.0  0.07204  0.26010  0.56540  1.0000
  H   H1572     1.0  0.09485  0.26186  0.53689  1.0000
  H   H1573     1.0  0.02600  0.30657  0.70638  1.0000
  H   H1574     1.0  0.09647  0.27921  0.72696  1.0000
  S   S188      1.0  0.03052  0.36668  0.64438  1.0000
  C   C869      1.0  0.02004  0.42855  0.68939  1.0000
  H   H1575     1.0  0.08688  0.45474  0.71277  1.0000
  H   H1576     1.0  0.04329  0.46655  0.62757  1.0000
  H   H1577     1.0  0.06774  0.35755  0.54730  1.0000
  H   H1578     1.0  0.08343  0.26900  0.61085  1.0000
  C   C870      1.0  0.08092  0.27677  0.70143  1.0000
  H   H1579     1.0  0.01860  0.25035  0.62206  1.0000
  Fe  Fe95      1.0  0.06923  0.47167  0.67568  1.0000
  H   H1580     1.0  0.03296  0.26719  0.62614  1.0000
  C   C871      1.0  0.09804  0.42136  0.62399  1.0000
  H   H1581     1.0  0.01762  0.47182  0.72519  1.0000
  C   C872      1.0  0.06614  0.46518  0.62602  1.0000
  H   H1582     1.0  0.00496  0.36969  0.71826  1.0000
  C   C873      1.0  0.03751  0.27244  0.57639  1.0000
  C   C874      1.0  0.05633  0.33955  0.61980  1.0000
  H   H1583     1.0  0.08506  0.46656  0.64103  1.0000
  C   C875      1.0  0.07097  0.37101  0.55948  1.0000
  H   H1584     1.0  0.11016  0.33465  0.67521  1.0000
  H   H1585     1.0  0.07803  0.47998  0.61057  1.0000
  H   H1586     1.0  0.02849  0.25618  0.72247  1.0000
  H   H1587     1.0  0.12203  0.38500  0.72733  1.0000
  Fe  Fe96      1.0  0.07063  0.26125  0.67623  1.0000
  H   H1588     1.0  0.10946  0.41784  0.62537  1.0000
  H   H1589     1.0  0.09049  0.41906  0.63459  1.0000
  H   H1590     1.0  0.09669  0.41496  0.61713  1.0000
  C   C876      1.0  0.06966  0.29925  0.70962  1.0000
  C   C877      1.0  0.09774  0.34537  0.62860  1.0000
  H   H1591     1.0  0.07788  0.41997  0.71582  1.0000
  H   H1592     1.0  0.01126  0.28977  0.63678  1.0000
  N   N46       1.0  0.03768  0.26880  0.60319  1.0000
  C   C878      1.0  0.02966  0.27602  0.59123  1.0000
  C   C879      1.0  0.03004  0.27494  0.61633  1.0000
  C   C880      1.0  0.05276  0.27199  0.59800  1.0000
  H   H1593     1.0  0.01373  0.42281  0.58993  1.0000
  H   H1594     1.0  0.10465  0.48827  0.60774  1.0000
  C   C881      1.0  0.06218  0.26775  0.60934  1.0000
  H   H1595     1.0  0.09855  0.25421  0.55431  1.0000
  S   S189      1.0  0.08253  0.47979  0.68527  1.0000
  H   H1596     1.0  0.00656  0.28734  0.66384  1.0000
  C   C882      1.0  0.07746  0.27054  0.60239  1.0000
  H   H1597     1.0  0.02761  0.28793  0.58966  1.0000
  H   H1598     1.0  0.11755  0.28667  0.65083  1.0000
  C   C883      1.0  0.06304  0.36841  0.54962  1.0000
  H   H1599     1.0  0.03394  0.28460  0.61570  1.0000
  H   H1600     1.0  0.05195  0.28374  0.59330  1.0000
  H   H1601     1.0  0.04635  0.24787  0.59782  1.0000
  C   C884      1.0  0.11720  0.33968  0.56781  1.0000
  C   C885      1.0  0.01657  0.31507  0.51559  1.0000
  C   C886      1.0  0.01889  0.34963  0.61975  1.0000
  S   S190      1.0  0.05902  0.48751  0.72215  1.0000
  H   H1602     1.0  0.02652  0.41063  0.54817  1.0000
  H   H1603     1.0  0.05723  0.27408  0.61773  1.0000
  H   H1604     1.0  0.12850  0.37026  0.71841  1.0000
  H   H1605     1.0  0.08768  0.37166  0.60274  1.0000
  C   C887      1.0  0.09100  0.32514  0.68084  1.0000
  Fe  Fe97      1.0  0.00715  0.33475  0.58003  1.0000
  H   H1606     1.0  0.01046  0.29081  0.61166  1.0000
  H   H1607     1.0  0.06474  0.33592  0.62628  1.0000
  C   C888      1.0  0.13620  0.48762  0.73355  1.0000
  H   H1608     1.0  0.05494  0.34399  0.59783  1.0000
  H   H1609     1.0  0.05195  0.25809  0.70782  1.0000
  C   C889      1.0  0.02278  0.35472  0.72672  1.0000
  H   H1610     1.0  0.07653  0.35470  0.60728  1.0000
  H   H1611     1.0  0.02588  0.36149  0.68848  1.0000
  H   H1612     1.0  0.02990  0.35844  0.48933  1.0000
  H   H1613     1.0  0.01213  0.34670  0.65483  1.0000
  H   H1614     1.0  0.04517  0.24772  0.61579  1.0000
  C   C890      1.0  0.02218  0.32959  0.73108  1.0000
  H   H1615     1.0  0.10872  0.27729  0.66811  1.0000
  H   H1616     1.0  0.08889  0.35487  0.63069  1.0000
  C   C891      1.0  0.09534  0.33307  0.65484  1.0000
  H   H1617     1.0  0.09812  0.34958  0.55935  1.0000
  H   H1618     1.0  0.04325  0.45896  0.72356  1.0000
  S   S191      1.0  0.01811  0.38386  0.55657  1.0000
  C   C892      1.0  0.02384  0.41242  0.68898  1.0000
  C   C893      1.0  0.08120  0.44655  0.71267  1.0000
  H   H1619     1.0  0.07300  0.31796  0.65970  1.0000
  H   H1620     1.0  0.04167  0.28188  0.70223  1.0000
  C   C894      1.0  0.02746  0.27806  0.56586  1.0000
  H   H1621     1.0  0.05015  0.33101  0.62244  1.0000
  H   H1622     1.0  0.07636  0.44182  0.72393  1.0000
  C   C895      1.0  0.08936  0.28242  0.71952  1.0000
  H   H1623     1.0  0.04722  0.32940  0.66222  1.0000
  C   C896      1.0  0.09168  0.37547  0.59111  1.0000
  H   H1624     1.0  0.08984  0.44419  0.63682  1.0000
  C   C897      1.0  0.03258  0.43254  0.69260  1.0000
  C   C898      1.0  0.03479  0.36709  0.68672  1.0000
  C   C899      1.0  0.09317  0.47019  0.63123  1.0000
  H   H1625     1.0  0.01056  0.40859  0.71712  1.0000
  C   C900      1.0  0.01885  0.37282  0.50972  1.0000
  H   H1626     1.0  0.10171  0.43888  0.60602  1.0000
  H   H1627     1.0  0.02279  0.35049  0.62879  1.0000
  H   H1628     1.0  0.12269  0.34069  0.57571  1.0000
  C   C901      1.0  0.10284  0.35084  0.56768  1.0000
  H   H1629     1.0  0.10083  0.43013  0.71138  1.0000
  C   C902      1.0  0.09678  0.44668  0.62587  1.0000
  Fe  Fe98      1.0  0.07692  0.25121  0.64817  1.0000
  H   H1630     1.0  0.09862  0.46785  0.65842  1.0000
  H   H1631     1.0  0.08378  0.33073  0.63982  1.0000
  C   C903      1.0  0.13753  0.48720  0.71803  1.0000
  N   N47       1.0  0.09002  0.32172  0.66736  1.0000
  H   H1632     1.0  0.06030  0.36518  0.60164  1.0000
  C   C904      1.0  0.09523  0.29752  0.65907  1.0000
  H   H1633     1.0  0.07031  0.34942  0.57262  1.0000
  H   H1634     1.0  0.12323  0.25599  0.49889  1.0000
  H   H1635     1.0  0.03024  0.44433  0.69167  1.0000
  C   C905      1.0  0.03933  0.25269  0.60692  1.0000
  H   H1636     1.0  0.08659  0.37874  0.57087  1.0000
  C   C906      1.0  0.01472  0.32058  0.52759  1.0000
  H   H1637     1.0  0.12346  0.26008  0.51531  1.0000
  C   C907      1.0  0.02504  0.24716  0.61195  1.0000
  H   H1638     1.0  0.06307  0.47246  0.63356  1.0000
  H   H1639     1.0  0.04140  0.26070  0.57722  1.0000
  C   C908      1.0  0.06343  0.34255  0.60380  1.0000
  H   H1640     1.0  0.11582  0.47321  0.65137  1.0000
  H   H1641     1.0  0.05657  0.26598  0.71950  1.0000
  H   H1642     1.0  0.06633  0.38224  0.56088  1.0000
  H   H1643     1.0  0.10018  0.30016  0.67745  1.0000
  H   H1644     1.0  0.11289  0.45636  0.63855  1.0000
  H   H1645     1.0  0.01833  0.43528  0.67882  1.0000
  S   S192      1.0  0.03113  0.36801  0.72738  1.0000
  H   H1646     1.0  0.13285  0.47839  0.71764  1.0000
  H   H1647     1.0  0.01831  0.27241  0.56956  1.0000
  N   N48       1.0  0.07831  0.35994  0.58428  1.0000
  H   H1648     1.0  0.00593  0.38695  0.52423  1.0000
  C   C909      1.0  0.01233  0.36863  0.65363  1.0000
  H   H1649     1.0  0.02568  0.29752  0.67941  1.0000
  C   C910      1.0  0.06314  0.33624  0.66897  1.0000
  H   H1650     1.0  0.08103  0.24445  0.53888  1.0000
  C   C911      1.0  0.01632  0.37878  0.52297  1.0000
  S   S193      1.0  0.04810  0.47859  0.69066  1.0000
  C   C912      1.0  0.07055  0.28987  0.70082  1.0000
  C   C913      1.0  0.00736  0.40985  0.67523  1.0000
  H   H1651     1.0  0.10675  0.46049  0.59848  1.0000
  H   H1652     1.0  0.01374  0.39930  0.60641  1.0000
  H   H1653     1.0  0.07864  0.27575  0.55440  1.0000
  H   H1654     1.0  0.08216  0.39796  0.59198  1.0000
  C   C914      1.0  0.02863  0.30402  0.68510  1.0000
  C   C915      1.0  0.07645  0.26544  0.55423  1.0000
  H   H1655     1.0  0.11544  0.47347  0.62708  1.0000
  S   S194      1.0  0.02908  0.32653  0.52959  1.0000
  H   H1656     1.0  0.11799  0.32449  0.69792  1.0000
  H   H1657     1.0  0.08935  0.34399  0.65654  1.0000
  H   H1658     1.0  0.06774  0.45400  0.63231  1.0000
  C   C916      1.0  0.01687  0.38961  0.69306  1.0000
  Fe  Fe99      1.0  0.02470  0.33402  0.54991  1.0000
  S   S195      1.0  0.05326  0.25480  0.64834  1.0000
  S   S196      1.0  0.02120  0.34675  0.58422  1.0000
  C   C917      1.0  0.10520  0.47399  0.64896  1.0000
  C   C918      1.0  0.08145  0.37456  0.58216  1.0000
  C   C919      1.0  0.04772  0.33433  0.67073  1.0000
  H   H1659     1.0  0.00905  0.39098  0.65353  1.0000
  H   H1660     1.0  0.10694  0.33285  0.65412  1.0000
  H   H1661     1.0  0.05719  0.36356  0.57930  1.0000
  S   S197      1.0  0.07703  0.30503  0.73238  1.0000
  C   C920      1.0  0.07429  0.32168  0.66865  1.0000
  C   C921      1.0  0.03413  0.26225  0.72624  1.0000
  C   C922      1.0  0.10607  0.48183  0.59984  1.0000
  C   C923      1.0  0.09056  0.25585  0.54779  1.0000
  H   H1662     1.0  0.02414  0.34336  0.50195  1.0000
  C   C924      1.0  0.08005  0.46813  0.61457  1.0000
  H   H1663     1.0  0.04291  0.42946  0.68488  1.0000
  C   C925      1.0  0.12436  0.25125  0.51013  1.0000
  Fe  Fe100     1.0  0.06117  0.48869  0.69875  1.0000
  H   H1664     1.0  0.02061  0.27128  0.66655  1.0000
  H   H1665     1.0  0.05127  0.36940  0.55466  1.0000
  H   H1666     1.0  0.10303  0.32258  0.63674  1.0000
  H   H1667     1.0  0.04696  0.27765  0.57165  1.0000
  H   H1668     1.0  0.01028  0.43146  0.69774  1.0000
  H   H1669     1.0  0.00799  0.37691  0.62452  1.0000
  C   C926      1.0  0.00417  0.38173  0.65699  1.0000
  C   C927      1.0  0.03344  0.28681  0.72918  1.0000
  C   C928      1.0  0.05059  0.25817  0.71922  1.0000
  H   H1670     1.0  0.01107  0.30145  0.70329  1.0000
  C   C929      1.0  0.00649  0.36538  0.51080  1.0000
  H   H1671     1.0  0.01428  0.47100  0.62571  1.0000
  C   C930      1.0  0.01012  0.27748  0.67177  1.0000
  H   H1672     1.0  0.02537  0.38392  0.52198  1.0000
  C   C931      1.0  0.08432  0.42350  0.70480  1.0000
  C   C932      1.0  0.02404  0.47432  0.73137  1.0000
  S   S198      1.0  0.09424  0.33780  0.72942  1.0000
  S   S199      1.0  0.06649  0.49140  0.65824  1.0000
  H   H1673     1.0  0.00387  0.42755  0.64863  1.0000
  H   H1674     1.0  0.00728  0.35563  0.51974  1.0000
  H   H1675     1.0  0.02617  0.49146  0.61587  1.0000
  H   H1676     1.0  0.06517  0.39888  0.73613  1.0000
  C   C933      1.0  0.01094  0.27998  0.72886  1.0000
  H   H1677     1.0  0.02529  0.29684  0.73093  1.0000
  H   H1678     1.0  0.00529  0.29130  0.72556  1.0000
  H   H1679     1.0  0.03897  0.33704  0.73497  1.0000
  H   H1680     1.0  0.00652  0.27365  0.72413  1.0000
  H   H1681     1.0  0.00638  0.40059  0.59139  1.0000
  S   S200      1.0  0.00469  0.34936  0.55871  1.0000
  H   H1682     1.0  0.01315  0.27368  0.54358  1.0000
  C   C934      1.0  0.05784  0.24322  0.72650  1.0000
  C   C935      1.0  0.03640  0.46118  0.73399  1.0000
  H   H1683     1.0  0.08871  0.48819  0.70654  1.0000
  C   C936      1.0  0.02901  0.34019  0.73116  1.0000
  H   H1684     1.0  0.00861  0.27153  0.64199  1.0000
  C   C937      1.0  0.00332  0.42056  0.59719  1.0000
  C   C938      1.0  0.00333  0.37499  0.61641  1.0000
  H   H1685     1.0  0.00634  0.30720  0.50375  1.0000
  H   H1686     1.0  0.00551  0.28248  0.52798  1.0000
  C   C939      1.0  0.00349  0.34788  0.72092  1.0000
  Fe  Fe101     1.0  0.05088  0.24440  0.67162  1.0000
  C   C940      1.0  0.00348  0.35873  0.61984  1.0000
  H   H1687     1.0  0.13531  0.24395  0.50995  1.0000
  C   C941      1.0  0.11244  0.24289  0.51810  1.0000
  H   H1688     1.0  0.11691  0.24309  0.53809  1.0000
  C   C942      1.0  0.00486  0.31139  0.51309  1.0000
  S   S201      1.0  0.09512  0.24247  0.63104  1.0000
  H   H1689     1.0  0.04747  0.41092  0.77046  1.0000
  H   H1690     1.0  0.35322  0.26074  0.92717  1.0000
  S   S202      1.0  0.44098  0.27491  0.92771  1.0000
  H   H1691     1.0  0.16837  0.46679  0.98548  1.0000
  H   H1692     1.0  0.08449  0.39167  0.81423  1.0000
  Fe  Fe102     1.0  0.30876  0.35002  0.95261  1.0000
  S   S203      1.0  0.33312  0.34403  0.94912  1.0000
  Fe  Fe103     1.0  0.30861  0.37237  0.92510  1.0000
  S   S204      1.0  0.33308  0.36870  0.91889  1.0000
  S   S205      1.0  0.29371  0.39012  0.91264  1.0000
  Fe  Fe104     1.0  0.33296  0.34518  0.92644  1.0000
  S   S206      1.0  0.35030  0.33018  0.91398  1.0000
  Fe  Fe105     1.0  0.33174  0.36775  0.94186  1.0000
  S   S207      1.0  0.34747  0.37581  0.94845  1.0000
  S   S208      1.0  0.30859  0.34888  0.93052  1.0000
  S   S209      1.0  0.30737  0.37368  0.94758  1.0000
  H   H1693     1.0  0.28334  0.40468  0.94703  1.0000
  S   S210      1.0  0.43046  0.33373  0.94567  1.0000
  S   S211      1.0  0.36830  0.44967  0.95740  1.0000
  C   C943      1.0  0.03965  0.45895  0.79667  1.0000
  Fe  Fe106     1.0  0.34794  0.44121  0.96566  1.0000
  S   S212      1.0  0.33415  0.44089  0.95109  1.0000
  H   H1694     1.0  0.38237  0.33103  0.94253  1.0000
  H   H1695     1.0  0.08680  0.46006  0.81689  1.0000
  H   H1696     1.0  0.24627  0.48422  0.93789  1.0000
  H   H1697     1.0  0.33864  0.47290  0.92807  1.0000
  H   H1698     1.0  0.06413  0.38305  0.76017  1.0000
  H   H1699     1.0  0.36593  0.25644  0.89604  1.0000
  S   S213      1.0  0.08544  0.35437  0.76364  1.0000
  Fe  Fe107     1.0  0.12540  0.40232  0.78743  1.0000
  S   S214      1.0  0.13924  0.38497  0.80111  1.0000
  S   S215      1.0  0.11680  0.40062  0.76892  1.0000
  Fe  Fe108     1.0  0.12543  0.42508  0.80288  1.0000
  S   S216      1.0  0.13823  0.40943  0.81831  1.0000
  S   S217      1.0  0.11982  0.44851  0.80347  1.0000
  Fe  Fe109     1.0  0.15209  0.40137  0.79906  1.0000
  S   S218      1.0  0.17666  0.39752  0.79522  1.0000
  Fe  Fe110     1.0  0.12435  0.39463  0.81929  1.0000
  S   S219      1.0  0.11681  0.38023  0.84036  1.0000
  S   S220      1.0  0.13997  0.41783  0.78335  1.0000
  S   S221      1.0  0.10977  0.41114  0.80592  1.0000
  S   S222      1.0  0.17536  0.46708  0.80699  1.0000
  Fe  Fe111     1.0  0.22911  0.39365  0.88283  1.0000
  S   S223      1.0  0.20828  0.39289  0.87790  1.0000
  S   S224      1.0  0.24223  0.37536  0.89650  1.0000
  Fe  Fe112     1.0  0.22888  0.42419  0.86597  1.0000
  S   S225      1.0  0.20811  0.42636  0.85933  1.0000
  S   S226      1.0  0.24158  0.44190  0.85785  1.0000
  Fe  Fe113     1.0  0.20043  0.41512  0.88211  1.0000
  S   S227      1.0  0.17737  0.42325  0.89338  1.0000
  Fe  Fe114     1.0  0.21713  0.40412  0.85544  1.0000
  S   S228      1.0  0.21723  0.39779  0.83515  1.0000
  S   S229      1.0  0.22034  0.41488  0.88912  1.0000
  S   S230      1.0  0.23883  0.40285  0.86001  1.0000
  C   C944      1.0  0.01427  0.47785  0.74573  1.0000
  H   H1700     1.0  0.43304  0.42951  0.97763  1.0000
  S   S231      1.0  0.17647  0.45285  0.94195  1.0000
  H   H1701     1.0  0.38247  0.27000  0.89256  1.0000
  H   H1702     1.0  0.00431  0.47566  0.77429  1.0000
  C   C945      1.0  0.47019  0.24722  0.95471  1.0000
  H   H1703     1.0  0.04851  0.29708  0.74201  1.0000
  C   C946      1.0  0.42569  0.38172  0.97764  1.0000
  H   H1704     1.0  0.28837  0.42489  0.92545  1.0000
  Fe  Fe115     1.0  0.08978  0.43335  0.88940  1.0000
  S   S232      1.0  0.07739  0.44435  0.87221  1.0000
  S   S233      1.0  0.10515  0.41172  0.89057  1.0000
  Fe  Fe116     1.0  0.07489  0.45628  0.90671  1.0000
  S   S234      1.0  0.06116  0.46949  0.89095  1.0000
  S   S235      1.0  0.07318  0.46028  0.92823  1.0000
  Fe  Fe117     1.0  0.05800  0.44828  0.89010  1.0000
  S   S236      1.0  0.03658  0.44316  0.89186  1.0000
  Fe  Fe118     1.0  0.08181  0.46451  0.87447  1.0000
  S   S237      1.0  0.07003  0.43553  0.90719  1.0000
  S   S238      1.0  0.09596  0.45309  0.89032  1.0000
  C   C947      1.0  0.24307  0.46224  0.78584  1.0000
  C   C948      1.0  0.03421  0.44251  0.87534  1.0000
  C   C949      1.0  0.04264  0.44883  0.86251  1.0000
  C   C950      1.0  0.04082  0.44793  0.84937  1.0000
  C   C951      1.0  0.03067  0.44061  0.84906  1.0000
  C   C952      1.0  0.02218  0.43438  0.86189  1.0000
  C   C953      1.0  0.02391  0.43537  0.87502  1.0000
  H   H1705     1.0  0.05029  0.45472  0.86270  1.0000
  H   H1706     1.0  0.04707  0.45313  0.83954  1.0000
  H   H1707     1.0  0.04496  0.41437  0.80217  1.0000
  H   H1708     1.0  0.01734  0.43052  0.88493  1.0000
  C   C954      1.0  0.23830  0.36944  0.96461  1.0000
  H   H1709     1.0  0.19708  0.44308  0.79623  1.0000
  N   N49       1.0  0.41974  0.45078  0.97841  1.0000
  C   C955      1.0  0.08348  0.47271  0.92640  1.0000
  H   H1710     1.0  0.21320  0.46386  0.85085  1.0000
  H   H1711     1.0  0.01579  0.35195  0.76211  1.0000
  H   H1712     1.0  0.07622  0.48669  0.78861  1.0000
  C   C956      1.0  0.21330  0.48103  0.96265  1.0000
  C   C957      1.0  0.17695  0.43126  0.90711  1.0000
  C   C958      1.0  0.16657  0.44386  0.90918  1.0000
  C   C959      1.0  0.16629  0.45055  0.91993  1.0000
  C   C960      1.0  0.17646  0.44463  0.92857  1.0000
  C   C961      1.0  0.18694  0.43210  0.92641  1.0000
  C   C962      1.0  0.18721  0.42544  0.91566  1.0000
  H   H1713     1.0  0.15895  0.44859  0.90226  1.0000
  H   H1714     1.0  0.15829  0.46033  0.92145  1.0000
  H   H1715     1.0  0.19485  0.42755  0.93306  1.0000
  H   H1716     1.0  0.19524  0.41569  0.91412  1.0000
  H   H1717     1.0  0.38098  0.29941  0.94786  1.0000
  C   C963      1.0  0.24199  0.45128  0.89489  1.0000
  C   C964      1.0  0.24024  0.44438  0.88518  1.0000
  C   C965      1.0  0.24481  0.44946  0.87042  1.0000
  C   C966      1.0  0.25163  0.46116  0.86552  1.0000
  H   H1718     1.0  0.20184  0.47753  0.87223  1.0000
  H   H1719     1.0  0.02347  0.40892  0.82113  1.0000
  H   H1720     1.0  0.23523  0.43525  0.88914  1.0000
  H   H1721     1.0  0.25529  0.46510  0.85412  1.0000
  C   C967      1.0  0.06042  0.46900  0.80871  1.0000
  H   H1722     1.0  0.08243  0.41006  0.95017  1.0000
  C   C968      1.0  0.28811  0.46698  0.89520  1.0000
  C   C969      1.0  0.19666  0.46056  0.89047  1.0000
  C   C970      1.0  0.18689  0.39837  0.80697  1.0000
  C   C971      1.0  0.20198  0.39326  0.80344  1.0000
  C   C972      1.0  0.21083  0.39322  0.81230  1.0000
  C   C973      1.0  0.20482  0.39822  0.82495  1.0000
  C   C974      1.0  0.18962  0.40330  0.82869  1.0000
  C   C975      1.0  0.18069  0.40362  0.81955  1.0000
  H   H1723     1.0  0.20692  0.38925  0.79376  1.0000
  H   H1724     1.0  0.22249  0.38926  0.80927  1.0000
  H   H1725     1.0  0.18476  0.40683  0.83859  1.0000
  H   H1726     1.0  0.16905  0.40777  0.82231  1.0000
  C   C976      1.0  0.13509  0.45357  0.80495  1.0000
  C   C977      1.0  0.15963  0.46202  0.80659  1.0000
  C   C978      1.0  0.16107  0.44858  0.80381  1.0000
  C   C979      1.0  0.14885  0.44431  0.80314  1.0000
  H   H1727     1.0  0.17167  0.44137  0.80222  1.0000
  H   H1728     1.0  0.15022  0.43399  0.80078  1.0000
  C   C980      1.0  0.11271  0.38914  0.85432  1.0000
  C   C981      1.0  0.11376  0.38116  0.86813  1.0000
  C   C982      1.0  0.11135  0.38820  0.87921  1.0000
  C   C983      1.0  0.10717  0.40320  0.87670  1.0000
  C   C984      1.0  0.10525  0.41112  0.86308  1.0000
  C   C985      1.0  0.10835  0.40413  0.85180  1.0000
  H   H1729     1.0  0.11696  0.36956  0.87014  1.0000
  H   H1730     1.0  0.11275  0.38202  0.88975  1.0000
  H   H1731     1.0  0.10170  0.42264  0.86112  1.0000
  H   H1732     1.0  0.10731  0.41035  0.84118  1.0000
  C   C986      1.0  0.09499  0.36684  0.76450  1.0000
  C   C987      1.0  0.09948  0.36524  0.77719  1.0000
  C   C988      1.0  0.10643  0.37526  0.77865  1.0000
  C   C989      1.0  0.10871  0.38722  0.76752  1.0000
  C   C990      1.0  0.36338  0.28747  0.97428  1.0000
  C   C991      1.0  0.31090  0.39019  0.98312  1.0000
  H   H1733     1.0  0.09765  0.35613  0.78593  1.0000
  H   H1734     1.0  0.10995  0.37376  0.78841  1.0000
  H   H1735     1.0  0.42440  0.30181  0.96980  1.0000
  H   H1736     1.0  0.35619  0.28791  0.96728  1.0000
  H   H1737     1.0  0.12454  0.48813  0.76178  1.0000
  H   H1738     1.0  0.24301  0.35975  0.97218  1.0000
  C   C992      1.0  0.04903  0.39910  0.77213  1.0000
  H   H1739     1.0  0.05298  0.41358  0.74356  1.0000
  H   H1740     1.0  0.28336  0.47047  0.88561  1.0000
  C   C993      1.0  0.13360  0.46702  0.80773  1.0000
  H   H1741     1.0  0.06428  0.40748  0.78495  1.0000
  H   H1742     1.0  0.04670  0.39757  0.74505  1.0000
  C   C994      1.0  0.16053  0.35013  0.84924  1.0000
  H   H1743     1.0  0.35647  0.31225  0.95573  1.0000
  C   C995      1.0  0.35382  0.48382  0.93078  1.0000
  C   C996      1.0  0.03584  0.41229  0.79910  1.0000
  H   H1744     1.0  0.18830  0.34571  0.85271  1.0000
  C   C997      1.0  0.37960  0.30910  0.95192  1.0000
  H   H1745     1.0  0.21727  0.47608  0.90104  1.0000
  C   C998      1.0  0.22710  0.37966  0.97397  1.0000
  C   C999      1.0  0.42092  0.39531  0.96926  1.0000
  H   H1746     1.0  0.43564  0.37468  0.97345  1.0000
  H   H1747     1.0  0.42713  0.39866  0.95854  1.0000
  S   S239      1.0  0.40517  0.26889  0.95782  1.0000
  C   C1000     1.0  0.34361  0.39426  0.94782  1.0000
  C   C1001     1.0  0.35385  0.39967  0.95078  1.0000
  C   C1002     1.0  0.35124  0.41419  0.95079  1.0000
  C   C1003     1.0  0.33804  0.42335  0.94852  1.0000
  C   C1004     1.0  0.32783  0.41813  0.94512  1.0000
  C   C1005     1.0  0.33061  0.40351  0.94478  1.0000
  H   H1748     1.0  0.36377  0.39264  0.95325  1.0000
  H   H1749     1.0  0.35947  0.41832  0.95259  1.0000
  H   H1750     1.0  0.31761  0.42524  0.94327  1.0000
  H   H1751     1.0  0.32262  0.39938  0.94249  1.0000
  C   C1006     1.0  0.27999  0.38574  0.90745  1.0000
  C   C1007     1.0  0.26993  0.39679  0.90081  1.0000
  C   C1008     1.0  0.25858  0.39367  0.89701  1.0000
  C   C1009     1.0  0.25700  0.37948  0.90015  1.0000
  C   C1010     1.0  0.26711  0.36842  0.90670  1.0000
  C   C1011     1.0  0.27865  0.37153  0.91019  1.0000
  H   H1752     1.0  0.27082  0.40780  0.89870  1.0000
  H   H1753     1.0  0.25094  0.40228  0.89185  1.0000
  H   H1754     1.0  0.26607  0.35740  0.90897  1.0000
  H   H1755     1.0  0.28649  0.36292  0.91499  1.0000
  C   C1012     1.0  0.43794  0.29153  0.93221  1.0000
  C   C1013     1.0  0.42376  0.29952  0.93610  1.0000
  C   C1014     1.0  0.42156  0.31260  0.94003  1.0000
  C   C1015     1.0  0.43344  0.31744  0.94059  1.0000
  C   C1016     1.0  0.44759  0.30939  0.93686  1.0000
  C   C1017     1.0  0.44984  0.29662  0.93236  1.0000
  H   H1756     1.0  0.41454  0.29571  0.93589  1.0000
  H   H1757     1.0  0.41065  0.31886  0.94290  1.0000
  H   H1758     1.0  0.45681  0.31318  0.93714  1.0000
  C   C1018     1.0  0.36424  0.28394  0.93808  1.0000
  C   C1019     1.0  0.37429  0.29054  0.92709  1.0000
  C   C1020     1.0  0.36981  0.30463  0.91949  1.0000
  C   C1021     1.0  0.35544  0.31235  0.92326  1.0000
  C   C1022     1.0  0.34541  0.30576  0.93433  1.0000
  C   C1023     1.0  0.34973  0.29145  0.94148  1.0000
  H   H1759     1.0  0.38549  0.28481  0.92443  1.0000
  H   H1760     1.0  0.37758  0.30972  0.91091  1.0000
  H   H1761     1.0  0.33428  0.31162  0.93716  1.0000
  H   H1762     1.0  0.34187  0.28630  0.94986  1.0000
  C   C1024     1.0  0.15665  0.48279  0.77128  1.0000
  N   N50       1.0  0.29422  0.43975  0.89499  1.0000
  H   H1763     1.0  0.12299  0.47424  0.80917  1.0000
  C   C1025     1.0  0.28505  0.43073  0.87777  1.0000
  C   C1026     1.0  0.41999  0.29209  0.97557  1.0000
  C   C1027     1.0  0.08800  0.47340  0.93826  1.0000
  C   C1028     1.0  0.38172  0.37606  0.97931  1.0000
  H   H1764     1.0  0.23496  0.47191  0.80384  1.0000
  H   H1765     1.0  0.41420  0.26226  0.89596  1.0000
  C   C1029     1.0  0.20599  0.48263  0.90336  1.0000
  S   S240      1.0  0.41139  0.25346  0.93052  1.0000
  C   C1030     1.0  0.06536  0.39562  0.78805  1.0000
  H   H1766     1.0  0.09054  0.39580  0.79505  1.0000
  H   H1767     1.0  0.33509  0.26738  0.91193  1.0000
  C   C1031     1.0  0.00559  0.27621  0.74534  1.0000
  H   H1768     1.0  0.04663  0.28460  0.75911  1.0000
  C   C1032     1.0  0.03808  0.45340  0.78450  1.0000
  H   H1769     1.0  0.20237  0.46265  0.83109  1.0000
  H   H1770     1.0  0.49309  0.31501  0.94346  1.0000
  H   H1771     1.0  0.37092  0.25737  0.97832  1.0000
  H   H1772     1.0  0.03197  0.45158  0.74027  1.0000
  N   N51       1.0  0.06477  0.39707  0.86232  1.0000
  C   C1033     1.0  0.07485  0.38445  0.85646  1.0000
  C   C1034     1.0  0.06835  0.41106  0.85283  1.0000
  C   C1035     1.0  0.06746  0.39569  0.87689  1.0000
  C   C1036     1.0  0.04894  0.39711  0.86422  1.0000
  C   C1037     1.0  0.04409  0.39702  0.85078  1.0000
  C   C1038     1.0  0.07398  0.41168  0.83651  1.0000
  C   C1039     1.0  0.07530  0.42684  0.82811  1.0000
  C   C1040     1.0  0.02858  0.39458  0.85480  1.0000
  H   H1773     1.0  0.08633  0.38481  0.85542  1.0000
  H   H1774     1.0  0.07403  0.38507  0.84545  1.0000
  H   H1775     1.0  0.05875  0.42012  0.85436  1.0000
  H   H1776     1.0  0.07707  0.41382  0.85604  1.0000
  H   H1777     1.0  0.07934  0.39433  0.87614  1.0000
  H   H1778     1.0  0.04582  0.38796  0.87295  1.0000
  H   H1779     1.0  0.04183  0.40687  0.86788  1.0000
  H   H1780     1.0  0.05121  0.38841  0.84535  1.0000
  H   H1781     1.0  0.04401  0.40760  0.84316  1.0000
  H   H1782     1.0  0.06152  0.36817  0.86673  1.0000
  H   H1783     1.0  0.08504  0.40462  0.83443  1.0000
  H   H1784     1.0  0.06672  0.40817  0.83213  1.0000
  H   H1785     1.0  0.08318  0.43048  0.83164  1.0000
  H   H1786     1.0  0.07926  0.42699  0.81651  1.0000
  H   H1787     1.0  0.06450  0.43433  0.82963  1.0000
  H   H1788     1.0  0.02521  0.39473  0.84503  1.0000
  H   H1789     1.0  0.02797  0.38400  0.86228  1.0000
  H   H1790     1.0  0.02080  0.40319  0.85992  1.0000
  N   N52       1.0  0.14323  0.44034  0.86004  1.0000
  C   C1041     1.0  0.15903  0.43369  0.85482  1.0000
  C   C1042     1.0  0.13677  0.43060  0.87365  1.0000
  C   C1043     1.0  0.13511  0.44127  0.84885  1.0000
  C   C1044     1.0  0.14111  0.45537  0.86215  1.0000
  C   C1045     1.0  0.15320  0.45841  0.86739  1.0000
  C   C1046     1.0  0.16624  0.44114  0.83964  1.0000
  C   C1047     1.0  0.11832  0.44638  0.85317  1.0000
  C   C1048     1.0  0.14603  0.42354  0.88508  1.0000
  C   C1049     1.0  0.13859  0.41299  0.89739  1.0000
  C   C1050     1.0  0.14969  0.47397  0.86882  1.0000
  C   C1051     1.0  0.18267  0.43887  0.83768  1.0000
  C   C1052     1.0  0.11113  0.44785  0.84097  1.0000
  H   H1791     1.0  0.16030  0.42228  0.85463  1.0000
  H   H1792     1.0  0.16565  0.43319  0.86242  1.0000
  H   H1793     1.0  0.12614  0.43641  0.87915  1.0000
  H   H1794     1.0  0.13420  0.42156  0.87098  1.0000
  H   H1795     1.0  0.13748  0.43062  0.84605  1.0000
  H   H1796     1.0  0.13882  0.44880  0.83865  1.0000
  H   H1797     1.0  0.14015  0.46346  0.85193  1.0000
  H   H1798     1.0  0.13054  0.45838  0.86969  1.0000
  H   H1799     1.0  0.16382  0.45687  0.85963  1.0000
  H   H1800     1.0  0.15465  0.45128  0.87782  1.0000
  H   H1801     1.0  0.16420  0.43655  0.83164  1.0000
  H   H1802     1.0  0.16168  0.45289  0.83731  1.0000
  H   H1803     1.0  0.11536  0.45692  0.85613  1.0000
  H   H1804     1.0  0.11358  0.43865  0.86250  1.0000
  H   H1805     1.0  0.15679  0.41719  0.88061  1.0000
  H   H1806     1.0  0.14753  0.43176  0.88967  1.0000
  H   H1807     1.0  0.12748  0.41838  0.90228  1.0000
  H   H1808     1.0  0.13774  0.40390  0.89348  1.0000
  H   H1809     1.0  0.14517  0.40858  0.90568  1.0000
  H   H1810     1.0  0.14447  0.48137  0.81118  1.0000
  C   C1053     1.0  0.21961  0.43815  0.79821  1.0000
  H   H1811     1.0  0.17505  0.46012  0.75609  1.0000
  H   H1812     1.0  0.18760  0.44212  0.82616  1.0000
  H   H1813     1.0  0.18510  0.44556  0.84355  1.0000
  H   H1814     1.0  0.18771  0.42745  0.84153  1.0000
  H   H1815     1.0  0.11382  0.45703  0.83217  1.0000
  H   H1816     1.0  0.11468  0.43786  0.83684  1.0000
  H   H1817     1.0  0.09912  0.45001  0.84484  1.0000
  N   N53       1.0  0.17037  0.36074  0.84432  1.0000
  C   C1054     1.0  0.18154  0.35668  0.85341  1.0000
  C   C1055     1.0  0.16143  0.37582  0.84416  1.0000
  C   C1056     1.0  0.15328  0.37932  0.85889  1.0000
  C   C1057     1.0  0.19205  0.36699  0.84977  1.0000
  C   C1058     1.0  0.14695  0.39541  0.85741  1.0000
  C   C1059     1.0  0.20236  0.36210  0.86005  1.0000
  H   H1818     1.0  0.17629  0.35590  0.86492  1.0000
  H   H1819     1.0  0.18551  0.36818  0.82471  1.0000
  H   H1820     1.0  0.16837  0.38368  0.83845  1.0000
  H   H1821     1.0  0.15294  0.37834  0.83786  1.0000
  H   H1822     1.0  0.16050  0.37610  0.86654  1.0000
  H   H1823     1.0  0.14406  0.37384  0.86345  1.0000
  H   H1824     1.0  0.19897  0.36740  0.83880  1.0000
  H   H1825     1.0  0.18590  0.37802  0.85069  1.0000
  H   H1826     1.0  0.16651  0.33540  0.86869  1.0000
  H   H1827     1.0  0.15336  0.35138  0.87218  1.0000
  H   H1828     1.0  0.15584  0.40136  0.85318  1.0000
  H   H1829     1.0  0.13934  0.39930  0.85007  1.0000
  H   H1830     1.0  0.14087  0.39756  0.86808  1.0000
  H   H1831     1.0  0.20907  0.35115  0.85944  1.0000
  H   H1832     1.0  0.20981  0.36959  0.85706  1.0000
  H   H1833     1.0  0.19613  0.36215  0.87123  1.0000
  C   C1060     1.0  0.46143  0.43267  0.97122  1.0000
  C   C1061     1.0  0.50047  0.35245  0.98284  1.0000
  H   H1834     1.0  0.07969  0.41303  0.93238  1.0000
  S   S241      1.0  0.15862  0.48501  0.95932  1.0000
  N   N54       1.0  0.40247  0.37560  0.93955  1.0000
  C   C1062     1.0  0.40207  0.36539  0.93099  1.0000
  C   C1063     1.0  0.41791  0.37285  0.94127  1.0000
  C   C1064     1.0  0.39279  0.37189  0.95419  1.0000
  C   C1065     1.0  0.39701  0.39085  0.93184  1.0000
  C   C1066     1.0  0.40317  0.40285  0.93374  1.0000
  C   C1067     1.0  0.38673  0.36520  0.92957  1.0000
  C   C1068     1.0  0.39148  0.38108  0.96486  1.0000
  C   C1069     1.0  0.42985  0.37311  0.92721  1.0000
  C   C1070     1.0  0.44428  0.37415  0.92944  1.0000
  C   C1071     1.0  0.39423  0.41779  0.92849  1.0000
  C   C1072     1.0  0.38782  0.35770  0.91776  1.0000
  H   H1835     1.0  0.31950  0.40173  0.91494  1.0000
  H   H1836     1.0  0.40714  0.35417  0.93574  1.0000
  H   H1837     1.0  0.40871  0.36793  0.91991  1.0000
  H   H1838     1.0  0.41907  0.38049  0.94687  1.0000
  H   H1839     1.0  0.42079  0.36219  0.94849  1.0000
  H   H1840     1.0  0.39661  0.36038  0.95930  1.0000
  H   H1841     1.0  0.38149  0.37292  0.95336  1.0000
  H   H1842     1.0  0.39946  0.39173  0.92005  1.0000
  H   H1843     1.0  0.38491  0.39386  0.93496  1.0000
  H   H1844     1.0  0.41456  0.40234  0.92747  1.0000
  H   H1845     1.0  0.40333  0.40188  0.94498  1.0000
  H   H1846     1.0  0.38090  0.35916  0.93972  1.0000
  H   H1847     1.0  0.37998  0.37623  0.92709  1.0000
  H   H1848     1.0  0.38642  0.39248  0.96086  1.0000
  H   H1849     1.0  0.40226  0.38026  0.96680  1.0000
  H   H1850     1.0  0.43186  0.36300  0.92356  1.0000
  H   H1851     1.0  0.42652  0.38225  0.91853  1.0000
  H   H1852     1.0  0.44814  0.36482  0.93773  1.0000
  H   H1853     1.0  0.45266  0.37407  0.91927  1.0000
  H   H1854     1.0  0.44301  0.38426  0.93281  1.0000
  H   H1855     1.0  0.39411  0.41955  0.91702  1.0000
  H   H1856     1.0  0.38287  0.41911  0.93496  1.0000
  H   H1857     1.0  0.39910  0.42609  0.92973  1.0000
  H   H1858     1.0  0.37678  0.35680  0.91773  1.0000
  H   H1859     1.0  0.39242  0.36397  0.90711  1.0000
  H   H1860     1.0  0.39485  0.34672  0.91957  1.0000
  H   H1861     1.0  0.40961  0.29322  0.97254  1.0000
  H   H1862     1.0  0.01082  0.49185  0.77031  1.0000
  H   H1863     1.0  0.42642  0.26919  0.97875  1.0000
  Fe  Fe119     1.0  0.07906  0.35149  0.74437  1.0000
  H   H1864     1.0  0.20219  0.42655  0.80885  1.0000
  H   H1865     1.0  0.11173  0.45002  0.97377  1.0000
  C   C1073     1.0  0.09818  0.48949  0.91109  1.0000
  H   H1866     1.0  0.32847  0.39725  0.98641  1.0000
  H   H1867     1.0  0.33825  0.28284  0.91565  1.0000
  H   H1868     1.0  0.27134  0.44681  0.90393  1.0000
  H   H1869     1.0  0.40604  0.27713  0.88341  1.0000
  H   H1870     1.0  0.23557  0.48185  0.96276  1.0000
  H   H1871     1.0  0.03600  0.48698  0.82066  1.0000
  H   H1872     1.0  0.07623  0.40848  0.80381  1.0000
  H   H1873     1.0  0.33416  0.31435  0.96792  1.0000
  H   H1874     1.0  0.12443  0.48925  0.73879  1.0000
  H   H1875     1.0  0.41822  0.44223  0.96129  1.0000
  H   H1876     1.0  0.31128  0.42717  0.91634  1.0000
  C   C1074     1.0  0.01055  0.34301  0.76898  1.0000
  H   H1877     1.0  0.01243  0.41448  0.80788  1.0000
  H   H1878     1.0  0.03144  0.46198  0.77760  1.0000
  N   N55       1.0  0.45723  0.26388  0.97271  1.0000
  C   C1075     1.0  0.32635  0.40949  0.90828  1.0000
  H   H1879     1.0  0.39301  0.45770  0.96845  1.0000
  C   C1076     1.0  0.11915  0.46741  0.76524  1.0000
  C   C1077     1.0  0.47134  0.26579  0.97445  1.0000
  H   H1880     1.0  0.35435  0.47437  0.91328  1.0000
  H   H1881     1.0  0.39671  0.25571  0.88634  1.0000
  Fe  Fe120     1.0  0.41248  0.24677  0.97072  1.0000
  H   H1882     1.0  0.25314  0.35459  0.93639  1.0000
  H   H1883     1.0  0.20726  0.45407  0.81041  1.0000
  H   H1884     1.0  0.24814  0.39313  0.96273  1.0000
  H   H1885     1.0  0.50297  0.33690  0.93145  1.0000
  C   C1078     1.0  0.23144  0.40591  0.92533  1.0000
  H   H1886     1.0  0.21556  0.46922  0.88225  1.0000
  C   C1079     1.0  0.06553  0.47507  0.81876  1.0000
  C   C1080     1.0  0.20024  0.45100  0.87984  1.0000
  H   H1887     1.0  0.30369  0.45053  0.90516  1.0000
  H   H1888     1.0  0.25460  0.38575  0.93064  1.0000
  H   H1889     1.0  0.44271  0.24419  0.91468  1.0000
  H   H1890     1.0  0.25423  0.45902  0.78792  1.0000
  C   C1081     1.0  0.07767  0.46417  0.82530  1.0000
  H   H1891     1.0  0.19576  0.46490  0.91700  1.0000
  H   H1892     1.0  0.34614  0.37732  0.97825  1.0000
  N   N56       1.0  0.14498  0.47295  0.75672  1.0000
  H   H1893     1.0  0.19724  0.44066  0.88540  1.0000
  H   H1894     1.0  0.08077  0.35902  0.84697  1.0000
  S   S242      1.0  0.24919  0.47233  0.90247  1.0000
  C   C1082     1.0  0.20595  0.43352  0.79836  1.0000
  H   H1895     1.0  0.15786  0.47543  0.87372  1.0000
  H   H1896     1.0  0.19407  0.45613  0.87125  1.0000
  C   C1083     1.0  0.14580  0.47112  0.80881  1.0000
  H   H1897     1.0  0.37454  0.28338  0.96830  1.0000
  H   H1898     1.0  0.25912  0.44694  0.92903  1.0000
  H   H1899     1.0  0.25065  0.47475  0.76465  1.0000
  C   C1084     1.0  0.44775  0.44414  0.96856  1.0000
  H   H1900     1.0  0.08203  0.46942  0.83116  1.0000
  H   H1901     1.0  0.27916  0.46608  0.90491  1.0000
  H   H1902     1.0  0.28025  0.42489  0.86051  1.0000
  C   C1085     1.0  0.05498  0.37555  0.78903  1.0000
  H   H1903     1.0  0.01900  0.48648  0.79914  1.0000
  H   H1904     1.0  0.12250  0.45613  0.77100  1.0000
  H   H1905     1.0  0.46573  0.28254  0.98668  1.0000
  C   C1086     1.0  0.30284  0.40565  0.97811  1.0000
  C   C1087     1.0  0.04364  0.36963  0.78551  1.0000
  C   C1088     1.0  0.14516  0.47358  0.74138  1.0000
  H   H1906     1.0  0.13865  0.47692  0.87557  1.0000
  H   H1907     1.0  0.23649  0.40458  0.94523  1.0000
  S   S243      1.0  0.13545  0.47024  0.95252  1.0000
  C   C1089     1.0  0.04696  0.35321  0.78945  1.0000
  H   H1908     1.0  0.05746  0.24286  0.73783  1.0000
  C   C1090     1.0  0.22600  0.49102  0.85972  1.0000
  H   H1909     1.0  0.06590  0.37134  0.78272  1.0000
  C   C1091     1.0  0.31692  0.42470  0.90574  1.0000
  H   H1910     1.0  0.07516  0.39140  0.78026  1.0000
  H   H1911     1.0  0.29250  0.36572  0.97803  1.0000
  H   H1912     1.0  0.02879  0.39519  0.79559  1.0000
  H   H1913     1.0  0.44905  0.26087  0.95598  1.0000
  C   C1092     1.0  0.29498  0.47902  0.89520  1.0000
  C   C1093     1.0  0.12960  0.47657  0.76533  1.0000
  H   H1914     1.0  0.39959  0.24453  0.91158  1.0000
  H   H1915     1.0  0.03247  0.37350  0.79152  1.0000
  H   H1916     1.0  0.04378  0.37296  0.77389  1.0000
  C   C1094     1.0  0.10317  0.48746  0.85366  1.0000
  C   C1095     1.0  0.43077  0.27854  0.97172  1.0000
  H   H1917     1.0  0.26731  0.43456  0.94315  1.0000
  H   H1918     1.0  0.43100  0.27874  0.96054  1.0000
  N   N57       1.0  0.37812  0.24276  0.91182  1.0000
  H   H1919     1.0  0.26142  0.42777  0.93123  1.0000
  H   H1920     1.0  0.46322  0.27045  0.94967  1.0000
  N   N58       1.0  0.19897  0.48603  0.89072  1.0000
  H   H1921     1.0  0.01446  0.33920  0.77911  1.0000
  C   C1096     1.0  0.10411  0.38888  0.75488  1.0000
  H   H1922     1.0  0.03883  0.34927  0.78661  1.0000
  H   H1923     1.0  0.05795  0.34873  0.78345  1.0000
  H   H1924     1.0  0.04644  0.34919  0.80112  1.0000
  H   H1925     1.0  0.46065  0.42215  0.97002  1.0000
  C   C1097     1.0  0.23351  0.39745  0.94028  1.0000
  H   H1926     1.0  0.20948  0.48023  0.93079  1.0000
  N   N59       1.0  0.22971  0.45074  0.81163  1.0000
  C   C1098     1.0  0.24373  0.43939  0.81089  1.0000
  C   C1099     1.0  0.22615  0.45489  0.82586  1.0000
  C   C1100     1.0  0.21715  0.44519  0.81093  1.0000
  C   C1101     1.0  0.08835  0.48095  0.91287  1.0000
  C   C1102     1.0  0.24353  0.42539  0.82276  1.0000
  H   H1927     1.0  0.40175  0.45260  0.94403  1.0000
  C   C1103     1.0  0.25735  0.41389  0.81953  1.0000
  C   C1104     1.0  0.21211  0.47275  0.84131  1.0000
  H   H1928     1.0  0.25271  0.44392  0.81143  1.0000
  H   H1929     1.0  0.24715  0.43612  0.80048  1.0000
  H   H1930     1.0  0.23564  0.45817  0.82713  1.0000
  H   H1931     1.0  0.22431  0.44558  0.83491  1.0000
  H   H1932     1.0  0.21395  0.43725  0.82098  1.0000
  H   H1933     1.0  0.22858  0.42841  0.79870  1.0000
  H   H1934     1.0  0.36749  0.33820  0.98066  1.0000
  H   H1935     1.0  0.24306  0.42748  0.83325  1.0000
  H   H1936     1.0  0.23411  0.42082  0.82380  1.0000
  H   H1937     1.0  0.37052  0.37751  0.97798  1.0000
  C   C1105     1.0  0.28174  0.34812  0.98364  1.0000
  H   H1938     1.0  0.10574  0.39812  0.74624  1.0000
  H   H1939     1.0  0.05692  0.45895  0.81517  1.0000
  H   H1940     1.0  0.26717  0.41777  0.81881  1.0000
  H   H1941     1.0  0.25695  0.40409  0.82828  1.0000
  H   H1942     1.0  0.25819  0.41092  0.80935  1.0000
  H   H1943     1.0  0.22130  0.47820  0.83862  1.0000
  H   H1944     1.0  0.24167  0.45396  0.78122  1.0000
  H   H1945     1.0  0.07383  0.42774  0.94136  1.0000
  H   H1946     1.0  0.26570  0.40862  0.95885  1.0000
  H   H1947     1.0  0.21209  0.44867  0.87507  1.0000
  H   H1948     1.0  0.18462  0.48552  0.97474  1.0000
  H   H1949     1.0  0.26760  0.32967  0.94047  1.0000
  H   H1950     1.0  0.00794  0.28390  0.75013  1.0000
  H   H1951     1.0  0.47987  0.25576  0.97423  1.0000
  H   H1952     1.0  0.14631  0.45000  0.76276  1.0000
  C   C1106     1.0  0.28547  0.43284  0.86190  1.0000
  H   H1953     1.0  0.03928  0.38941  0.80868  1.0000
  C   C1107     1.0  0.37361  0.48453  0.98395  1.0000
  H   H1954     1.0  0.33407  0.36678  0.97928  1.0000
  H   H1955     1.0  0.20834  0.42739  0.78992  1.0000
  C   C1108     1.0  0.34327  0.27391  0.90995  1.0000
  C   C1109     1.0  0.10358  0.47326  0.77276  1.0000
  H   H1956     1.0  0.42548  0.45798  0.95527  1.0000
  H   H1957     1.0  0.10317  0.47355  0.78392  1.0000
  H   H1958     1.0  0.23178  0.36544  0.95967  1.0000
  H   H1959     1.0  0.03243  0.47081  0.81997  1.0000
  C   C1110     1.0  0.34693  0.30798  0.98472  1.0000
  H   H1960     1.0  0.26436  0.39931  0.93869  1.0000
  H   H1961     1.0  0.18465  0.46357  0.89374  1.0000
  H   H1962     1.0  0.36202  0.32357  0.96314  1.0000
  C   C1111     1.0  0.04645  0.47236  0.79069  1.0000
  C   C1112     1.0  0.40383  0.26992  0.89416  1.0000
  C   C1113     1.0  0.20744  0.47049  0.92909  1.0000
  H   H1963     1.0  0.30899  0.45420  0.88626  1.0000
  H   H1964     1.0  0.00546  0.47872  0.82412  1.0000
  H   H1965     1.0  0.30122  0.41656  0.90055  1.0000
  N   N60       1.0  0.11636  0.43214  0.93857  1.0000
  C   C1114     1.0  0.11757  0.43971  0.94924  1.0000
  C   C1115     1.0  0.11666  0.44225  0.92400  1.0000
  C   C1116     1.0  0.10176  0.42794  0.94368  1.0000
  C   C1117     1.0  0.12811  0.41863  0.93765  1.0000
  C   C1118     1.0  0.14407  0.42040  0.93316  1.0000
  C   C1119     1.0  0.11643  0.43101  0.96495  1.0000
  C   C1120     1.0  0.09732  0.42174  0.93325  1.0000
  C   C1121     1.0  0.12626  0.45345  0.91974  1.0000
  C   C1122     1.0  0.12773  0.46099  0.90397  1.0000
  C   C1123     1.0  0.15474  0.40582  0.93513  1.0000
  C   C1124     1.0  0.11932  0.43931  0.97426  1.0000
  C   C1125     1.0  0.08240  0.41792  0.93975  1.0000
  H   H1966     1.0  0.10889  0.44974  0.94937  1.0000
  H   H1967     1.0  0.12794  0.44339  0.94602  1.0000
  H   H1968     1.0  0.11993  0.43609  0.91546  1.0000
  H   H1969     1.0  0.10554  0.44880  0.92321  1.0000
  H   H1970     1.0  0.09291  0.43743  0.94608  1.0000
  H   H1971     1.0  0.10140  0.41965  0.95387  1.0000
  H   H1972     1.0  0.12670  0.41052  0.94792  1.0000
  H   H1973     1.0  0.12705  0.41340  0.92963  1.0000
  H   H1974     1.0  0.14625  0.42678  0.93950  1.0000
  H   H1975     1.0  0.14657  0.42563  0.92162  1.0000
  H   H1976     1.0  0.10532  0.42894  0.96970  1.0000
  H   H1977     1.0  0.12451  0.42063  0.96563  1.0000
  H   H1978     1.0  0.10519  0.41177  0.93097  1.0000
  H   H1979     1.0  0.09660  0.42959  0.92292  1.0000
  H   H1980     1.0  0.12132  0.46177  0.92614  1.0000
  H   H1981     1.0  0.13726  0.44857  0.92173  1.0000
  H   H1982     1.0  0.11688  0.46587  0.90137  1.0000
  H   H1983     1.0  0.13375  0.46964  0.90158  1.0000
  H   H1984     1.0  0.13376  0.45322  0.89713  1.0000
  H   H1985     1.0  0.15331  0.39896  0.92878  1.0000
  H   H1986     1.0  0.16609  0.40740  0.93136  1.0000
  H   H1987     1.0  0.15313  0.40023  0.94661  1.0000
  C   C1126     1.0  0.45949  0.26127  0.95796  1.0000
  H   H1988     1.0  0.24148  0.40968  0.91891  1.0000
  C   C1127     1.0  0.24217  0.47632  0.77451  1.0000
  C   C1128     1.0  0.21232  0.46697  0.82860  1.0000
  H   H1989     1.0  0.18395  0.34790  0.80510  1.0000
  C   C1129     1.0  0.44622  0.27793  0.97336  1.0000
  S   S244      1.0  0.40131  0.42064  0.96361  1.0000
  S   S245      1.0  0.45120  0.34642  0.96772  1.0000
  H   H1990     1.0  0.22564  0.39116  0.96867  1.0000
  H   H1991     1.0  0.27906  0.39255  0.96407  1.0000
  H   H1992     1.0  0.30389  0.48067  0.88553  1.0000
  H   H1993     1.0  0.36584  0.48243  0.92819  1.0000
  Fe  Fe121     1.0  0.42405  0.26215  0.94040  1.0000
  C   C1130     1.0  0.40787  0.40434  0.97460  1.0000
  H   H1994     1.0  0.29634  0.40596  0.97050  1.0000
  H   H1995     1.0  0.37214  0.32502  0.93378  1.0000
  C   C1131     1.0  0.23159  0.46413  0.79992  1.0000
  H   H1996     1.0  0.29534  0.40988  0.98739  1.0000
  S   S246      1.0  0.06073  0.34058  0.74717  1.0000
  C   C1132     1.0  0.15306  0.48383  0.75680  1.0000
  H   H1997     1.0  0.46082  0.29059  0.92917  1.0000
  H   H1998     1.0  0.06195  0.41866  0.87785  1.0000
  C   C1133     1.0  0.15678  0.34331  0.86552  1.0000
  H   H1999     1.0  0.31311  0.42483  0.88568  1.0000
  C   C1134     1.0  0.40214  0.46230  0.96095  1.0000
  H   H2000     1.0  0.40071  0.47339  0.96215  1.0000
  Fe  Fe122     1.0  0.37804  0.43051  0.97252  1.0000
  H   H2001     1.0  0.14668  0.48336  0.77988  1.0000
  H   H2002     1.0  0.05714  0.46898  0.78349  1.0000
  H   H2003     1.0  0.30045  0.44469  0.87183  1.0000
  C   C1135     1.0  0.29952  0.45250  0.89539  1.0000
  H   H2004     1.0  0.21622  0.37712  0.97616  1.0000
  H   H2005     1.0  0.16347  0.37419  0.81603  1.0000
  H   H2006     1.0  0.02860  0.46143  0.80355  1.0000
  C   C1136     1.0  0.03879  0.39646  0.79787  1.0000
  H   H2007     1.0  0.03417  0.41980  0.78884  1.0000
  C   C1137     1.0  0.17866  0.36003  0.82916  1.0000
  H   H2008     1.0  0.34596  0.31926  0.98529  1.0000
  C   C1138     1.0  0.03889  0.27934  0.74326  1.0000
  C   C1139     1.0  0.47274  0.24682  0.93897  1.0000
  Fe  Fe123     1.0  0.43999  0.33108  0.96447  1.0000
  S   S247      1.0  0.35835  0.42086  0.97937  1.0000
  S   S248      1.0  0.36489  0.48186  0.97207  1.0000
  H   H2009     1.0  0.01400  0.33399  0.76338  1.0000
  H   H2010     1.0  0.27648  0.33371  0.95196  1.0000
  H   H2011     1.0  0.09642  0.46620  0.77313  1.0000
  S   S249      1.0  0.36948  0.26632  0.94777  1.0000
  H   H2012     1.0  0.18741  0.36583  0.79968  1.0000
  Fe  Fe124     1.0  0.00486  0.43879  0.83625  1.0000
  H   H2013     1.0  0.47726  0.25611  0.93185  1.0000
  Fe  Fe125     1.0  0.36072  0.45987  0.97630  1.0000
  C   C1140     1.0  0.41712  0.45286  0.96365  1.0000
  C   C1141     1.0  0.05918  0.40833  0.88439  1.0000
  H   H2014     1.0  0.06426  0.38594  0.88451  1.0000
  H   H2015     1.0  0.15024  0.48132  0.85809  1.0000
  S   S250      1.0  0.08889  0.47993  0.85391  1.0000
  H   H2016     1.0  0.02030  0.42724  0.81122  1.0000
  H   H2017     1.0  0.29692  0.43122  0.85564  1.0000
  Fe  Fe126     1.0  0.46604  0.32637  0.97731  1.0000
  S   S251      1.0  0.02836  0.43944  0.83267  1.0000
  S   S252      1.0  0.45608  0.31142  0.97189  1.0000
  H   H2018     1.0  0.22701  0.47937  0.86153  1.0000
  H   H2019     1.0  0.27796  0.38355  0.94347  1.0000
  C   C1142     1.0  0.19174  0.47872  0.98217  1.0000
  H   H2020     1.0  0.04721  0.40955  0.88649  1.0000
  H   H2021     1.0  0.14754  0.32682  0.86301  1.0000
  C   C1143     1.0  0.06943  0.38974  0.80290  1.0000
  H   H2022     1.0  0.22903  0.48822  0.93309  1.0000
  C   C1144     1.0  0.08086  0.39688  0.80403  1.0000
  C   C1145     1.0  0.27450  0.39987  0.95492  1.0000
  C   C1146     1.0  0.16926  0.36275  0.81809  1.0000
  Fe  Fe127     1.0  0.39308  0.25829  0.94915  1.0000
  H   H2023     1.0  0.15005  0.35518  0.84571  1.0000
  H   H2024     1.0  0.18634  0.34936  0.82902  1.0000
  H   H2025     1.0  0.20127  0.45403  0.89982  1.0000
  H   H2026     1.0  0.39158  0.31852  0.93105  1.0000
  H   H2027     1.0  0.18624  0.43418  0.76008  1.0000
  H   H2028     1.0  0.47578  0.27388  0.96515  1.0000
  H   H2029     1.0  0.12958  0.47518  0.77679  1.0000
  H   H2030     1.0  0.47116  0.43585  0.96331  1.0000
  N   N61       1.0  0.04841  0.47903  0.80168  1.0000
  H   H2031     1.0  0.07466  0.40568  0.89739  1.0000
  C   C1147     1.0  0.27116  0.33833  0.94269  1.0000
  S   S253      1.0  0.42441  0.32984  0.98580  1.0000
  H   H2032     1.0  0.21578  0.46950  0.96224  1.0000
  C   C1148     1.0  0.05609  0.40169  0.74515  1.0000
  N   N62       1.0  0.36199  0.30222  0.97647  1.0000
  C   C1149     1.0  0.06300  0.40565  0.89887  1.0000
  C   C1150     1.0  0.14447  0.33536  0.86916  1.0000
  H   H2033     1.0  0.16553  0.34080  0.84402  1.0000
  C   C1151     1.0  0.44907  0.24471  0.90347  1.0000
  H   H2034     1.0  0.26120  0.37761  0.96807  1.0000
  H   H2035     1.0  0.27111  0.36611  0.94037  1.0000
  H   H2036     1.0  0.05616  0.41429  0.90445  1.0000
  C   C1152     1.0  0.17877  0.35952  0.80383  1.0000
  C   C1153     1.0  0.00714  0.48989  0.81992  1.0000
  C   C1154     1.0  0.03466  0.48131  0.81314  1.0000
  C   C1155     1.0  0.19202  0.46302  0.98225  1.0000
  C   C1156     1.0  0.09745  0.37869  0.75329  1.0000
  H   H2037     1.0  0.38362  0.29374  0.98090  1.0000
  C   C1157     1.0  0.36427  0.31231  0.96191  1.0000
  C   C1158     1.0  0.38150  0.32169  0.93905  1.0000
  H   H2038     1.0  0.01433  0.42870  0.86175  1.0000
  H   H2039     1.0  0.49075  0.32186  0.92533  1.0000
  H   H2040     1.0  0.16854  0.42983  0.76586  1.0000
  H   H2041     1.0  0.44972  0.25607  0.89843  1.0000
  C   C1159     1.0  0.38899  0.25168  0.90985  1.0000
  H   H2042     1.0  0.06079  0.39523  0.90577  1.0000
  H   H2043     1.0  0.16103  0.35602  0.82179  1.0000
  H   H2044     1.0  0.14228  0.33027  0.88078  1.0000
  H   H2045     1.0  0.13431  0.34297  0.86666  1.0000
  C   C1160     1.0  0.39236  0.26185  0.89492  1.0000
  H   H2046     1.0  0.23634  0.47030  0.94249  1.0000
  H   H2047     1.0  0.17194  0.36254  0.79580  1.0000
  H   H2048     1.0  0.29154  0.41980  0.88131  1.0000
  H   H2049     1.0  0.20176  0.48065  0.84388  1.0000
  H   H2050     1.0  0.38858  0.30718  0.95740  1.0000
  H   H2051     1.0  0.28204  0.45252  0.87877  1.0000
  N   N63       1.0  0.05207  0.39168  0.78676  1.0000
  H   H2052     1.0  0.08412  0.46709  0.94873  1.0000
  H   H2053     1.0  0.25794  0.47757  0.87131  1.0000
  H   H2054     1.0  0.01074  0.26509  0.75008  1.0000
  H   H2055     1.0  0.35591  0.24544  0.91030  1.0000
  C   C1161     1.0  0.07283  0.36929  0.86524  1.0000
  H   H2056     1.0  0.42777  0.47040  0.97078  1.0000
  H   H2057     1.0  0.33201  0.40625  0.89797  1.0000
  H   H2058     1.0  0.44424  0.24787  0.98007  1.0000
  H   H2059     1.0  0.15545  0.48542  0.89597  1.0000
  H   H2060     1.0  0.32435  0.43220  0.90017  1.0000
  C   C1162     1.0  0.04132  0.29027  0.74997  1.0000
  H   H2061     1.0  0.38610  0.36462  0.98396  1.0000
  H   H2062     1.0  0.03856  0.39745  0.77126  1.0000
  H   H2063     1.0  0.25001  0.34560  0.95501  1.0000
  S   S254      1.0  0.49049  0.31996  0.97303  1.0000
  H   H2064     1.0  0.22879  0.39916  0.91964  1.0000
  H   H2065     1.0  0.22284  0.39493  0.94648  1.0000
  H   H2066     1.0  0.03247  0.44433  0.78908  1.0000
  S   S255      1.0  0.29389  0.33861  0.97105  1.0000
  S   S256      1.0  0.33913  0.45359  0.98308  1.0000
  H   H2067     1.0  0.03976  0.48043  0.78343  1.0000
  H   H2068     1.0  0.48123  0.34837  0.97956  1.0000
  H   H2069     1.0  0.07544  0.36702  0.87589  1.0000
  C   C1163     1.0  0.26865  0.39159  0.94780  1.0000
  C   C1164     1.0  0.30610  0.42616  0.89639  1.0000
  H   H2070     1.0  0.05559  0.37037  0.80037  1.0000
  H   H2071     1.0  0.03121  0.27330  0.75142  1.0000
  C   C1165     1.0  0.02074  0.49036  0.80775  1.0000
  C   C1166     1.0  0.28150  0.43563  0.92195  1.0000
  H   H2072     1.0  0.27352  0.43116  0.88366  1.0000
  C   C1167     1.0  0.26638  0.43626  0.93192  1.0000
  H   H2073     1.0  0.35133  0.34525  0.97336  1.0000
  C   C1168     1.0  0.25661  0.38432  0.95867  1.0000
  C   C1169     1.0  0.35053  0.47257  0.92511  1.0000
  H   H2074     1.0  0.36421  0.27197  0.91365  1.0000
  H   H2075     1.0  0.28607  0.44403  0.92333  1.0000
  C   C1170     1.0  0.26248  0.36258  0.94963  1.0000
  H   H2076     1.0  0.35619  0.46165  0.92993  1.0000
  H   H2077     1.0  0.20162  0.46481  0.93946  1.0000
  H   H2078     1.0  0.17420  0.43861  0.77630  1.0000
  H   H2079     1.0  0.21170  0.47619  0.81928  1.0000
  C   C1171     1.0  0.22769  0.48639  0.95572  1.0000
  H   H2080     1.0  0.23131  0.47983  0.77172  1.0000
  C   C1172     1.0  0.49254  0.34406  0.98015  1.0000
  H   H2081     1.0  0.22206  0.44587  0.78791  1.0000
  H   H2082     1.0  0.34627  0.27865  0.89830  1.0000
  H   H2083     1.0  0.23825  0.44737  0.90628  1.0000
  C   C1173     1.0  0.35677  0.26474  0.91546  1.0000
  H   H2084     1.0  0.17815  0.48173  0.90367  1.0000
  H   H2085     1.0  0.22234  0.41549  0.92619  1.0000
  C   C1174     1.0  0.24805  0.46347  0.88993  1.0000
  N   N64       1.0  0.25035  0.37528  0.95310  1.0000
  C   C1175     1.0  0.25799  0.35047  0.94594  1.0000
  H   H2086     1.0  0.06990  0.48475  0.81285  1.0000
  H   H2087     1.0  0.04658  0.45014  0.80307  1.0000
  H   H2088     1.0  0.05646  0.47794  0.82777  1.0000
  H   H2089     1.0  0.33395  0.29654  0.97878  1.0000
  C   C1176     1.0  0.28056  0.43770  0.90627  1.0000
  C   C1177     1.0  0.35945  0.34811  0.97729  1.0000
  C   C1178     1.0  0.08313  0.35769  0.85759  1.0000
  H   H2090     1.0  0.09467  0.35826  0.85603  1.0000
  H   H2091     1.0  0.44717  0.44521  0.95735  1.0000
  H   H2092     1.0  0.26798  0.35745  0.95878  1.0000
  C   C1179     1.0  0.24518  0.38333  0.93952  1.0000
  H   H2093     1.0  0.05994  0.39163  0.81186  1.0000
  H   H2094     1.0  0.38549  0.25820  0.91814  1.0000
  H   H2095     1.0  0.11576  0.48201  0.83369  1.0000
  Fe  Fe128     1.0  0.15860  0.47249  0.94394  1.0000
  H   H2096     1.0  0.31701  0.38588  0.97349  1.0000
  H   H2097     1.0  0.08171  0.34690  0.86412  1.0000
  H   H2098     1.0  0.16348  0.48323  0.74857  1.0000
  C   C1180     1.0  0.17466  0.43793  0.76526  1.0000
  H   H2099     1.0  0.02166  0.47777  0.75238  1.0000
  H   H2100     1.0  0.07406  0.37798  0.80447  1.0000
  H   H2101     1.0  0.39989  0.27660  0.90230  1.0000
  C   C1181     1.0  0.29070  0.44265  0.88048  1.0000
  H   H2102     1.0  0.40944  0.46847  0.93772  1.0000
  C   C1182     1.0  0.20365  0.47366  0.88336  1.0000
  C   C1183     1.0  0.16836  0.45260  0.75659  1.0000
  C   C1184     1.0  0.02215  0.41589  0.81052  1.0000
  C   C1185     1.0  0.19813  0.47473  0.91795  1.0000
  C   C1186     1.0  0.15205  0.45792  0.76338  1.0000
  H   H2103     1.0  0.07095  0.39867  0.75837  1.0000
  H   H2104     1.0  0.15088  0.45679  0.77502  1.0000
  C   C1187     1.0  0.06109  0.39483  0.75922  1.0000
  H   H2105     1.0  0.33472  0.40900  0.91403  1.0000
  C   C1188     1.0  0.25309  0.46827  0.87522  1.0000
  C   C1189     1.0  0.45128  0.25205  0.98421  1.0000
  H   H2106     1.0  0.27715  0.42804  0.90594  1.0000
  H   H2107     1.0  0.07337  0.45510  0.83310  1.0000
  H   H2108     1.0  0.04897  0.44958  0.77787  1.0000
  H   H2109     1.0  0.22095  0.47003  0.79702  1.0000
  H   H2110     1.0  0.35165  0.26379  0.97843  1.0000
  H   H2111     1.0  0.13073  0.44076  0.97067  1.0000
  H   H2112     1.0  0.07017  0.46537  0.80053  1.0000
  C   C1190     1.0  0.40084  0.46342  0.94575  1.0000
  H   H2113     1.0  0.36534  0.35543  0.96839  1.0000
  H   H2114     1.0  0.24042  0.37650  0.93580  1.0000
  H   H2115     1.0  0.09397  0.38013  0.74353  1.0000
  H   H2116     1.0  0.27922  0.34233  0.93311  1.0000
  H   H2117     1.0  0.39004  0.47018  0.94414  1.0000
  C   C1191     1.0  0.36010  0.26187  0.98460  1.0000
  H   H2118     1.0  0.27944  0.44377  0.85764  1.0000
  H   H2119     1.0  0.44920  0.45442  0.96966  1.0000
  H   H2120     1.0  0.16440  0.47257  0.77446  1.0000
  H   H2121     1.0  0.37089  0.24312  0.93434  1.0000
  C   C1192     1.0  0.36415  0.25203  0.90782  1.0000
  H   H2122     1.0  0.03075  0.29725  0.75400  1.0000
  H   H2123     1.0  0.48097  0.24608  0.95691  1.0000
  C   C1193     1.0  0.28356  0.36111  0.98502  1.0000
  H   H2124     1.0  0.19419  0.46175  0.97106  1.0000
  H   H2125     1.0  0.46297  0.43148  0.98214  1.0000
  H   H2126     1.0  0.40357  0.43778  0.98497  1.0000
  H   H2127     1.0  0.22761  0.48914  0.88141  1.0000
  H   H2128     1.0  0.45039  0.28688  0.96505  1.0000
  C   C1194     1.0  0.09814  0.48167  0.93642  1.0000
  H   H2129     1.0  0.11886  0.46739  0.75423  1.0000
  H   H2130     1.0  0.16960  0.45142  0.74555  1.0000
  C   C1195     1.0  0.11501  0.48749  0.84190  1.0000
  H   H2131     1.0  0.04348  0.46321  0.73983  1.0000
  H   H2132     1.0  0.46237  0.24711  0.93631  1.0000
  H   H2133     1.0  0.44451  0.28064  0.98380  1.0000
  H   H2134     1.0  0.34982  0.48136  0.94256  1.0000
  H   H2135     1.0  0.21801  0.46323  0.92555  1.0000
  H   H2136     1.0  0.06759  0.48764  0.77458  1.0000
  H   H2137     1.0  0.31036  0.31227  0.98441  1.0000
  H   H2138     1.0  0.37731  0.31245  0.97988  1.0000
  C   C1196     1.0  0.37367  0.30208  0.98379  1.0000
  H   H2139     1.0  0.20554  0.48654  0.95548  1.0000
  C   C1197     1.0  0.33393  0.30766  0.97891  1.0000
  H   H2140     1.0  0.24406  0.48487  0.77848  1.0000
  H   H2141     1.0  0.08480  0.48050  0.90371  1.0000
  C   C1198     1.0  0.43392  0.43987  0.97927  1.0000
  H   H2142     1.0  0.31065  0.41275  0.97263  1.0000
  H   H2143     1.0  0.10212  0.48175  0.94545  1.0000
  H   H2144     1.0  0.49265  0.27375  0.98224  1.0000
  H   H2145     1.0  0.29936  0.47650  0.90496  1.0000
  H   H2146     1.0  0.00897  0.46862  0.75152  1.0000
  H   H2147     1.0  0.18770  0.48180  0.92216  1.0000
  H   H2148     1.0  0.22098  0.46248  0.98477  1.0000
  N   N65       1.0  0.20638  0.48274  0.97781  1.0000
  H   H2149     1.0  0.22598  0.47782  0.98580  1.0000
  Fe  Fe129     1.0  0.17277  0.48872  0.81146  1.0000
  H   H2150     1.0  0.40943  0.47271  0.98019  1.0000
  Fe  Fe130     1.0  0.13029  0.49126  0.93687  1.0000
  H   H2151     1.0  0.09940  0.48424  0.76679  1.0000
  H   H2152     1.0  0.28661  0.48923  0.89508  1.0000
  Fe  Fe131     1.0  0.13506  0.48396  0.96717  1.0000
  C   C1199     1.0  0.18261  0.49048  0.89541  1.0000
  C   C1200     1.0  0.49896  0.31673  0.93203  1.0000
  H   H2153     1.0  0.04947  0.27164  0.74103  1.0000
  H   H2154     1.0  0.38121  0.38264  0.98683  1.0000
  H   H2155     1.0  0.41770  0.29136  0.98728  1.0000
  C   C1201     1.0  0.42025  0.46520  0.98018  1.0000
  C   C1202     1.0  0.49942  0.33028  0.97786  1.0000
  H   H2156     1.0  0.17763  0.48725  0.87635  1.0000
  H   H2157     1.0  0.03270  0.25771  0.73792  1.0000
  C   C1203     1.0  0.23518  0.48196  0.94146  1.0000
  C   C1204     1.0  0.10344  0.48946  0.92276  1.0000
  H   H2158     1.0  0.49524  0.36322  0.98434  1.0000
  C   C1205     1.0  0.34025  0.36909  0.98580  1.0000
  H   H2159     1.0  0.11771  0.43322  0.98558  1.0000
  H   H2160     1.0  0.43845  0.48079  0.98446  1.0000
  H   H2161     1.0  0.14136  0.46432  0.74063  1.0000
  S   S257      1.0  0.17467  0.49198  0.83217  1.0000
  H   H2162     1.0  0.24104  0.38042  0.98743  1.0000
  H   H2163     1.0  0.31896  0.69193  0.99434  1.0000
  H   H2164     1.0  0.09034  0.51858  0.11799  1.0000
  N   N66       1.0  0.39401  0.61072  0.07180  1.0000
  H   H2165     1.0  0.09230  0.51093  0.15582  1.0000
  H   H2166     1.0  0.38061  0.62128  0.09796  1.0000
  C   C1206     1.0  0.35205  0.55195  0.00210  1.0000
  H   H2167     1.0  0.01993  0.52819  0.10280  1.0000
  H   H2168     1.0  0.22594  0.62132  0.06603  1.0000
  S   S258      1.0  0.44554  0.71551  0.12745  1.0000
  C   C1207     1.0  0.15372  0.50446  0.99119  1.0000
  C   C1208     1.0  0.09296  0.51859  0.16129  1.0000
  C   C1209     1.0  0.13491  0.51549  0.12621  1.0000
  C   C1210     1.0  0.28508  0.61256  0.02833  1.0000
  H   H2169     1.0  0.19203  0.51081  0.16542  1.0000
  S   S259      1.0  0.49640  0.55164  0.00297  1.0000
  H   H2170     1.0  0.34643  0.53829  0.10294  1.0000
  Fe  Fe132     1.0  0.40815  0.53688  0.01919  1.0000
  S   S260      1.0  0.40653  0.54386  0.03917  1.0000
  H   H2171     1.0  0.12201  0.51118  0.03860  1.0000
  H   H2172     1.0  0.04600  0.51930  0.19820  1.0000
  C   C1211     1.0  0.44434  0.69417  0.99395  1.0000
  C   C1212     1.0  0.38417  0.60904  0.99237  1.0000
  Fe  Fe133     1.0  0.46619  0.58857  0.03107  1.0000
  S   S261      1.0  0.47496  0.60852  0.02217  1.0000
  S   S262      1.0  0.44787  0.58558  0.05052  1.0000
  H   H2173     1.0  0.38877  0.57993  0.00552  1.0000
  C   C1213     1.0  0.34122  0.64809  0.00682  1.0000
  C   C1214     1.0  0.06904  0.54400  0.03534  1.0000
  C   C1215     1.0  0.45874  0.67193  0.00797  1.0000
  S   S263      1.0  0.48833  0.57403  0.03126  1.0000
  Fe  Fe134     1.0  0.41173  0.68590  0.07846  1.0000
  S   S264      1.0  0.40621  0.66559  0.09367  1.0000
  S   S265      1.0  0.41551  0.70596  0.08275  1.0000
  Fe  Fe135     1.0  0.41246  0.67522  0.05226  1.0000
  S   S266      1.0  0.40746  0.65417  0.06519  1.0000
  S   S267      1.0  0.41888  0.67853  0.02822  1.0000
  Fe  Fe136     1.0  0.39078  0.66694  0.08001  1.0000
  S   S268      1.0  0.36969  0.65912  0.09047  1.0000
  Fe  Fe137     1.0  0.42306  0.65414  0.07770  1.0000
  S   S269      1.0  0.43849  0.63333  0.08458  1.0000
  S   S270      1.0  0.39462  0.68840  0.06608  1.0000
  S   S271      1.0  0.42976  0.67413  0.06348  1.0000
  Fe  Fe138     1.0  0.33380  0.58489  0.06697  1.0000
  S   S272      1.0  0.31692  0.58442  0.05612  1.0000
  S   S273      1.0  0.34600  0.56469  0.07893  1.0000
  Fe  Fe139     1.0  0.32968  0.61741  0.05897  1.0000
  S   S274      1.0  0.31175  0.61969  0.04794  1.0000
  S   S275      1.0  0.33955  0.63682  0.05451  1.0000
  Fe  Fe140     1.0  0.30372  0.60267  0.06645  1.0000
  S   S276      1.0  0.27983  0.60385  0.07711  1.0000
  Fe  Fe141     1.0  0.32625  0.60122  0.03861  1.0000
  S   S277      1.0  0.33075  0.60261  0.01496  1.0000
  S   S278      1.0  0.32016  0.60217  0.07857  1.0000
  S   S279      1.0  0.34464  0.59986  0.04840  1.0000
  Fe  Fe142     1.0  0.22794  0.52523  0.13773  1.0000
  S   S280      1.0  0.20416  0.53505  0.14280  1.0000
  Fe  Fe143     1.0  0.23350  0.54631  0.10919  1.0000
  S   S281      1.0  0.21006  0.55832  0.11167  1.0000
  S   S282      1.0  0.25200  0.54986  0.08983  1.0000
  Fe  Fe144     1.0  0.21078  0.55608  0.13451  1.0000
  S   S283      1.0  0.20018  0.57426  0.14575  1.0000
  Fe  Fe145     1.0  0.20485  0.53651  0.11992  1.0000
  S   S284      1.0  0.18529  0.53103  0.11715  1.0000
  S   S285      1.0  0.23477  0.54630  0.13128  1.0000
  S   S286      1.0  0.22817  0.52442  0.11551  1.0000
  Fe  Fe146     1.0  0.11996  0.53281  0.20038  1.0000
  S   S287      1.0  0.12014  0.52148  0.18361  1.0000
  Fe  Fe147     1.0  0.13261  0.55506  0.20477  1.0000
  S   S288      1.0  0.14321  0.57388  0.19540  1.0000
  S   S289      1.0  0.14255  0.53277  0.20148  1.0000
  S   S290      1.0  0.11039  0.55581  0.20201  1.0000
  C   C1216     1.0  0.10899  0.51819  0.07128  1.0000
  Fe  Fe148     1.0  0.47577  0.60503  0.00068  1.0000
  S   S291      1.0  0.06953  0.53656  0.15063  1.0000
  H   H2174     1.0  0.32303  0.55183  0.00597  1.0000
  H   H2175     1.0  0.28509  0.59067  0.03955  1.0000
  S   S292      1.0  0.15987  0.52671  0.03621  1.0000
  S   S293      1.0  0.11998  0.52914  0.05859  1.0000
  Fe  Fe149     1.0  0.17447  0.51729  0.05175  1.0000
  S   S294      1.0  0.18933  0.53013  0.05330  1.0000
  C   C1217     1.0  0.48268  0.60081  0.07193  1.0000
  S   S295      1.0  0.46488  0.58634  0.00973  1.0000
  H   H2176     1.0  0.43148  0.51942  0.06315  1.0000
  C   C1218     1.0  0.22139  0.50808  0.08478  1.0000
  H   H2177     1.0  0.02807  0.64236  0.22969  1.0000
  C   C1219     1.0  0.09480  0.52422  0.07790  1.0000
  H   H2178     1.0  0.47465  0.63926  0.02624  1.0000
  H   H2179     1.0  0.09057  0.53569  0.07506  1.0000
  C   C1220     1.0  0.10792  0.49727  0.04152  1.0000
  C   C1221     1.0  0.16907  0.53825  0.22141  1.0000
  H   H2180     1.0  0.21348  0.49953  0.19367  1.0000
  H   H2181     1.0  0.41769  0.58396  0.07667  1.0000
  H   H2182     1.0  0.18307  0.51726  0.22294  1.0000
  C   C1222     1.0  0.10521  0.52533  0.17570  1.0000
  C   C1223     1.0  0.09476  0.53821  0.17580  1.0000
  C   C1224     1.0  0.08365  0.54142  0.16831  1.0000
  C   C1225     1.0  0.08281  0.53169  0.16090  1.0000
  C   C1226     1.0  0.50044  0.60444  0.10655  1.0000
  H   H2183     1.0  0.32788  0.63276  0.99684  1.0000
  H   H2184     1.0  0.09547  0.54584  0.18131  1.0000
  H   H2185     1.0  0.07576  0.55155  0.16811  1.0000
  H   H2186     1.0  0.35533  0.66036  0.00991  1.0000
  C   C1227     1.0  0.15868  0.49795  0.00382  1.0000
  C   C1228     1.0  0.18456  0.57320  0.15976  1.0000
  C   C1229     1.0  0.17795  0.56136  0.16427  1.0000
  C   C1230     1.0  0.16541  0.56116  0.17550  1.0000
  C   C1231     1.0  0.15937  0.57292  0.18203  1.0000
  C   C1232     1.0  0.16600  0.58467  0.17749  1.0000
  C   C1233     1.0  0.17853  0.58478  0.16646  1.0000
  H   H2187     1.0  0.18230  0.55252  0.15898  1.0000
  H   H2188     1.0  0.16023  0.55213  0.17885  1.0000
  H   H2189     1.0  0.16136  0.59380  0.18246  1.0000
  H   H2190     1.0  0.18353  0.59397  0.16304  1.0000
  C   C1234     1.0  0.18625  0.53125  0.09937  1.0000
  C   C1235     1.0  0.18043  0.52133  0.09649  1.0000
  C   C1236     1.0  0.18190  0.52063  0.08235  1.0000
  C   C1237     1.0  0.18846  0.53036  0.07101  1.0000
  C   C1238     1.0  0.19423  0.54037  0.07387  1.0000
  C   C1239     1.0  0.19330  0.54071  0.08808  1.0000
  H   H2191     1.0  0.48928  0.59903  0.04954  1.0000
  C   C1240     1.0  0.09198  0.50068  0.09248  1.0000
  H   H2192     1.0  0.19945  0.54783  0.06510  1.0000
  H   H2193     1.0  0.19793  0.54831  0.09030  1.0000
  C   C1241     1.0  0.27230  0.58869  0.08069  1.0000
  C   C1242     1.0  0.25895  0.58805  0.09059  1.0000
  C   C1243     1.0  0.25267  0.57611  0.09366  1.0000
  C   C1244     1.0  0.25957  0.56488  0.08659  1.0000
  C   C1245     1.0  0.27276  0.56563  0.07651  1.0000
  C   C1246     1.0  0.27918  0.57742  0.07365  1.0000
  H   H2194     1.0  0.25351  0.59677  0.09602  1.0000
  H   H2195     1.0  0.24244  0.57567  0.10142  1.0000
  H   H2196     1.0  0.27808  0.55700  0.07098  1.0000
  H   H2197     1.0  0.28927  0.57788  0.06582  1.0000
  H   H2198     1.0  0.32112  0.64594  0.03163  1.0000
  H   H2199     1.0  0.35657  0.51101  0.99779  1.0000
  C   C1247     1.0  0.09920  0.50890  0.00938  1.0000
  H   H2200     1.0  0.44194  0.50057  0.03879  1.0000
  H   H2201     1.0  0.48922  0.59619  0.09637  1.0000
  H   H2202     1.0  0.21885  0.52573  0.19293  1.0000
  H   H2203     1.0  0.22498  0.53474  0.99007  1.0000
  C   C1248     1.0  0.36128  0.65293  0.08049  1.0000
  C   C1249     1.0  0.36414  0.65697  0.06555  1.0000
  C   C1250     1.0  0.35741  0.65188  0.05781  1.0000
  C   C1251     1.0  0.34786  0.64258  0.06491  1.0000
  C   C1252     1.0  0.34482  0.63865  0.07988  1.0000
  C   C1253     1.0  0.35144  0.64390  0.08764  1.0000
  H   H2204     1.0  0.37132  0.66428  0.05998  1.0000
  H   H2205     1.0  0.35960  0.65525  0.04625  1.0000
  H   H2206     1.0  0.33719  0.63181  0.08548  1.0000
  H   H2207     1.0  0.34899  0.64090  0.09922  1.0000
  H   H2208     1.0  0.47222  0.60348  0.07964  1.0000
  C   C1254     1.0  0.46072  0.65647  0.03665  1.0000
  C   C1255     1.0  0.13457  0.50150  0.13795  1.0000
  C   C1256     1.0  0.40646  0.67707  0.01922  1.0000
  C   C1257     1.0  0.39149  0.67953  0.02520  1.0000
  C   C1258     1.0  0.38172  0.67937  0.01733  1.0000
  H   H2209     1.0  0.33753  0.51408  0.00537  1.0000
  H   H2210     1.0  0.34861  0.64486  0.99693  1.0000
  H   H2211     1.0  0.38742  0.68189  0.03575  1.0000
  H   H2212     1.0  0.37012  0.68157  0.02189  1.0000
  C   C1259     1.0  0.11685  0.50840  0.03142  1.0000
  H   H2213     1.0  0.01560  0.49559  0.08177  1.0000
  Fe  Fe150     1.0  0.16744  0.50520  0.03051  1.0000
  C   C1260     1.0  0.44394  0.59906  0.06008  1.0000
  C   C1261     1.0  0.44392  0.59521  0.07469  1.0000
  C   C1262     1.0  0.44208  0.60582  0.08218  1.0000
  C   C1263     1.0  0.43971  0.62035  0.07522  1.0000
  C   C1264     1.0  0.43896  0.62426  0.06077  1.0000
  C   C1265     1.0  0.44128  0.61358  0.05315  1.0000
  H   H2214     1.0  0.44595  0.58399  0.08009  1.0000
  H   H2215     1.0  0.44259  0.60277  0.09336  1.0000
  H   H2216     1.0  0.43707  0.63547  0.05536  1.0000
  H   H2217     1.0  0.44112  0.61652  0.04191  1.0000
  H   H2218     1.0  0.13501  0.52715  0.00252  1.0000
  C   C1266     1.0  0.30438  0.58259  0.99778  1.0000
  S   S296      1.0  0.23884  0.50737  0.15341  1.0000
  H   H2219     1.0  0.33735  0.63829  0.01338  1.0000
  H   H2220     1.0  0.50016  0.58218  0.11787  1.0000
  H   H2221     1.0  0.05120  0.49456  0.22770  1.0000
  H   H2222     1.0  0.13497  0.55210  0.00148  1.0000
  C   C1267     1.0  0.39249  0.62068  0.09385  1.0000
  C   C1268     1.0  0.36238  0.55801  0.06776  1.0000
  C   C1269     1.0  0.36330  0.55905  0.05323  1.0000
  C   C1270     1.0  0.37671  0.55391  0.04443  1.0000
  C   C1271     1.0  0.38921  0.54829  0.05010  1.0000
  C   C1272     1.0  0.38819  0.54724  0.06461  1.0000
  C   C1273     1.0  0.37477  0.55185  0.07347  1.0000
  H   H2223     1.0  0.35371  0.56383  0.04879  1.0000
  H   H2224     1.0  0.37750  0.55484  0.03319  1.0000
  H   H2225     1.0  0.39782  0.54293  0.06901  1.0000
  H   H2226     1.0  0.37407  0.55106  0.08468  1.0000
  C   C1274     1.0  0.43910  0.71239  0.11380  1.0000
  C   C1275     1.0  0.43561  0.69906  0.11570  1.0000
  C   C1276     1.0  0.42914  0.69660  0.10587  1.0000
  C   C1277     1.0  0.42578  0.70758  0.09416  1.0000
  C   C1278     1.0  0.18955  0.50406  0.17640  1.0000
  H   H2227     1.0  0.43349  0.69253  0.00052  1.0000
  H   H2228     1.0  0.43765  0.69067  0.12500  1.0000
  H   H2229     1.0  0.42624  0.68641  0.10767  1.0000
  C   C1279     1.0  0.45837  0.51095  0.03979  1.0000
  H   H2230     1.0  0.21860  0.49690  0.14463  1.0000
  H   H2231     1.0  0.47234  0.63094  0.07941  1.0000
  H   H2232     1.0  0.48985  0.63390  0.99731  1.0000
  H   H2233     1.0  0.06474  0.49221  0.08424  1.0000
  H   H2234     1.0  0.45782  0.65042  0.99575  1.0000
  H   H2235     1.0  0.49246  0.64444  0.06551  1.0000
  H   H2236     1.0  0.36177  0.52275  0.05022  1.0000
  C   C1280     1.0  0.32010  0.59888  0.99413  1.0000
  H   H2237     1.0  0.39975  0.58055  0.08247  1.0000
  H   H2238     1.0  0.35026  0.58173  0.99646  1.0000
  C   C1281     1.0  0.24024  0.58735  0.00626  1.0000
  H   H2239     1.0  0.34241  0.67603  0.99627  1.0000
  C   C1282     1.0  0.32017  0.53272  0.02185  1.0000
  S   S297      1.0  0.14975  0.49571  0.04661  1.0000
  N   N67       1.0  0.25654  0.58875  0.03737  1.0000
  C   C1283     1.0  0.49016  0.52836  0.99875  1.0000
  H   H2240     1.0  0.38215  0.62873  0.04715  1.0000
  C   C1284     1.0  0.26575  0.57369  0.03986  1.0000
  H   H2241     1.0  0.06242  0.55430  0.03041  1.0000
  H   H2242     1.0  0.10605  0.49626  0.23061  1.0000
  H   H2243     1.0  0.41276  0.64097  0.99684  1.0000
  C   C1285     1.0  0.07759  0.50826  0.23515  1.0000
  C   C1286     1.0  0.18759  0.52923  0.20068  1.0000
  C   C1287     1.0  0.26734  0.54674  0.04785  1.0000
  H   H2244     1.0  0.46443  0.67874  0.01067  1.0000
  H   H2245     1.0  0.22438  0.54903  0.17950  1.0000
  H   H2246     1.0  0.27107  0.52294  0.13883  1.0000
  H   H2247     1.0  0.48994  0.60857  0.11352  1.0000
  H   H2248     1.0  0.41153  0.60834  0.08193  1.0000
  H   H2249     1.0  0.21596  0.54939  0.16552  1.0000
  C   C1288     1.0  0.21549  0.54574  0.17722  1.0000
  H   H2250     1.0  0.17650  0.52384  0.18229  1.0000
  H   H2251     1.0  0.08529  0.51551  0.23236  1.0000
  H   H2252     1.0  0.19574  0.53327  0.20336  1.0000
  H   H2253     1.0  0.18157  0.53873  0.19394  1.0000
  H   H2254     1.0  0.19866  0.53315  0.17239  1.0000
  H   H2255     1.0  0.48662  0.66581  0.99773  1.0000
  S   S298      1.0  0.11303  0.52408  0.22403  1.0000
  H   H2256     1.0  0.40133  0.73863  0.15745  1.0000
  C   C1289     1.0  0.23956  0.60785  0.05135  1.0000
  H   H2257     1.0  0.31246  0.58179  0.02915  1.0000
  C   C1290     1.0  0.40806  0.58393  0.07290  1.0000
  H   H2258     1.0  0.30607  0.54493  0.03768  1.0000
  H   H2259     1.0  0.39159  0.61322  0.01440  1.0000
  H   H2260     1.0  0.16865  0.52032  0.21377  1.0000
  H   H2261     1.0  0.41289  0.60212  0.05657  1.0000
  H   H2262     1.0  0.47128  0.61751  0.09529  1.0000
  C   C1291     1.0  0.49367  0.64293  0.99843  1.0000
  H   H2263     1.0  0.34381  0.65309  0.02603  1.0000
  S   S299      1.0  0.49846  0.59162  0.99821  1.0000
  H   H2264     1.0  0.29825  0.57107  0.01955  1.0000
  H   H2265     1.0  0.27347  0.59543  0.01934  1.0000
  C   C1292     1.0  0.35348  0.53203  0.03084  1.0000
  H   H2266     1.0  0.27287  0.57121  0.02960  1.0000
  N   N68       1.0  0.12583  0.51820  0.11535  1.0000
  C   C1293     1.0  0.10990  0.52077  0.12284  1.0000
  H   H2267     1.0  0.41977  0.73318  0.14799  1.0000
  C   C1294     1.0  0.12823  0.53194  0.10457  1.0000
  C   C1295     1.0  0.38688  0.67662  0.00352  1.0000
  H   H2268     1.0  0.05786  0.51656  0.18129  1.0000
  C   C1296     1.0  0.09891  0.52491  0.11297  1.0000
  C   C1297     1.0  0.14429  0.53259  0.09710  1.0000
  Fe  Fe151     1.0  0.03762  0.51131  0.13943  1.0000
  C   C1298     1.0  0.39664  0.64313  0.03852  1.0000
  H   H2269     1.0  0.37164  0.62008  0.08049  1.0000
  C   C1299     1.0  0.09121  0.54081  0.11059  1.0000
  C   C1300     1.0  0.14530  0.54450  0.08349  1.0000
  H   H2270     1.0  0.10728  0.52909  0.12924  1.0000
  H   H2271     1.0  0.11899  0.51608  0.00272  1.0000
  H   H2272     1.0  0.44950  0.65561  0.03742  1.0000
  H   H2273     1.0  0.13166  0.52473  0.13154  1.0000
  H   H2274     1.0  0.12361  0.54132  0.10971  1.0000
  H   H2275     1.0  0.12233  0.53396  0.09591  1.0000
  H   H2276     1.0  0.42049  0.57569  0.05400  1.0000
  H   H2277     1.0  0.26113  0.52231  0.12644  1.0000
  H   H2278     1.0  0.21069  0.51625  0.17228  1.0000
  H   H2279     1.0  0.32605  0.67188  0.01923  1.0000
  H   H2280     1.0  0.10418  0.52212  0.10245  1.0000
  C   C1301     1.0  0.32911  0.54438  0.01403  1.0000
  H   H2281     1.0  0.15051  0.52227  0.09418  1.0000
  H   H2282     1.0  0.14963  0.53492  0.10440  1.0000
  C   C1302     1.0  0.45339  0.50130  0.03349  1.0000
  H   H2283     1.0  0.07561  0.52017  0.09421  1.0000
  C   C1303     1.0  0.41259  0.57248  0.06407  1.0000
  H   H2284     1.0  0.35550  0.51038  0.04440  1.0000
  H   H2285     1.0  0.10063  0.49497  0.03621  1.0000
  H   H2286     1.0  0.39378  0.64599  0.02795  1.0000
  H   H2287     1.0  0.31510  0.66505  0.04505  1.0000
  C   C1304     1.0  0.40805  0.62107  0.99657  1.0000
  H   H2288     1.0  0.08309  0.54280  0.10404  1.0000
  H   H2289     1.0  0.08533  0.54376  0.12098  1.0000
  H   H2290     1.0  0.09902  0.54783  0.10487  1.0000
  H   H2291     1.0  0.15688  0.54508  0.07875  1.0000
  H   H2292     1.0  0.14091  0.54223  0.07542  1.0000
  H   H2293     1.0  0.13915  0.55507  0.08594  1.0000
  H   H2294     1.0  0.10729  0.51116  0.13104  1.0000
  H   H2295     1.0  0.37284  0.58248  0.02631  1.0000
  C   C1305     1.0  0.32028  0.59495  0.00871  1.0000
  C   C1306     1.0  0.46742  0.52768  0.99394  1.0000
  H   H2296     1.0  0.41781  0.56211  0.07029  1.0000
  H   H2297     1.0  0.26083  0.58985  0.00748  1.0000
  C   C1307     1.0  0.35649  0.59944  0.08862  1.0000
  H   H2298     1.0  0.47625  0.64875  0.05045  1.0000
  H   H2299     1.0  0.29859  0.54670  0.02241  1.0000
  S   S300      1.0  0.45698  0.51764  0.99060  1.0000
  H   H2300     1.0  0.19980  0.49638  0.17839  1.0000
  C   C1308     1.0  0.47115  0.54996  0.99661  1.0000
  C   C1309     1.0  0.39597  0.72562  0.12267  1.0000
  H   H2301     1.0  0.50093  0.52288  0.00053  1.0000
  C   C1310     1.0  0.08636  0.51547  0.08871  1.0000
  S   S301      1.0  0.05575  0.52178  0.12496  1.0000
  N   N69       1.0  0.39658  0.59965  0.99927  1.0000
  H   H2302     1.0  0.43495  0.58046  0.02878  1.0000
  H   H2303     1.0  0.09013  0.52053  0.99061  1.0000
  C   C1311     1.0  0.49767  0.60271  0.09266  1.0000
  H   H2304     1.0  0.23130  0.58186  0.01280  1.0000
  H   H2305     1.0  0.47143  0.61004  0.05441  1.0000
  H   H2306     1.0  0.18417  0.50132  0.12594  1.0000
  C   C1312     1.0  0.34582  0.51781  0.99602  1.0000
  C   C1313     1.0  0.23271  0.61024  0.06652  1.0000
  H   H2307     1.0  0.27752  0.62328  0.02757  1.0000
  H   H2308     1.0  0.46033  0.66796  0.03584  1.0000
  H   H2309     1.0  0.34227  0.53561  0.03697  1.0000
  C   C1314     1.0  0.39363  0.62839  0.04685  1.0000
  H   H2310     1.0  0.42042  0.51959  0.08855  1.0000
  H   H2311     1.0  0.03980  0.50801  0.11127  1.0000
  C   C1315     1.0  0.48143  0.52081  0.99613  1.0000
  H   H2312     1.0  0.11212  0.50538  0.16871  1.0000
  C   C1316     1.0  0.35319  0.52780  0.01709  1.0000
  H   H2313     1.0  0.44827  0.67227  0.01595  1.0000
  H   H2314     1.0  0.02717  0.62552  0.22665  1.0000
  S   S302      1.0  0.15683  0.50921  0.06966  1.0000
  Fe  Fe152     1.0  0.06855  0.49920  0.12493  1.0000
  H   H2315     1.0  0.25204  0.56239  0.05876  1.0000
  H   H2316     1.0  0.01332  0.52652  0.17406  1.0000
  H   H2317     1.0  0.17511  0.51392  0.10519  1.0000
  H   H2318     1.0  0.46495  0.63641  0.05236  1.0000
  C   C1317     1.0  0.09391  0.50120  0.21353  1.0000
  H   H2319     1.0  0.32563  0.52417  0.02970  1.0000
  Fe  Fe153     1.0  0.45228  0.73583  0.12737  1.0000
  H   H2320     1.0  0.37269  0.51536  0.03506  1.0000
  H   H2321     1.0  0.50050  0.72442  0.14889  1.0000
  H   H2322     1.0  0.12853  0.49605  0.23499  1.0000
  S   S303      1.0  0.18376  0.49659  0.04436  1.0000
  H   H2323     1.0  0.19961  0.49911  0.99018  1.0000
  H   H2324     1.0  0.40293  0.57096  0.06144  1.0000
  H   H2325     1.0  0.24135  0.60893  0.07227  1.0000
  Fe  Fe154     1.0  0.06320  0.51886  0.14521  1.0000
  H   H2326     1.0  0.47712  0.53194  0.05756  1.0000
  H   H2327     1.0  0.44959  0.53936  0.06575  1.0000
  C   C1318     1.0  0.05712  0.51954  0.19144  1.0000
  H   H2328     1.0  0.08243  0.54026  0.01507  1.0000
  S   S304      1.0  0.42095  0.54705  0.99822  1.0000
  H   H2329     1.0  0.50230  0.52384  0.04512  1.0000
  C   C1319     1.0  0.17881  0.49534  0.17670  1.0000
  H   H2330     1.0  0.12542  0.49871  0.07007  1.0000
  C   C1320     1.0  0.44933  0.52656  0.03693  1.0000
  H   H2331     1.0  0.37451  0.72036  0.13160  1.0000
  C   C1321     1.0  0.13047  0.50600  0.10760  1.0000
  C   C1322     1.0  0.34668  0.56413  0.98986  1.0000
  H   H2332     1.0  0.35164  0.60729  0.09561  1.0000
  H   H2333     1.0  0.37695  0.59363  0.09485  1.0000
  H   H2334     1.0  0.14237  0.50132  0.10662  1.0000
  H   H2335     1.0  0.08823  0.51059  0.01654  1.0000
  H   H2336     1.0  0.18518  0.49648  0.21688  1.0000
  C   C1323     1.0  0.31232  0.58494  0.01790  1.0000
  H   H2337     1.0  0.40345  0.71432  0.17415  1.0000
  N   N70       1.0  0.30166  0.54446  0.10649  1.0000
  C   C1324     1.0  0.30437  0.54098  0.09204  1.0000
  C   C1325     1.0  0.29401  0.53357  0.11767  1.0000
  C   C1326     1.0  0.29242  0.55949  0.10600  1.0000
  C   C1327     1.0  0.31577  0.54380  0.11019  1.0000
  C   C1328     1.0  0.32703  0.52924  0.11036  1.0000
  C   C1329     1.0  0.31506  0.54879  0.07968  1.0000
  C   C1330     1.0  0.28777  0.56469  0.12024  1.0000
  C   C1331     1.0  0.27824  0.53427  0.11679  1.0000
  C   C1332     1.0  0.27211  0.52196  0.12774  1.0000
  H   H2338     1.0  0.43527  0.64084  0.00280  1.0000
  C   C1333     1.0  0.31578  0.54566  0.06532  1.0000
  C   C1334     1.0  0.27682  0.57913  0.11898  1.0000
  H   H2339     1.0  0.29393  0.54362  0.08855  1.0000
  H   H2340     1.0  0.30849  0.52923  0.09267  1.0000
  H   H2341     1.0  0.30031  0.52249  0.11691  1.0000
  H   H2342     1.0  0.29371  0.53433  0.12867  1.0000
  H   H2343     1.0  0.28242  0.56068  0.10223  1.0000
  H   H2344     1.0  0.29825  0.56748  0.09796  1.0000
  H   H2345     1.0  0.32105  0.55257  0.10284  1.0000
  H   H2346     1.0  0.31364  0.54585  0.12106  1.0000
  H   H2347     1.0  0.32920  0.52550  0.10035  1.0000
  H   H2348     1.0  0.32300  0.52085  0.11947  1.0000
  H   H2349     1.0  0.31165  0.56053  0.07869  1.0000
  H   H2350     1.0  0.32628  0.54525  0.08155  1.0000
  H   H2351     1.0  0.29737  0.56622  0.12298  1.0000
  H   H2352     1.0  0.28255  0.55700  0.12926  1.0000
  H   H2353     1.0  0.27079  0.54449  0.11901  1.0000
  H   H2354     1.0  0.27792  0.53341  0.10604  1.0000
  C   C1335     1.0  0.39957  0.60887  0.08503  1.0000
  C   C1336     1.0  0.21751  0.52938  0.18172  1.0000
  H   H2355     1.0  0.27919  0.51139  0.12616  1.0000
  H   H2356     1.0  0.09655  0.51200  0.20877  1.0000
  C   C1337     1.0  0.23140  0.51872  0.07799  1.0000
  H   H2357     1.0  0.47852  0.51762  0.04926  1.0000
  H   H2358     1.0  0.31923  0.53393  0.06579  1.0000
  H   H2359     1.0  0.30500  0.54986  0.06239  1.0000
  H   H2360     1.0  0.32386  0.55105  0.05682  1.0000
  H   H2361     1.0  0.26642  0.57789  0.11759  1.0000
  H   H2362     1.0  0.27448  0.58312  0.12890  1.0000
  H   H2363     1.0  0.28123  0.58725  0.10976  1.0000
  N   N71       1.0  0.13603  0.56495  0.14329  1.0000
  C   C1338     1.0  0.14491  0.55336  0.15283  1.0000
  C   C1339     1.0  0.13064  0.57819  0.14952  1.0000
  C   C1340     1.0  0.12280  0.55970  0.14372  1.0000
  C   C1341     1.0  0.14441  0.56829  0.12790  1.0000
  C   C1342     1.0  0.16114  0.56681  0.12526  1.0000
  C   C1343     1.0  0.14917  0.53827  0.14934  1.0000
  C   C1344     1.0  0.11127  0.57072  0.13584  1.0000
  C   C1345     1.0  0.14231  0.58593  0.14950  1.0000
  C   C1346     1.0  0.13576  0.59753  0.15823  1.0000
  C   C1347     1.0  0.16777  0.57142  0.10930  1.0000
  C   C1348     1.0  0.16171  0.52857  0.15605  1.0000
  C   C1349     1.0  0.10105  0.56337  0.13281  1.0000
  H   H2364     1.0  0.13883  0.55212  0.16425  1.0000
  H   H2365     1.0  0.15501  0.55639  0.15268  1.0000
  H   H2366     1.0  0.12303  0.58658  0.14350  1.0000
  H   H2367     1.0  0.12426  0.57546  0.16075  1.0000
  H   H2368     1.0  0.11709  0.55597  0.15504  1.0000
  H   H2369     1.0  0.12619  0.55012  0.13891  1.0000
  H   H2370     1.0  0.14311  0.56114  0.12173  1.0000
  H   H2371     1.0  0.13974  0.57940  0.12247  1.0000
  H   H2372     1.0  0.16672  0.55552  0.12885  1.0000
  H   H2373     1.0  0.16393  0.57331  0.13102  1.0000
  H   H2374     1.0  0.13969  0.53307  0.15379  1.0000
  H   H2375     1.0  0.15240  0.53885  0.13763  1.0000
  H   H2376     1.0  0.11645  0.57692  0.12546  1.0000
  H   H2377     1.0  0.10441  0.57838  0.14263  1.0000
  H   H2378     1.0  0.15136  0.57846  0.15412  1.0000
  H   H2379     1.0  0.14677  0.59136  0.13839  1.0000
  H   H2380     1.0  0.13130  0.59271  0.16959  1.0000
  H   H2381     1.0  0.14439  0.60289  0.15802  1.0000
  H   H2382     1.0  0.12695  0.60577  0.15371  1.0000
  H   H2383     1.0  0.16608  0.56449  0.10318  1.0000
  H   H2384     1.0  0.16289  0.58284  0.10506  1.0000
  H   H2385     1.0  0.17968  0.57028  0.10769  1.0000
  H   H2386     1.0  0.17159  0.53316  0.15172  1.0000
  H   H2387     1.0  0.15853  0.52729  0.16786  1.0000
  H   H2388     1.0  0.16439  0.51785  0.15343  1.0000
  H   H2389     1.0  0.09552  0.55705  0.14288  1.0000
  H   H2390     1.0  0.09258  0.57158  0.12775  1.0000
  H   H2391     1.0  0.10718  0.55613  0.12542  1.0000
  N   N72       1.0  0.10859  0.52195  0.02310  1.0000
  C   C1350     1.0  0.09368  0.52670  0.03216  1.0000
  H   H2392     1.0  0.27196  0.54496  0.03681  1.0000
  C   C1351     1.0  0.11673  0.53375  0.01996  1.0000
  C   C1352     1.0  0.43145  0.52191  0.08379  1.0000
  H   H2393     1.0  0.41423  0.71541  0.13951  1.0000
  C   C1353     1.0  0.08407  0.54088  0.02542  1.0000
  C   C1354     1.0  0.13322  0.53020  0.01282  1.0000
  C   C1355     1.0  0.24830  0.59215  0.05170  1.0000
  C   C1356     1.0  0.47886  0.52907  0.04711  1.0000
  C   C1357     1.0  0.20508  0.52412  0.17916  1.0000
  H   H2394     1.0  0.29931  0.53044  0.03616  1.0000
  H   H2395     1.0  0.47445  0.59072  0.06010  1.0000
  H   H2396     1.0  0.09487  0.52799  0.04251  1.0000
  H   H2397     1.0  0.07193  0.52383  0.20943  1.0000
  H   H2398     1.0  0.46734  0.56132  0.99636  1.0000
  H   H2399     1.0  0.13818  0.50939  0.15469  1.0000
  H   H2400     1.0  0.11581  0.53709  0.03000  1.0000
  H   H2401     1.0  0.11182  0.54352  0.01269  1.0000
  C   C1358     1.0  0.40446  0.72284  0.14442  1.0000
  C   C1359     1.0  0.27691  0.60081  0.03730  1.0000
  H   H2402     1.0  0.07009  0.54493  0.04583  1.0000
  H   H2403     1.0  0.23102  0.51547  0.99360  1.0000
  H   H2404     1.0  0.08904  0.55016  0.02363  1.0000
  S   S305      1.0  0.39418  0.49412  0.01502  1.0000
  C   C1360     1.0  0.19571  0.49243  0.20995  1.0000
  H   H2405     1.0  0.13931  0.52129  0.01993  1.0000
  N   N73       1.0  0.34485  0.53925  0.00695  1.0000
  C   C1361     1.0  0.06862  0.50891  0.19910  1.0000
  H   H2406     1.0  0.25994  0.60983  0.02516  1.0000
  H   H2407     1.0  0.30489  0.62643  0.99877  1.0000
  H   H2408     1.0  0.17575  0.50878  0.19659  1.0000
  H   H2409     1.0  0.24860  0.56213  0.04209  1.0000
  C   C1362     1.0  0.40188  0.67367  0.99773  1.0000
  C   C1363     1.0  0.46517  0.64788  0.05065  1.0000
  C   C1364     1.0  0.18348  0.51386  0.18740  1.0000
  C   C1365     1.0  0.47834  0.62489  0.08803  1.0000
  H   H2410     1.0  0.06320  0.53532  0.03712  1.0000
  H   H2411     1.0  0.42193  0.70894  0.16414  1.0000
  C   C1366     1.0  0.48163  0.65706  0.99763  1.0000
  H   H2412     1.0  0.19919  0.49442  0.10340  1.0000
  N   N74       1.0  0.45167  0.53662  0.04450  1.0000
  S   S306      1.0  0.46514  0.73603  0.14297  1.0000
  C   C1367     1.0  0.46706  0.53913  0.03899  1.0000
  C   C1368     1.0  0.44126  0.55093  0.04125  1.0000
  C   C1369     1.0  0.31289  0.65576  0.02863  1.0000
  H   H2413     1.0  0.23670  0.58470  0.03519  1.0000
  H   H2414     1.0  0.30146  0.65449  0.05085  1.0000
  C   C1370     1.0  0.44274  0.55864  0.02525  1.0000
  H   H2415     1.0  0.45636  0.52136  0.06400  1.0000
  H   H2416     1.0  0.34892  0.51785  0.02068  1.0000
  H   H2417     1.0  0.25650  0.57276  0.01694  1.0000
  C   C1371     1.0  0.43236  0.57339  0.02344  1.0000
  C   C1372     1.0  0.38029  0.58992  0.02366  1.0000
  C   C1373     1.0  0.38715  0.70608  0.11794  1.0000
  H   H2418     1.0  0.47098  0.53863  0.02750  1.0000
  H   H2419     1.0  0.46732  0.55022  0.03921  1.0000
  H   H2420     1.0  0.44246  0.55843  0.04709  1.0000
  H   H2421     1.0  0.42981  0.54982  0.04508  1.0000
  C   C1374     1.0  0.26641  0.59899  0.02917  1.0000
  N   N75       1.0  0.32878  0.66034  0.00290  1.0000
  H   H2422     1.0  0.20804  0.50810  0.20824  1.0000
  H   H2423     1.0  0.34011  0.53395  0.12222  1.0000
  H   H2424     1.0  0.42426  0.53735  0.06611  1.0000
  H   H2425     1.0  0.41901  0.73722  0.12191  1.0000
  H   H2426     1.0  0.43995  0.55239  0.01918  1.0000
  H   H2427     1.0  0.45398  0.56017  0.02044  1.0000
  C   C1375     1.0  0.38607  0.71463  0.12891  1.0000
  H   H2428     1.0  0.39827  0.69928  0.11554  1.0000
  H   H2429     1.0  0.38906  0.70676  0.13854  1.0000
  C   C1376     1.0  0.04015  0.51198  0.09963  1.0000
  H   H2430     1.0  0.13823  0.54710  0.01940  1.0000
  C   C1377     1.0  0.43314  0.52771  0.06763  1.0000
  H   H2431     1.0  0.21752  0.50669  0.07596  1.0000
  H   H2432     1.0  0.24027  0.58523  0.05712  1.0000
  H   H2433     1.0  0.03006  0.50892  0.08445  1.0000
  H   H2434     1.0  0.43353  0.57852  0.01187  1.0000
  H   H2435     1.0  0.42091  0.57228  0.02807  1.0000
  H   H2436     1.0  0.16180  0.53495  0.23193  1.0000
  H   H2437     1.0  0.40918  0.60160  0.01308  1.0000
  Fe  Fe155     1.0  0.10557  0.54708  0.22594  1.0000
  H   H2438     1.0  0.10542  0.49783  0.01293  1.0000
  H   H2439     1.0  0.29786  0.67222  0.03952  1.0000
  H   H2440     1.0  0.05892  0.53063  0.18877  1.0000
  H   H2441     1.0  0.16755  0.50198  0.17737  1.0000
  H   H2442     1.0  0.45711  0.63421  0.11093  1.0000
  H   H2443     1.0  0.12600  0.50285  0.02396  1.0000
  C   C1378     1.0  0.03159  0.52758  0.09737  1.0000
  C   C1379     1.0  0.17699  0.52506  0.21508  1.0000
  C   C1380     1.0  0.31962  0.66649  0.01561  1.0000
  H   H2444     1.0  0.48435  0.63162  0.10464  1.0000
  H   H2445     1.0  0.09530  0.49640  0.20431  1.0000
  H   H2446     1.0  0.12515  0.50046  0.20941  1.0000
  C   C1381     1.0  0.24568  0.59017  0.02865  1.0000
  C   C1382     1.0  0.43644  0.72311  0.10167  1.0000
  H   H2447     1.0  0.31821  0.52798  0.01395  1.0000
  H   H2448     1.0  0.39636  0.59797  0.05670  1.0000
  C   C1383     1.0  0.12226  0.49353  0.11406  1.0000
  H   H2449     1.0  0.38993  0.65158  0.04434  1.0000
  H   H2450     1.0  0.27109  0.60392  0.04762  1.0000
  H   H2451     1.0  0.35046  0.55710  0.01115  1.0000
  H   H2452     1.0  0.39408  0.62625  0.11275  1.0000
  H   H2453     1.0  0.40771  0.62599  0.06100  1.0000
  C   C1384     1.0  0.40271  0.59907  0.06381  1.0000
  C   C1385     1.0  0.42962  0.72078  0.09206  1.0000
  H   H2454     1.0  0.40083  0.62033  0.04072  1.0000
  H   H2455     1.0  0.31028  0.67513  0.01258  1.0000
  C   C1386     1.0  0.39633  0.62503  0.06219  1.0000
  C   C1387     1.0  0.45503  0.67973  0.99317  1.0000
  Fe  Fe156     1.0  0.14312  0.51669  0.05343  1.0000
  C   C1388     1.0  0.41330  0.71819  0.16731  1.0000
  H   H2456     1.0  0.35201  0.60345  0.07880  1.0000
  S   S307      1.0  0.17176  0.50453  0.00748  1.0000
  H   H2457     1.0  0.48277  0.64521  0.08875  1.0000
  H   H2458     1.0  0.40231  0.57934  0.01396  1.0000
  C   C1389     1.0  0.37793  0.61102  0.07533  1.0000
  C   C1390     1.0  0.46227  0.54231  0.99418  1.0000
  H   H2459     1.0  0.15474  0.50122  0.14340  1.0000
  H   H2460     1.0  0.27344  0.57276  0.04656  1.0000
  H   H2461     1.0  0.21153  0.50180  0.11814  1.0000
  H   H2462     1.0  0.06614  0.49815  0.20160  1.0000
  H   H2463     1.0  0.24067  0.51452  0.06975  1.0000
  H   H2464     1.0  0.40695  0.71992  0.11774  1.0000
  S   S308      1.0  0.42091  0.51452  0.01835  1.0000
  C   C1391     1.0  0.46000  0.64693  0.00669  1.0000
  C   C1392     1.0  0.38624  0.58764  0.03695  1.0000
  H   H2465     1.0  0.35889  0.62825  0.02401  1.0000
  H   H2466     1.0  0.29021  0.61073  0.01737  1.0000
  C   C1393     1.0  0.31758  0.63996  0.00112  1.0000
  H   H2467     1.0  0.37392  0.61323  0.06540  1.0000
  C   C1394     1.0  0.43865  0.63513  0.01303  1.0000
  H   H2468     1.0  0.36470  0.52436  0.01135  1.0000
  H   H2469     1.0  0.37729  0.58847  0.07867  1.0000
  C   C1395     1.0  0.46244  0.64269  0.10315  1.0000
  H   H2470     1.0  0.17809  0.51247  0.08024  1.0000
  H   H2471     1.0  0.37793  0.61761  0.99826  1.0000
  H   H2472     1.0  0.41116  0.61745  0.10308  1.0000
  C   C1396     1.0  0.10420  0.51548  0.16855  1.0000
  C   C1397     1.0  0.19252  0.49454  0.13198  1.0000
  H   H2473     1.0  0.43268  0.52997  0.08889  1.0000
  H   H2474     1.0  0.46712  0.63614  0.00700  1.0000
  H   H2475     1.0  0.30396  0.65273  0.02615  1.0000
  C   C1398     1.0  0.10581  0.49461  0.08527  1.0000
  H   H2476     1.0  0.22810  0.52472  0.17517  1.0000
  H   H2477     1.0  0.43782  0.65460  0.01862  1.0000
  H   H2478     1.0  0.17697  0.54342  0.22304  1.0000
  C   C1399     1.0  0.48507  0.54292  0.99907  1.0000
  H   H2479     1.0  0.19288  0.50018  0.13998  1.0000
  H   H2480     1.0  0.35330  0.58910  0.09446  1.0000
  N   N76       1.0  0.46779  0.65678  0.00917  1.0000
  H   H2481     1.0  0.42893  0.63285  0.02143  1.0000
  H   H2482     1.0  0.09181  0.50133  0.99482  1.0000
  H   H2483     1.0  0.44624  0.62472  0.01165  1.0000
  S   S309      1.0  0.01465  0.51967  0.13583  1.0000
  C   C1400     1.0  0.34159  0.53045  0.11217  1.0000
  C   C1401     1.0  0.44579  0.64441  0.01760  1.0000
  Fe  Fe157     1.0  0.13488  0.52573  0.22524  1.0000
  H   H2484     1.0  0.39417  0.63138  0.08740  1.0000
  H   H2485     1.0  0.40829  0.64325  0.03693  1.0000
  H   H2486     1.0  0.39719  0.71570  0.15149  1.0000
  H   H2487     1.0  0.23254  0.49660  0.10154  1.0000
  H   H2488     1.0  0.39821  0.59855  0.09264  1.0000
  C   C1402     1.0  0.37310  0.59715  0.08472  1.0000
  C   C1403     1.0  0.39931  0.61761  0.10670  1.0000
  H   H2489     1.0  0.38896  0.63397  0.06710  1.0000
  C   C1404     1.0  0.30426  0.57887  0.01246  1.0000
  H   H2490     1.0  0.41914  0.58880  0.99333  1.0000
  C   C1405     1.0  0.47806  0.63620  0.09618  1.0000
  H   H2491     1.0  0.45593  0.64823  0.09488  1.0000
  H   H2492     1.0  0.24018  0.60165  0.02552  1.0000
  H   H2493     1.0  0.41988  0.61686  0.99278  1.0000
  H   H2494     1.0  0.43756  0.52640  0.03931  1.0000
  S   S310      1.0  0.12705  0.54818  0.22869  1.0000
  H   H2495     1.0  0.39767  0.60717  0.11399  1.0000
  H   H2496     1.0  0.05720  0.51544  0.21881  1.0000
  H   H2497     1.0  0.46252  0.65070  0.10894  1.0000
  H   H2498     1.0  0.22566  0.60251  0.07264  1.0000
  H   H2499     1.0  0.25577  0.58943  0.05910  1.0000
  H   H2500     1.0  0.29379  0.61248  0.03342  1.0000
  C   C1406     1.0  0.11445  0.50340  0.07499  1.0000
  H   H2501     1.0  0.41060  0.62842  0.01401  1.0000
  H   H2502     1.0  0.39487  0.63865  0.00666  1.0000
  H   H2503     1.0  0.36747  0.59576  0.00171  1.0000
  H   H2504     1.0  0.45164  0.54781  0.99211  1.0000
  H   H2505     1.0  0.48755  0.62152  0.06126  1.0000
  H   H2506     1.0  0.20488  0.55119  0.18304  1.0000
  C   C1407     1.0  0.36133  0.51932  0.04071  1.0000
  C   C1408     1.0  0.25723  0.56159  0.04751  1.0000
  H   H2507     1.0  0.45226  0.53051  0.02511  1.0000
  H   H2508     1.0  0.22521  0.52911  0.07271  1.0000
  N   N77       1.0  0.19491  0.51762  0.19233  1.0000
  H   H2509     1.0  0.10358  0.53034  0.00209  1.0000
  H   H2510     1.0  0.23062  0.61030  0.04566  1.0000
  C   C1409     1.0  0.10787  0.51988  0.00892  1.0000
  C   C1410     1.0  0.14375  0.49907  0.98772  1.0000
  H   H2511     1.0  0.39317  0.57669  0.03925  1.0000
  C   C1411     1.0  0.47928  0.60014  0.05814  1.0000
  H   H2512     1.0  0.14664  0.51467  0.12089  1.0000
  H   H2513     1.0  0.35938  0.54079  0.02818  1.0000
  H   H2514     1.0  0.32836  0.55090  0.02174  1.0000
  Fe  Fe158     1.0  0.40439  0.51345  0.00731  1.0000
  H   H2515     1.0  0.21196  0.51296  0.09235  1.0000
  C   C1412     1.0  0.30513  0.53917  0.03003  1.0000
  H   H2516     1.0  0.24505  0.58314  0.99635  1.0000
  H   H2517     1.0  0.23574  0.52078  0.08618  1.0000
  H   H2518     1.0  0.26106  0.53837  0.05408  1.0000
  C   C1413     1.0  0.06870  0.51325  0.21284  1.0000
  H   H2519     1.0  0.37338  0.60091  0.02154  1.0000
  H   H2520     1.0  0.03606  0.53389  0.10201  1.0000
  C   C1414     1.0  0.36302  0.63820  0.01852  1.0000
  H   H2521     1.0  0.44830  0.70069  0.99881  1.0000
  C   C1415     1.0  0.40966  0.72936  0.15402  1.0000
  C   C1416     1.0  0.47190  0.65125  0.02360  1.0000
  S   S311      1.0  0.39057  0.53517  0.00993  1.0000
  H   H2522     1.0  0.24659  0.61571  0.04594  1.0000
  H   H2523     1.0  0.49723  0.63965  0.00871  1.0000
  H   H2524     1.0  0.45744  0.65209  0.05982  1.0000
  H   H2525     1.0  0.44992  0.67333  0.98934  1.0000
  H   H2526     1.0  0.42708  0.72935  0.08305  1.0000
  C   C1417     1.0  0.30544  0.63792  0.99556  1.0000
  C   C1418     1.0  0.37252  0.60182  0.99119  1.0000
  H   H2527     1.0  0.27632  0.54557  0.05311  1.0000
  H   H2528     1.0  0.37929  0.69892  0.12230  1.0000
  H   H2529     1.0  0.23569  0.59907  0.00313  1.0000
  H   H2530     1.0  0.44821  0.63855  0.02818  1.0000
  H   H2531     1.0  0.43968  0.51180  0.08612  1.0000
  C   C1419     1.0  0.25201  0.58453  0.01462  1.0000
  C   C1420     1.0  0.30642  0.66237  0.04177  1.0000
  H   H2532     1.0  0.36883  0.64031  0.02554  1.0000
  H   H2533     1.0  0.45425  0.50555  0.02179  1.0000
  C   C1421     1.0  0.33545  0.67204  0.99188  1.0000
  C   C1422     1.0  0.35051  0.65099  0.01557  1.0000
  H   H2534     1.0  0.12918  0.51000  0.09630  1.0000
  H   H2535     1.0  0.04285  0.63322  0.21769  1.0000
  S   S312      1.0  0.37428  0.67759  0.99356  1.0000
  C   C1423     1.0  0.44840  0.53128  0.06060  1.0000
  H   H2536     1.0  0.39274  0.59561  0.03551  1.0000
  C   C1424     1.0  0.20366  0.50468  0.20089  1.0000
  H   H2537     1.0  0.37240  0.72472  0.15264  1.0000
  H   H2538     1.0  0.37707  0.58877  0.04640  1.0000
  C   C1425     1.0  0.03450  0.63163  0.22785  1.0000
  H   H2539     1.0  0.34934  0.51984  0.11264  1.0000
  S   S313      1.0  0.04385  0.51043  0.15969  1.0000
  H   H2540     1.0  0.37081  0.63677  0.00830  1.0000
  N   N78       1.0  0.07841  0.50264  0.22226  1.0000
  H   H2541     1.0  0.15182  0.54020  0.00505  1.0000
  H   H2542     1.0  0.08717  0.51839  0.03519  1.0000
  H   H2543     1.0  0.03246  0.53246  0.08577  1.0000
  H   H2544     1.0  0.48199  0.65456  0.02323  1.0000
  Fe  Fe159     1.0  0.48761  0.57305  0.00921  1.0000
  H   H2545     1.0  0.41745  0.72309  0.17366  1.0000
  H   H2546     1.0  0.33724  0.54064  0.98808  1.0000
  H   H2547     1.0  0.35347  0.61929  0.99395  1.0000
  H   H2548     1.0  0.31499  0.63640  0.01294  1.0000
  H   H2549     1.0  0.47000  0.51078  0.03451  1.0000
  H   H2550     1.0  0.05165  0.51187  0.09388  1.0000
  H   H2551     1.0  0.45737  0.50616  0.05138  1.0000
  H   H2552     1.0  0.49682  0.52684  0.02856  1.0000
  H   H2553     1.0  0.49523  0.54188  0.03612  1.0000
  H   H2554     1.0  0.36406  0.54835  0.99831  1.0000
  C   C1426     1.0  0.49422  0.53054  0.03869  1.0000
  H   H2555     1.0  0.12333  0.50073  0.14396  1.0000
  C   C1427     1.0  0.39249  0.58669  0.01032  1.0000
  H   H2556     1.0  0.37847  0.73396  0.16204  1.0000
  C   C1428     1.0  0.40110  0.60852  0.00665  1.0000
  H   H2557     1.0  0.07931  0.50885  0.19144  1.0000
  H   H2558     1.0  0.29474  0.64430  0.00018  1.0000
  C   C1429     1.0  0.40645  0.63298  0.00407  1.0000
  H   H2559     1.0  0.48553  0.50957  0.99584  1.0000
  C   C1430     1.0  0.37347  0.73542  0.15290  1.0000
  C   C1431     1.0  0.41163  0.67400  0.00553  1.0000
  H   H2560     1.0  0.42319  0.67198  0.00088  1.0000
  H   H2561     1.0  0.10105  0.50149  0.05104  1.0000
  C   C1432     1.0  0.09712  0.50998  0.99445  1.0000
  Fe  Fe160     1.0  0.43257  0.52455  0.99667  1.0000
  H   H2562     1.0  0.43916  0.73337  0.09997  1.0000
  H   H2563     1.0  0.35179  0.73955  0.16647  1.0000
  H   H2564     1.0  0.11124  0.49698  0.11172  1.0000
  H   H2565     1.0  0.16229  0.54622  0.21421  1.0000
  H   H2566     1.0  0.30828  0.66283  0.99719  1.0000
  Fe  Fe161     1.0  0.49710  0.59390  0.02029  1.0000
  C   C1433     1.0  0.22946  0.49375  0.09298  1.0000
  N   N79       1.0  0.49312  0.61632  0.08195  1.0000
  H   H2567     1.0  0.48871  0.58993  0.07640  1.0000
  C   C1434     1.0  0.49208  0.61196  0.06899  1.0000
  C   C1435     1.0  0.34594  0.53389  0.99383  1.0000
  H   H2568     1.0  0.33475  0.56811  0.99255  1.0000
  C   C1436     1.0  0.13991  0.54324  0.00951  1.0000
  H   H2569     1.0  0.02309  0.50094  0.10248  1.0000
  C   C1437     1.0  0.31210  0.59281  0.98870  1.0000
  S   S314      1.0  0.29560  0.57388  0.99069  1.0000
  C   C1438     1.0  0.31939  0.65573  0.99601  1.0000
  H   H2570     1.0  0.38463  0.71338  0.10781  1.0000
  S   S315      1.0  0.07776  0.49719  0.14370  1.0000
  C   C1439     1.0  0.14326  0.50065  0.14879  1.0000
  H   H2571     1.0  0.05303  0.50094  0.07233  1.0000
  N   N80       1.0  0.39742  0.73359  0.13288  1.0000
  H   H2572     1.0  0.39138  0.73321  0.11366  1.0000
  C   C1440     1.0  0.00778  0.50774  0.13077  1.0000
  H   H2573     1.0  0.06039  0.52796  0.23419  1.0000
  C   C1441     1.0  0.03341  0.50243  0.09454  1.0000
  H   H2574     1.0  0.03208  0.49338  0.06811  1.0000
  C   C1442     1.0  0.40978  0.59469  0.98818  1.0000
  C   C1443     1.0  0.23125  0.49210  0.16048  1.0000
  H   H2575     1.0  0.07569  0.49256  0.05376  1.0000
  C   C1444     1.0  0.01353  0.49294  0.13387  1.0000
  C   C1445     1.0  0.38789  0.49837  0.98878  1.0000
  Fe  Fe162     1.0  0.40466  0.54305  0.98866  1.0000
  H   H2576     1.0  0.08024  0.59584  0.43959  1.0000
  C   C1446     1.0  0.11240  0.52663  0.26546  1.0000
  C   C1447     1.0  0.02363  0.57118  0.29636  1.0000
  Fe  Fe163     1.0  0.12532  0.71854  0.45562  1.0000
  S   S316      1.0  0.12565  0.69997  0.44629  1.0000
  H   H2577     1.0  0.13214  0.51918  0.29540  1.0000
  N   N81       1.0  0.03638  0.61126  0.26724  1.0000
  H   H2578     1.0  0.11068  0.52131  0.28853  1.0000
  S   S317      1.0  0.14372  0.71752  0.46563  1.0000
  S   S318      1.0  0.10799  0.72484  0.47429  1.0000
  H   H2579     1.0  0.02273  0.56292  0.40826  1.0000
  H   H2580     1.0  0.15031  0.54778  0.26696  1.0000
  C   C1448     1.0  0.03444  0.58938  0.25895  1.0000
  S   S319      1.0  0.08491  0.55238  0.24264  1.0000
  Fe  Fe164     1.0  0.14214  0.74078  0.45443  1.0000
  Fe  Fe165     1.0  0.05130  0.67252  0.40223  1.0000
  S   S320      1.0  0.06110  0.64892  0.40679  1.0000
  S   S321      1.0  0.02770  0.68091  0.40060  1.0000
  Fe  Fe166     1.0  0.07885  0.68050  0.40404  1.0000
  S   S322      1.0  0.09092  0.65738  0.40812  1.0000
  S   S323      1.0  0.08543  0.70010  0.40587  1.0000
  Fe  Fe167     1.0  0.08100  0.65501  0.39121  1.0000
  S   S324      1.0  0.09306  0.63971  0.37646  1.0000
  Fe  Fe168     1.0  0.06994  0.65331  0.42302  1.0000
  S   S325      1.0  0.06879  0.63901  0.44494  1.0000
  S   S326      1.0  0.07074  0.67867  0.38558  1.0000
  S   S327      1.0  0.05839  0.67640  0.42000  1.0000
  Fe  Fe169     1.0  0.07624  0.58719  0.30696  1.0000
  S   S328      1.0  0.08554  0.58885  0.32453  1.0000
  Fe  Fe170     1.0  0.04598  0.58783  0.32598  1.0000
  S   S329      1.0  0.05268  0.58927  0.34507  1.0000
  H   H2581     1.0  0.04238  0.70788  0.39212  1.0000
  Fe  Fe171     1.0  0.06503  0.60539  0.32984  1.0000
  S   S330      1.0  0.06095  0.62700  0.33547  1.0000
  Fe  Fe172     1.0  0.07228  0.57273  0.33824  1.0000
  S   S331      1.0  0.08108  0.55357  0.35399  1.0000
  S   S332      1.0  0.05680  0.60514  0.31100  1.0000
  S   S333      1.0  0.06457  0.56980  0.32036  1.0000
  H   H2582     1.0  0.10312  0.50769  0.27552  1.0000
  H   H2583     1.0  0.04215  0.71678  0.43795  1.0000
  H   H2584     1.0  0.01971  0.53854  0.35155  1.0000
  S   S334      1.0  0.03933  0.51125  0.38869  1.0000
  H   H2585     1.0  0.00864  0.53280  0.31605  1.0000
  H   H2586     1.0  0.10482  0.58567  0.25591  1.0000
  H   H2587     1.0  0.17650  0.71221  0.40781  1.0000
  C   C1449     1.0  0.01745  0.58259  0.31646  1.0000
  H   H2588     1.0  0.05310  0.57599  0.24724  1.0000
  H   H2589     1.0  0.13455  0.57164  0.24557  1.0000
  H   H2590     1.0  0.07485  0.68663  0.44163  1.0000
  C   C1450     1.0  0.06325  0.61320  0.26444  1.0000
  H   H2591     1.0  0.02496  0.61131  0.34869  1.0000
  S   S335      1.0  0.02378  0.57539  0.45597  1.0000
  H   H2592     1.0  0.04353  0.62926  0.26926  1.0000
  C   C1451     1.0  0.06640  0.56030  0.42721  1.0000
  C   C1452     1.0  0.06300  0.52017  0.25584  1.0000
  H   H2593     1.0  0.05253  0.68511  0.48038  1.0000
  H   H2594     1.0  0.01701  0.52021  0.45723  1.0000
  C   C1453     1.0  0.02305  0.51454  0.34094  1.0000
  H   H2595     1.0  0.03713  0.65388  0.29388  1.0000
  C   C1454     1.0  0.01990  0.55644  0.44262  1.0000
  H   H2596     1.0  0.04874  0.62569  0.43193  1.0000
  H   H2597     1.0  0.03618  0.64877  0.32663  1.0000
  H   H2598     1.0  0.12889  0.70400  0.40086  1.0000
  C   C1455     1.0  0.14502  0.51555  0.27506  1.0000
  H   H2599     1.0  0.03156  0.55231  0.44101  1.0000
  H   H2600     1.0  0.02817  0.63995  0.42098  1.0000
  C   C1456     1.0  0.06893  0.54233  0.36348  1.0000
  C   C1457     1.0  0.05418  0.54630  0.36281  1.0000
  C   C1458     1.0  0.04472  0.53706  0.37088  1.0000
  C   C1459     1.0  0.05020  0.52372  0.37919  1.0000
  C   C1460     1.0  0.06500  0.51967  0.37943  1.0000
  C   C1461     1.0  0.07427  0.52903  0.37181  1.0000
  H   H2601     1.0  0.05012  0.55651  0.35619  1.0000
  C   C1462     1.0  0.01718  0.59576  0.41509  1.0000
  C   C1463     1.0  0.01078  0.66058  0.34346  1.0000
  H   H2602     1.0  0.08567  0.52589  0.37227  1.0000
  C   C1464     1.0  0.03128  0.53082  0.31783  1.0000
  H   H2603     1.0  0.11418  0.55395  0.31678  1.0000
  H   H2604     1.0  0.05811  0.70668  0.42802  1.0000
  C   C1465     1.0  0.14094  0.70123  0.39713  1.0000
  N   N82       1.0  0.01364  0.64807  0.33648  1.0000
  C   C1466     1.0  0.05042  0.64007  0.45349  1.0000
  C   C1467     1.0  0.04654  0.63151  0.46713  1.0000
  C   C1468     1.0  0.03180  0.63168  0.47356  1.0000
  C   C1469     1.0  0.02099  0.64080  0.46652  1.0000
  C   C1470     1.0  0.02487  0.64969  0.45311  1.0000
  C   C1471     1.0  0.03957  0.64918  0.44652  1.0000
  H   H2605     1.0  0.05493  0.62448  0.47254  1.0000
  H   H2606     1.0  0.14913  0.52128  0.26401  1.0000
  H   H2607     1.0  0.01482  0.73054  0.39382  1.0000
  H   H2608     1.0  0.04243  0.65555  0.43587  1.0000
  C   C1472     1.0  0.08370  0.63593  0.36560  1.0000
  C   C1473     1.0  0.07093  0.64528  0.36216  1.0000
  C   C1474     1.0  0.06421  0.64246  0.35280  1.0000
  C   C1475     1.0  0.06988  0.63006  0.34715  1.0000
  C   C1476     1.0  0.08246  0.62052  0.35086  1.0000
  C   C1477     1.0  0.08942  0.62355  0.35992  1.0000
  H   H2609     1.0  0.06645  0.65487  0.36641  1.0000
  H   H2610     1.0  0.05454  0.64991  0.34999  1.0000
  H   H2611     1.0  0.08698  0.61097  0.34655  1.0000
  H   H2612     1.0  0.09933  0.61630  0.36248  1.0000
  C   C1478     1.0  0.02067  0.66864  0.39621  1.0000
  C   C1479     1.0  0.00886  0.57435  0.29595  1.0000
  H   H2613     1.0  0.04123  0.72604  0.39331  1.0000
  H   H2614     1.0  0.00393  0.49818  0.36215  1.0000
  C   C1480     1.0  0.02440  0.64674  0.38819  1.0000
  C   C1481     1.0  0.03006  0.65700  0.39080  1.0000
  H   H2615     1.0  0.03176  0.63773  0.38414  1.0000
  H   H2616     1.0  0.04171  0.65589  0.38852  1.0000
  H   H2617     1.0  0.04804  0.60866  0.45674  1.0000
  H   H2618     1.0  0.01181  0.60113  0.39430  1.0000
  H   H2619     1.0  0.05419  0.53931  0.31797  1.0000
  C   C1482     1.0  0.09602  0.57118  0.24995  1.0000
  C   C1483     1.0  0.07840  0.56849  0.27772  1.0000
  C   C1484     1.0  0.07727  0.56093  0.26822  1.0000
  H   H2620     1.0  0.02638  0.65173  0.35773  1.0000
  H   H2621     1.0  0.07162  0.56738  0.28844  1.0000
  H   H2622     1.0  0.06967  0.55392  0.27169  1.0000
  C   C1485     1.0  0.11363  0.70001  0.43588  1.0000
  C   C1486     1.0  0.11557  0.68777  0.43056  1.0000
  C   C1487     1.0  0.10674  0.68751  0.42172  1.0000
  C   C1488     1.0  0.09596  0.69957  0.41793  1.0000
  C   C1489     1.0  0.09397  0.71181  0.42329  1.0000
  C   C1490     1.0  0.10262  0.71198  0.43238  1.0000
  H   H2623     1.0  0.12404  0.67846  0.43320  1.0000
  H   H2624     1.0  0.10853  0.67809  0.41750  1.0000
  H   H2625     1.0  0.08571  0.72124  0.42036  1.0000
  H   H2626     1.0  0.10097  0.72147  0.43641  1.0000
  H   H2627     1.0  0.09679  0.66931  0.47613  1.0000
  H   H2628     1.0  0.09421  0.61493  0.40229  1.0000
  C   C1491     1.0  0.06273  0.51733  0.24164  1.0000
  H   H2629     1.0  0.03154  0.54235  0.31309  1.0000
  H   H2630     1.0  0.02575  0.70380  0.41602  1.0000
  H   H2631     1.0  0.04949  0.62974  0.24056  1.0000
  H   H2632     1.0  0.03332  0.54012  0.37049  1.0000
  C   C1492     1.0  0.15830  0.50585  0.28065  1.0000
  H   H2633     1.0  0.15244  0.57001  0.24822  1.0000
  H   H2634     1.0  0.06051  0.55376  0.43695  1.0000
  C   C1493     1.0  0.06258  0.59001  0.46584  1.0000
  C   C1494     1.0  0.02947  0.63914  0.31374  1.0000
  C   C1495     1.0  0.02795  0.57530  0.30662  1.0000
  H   H2635     1.0  0.13907  0.68272  0.39089  1.0000
  H   H2636     1.0  0.03369  0.52472  0.29100  1.0000
  H   H2637     1.0  0.12588  0.72419  0.41780  1.0000
  H   H2638     1.0  0.08988  0.52429  0.27116  1.0000
  C   C1496     1.0  0.02556  0.71504  0.40991  1.0000
  H   H2639     1.0  0.07181  0.52583  0.25429  1.0000
  H   H2640     1.0  0.01576  0.50171  0.46450  1.0000
  H   H2641     1.0  0.07067  0.61993  0.27969  1.0000
  H   H2642     1.0  0.03102  0.61174  0.38720  1.0000
  H   H2643     1.0  0.17301  0.73513  0.39410  1.0000
  C   C1497     1.0  0.04001  0.62037  0.43259  1.0000
  H   H2644     1.0  0.14248  0.67880  0.40856  1.0000
  H   H2645     1.0  0.02530  0.56882  0.35998  1.0000
  H   H2646     1.0  0.02369  0.66097  0.31674  1.0000
  H   H2647     1.0  0.13823  0.50839  0.27487  1.0000
  H   H2648     1.0  0.04365  0.63510  0.29355  1.0000
  H   H2649     1.0  0.05074  0.51393  0.33462  1.0000
  C   C1498     1.0  0.05404  0.61041  0.38116  1.0000
  H   H2650     1.0  0.04624  0.61371  0.28314  1.0000
  H   H2651     1.0  0.04911  0.54545  0.33437  1.0000
  H   H2652     1.0  0.09720  0.63988  0.44948  1.0000
  C   C1499     1.0  0.02587  0.64989  0.32343  1.0000
  H   H2653     1.0  0.01547  0.60532  0.27762  1.0000
  H   H2654     1.0  0.01468  0.51725  0.36318  1.0000
  C   C1500     1.0  0.14432  0.56387  0.24882  1.0000
  C   C1501     1.0  0.13619  0.52605  0.28491  1.0000
  C   C1502     1.0  0.06200  0.58045  0.43992  1.0000
  S   S336      1.0  0.12504  0.74123  0.44310  1.0000
  C   C1503     1.0  0.17601  0.71777  0.42733  1.0000
  H   H2655     1.0  0.06749  0.60168  0.26879  1.0000
  H   H2656     1.0  0.01624  0.54075  0.43349  1.0000
  H   H2657     1.0  0.04008  0.60493  0.37135  1.0000
  H   H2658     1.0  0.10702  0.64253  0.46109  1.0000
  H   H2659     1.0  0.03170  0.56543  0.28886  1.0000
  H   H2660     1.0  0.00995  0.51502  0.48378  1.0000
  H   H2661     1.0  0.04224  0.69899  0.43683  1.0000
  H   H2662     1.0  0.16887  0.71808  0.43814  1.0000
  H   H2663     1.0  0.05264  0.62157  0.37470  1.0000
  H   H2664     1.0  0.02963  0.63254  0.34747  1.0000
  H   H2665     1.0  0.06579  0.58240  0.41653  1.0000
  C   C1504     1.0  0.02312  0.53132  0.29562  1.0000
  H   H2666     1.0  0.07564  0.53838  0.32713  1.0000
  H   H2667     1.0  0.04953  0.60344  0.42088  1.0000
  H   H2668     1.0  0.03267  0.50584  0.36008  1.0000
  H   H2669     1.0  0.07365  0.65615  0.45993  1.0000
  H   H2670     1.0  0.04337  0.52323  0.34887  1.0000
  H   H2671     1.0  0.04846  0.57849  0.42673  1.0000
  H   H2672     1.0  0.04630  0.56735  0.26554  1.0000
  H   H2673     1.0  0.02395  0.62377  0.41995  1.0000
  H   H2674     1.0  0.00833  0.70506  0.43509  1.0000
  C   C1505     1.0  0.06022  0.57631  0.42673  1.0000
  H   H2675     1.0  0.03935  0.57292  0.30687  1.0000
  C   C1506     1.0  0.01566  0.62004  0.34574  1.0000
  H   H2676     1.0  0.13590  0.56297  0.27113  1.0000
  C   C1507     1.0  0.09711  0.57876  0.25940  1.0000
  H   H2677     1.0  0.11006  0.53647  0.25707  1.0000
  H   H2678     1.0  0.14395  0.70712  0.38587  1.0000
  H   H2679     1.0  0.06891  0.61306  0.43815  1.0000
  H   H2680     1.0  0.15400  0.73341  0.41621  1.0000
  H   H2681     1.0  0.06420  0.60388  0.37575  1.0000
  C   C1508     1.0  0.04046  0.71500  0.39959  1.0000
  H   H2682     1.0  0.11917  0.55455  0.26180  1.0000
  H   H2683     1.0  0.09121  0.66630  0.43982  1.0000
  H   H2684     1.0  0.02797  0.67459  0.36113  1.0000
  H   H2685     1.0  0.05609  0.53380  0.40386  1.0000
  H   H2686     1.0  0.15990  0.69879  0.40520  1.0000
  H   H2687     1.0  0.02467  0.60320  0.41180  1.0000
  H   H2688     1.0  0.06872  0.61326  0.41248  1.0000
  H   H2689     1.0  0.08299  0.65579  0.47274  1.0000
  H   H2690     1.0  0.05511  0.61059  0.39189  1.0000
  H   H2691     1.0  0.02355  0.54282  0.29171  1.0000
  H   H2692     1.0  0.07346  0.57574  0.44106  1.0000
  C   C1509     1.0  0.01335  0.56793  0.44949  1.0000
  C   C1510     1.0  0.05819  0.67481  0.47700  1.0000
  N   N83       1.0  0.02938  0.52771  0.33396  1.0000
  H   H2693     1.0  0.10279  0.57237  0.23922  1.0000
  H   H2694     1.0  0.00911  0.67360  0.36534  1.0000
  H   H2695     1.0  0.05614  0.55939  0.39690  1.0000
  C   C1511     1.0  0.04590  0.60422  0.43227  1.0000
  H   H2696     1.0  0.03175  0.62152  0.44271  1.0000
  C   C1512     1.0  0.04085  0.60448  0.38236  1.0000
  H   H2697     1.0  0.08678  0.62342  0.41731  1.0000
  H   H2698     1.0  0.06508  0.55762  0.41765  1.0000
  H   H2699     1.0  0.04677  0.54172  0.41908  1.0000
  H   H2700     1.0  0.02326  0.59194  0.37428  1.0000
  S   S337      1.0  0.02231  0.58838  0.32913  1.0000
  H   H2701     1.0  0.02431  0.58762  0.26692  1.0000
  H   H2702     1.0  0.05140  0.65762  0.47212  1.0000
  C   C1513     1.0  0.04252  0.58883  0.39136  1.0000
  C   C1514     1.0  0.04107  0.64305  0.30027  1.0000
  S   S338      1.0  0.00896  0.51019  0.42344  1.0000
  C   C1515     1.0  0.02728  0.58107  0.38063  1.0000
  C   C1516     1.0  0.14022  0.55516  0.26409  1.0000
  C   C1517     1.0  0.02336  0.66152  0.34952  1.0000
  H   H2703     1.0  0.00966  0.61464  0.30774  1.0000
  H   H2704     1.0  0.07821  0.55745  0.42719  1.0000
  H   H2705     1.0  0.01195  0.51628  0.33916  1.0000
  C   C1518     1.0  0.02185  0.50896  0.35732  1.0000
  C   C1519     1.0  0.01485  0.62393  0.28481  1.0000
  C   C1520     1.0  0.04311  0.57480  0.25579  1.0000
  C   C1521     1.0  0.07105  0.60283  0.43468  1.0000
  N   N84       1.0  0.02959  0.58217  0.39457  1.0000
  H   H2706     1.0  0.02438  0.72198  0.41729  1.0000
  H   H2707     1.0  0.03400  0.62827  0.31956  1.0000
  H   H2708     1.0  0.01434  0.52953  0.29174  1.0000
  H   H2709     1.0  0.04650  0.58894  0.27441  1.0000
  H   H2710     1.0  0.06021  0.67783  0.44771  1.0000
  H   H2711     1.0  0.04547  0.58847  0.40145  1.0000
  H   H2712     1.0  0.11320  0.64731  0.44189  1.0000
  C   C1522     1.0  0.03262  0.56757  0.40443  1.0000
  N   N85       1.0  0.12374  0.53745  0.27982  1.0000
  C   C1523     1.0  0.11165  0.53089  0.27954  1.0000
  C   C1524     1.0  0.11762  0.54719  0.29034  1.0000
  H   H2713     1.0  0.14333  0.70031  0.41827  1.0000
  C   C1525     1.0  0.10931  0.54060  0.30546  1.0000
  H   H2714     1.0  0.00880  0.58247  0.36232  1.0000
  H   H2715     1.0  0.01210  0.63562  0.35837  1.0000
  C   C1526     1.0  0.10457  0.55128  0.31519  1.0000
  C   C1527     1.0  0.05477  0.58877  0.48159  1.0000
  C   C1528     1.0  0.04429  0.52441  0.33723  1.0000
  H   H2716     1.0  0.11000  0.55702  0.28588  1.0000
  C   C1529     1.0  0.00460  0.54606  0.33730  1.0000
  H   H2717     1.0  0.08126  0.49925  0.24386  1.0000
  H   H2718     1.0  0.11623  0.53079  0.31073  1.0000
  H   H2719     1.0  0.09932  0.53781  0.30489  1.0000
  H   H2720     1.0  0.14917  0.55670  0.24116  1.0000
  H   H2721     1.0  0.14623  0.71916  0.42762  1.0000
  H   H2722     1.0  0.06095  0.70736  0.45192  1.0000
  H   H2723     1.0  0.13334  0.54014  0.25702  1.0000
  H   H2724     1.0  0.06931  0.50931  0.38570  1.0000
  H   H2725     1.0  0.03147  0.59617  0.24884  1.0000
  H   H2726     1.0  0.09837  0.54654  0.32583  1.0000
  H   H2727     1.0  0.09747  0.56133  0.31047  1.0000
  S   S339      1.0  0.09069  0.58675  0.28487  1.0000
  H   H2728     1.0  0.05127  0.64285  0.30323  1.0000
  H   H2729     1.0  0.16564  0.71735  0.38677  1.0000
  C   C1530     1.0  0.04624  0.54145  0.40819  1.0000
  H   H2730     1.0  0.05394  0.59629  0.25640  1.0000
  C   C1531     1.0  0.04570  0.55635  0.39825  1.0000
  C   C1532     1.0  0.01589  0.59118  0.40194  1.0000
  H   H2731     1.0  0.04184  0.59268  0.46022  1.0000
  H   H2732     1.0  0.04098  0.62852  0.40976  1.0000
  H   H2733     1.0  0.03636  0.59904  0.43667  1.0000
  H   H2734     1.0  0.03782  0.57673  0.37376  1.0000
  H   H2735     1.0  0.12645  0.55105  0.29210  1.0000
  H   H2736     1.0  0.04558  0.69908  0.46044  1.0000
  H   H2737     1.0  0.08086  0.59568  0.41449  1.0000
  C   C1533     1.0  0.03281  0.62860  0.42006  1.0000
  C   C1534     1.0  0.12874  0.54663  0.26528  1.0000
  H   H2738     1.0  0.01976  0.63891  0.31029  1.0000
  Fe  Fe173     1.0  0.12614  0.72610  0.48315  1.0000
  N   N86       1.0  0.14787  0.72074  0.40516  1.0000
  H   H2739     1.0  0.08731  0.68967  0.45712  1.0000
  H   H2740     1.0  0.14398  0.53110  0.28697  1.0000
  H   H2741     1.0  0.09902  0.60589  0.41925  1.0000
  H   H2742     1.0  0.04506  0.55542  0.38771  1.0000
  C   C1535     1.0  0.01647  0.57175  0.38196  1.0000
  H   H2743     1.0  0.07083  0.59653  0.46359  1.0000
  H   H2744     1.0  0.16729  0.73946  0.46999  1.0000
  H   H2745     1.0  0.03317  0.66296  0.34086  1.0000
  H   H2746     1.0  0.06838  0.57903  0.46438  1.0000
  C   C1536     1.0  0.07704  0.60584  0.41826  1.0000
  H   H2747     1.0  0.05232  0.58246  0.38524  1.0000
  H   H2748     1.0  0.10160  0.51546  0.25722  1.0000
  H   H2749     1.0  0.10086  0.66887  0.45157  1.0000
  C   C1537     1.0  0.05176  0.59729  0.45578  1.0000
  C   C1538     1.0  0.04904  0.70585  0.43765  1.0000
  C   C1539     1.0  0.09006  0.61293  0.41410  1.0000
  H   H2750     1.0  0.04101  0.67533  0.46629  1.0000
  C   C1540     1.0  0.02025  0.54059  0.33988  1.0000
  H   H2751     1.0  0.04202  0.52460  0.31291  1.0000
  C   C1541     1.0  0.08843  0.57735  0.27334  1.0000
  H   H2752     1.0  0.01670  0.68460  0.34854  1.0000
  H   H2753     1.0  0.04923  0.71088  0.40569  1.0000
  H   H2754     1.0  0.05534  0.57416  0.44930  1.0000
  H   H2755     1.0  0.06539  0.61490  0.25266  1.0000
  C   C1542     1.0  0.01792  0.63439  0.34732  1.0000
  H   H2756     1.0  0.01653  0.65656  0.44757  1.0000
  N   N87       1.0  0.07080  0.67694  0.46433  1.0000
  C   C1543     1.0  0.08000  0.66233  0.46250  1.0000
  C   C1544     1.0  0.01461  0.57174  0.36728  1.0000
  C   C1545     1.0  0.06549  0.68469  0.45079  1.0000
  C   C1546     1.0  0.07945  0.68587  0.46709  1.0000
  H   H2757     1.0  0.06477  0.50992  0.26392  1.0000
  C   C1547     1.0  0.09405  0.66223  0.45048  1.0000
  C   C1548     1.0  0.05504  0.69963  0.45121  1.0000
  N   N88       1.0  0.05781  0.59627  0.44031  1.0000
  C   C1549     1.0  0.10340  0.64702  0.45082  1.0000
  C   C1550     1.0  0.04349  0.59638  0.26447  1.0000
  C   C1551     1.0  0.08616  0.56218  0.25433  1.0000
  H   H2758     1.0  0.03628  0.56994  0.25213  1.0000
  H   H2759     1.0  0.18664  0.71038  0.42861  1.0000
  H   H2760     1.0  0.16434  0.49834  0.27348  1.0000
  H   H2761     1.0  0.02548  0.54997  0.33501  1.0000
  H   H2762     1.0  0.02135  0.58640  0.42307  1.0000
  H   H2763     1.0  0.16796  0.70133  0.42394  1.0000
  C   C1552     1.0  0.00996  0.54423  0.48622  1.0000
  C   C1553     1.0  0.04649  0.66823  0.47490  1.0000
  H   H2764     1.0  0.03649  0.53745  0.40889  1.0000
  H   H2765     1.0  0.15705  0.68181  0.39290  1.0000
  C   C1554     1.0  0.05366  0.53583  0.32965  1.0000
  C   C1555     1.0  0.00939  0.51298  0.46310  1.0000
  C   C1556     1.0  0.04200  0.62337  0.24021  1.0000
  H   H2766     1.0  0.15489  0.49941  0.29160  1.0000
  H   H2767     1.0  0.07476  0.52085  0.32615  1.0000
  C   C1557     1.0  0.01552  0.49549  0.36282  1.0000
  C   C1558     1.0  0.06931  0.52985  0.33168  1.0000
  H   H2768     1.0  0.03506  0.56847  0.41431  1.0000
  H   H2769     1.0  0.10094  0.53866  0.28128  1.0000
  H   H2770     1.0  0.02736  0.60201  0.28925  1.0000
  Fe  Fe174     1.0  0.01605  0.51854  0.39968  1.0000
  H   H2771     1.0  0.16578  0.51234  0.28082  1.0000
  C   C1559     1.0  0.07202  0.62178  0.26791  1.0000
  C   C1560     1.0  0.02356  0.60981  0.27987  1.0000
  H   H2772     1.0  0.02058  0.56043  0.38706  1.0000
  H   H2773     1.0  0.00858  0.63103  0.27678  1.0000
  H   H2774     1.0  0.12320  0.52027  0.26125  1.0000
  H   H2775     1.0  0.06945  0.52594  0.34324  1.0000
  C   C1561     1.0  0.14839  0.70496  0.40703  1.0000
  H   H2776     1.0  0.07211  0.69588  0.47006  1.0000
  C   C1562     1.0  0.08802  0.67851  0.47911  1.0000
  H   H2777     1.0  0.04846  0.61296  0.23763  1.0000
  H   H2778     1.0  0.04720  0.58138  0.48465  1.0000
  H   H2779     1.0  0.10283  0.69318  0.47182  1.0000
  C   C1563     1.0  0.16902  0.71252  0.41844  1.0000
  H   H2780     1.0  0.00605  0.55460  0.47923  1.0000
  C   C1564     1.0  0.01128  0.54994  0.43832  1.0000
  C   C1565     1.0  0.14520  0.68514  0.39742  1.0000
  H   H2781     1.0  0.06225  0.66758  0.48648  1.0000
  C   C1566     1.0  0.15373  0.72210  0.41707  1.0000
  C   C1567     1.0  0.13206  0.72858  0.40696  1.0000
  H   H2782     1.0  0.02210  0.62991  0.28631  1.0000
  C   C1568     1.0  0.04680  0.61732  0.27139  1.0000
  H   H2783     1.0  0.12692  0.72681  0.39919  1.0000
  C   C1569     1.0  0.10102  0.51797  0.26755  1.0000
  S   S340      1.0  0.01597  0.59805  0.48564  1.0000
  H   H2784     1.0  0.02982  0.50550  0.33580  1.0000
  C   C1570     1.0  0.01896  0.67438  0.35654  1.0000
  H   H2785     1.0  0.06855  0.63345  0.26340  1.0000
  H   H2786     1.0  0.05244  0.52708  0.25999  1.0000
  H   H2787     1.0  0.02033  0.51547  0.31504  1.0000
  H   H2788     1.0  0.02137  0.61812  0.25313  1.0000
  C   C1571     1.0  0.01992  0.52719  0.31198  1.0000
  H   H2789     1.0  0.02608  0.63237  0.25675  1.0000
  H   H2790     1.0  0.08379  0.61820  0.26320  1.0000
  H   H2791     1.0  0.08690  0.69822  0.48538  1.0000
  Fe  Fe175     1.0  0.00873  0.58930  0.47097  1.0000
  H   H2792     1.0  0.17825  0.73614  0.36789  1.0000
  C   C1572     1.0  0.03071  0.62140  0.25463  1.0000
  H   H2793     1.0  0.00547  0.68075  0.43522  1.0000
  H   H2794     1.0  0.01698  0.53690  0.47918  1.0000
  C   C1573     1.0  0.09523  0.68902  0.48175  1.0000
  C   C1574     1.0  0.15658  0.72614  0.39039  1.0000
  C   C1575     1.0  0.01320  0.72027  0.40159  1.0000
  H   H2795     1.0  0.02860  0.55151  0.48691  1.0000
  S   S341      1.0  0.00329  0.56913  0.28329  1.0000
  C   C1576     1.0  0.00555  0.67037  0.39831  1.0000
  H   H2796     1.0  0.04856  0.59946  0.48368  1.0000
  H   H2797     1.0  0.02876  0.62483  0.48397  1.0000
  H   H2798     1.0  0.05360  0.51207  0.24358  1.0000
  H   H2799     1.0  0.01579  0.61982  0.33471  1.0000
  H   H2800     1.0  0.14962  0.72936  0.38242  1.0000
  H   H2801     1.0  0.01539  0.71219  0.39505  1.0000
  C   C1577     1.0  0.00934  0.64821  0.39064  1.0000
  H   H2802     1.0  0.00833  0.67099  0.33577  1.0000
  H   H2803     1.0  0.00692  0.58527  0.40570  1.0000
  H   H2804     1.0  0.00557  0.57573  0.38843  1.0000
  H   H2805     1.0  0.00817  0.56374  0.36847  1.0000
  H   H2806     1.0  0.00377  0.60590  0.43234  1.0000
  C   C1578     1.0  0.16384  0.73879  0.38855  1.0000
  C   C1579     1.0  0.00390  0.62090  0.29904  1.0000
  H   H2807     1.0  0.00500  0.55133  0.32583  1.0000
  H   H2808     1.0  0.17796  0.72870  0.42195  1.0000
  S   S342      1.0  0.14907  0.50951  0.23941  1.0000
  H   H2809     1.0  0.02651  0.66124  0.48667  1.0000
  H   H2810     1.0  0.00576  0.57390  0.55176  1.0000
  C   C1580     1.0  0.06942  0.50183  0.73566  1.0000
  S   S343      1.0  0.14171  0.71781  0.59926  1.0000
  S   S344      1.0  0.02504  0.56594  0.60821  1.0000
  H   H2811     1.0  0.04609  0.58360  0.59930  1.0000
  C   C1581     1.0  0.01073  0.51508  0.67592  1.0000
  C   C1582     1.0  0.00814  0.69458  0.64768  1.0000
  C   C1583     1.0  0.15658  0.70391  0.56133  1.0000
  H   H2812     1.0  0.06097  0.73548  0.62600  1.0000
  H   H2813     1.0  0.01316  0.55448  0.50147  1.0000
  H   H2814     1.0  0.00883  0.49571  0.61116  1.0000
  C   C1584     1.0  0.01903  0.61732  0.70039  1.0000
  H   H2815     1.0  0.02894  0.67636  0.49166  1.0000
  H   H2816     1.0  0.14721  0.73493  0.49233  1.0000
  S   S345      1.0  0.10483  0.51914  0.72623  1.0000
  H   H2817     1.0  0.00927  0.64650  0.55588  1.0000
  S   S346      1.0  0.06875  0.58787  0.71283  1.0000
  Fe  Fe176     1.0  0.06919  0.66509  0.63734  1.0000
  S   S347      1.0  0.07130  0.64198  0.64829  1.0000
  S   S348      1.0  0.05147  0.68285  0.64529  1.0000
  Fe  Fe177     1.0  0.09671  0.66003  0.61489  1.0000
  S   S349      1.0  0.10173  0.63605  0.62365  1.0000
  S   S350      1.0  0.10858  0.67328  0.59467  1.0000
  Fe  Fe178     1.0  0.07790  0.63745  0.62640  1.0000
  S   S351      1.0  0.06947  0.61804  0.62821  1.0000
  Fe  Fe179     1.0  0.09489  0.64122  0.64544  1.0000
  S   S352      1.0  0.10674  0.62654  0.66253  1.0000
  S   S353      1.0  0.07328  0.66091  0.61552  1.0000
  S   S354      1.0  0.09235  0.66508  0.63646  1.0000
  C   C1585     1.0  0.01955  0.54680  0.49455  1.0000
  H   H2818     1.0  0.01589  0.66988  0.62752  1.0000
  H   H2819     1.0  0.02429  0.53654  0.50132  1.0000
  S   S355      1.0  0.05697  0.51003  0.68329  1.0000
  C   C1586     1.0  0.00918  0.60623  0.61556  1.0000
  H   H2820     1.0  0.09774  0.68823  0.56443  1.0000
  H   H2821     1.0  0.20600  0.71560  0.57131  1.0000
  H   H2822     1.0  0.01495  0.54990  0.68929  1.0000
  S   S356      1.0  0.09539  0.51229  0.65760  1.0000
  H   H2823     1.0  0.05050  0.54838  0.63727  1.0000
  H   H2824     1.0  0.14364  0.66391  0.53425  1.0000
  Fe  Fe180     1.0  0.07277  0.57304  0.57763  1.0000
  S   S357      1.0  0.06717  0.55784  0.59871  1.0000
  S   S358      1.0  0.08303  0.59183  0.57400  1.0000
  Fe  Fe181     1.0  0.06095  0.55803  0.56202  1.0000
  S   S359      1.0  0.05411  0.54168  0.58188  1.0000
  S   S360      1.0  0.05920  0.55877  0.53984  1.0000
  Fe  Fe182     1.0  0.04620  0.56047  0.59254  1.0000
  Fe  Fe183     1.0  0.07573  0.54066  0.58620  1.0000
  S   S361      1.0  0.09145  0.52054  0.59392  1.0000
  S   S362      1.0  0.05111  0.57685  0.57226  1.0000
  S   S363      1.0  0.08323  0.55556  0.56554  1.0000
  C   C1587     1.0  0.15049  0.64116  0.55458  1.0000
  C   C1588     1.0  0.09620  0.50095  0.71589  1.0000
  C   C1589     1.0  0.01418  0.57484  0.52925  1.0000
  C   C1590     1.0  0.02671  0.57254  0.51846  1.0000
  C   C1591     1.0  0.04047  0.56768  0.52185  1.0000
  C   C1592     1.0  0.04179  0.56521  0.53601  1.0000
  C   C1593     1.0  0.02927  0.56759  0.54683  1.0000
  H   H2825     1.0  0.10734  0.58921  0.65276  1.0000
  H   H2826     1.0  0.13757  0.70651  0.55341  1.0000
  H   H2827     1.0  0.05014  0.56575  0.51349  1.0000
  H   H2828     1.0  0.04886  0.71540  0.64027  1.0000
  H   H2829     1.0  0.02835  0.57650  0.68175  1.0000
  C   C1594     1.0  0.09484  0.51616  0.63955  1.0000
  C   C1595     1.0  0.08159  0.52267  0.63549  1.0000
  C   C1596     1.0  0.08074  0.52483  0.62125  1.0000
  C   C1597     1.0  0.09293  0.51969  0.61124  1.0000
  C   C1598     1.0  0.10625  0.51323  0.61531  1.0000
  C   C1599     1.0  0.10728  0.51172  0.62941  1.0000
  H   H2830     1.0  0.07200  0.52599  0.64338  1.0000
  H   H2831     1.0  0.07051  0.53006  0.61819  1.0000
  H   H2832     1.0  0.11573  0.50935  0.60756  1.0000
  H   H2833     1.0  0.19398  0.73259  0.57374  1.0000
  C   C1600     1.0  0.07249  0.61154  0.61285  1.0000
  C   C1601     1.0  0.07022  0.59784  0.61451  1.0000
  C   C1602     1.0  0.07326  0.59190  0.60258  1.0000
  C   C1603     1.0  0.07859  0.59957  0.58890  1.0000
  C   C1604     1.0  0.08082  0.61335  0.58720  1.0000
  C   C1605     1.0  0.07766  0.61939  0.59919  1.0000
  H   H2834     1.0  0.06621  0.59176  0.62506  1.0000
  H   H2835     1.0  0.07157  0.58134  0.60404  1.0000
  H   H2836     1.0  0.08491  0.61936  0.57663  1.0000
  H   H2837     1.0  0.07923  0.63007  0.59789  1.0000
  C   C1606     1.0  0.03413  0.68420  0.64261  1.0000
  C   C1607     1.0  0.02227  0.69388  0.64878  1.0000
  C   C1608     1.0  0.03187  0.67557  0.63485  1.0000
  H   H2838     1.0  0.04100  0.66818  0.62993  1.0000
  H   H2839     1.0  0.02167  0.51501  0.69189  1.0000
  C   C1609     1.0  0.00727  0.52561  0.60514  1.0000
  C   C1610     1.0  0.03031  0.51779  0.61295  1.0000
  H   H2840     1.0  0.00965  0.62419  0.52112  1.0000
  C   C1611     1.0  0.01448  0.60159  0.57086  1.0000
  H   H2841     1.0  0.10150  0.60614  0.62327  1.0000
  C   C1612     1.0  0.09275  0.50893  0.72637  1.0000
  C   C1613     1.0  0.07250  0.49463  0.72456  1.0000
  H   H2842     1.0  0.10156  0.68347  0.49016  1.0000
  H   H2843     1.0  0.13966  0.66010  0.56270  1.0000
  H   H2844     1.0  0.11700  0.59367  0.58883  1.0000
  H   H2845     1.0  0.06310  0.60097  0.53463  1.0000
  H   H2846     1.0  0.03942  0.65842  0.49748  1.0000
  H   H2847     1.0  0.00750  0.61670  0.70213  1.0000
  H   H2848     1.0  0.14214  0.68814  0.51011  1.0000
  H   H2849     1.0  0.02021  0.52883  0.73127  1.0000
  C   C1614     1.0  0.09633  0.61602  0.67703  1.0000
  C   C1615     1.0  0.08115  0.62033  0.68071  1.0000
  C   C1616     1.0  0.07293  0.61169  0.69186  1.0000
  C   C1617     1.0  0.07979  0.59875  0.69969  1.0000
  C   C1618     1.0  0.09503  0.59459  0.69642  1.0000
  C   C1619     1.0  0.10328  0.60318  0.68506  1.0000
  H   H2850     1.0  0.07572  0.63054  0.67527  1.0000
  H   H2851     1.0  0.06119  0.61515  0.69452  1.0000
  H   H2852     1.0  0.10045  0.58475  0.70257  1.0000
  H   H2853     1.0  0.11504  0.59988  0.68247  1.0000
  C   C1620     1.0  0.13149  0.70620  0.59820  1.0000
  C   C1621     1.0  0.12477  0.70894  0.58676  1.0000
  C   C1622     1.0  0.11749  0.69894  0.58592  1.0000
  C   C1623     1.0  0.11671  0.68624  0.59657  1.0000
  C   C1624     1.0  0.12296  0.68381  0.60824  1.0000
  C   C1625     1.0  0.13034  0.69372  0.60902  1.0000
  H   H2854     1.0  0.12545  0.71859  0.57844  1.0000
  H   H2855     1.0  0.11241  0.70111  0.57702  1.0000
  H   H2856     1.0  0.12248  0.67406  0.61648  1.0000
  H   H2857     1.0  0.13546  0.69156  0.61793  1.0000
  H   H2858     1.0  0.04403  0.60889  0.59878  1.0000
  C   C1626     1.0  0.03460  0.60415  0.60356  1.0000
  H   H2859     1.0  0.14010  0.49713  0.73336  1.0000
  H   H2860     1.0  0.01866  0.59376  0.56385  1.0000
  C   C1627     1.0  0.03574  0.58977  0.60379  1.0000
  H   H2861     1.0  0.10081  0.69215  0.54514  1.0000
  H   H2862     1.0  0.06208  0.50288  0.62600  1.0000
  C   C1628     1.0  0.08606  0.49393  0.71493  1.0000
  H   H2863     1.0  0.09589  0.68697  0.65477  1.0000
  H   H2864     1.0  0.01313  0.50488  0.72511  1.0000
  H   H2865     1.0  0.01305  0.52695  0.63731  1.0000
  H   H2866     1.0  0.02396  0.70058  0.65477  1.0000
  H   H2867     1.0  0.04010  0.72225  0.66335  1.0000
  C   C1629     1.0  0.06905  0.71198  0.61503  1.0000
  H   H2868     1.0  0.09419  0.72987  0.50349  1.0000
  H   H2869     1.0  0.15300  0.69721  0.57209  1.0000
  H   H2870     1.0  0.14728  0.68061  0.56103  1.0000
  H   H2871     1.0  0.12874  0.70070  0.53752  1.0000
  H   H2872     1.0  0.13763  0.57569  0.59314  1.0000
  H   H2873     1.0  0.03406  0.51174  0.60425  1.0000
  H   H2874     1.0  0.02671  0.60185  0.65577  1.0000
  H   H2875     1.0  0.12746  0.68664  0.53092  1.0000
  S   S364      1.0  0.02655  0.50855  0.66408  1.0000
  C   C1630     1.0  0.01768  0.67642  0.63359  1.0000
  H   H2876     1.0  0.11120  0.69467  0.65261  1.0000
  H   H2877     1.0  0.10592  0.62658  0.59101  1.0000
  H   H2878     1.0  0.03668  0.62069  0.65595  1.0000
  H   H2879     1.0  0.25336  0.73338  0.53120  1.0000
  C   C1631     1.0  0.00820  0.62192  0.55027  1.0000
  H   H2880     1.0  0.10478  0.70381  0.55392  1.0000
  H   H2881     1.0  0.03373  0.52819  0.60794  1.0000
  H   H2882     1.0  0.11221  0.56395  0.62213  1.0000
  C   C1632     1.0  0.01002  0.54025  0.59533  1.0000
  C   C1633     1.0  0.00337  0.63996  0.67879  1.0000
  Fe  Fe184     1.0  0.07746  0.56930  0.72963  1.0000
  H   H2883     1.0  0.10645  0.50071  0.70809  1.0000
  H   H2884     1.0  0.07351  0.73038  0.63720  1.0000
  C   C1634     1.0  0.03375  0.63678  0.63705  1.0000
  H   H2885     1.0  0.03624  0.62822  0.63102  1.0000
  H   H2886     1.0  0.02513  0.64555  0.63293  1.0000
  C   C1635     1.0  0.02360  0.58357  0.60957  1.0000
  H   H2887     1.0  0.03934  0.55872  0.68053  1.0000
  S   S365      1.0  0.12461  0.71911  0.50704  1.0000
  H   H2888     1.0  0.14125  0.56137  0.62430  1.0000
  H   H2889     1.0  0.03945  0.57621  0.65854  1.0000
  H   H2890     1.0  0.02723  0.54040  0.66893  1.0000
  C   C1636     1.0  0.20727  0.73264  0.55204  1.0000
  C   C1637     1.0  0.08736  0.70389  0.62956  1.0000
  H   H2891     1.0  0.01328  0.63030  0.54193  1.0000
  C   C1638     1.0  0.02857  0.63072  0.65301  1.0000
  H   H2892     1.0  0.02405  0.56039  0.63959  1.0000
  H   H2893     1.0  0.10608  0.57550  0.59172  1.0000
  H   H2894     1.0  0.01426  0.62220  0.58251  1.0000
  H   H2895     1.0  0.15152  0.70158  0.52235  1.0000
  H   H2896     1.0  0.17383  0.69122  0.49709  1.0000
  H   H2897     1.0  0.01925  0.54336  0.64781  1.0000
  H   H2898     1.0  0.15344  0.71534  0.56214  1.0000
  S   S366      1.0  0.06999  0.54874  0.73388  1.0000
  H   H2899     1.0  0.13562  0.55326  0.61334  1.0000
  C   C1639     1.0  0.03084  0.59676  0.64642  1.0000
  C   C1640     1.0  0.02768  0.64130  0.66219  1.0000
  C   C1641     1.0  0.11097  0.56691  0.59996  1.0000
  H   H2900     1.0  0.11933  0.49540  0.58361  1.0000
  C   C1642     1.0  0.02731  0.54977  0.64663  1.0000
  H   H2901     1.0  0.11739  0.61931  0.57582  1.0000
  H   H2902     1.0  0.09428  0.60587  0.64885  1.0000
  H   H2903     1.0  0.12226  0.56224  0.59486  1.0000
  N   N89       1.0  0.01395  0.52045  0.61809  1.0000
  H   H2904     1.0  0.14094  0.64060  0.55102  1.0000
  C   C1643     1.0  0.10245  0.55502  0.60469  1.0000
  H   H2905     1.0  0.01270  0.64901  0.69526  1.0000
  H   H2906     1.0  0.02208  0.59835  0.71751  1.0000
  H   H2907     1.0  0.12001  0.67216  0.55419  1.0000
  H   H2908     1.0  0.06127  0.72135  0.61012  1.0000
  H   H2909     1.0  0.01249  0.50379  0.63758  1.0000
  H   H2910     1.0  0.16708  0.68728  0.52402  1.0000
  C   C1644     1.0  0.14411  0.73565  0.50345  1.0000
  C   C1645     1.0  0.08318  0.73704  0.50400  1.0000
  H   H2911     1.0  0.06134  0.60283  0.55250  1.0000
  C   C1646     1.0  0.13099  0.68883  0.53958  1.0000
  H   H2912     1.0  0.20018  0.72766  0.50553  1.0000
  H   H2913     1.0  0.10769  0.54558  0.61203  1.0000
  H   H2914     1.0  0.02355  0.61524  0.67875  1.0000
  H   H2915     1.0  0.16069  0.63696  0.54724  1.0000
  H   H2916     1.0  0.03738  0.52021  0.73625  1.0000
  C   C1647     1.0  0.10502  0.69248  0.55425  1.0000
  C   C1648     1.0  0.15520  0.68968  0.52428  1.0000
  C   C1649     1.0  0.05704  0.60763  0.54261  1.0000
  C   C1650     1.0  0.14185  0.56111  0.61310  1.0000
  C   C1651     1.0  0.15367  0.68552  0.51094  1.0000
  H   H2917     1.0  0.03097  0.54957  0.70612  1.0000
  H   H2918     1.0  0.01802  0.60319  0.53990  1.0000
  H   H2919     1.0  0.09512  0.69771  0.62177  1.0000
  C   C1652     1.0  0.05679  0.71823  0.64446  1.0000
  H   H2920     1.0  0.16469  0.56263  0.60628  1.0000
  Fe  Fe185     1.0  0.04616  0.49903  0.67374  1.0000
  H   H2921     1.0  0.02681  0.68242  0.68091  1.0000
  H   H2922     1.0  0.13139  0.49754  0.71259  1.0000
  H   H2923     1.0  0.21328  0.73002  0.57222  1.0000
  C   C1653     1.0  0.15779  0.55542  0.60638  1.0000
  H   H2924     1.0  0.03694  0.49929  0.63017  1.0000
  H   H2925     1.0  0.12137  0.57665  0.63258  1.0000
  H   H2926     1.0  0.15911  0.65650  0.55924  1.0000
  H   H2927     1.0  0.03358  0.51655  0.72113  1.0000
  C   C1654     1.0  0.00909  0.50695  0.62716  1.0000
  C   C1655     1.0  0.11557  0.59640  0.59930  1.0000
  H   H2928     1.0  0.15033  0.63422  0.56550  1.0000
  C   C1656     1.0  0.15065  0.66661  0.53974  1.0000
  H   H2929     1.0  0.16210  0.66309  0.53391  1.0000
  H   H2930     1.0  0.11345  0.60540  0.64246  1.0000
  C   C1657     1.0  0.12051  0.68333  0.55362  1.0000
  C   C1658     1.0  0.02842  0.56138  0.70183  1.0000
  H   H2931     1.0  0.03244  0.66665  0.69407  1.0000
  H   H2932     1.0  0.00654  0.53614  0.57630  1.0000
  H   H2933     1.0  0.03746  0.61285  0.56653  1.0000
  H   H2934     1.0  0.12396  0.68357  0.56316  1.0000
  H   H2935     1.0  0.03643  0.56622  0.70372  1.0000
  H   H2936     1.0  0.02183  0.53966  0.59075  1.0000
  N   N90       1.0  0.08518  0.55926  0.67987  1.0000
  C   C1659     1.0  0.07206  0.57165  0.68087  1.0000
  C   C1660     1.0  0.08200  0.54590  0.69099  1.0000
  C   C1661     1.0  0.09724  0.56353  0.68327  1.0000
  C   C1662     1.0  0.09033  0.55622  0.66504  1.0000
  C   C1663     1.0  0.07883  0.55341  0.65882  1.0000
  C   C1664     1.0  0.07383  0.58603  0.66996  1.0000
  C   C1665     1.0  0.11150  0.55182  0.68420  1.0000
  C   C1666     1.0  0.06631  0.54355  0.69461  1.0000
  C   C1667     1.0  0.06509  0.52895  0.70445  1.0000
  C   C1668     1.0  0.08396  0.55460  0.64267  1.0000
  C   C1669     1.0  0.05939  0.59709  0.67088  1.0000
  C   C1670     1.0  0.12257  0.55735  0.68816  1.0000
  H   H2937     1.0  0.06889  0.57380  0.69183  1.0000
  H   H2938     1.0  0.06231  0.56901  0.67963  1.0000
  H   H2939     1.0  0.08968  0.53608  0.68785  1.0000
  H   H2940     1.0  0.08394  0.54598  0.70148  1.0000
  H   H2941     1.0  0.09326  0.56694  0.69370  1.0000
  H   H2942     1.0  0.10048  0.57298  0.67515  1.0000
  H   H2943     1.0  0.09522  0.56507  0.65737  1.0000
  H   H2944     1.0  0.09937  0.54650  0.66484  1.0000
  H   H2945     1.0  0.06823  0.56113  0.66051  1.0000
  H   H2946     1.0  0.07711  0.54233  0.66378  1.0000
  H   H2947     1.0  0.08173  0.59072  0.67222  1.0000
  H   H2948     1.0  0.07751  0.58459  0.65878  1.0000
  H   H2949     1.0  0.11664  0.54874  0.67376  1.0000
  H   H2950     1.0  0.10942  0.54203  0.69248  1.0000
  H   H2951     1.0  0.05887  0.55170  0.70047  1.0000
  H   H2952     1.0  0.06255  0.54429  0.68493  1.0000
  H   H2953     1.0  0.06750  0.52838  0.71482  1.0000
  H   H2954     1.0  0.05384  0.52740  0.70654  1.0000
  H   H2955     1.0  0.07277  0.52024  0.69945  1.0000
  H   H2956     1.0  0.09453  0.54693  0.64012  1.0000
  H   H2957     1.0  0.07577  0.55204  0.63858  1.0000
  H   H2958     1.0  0.08507  0.56573  0.63716  1.0000
  H   H2959     1.0  0.05504  0.59864  0.68200  1.0000
  H   H2960     1.0  0.06118  0.60754  0.66366  1.0000
  H   H2961     1.0  0.05131  0.59356  0.66755  1.0000
  H   H2962     1.0  0.13272  0.54889  0.68863  1.0000
  H   H2963     1.0  0.12529  0.56705  0.68007  1.0000
  H   H2964     1.0  0.11816  0.56008  0.69884  1.0000
  H   H2965     1.0  0.12793  0.59233  0.62328  1.0000
  H   H2966     1.0  0.01792  0.62803  0.65459  1.0000
  C   C1671     1.0  0.04075  0.60802  0.54571  1.0000
  C   C1672     1.0  0.00579  0.68572  0.64026  1.0000
  H   H2967     1.0  0.02716  0.59459  0.69992  1.0000
  H   H2968     1.0  0.01165  0.51767  0.59819  1.0000
  H   H2969     1.0  0.03359  0.62781  0.55234  1.0000
  H   H2970     1.0  0.02346  0.60175  0.63888  1.0000
  N   N91       1.0  0.14706  0.68265  0.53872  1.0000
  N   N92       1.0  0.01544  0.56255  0.66767  1.0000
  H   H2971     1.0  0.10369  0.60084  0.60248  1.0000
  C   C1673     1.0  0.00919  0.53151  0.62714  1.0000
  H   H2972     1.0  0.08363  0.69254  0.60862  1.0000
  H   H2973     1.0  0.15405  0.70849  0.53990  1.0000
  H   H2974     1.0  0.04184  0.59884  0.64085  1.0000
  H   H2975     1.0  0.04546  0.53118  0.64566  1.0000
  C   C1674     1.0  0.12374  0.60863  0.59622  1.0000
  C   C1675     1.0  0.13325  0.72892  0.51295  1.0000
  H   H2976     1.0  0.21852  0.72740  0.54743  1.0000
  H   H2977     1.0  0.11265  0.73729  0.59896  1.0000
  H   H2978     1.0  0.21676  0.74033  0.50847  1.0000
  H   H2979     1.0  0.03621  0.57587  0.64190  1.0000
  C   C1676     1.0  0.13650  0.73734  0.53228  1.0000
  H   H2980     1.0  0.01320  0.67410  0.69443  1.0000
  C   C1677     1.0  0.07945  0.50917  0.73642  1.0000
  H   H2981     1.0  0.16864  0.70087  0.55798  1.0000
  N   N93       1.0  0.01946  0.63813  0.67762  1.0000
  S   S367      1.0  0.02033  0.63072  0.60769  1.0000
  C   C1678     1.0  0.12937  0.72988  0.52735  1.0000
  H   H2982     1.0  0.04159  0.73799  0.64906  1.0000
  H   H2983     1.0  0.01671  0.66850  0.67072  1.0000
  H   H2984     1.0  0.02149  0.59762  0.57886  1.0000
  C   C1679     1.0  0.02132  0.61247  0.60927  1.0000
  N   N94       1.0  0.01598  0.61656  0.56253  1.0000
  H   H2985     1.0  0.05515  0.73070  0.65991  1.0000
  H   H2986     1.0  0.03575  0.66149  0.67015  1.0000
  H   H2987     1.0  0.03842  0.55289  0.66118  1.0000
  H   H2988     1.0  0.03752  0.62083  0.68265  1.0000
  H   H2989     1.0  0.00551  0.70044  0.57183  1.0000
  C   C1680     1.0  0.07769  0.70315  0.60351  1.0000
  H   H2990     1.0  0.03177  0.64225  0.69055  1.0000
  C   C1681     1.0  0.10421  0.69248  0.64680  1.0000
  H   H2991     1.0  0.05850  0.51796  0.61134  1.0000
  H   H2992     1.0  0.10574  0.71167  0.63058  1.0000
  H   H2993     1.0  0.03023  0.56561  0.55779  1.0000
  C   C1682     1.0  0.01547  0.57226  0.54344  1.0000
  H   H2994     1.0  0.02579  0.57417  0.50756  1.0000
  H   H2995     1.0  0.08209  0.73141  0.60095  1.0000
  C   C1683     1.0  0.02474  0.66263  0.67739  1.0000
  H   H2996     1.0  0.14323  0.58320  0.60418  1.0000
  C   C1684     1.0  0.06760  0.72594  0.63210  1.0000
  C   C1685     1.0  0.03933  0.50998  0.62451  1.0000
  H   H2997     1.0  0.02315  0.65224  0.65651  1.0000
  C   C1686     1.0  0.02548  0.62265  0.68420  1.0000
  C   C1687     1.0  0.02884  0.56479  0.68579  1.0000
  H   H2998     1.0  0.04142  0.54112  0.62855  1.0000
  H   H2999     1.0  0.11120  0.68522  0.63966  1.0000
  C   C1688     1.0  0.11925  0.58666  0.62427  1.0000
  H   H3000     1.0  0.09042  0.71348  0.64572  1.0000
  C   C1689     1.0  0.13591  0.57629  0.60450  1.0000
  H   H3001     1.0  0.12376  0.63028  0.58338  1.0000
  H   H3002     1.0  0.16078  0.69063  0.48776  1.0000
  H   H3003     1.0  0.08564  0.70874  0.59513  1.0000
  C   C1690     1.0  0.02758  0.55118  0.66164  1.0000
  H   H3004     1.0  0.05937  0.69444  0.60415  1.0000
  H   H3005     1.0  0.01952  0.62446  0.70692  1.0000
  H   H3006     1.0  0.09108  0.55897  0.61024  1.0000
  C   C1691     1.0  0.08753  0.72603  0.61010  1.0000
  C   C1692     1.0  0.14975  0.65661  0.55496  1.0000
  H   H3007     1.0  0.05852  0.50033  0.61017  1.0000
  H   H3008     1.0  0.03940  0.59678  0.54897  1.0000
  C   C1693     1.0  0.09689  0.70660  0.63809  1.0000
  H   H3009     1.0  0.01757  0.56602  0.70791  1.0000
  C   C1694     1.0  0.19550  0.73710  0.51052  1.0000
  S   S368      1.0  0.10088  0.55868  0.73010  1.0000
  H   H3010     1.0  0.10216  0.55147  0.59518  1.0000
  C   C1695     1.0  0.16204  0.69373  0.49713  1.0000
  C   C1696     1.0  0.00935  0.50461  0.73680  1.0000
  Fe  Fe186     1.0  0.14459  0.73852  0.58289  1.0000
  C   C1697     1.0  0.04212  0.54212  0.63913  1.0000
  H   H3011     1.0  0.07389  0.69339  0.58841  1.0000
  H   H3012     1.0  0.06228  0.70489  0.62317  1.0000
  H   H3013     1.0  0.12070  0.72505  0.53469  1.0000
  C   C1698     1.0  0.15231  0.68592  0.55009  1.0000
  H   H3014     1.0  0.06259  0.70832  0.65079  1.0000
  C   C1699     1.0  0.01116  0.64229  0.56690  1.0000
  H   H3015     1.0  0.03919  0.64124  0.66177  1.0000
  C   C1700     1.0  0.02871  0.51872  0.73201  1.0000
  N   N95       1.0  0.07807  0.71700  0.62190  1.0000
  H   H3016     1.0  0.05910  0.61864  0.53823  1.0000
  H   H3017     1.0  0.08052  0.69634  0.63681  1.0000
  H   H3018     1.0  0.16179  0.54457  0.61272  1.0000
  H   H3019     1.0  0.19943  0.72890  0.54856  1.0000
  H   H3020     1.0  0.04374  0.64089  0.63497  1.0000
  N   N96       1.0  0.12026  0.58310  0.61022  1.0000
  C   C1701     1.0  0.02197  0.64756  0.68589  1.0000
  H   H3021     1.0  0.06162  0.71046  0.59022  1.0000
  H   H3022     1.0  0.00583  0.54903  0.60124  1.0000
  C   C1702     1.0  0.06745  0.70024  0.59614  1.0000
  C   C1703     1.0  0.14946  0.70201  0.55037  1.0000
  H   H3023     1.0  0.13540  0.60512  0.59118  1.0000
  Fe  Fe187     1.0  0.07761  0.50042  0.66937  1.0000
  H   H3024     1.0  0.15893  0.55454  0.59524  1.0000
  H   H3025     1.0  0.09791  0.71904  0.60557  1.0000
  H   H3026     1.0  0.12306  0.61196  0.60614  1.0000
  H   H3027     1.0  0.09874  0.57869  0.61605  1.0000
  H   H3028     1.0  0.03709  0.51652  0.63254  1.0000
  C   C1704     1.0  0.03162  0.58064  0.65147  1.0000
  H   H3029     1.0  0.01049  0.58542  0.66590  1.0000
  H   H3030     1.0  0.07519  0.73158  0.51253  1.0000
  C   C1705     1.0  0.02424  0.67198  0.68739  1.0000
  C   C1706     1.0  0.20497  0.72743  0.56831  1.0000
  H   H3031     1.0  0.08071  0.67455  0.48934  1.0000
  C   C1707     1.0  0.05560  0.50762  0.61762  1.0000
  C   C1708     1.0  0.03200  0.61670  0.55727  1.0000
  C   C1709     1.0  0.11029  0.57306  0.61287  1.0000
  C   C1710     1.0  0.11729  0.62197  0.58595  1.0000
  H   H3032     1.0  0.09553  0.58994  0.63334  1.0000
  H   H3033     1.0  0.18561  0.73511  0.51888  1.0000
  C   C1711     1.0  0.10441  0.59575  0.63075  1.0000
  H   H3034     1.0  0.03879  0.60224  0.70560  1.0000
  C   C1712     1.0  0.10496  0.59919  0.64455  1.0000
  H   H3035     1.0  0.16426  0.68137  0.54889  1.0000
  H   H3036     1.0  0.13355  0.73793  0.54340  1.0000
  C   C1713     1.0  0.01622  0.57760  0.65900  1.0000
  H   H3037     1.0  0.00612  0.56828  0.68827  1.0000
  H   H3038     1.0  0.11751  0.50654  0.63262  1.0000
  C   C1714     1.0  0.00946  0.62648  0.57286  1.0000
  H   H3039     1.0  0.20940  0.72979  0.52546  1.0000
  H   H3040     1.0  0.03716  0.61320  0.53549  1.0000
  C   C1715     1.0  0.20674  0.73945  0.51707  1.0000
  H   H3041     1.0  0.00517  0.55471  0.57564  1.0000
  H   H3042     1.0  0.15809  0.67389  0.51129  1.0000
  C   C1716     1.0  0.02733  0.60220  0.70613  1.0000
  C   C1717     1.0  0.01573  0.56102  0.68309  1.0000
  H   H3043     1.0  0.01449  0.54075  0.62174  1.0000
  S   S369      1.0  0.16527  0.74106  0.56635  1.0000
  H   H3044     1.0  0.06287  0.58433  0.48845  1.0000
  H   H3045     1.0  0.15769  0.70551  0.49594  1.0000
  C   C1718     1.0  0.01132  0.51753  0.68886  1.0000
  C   C1719     1.0  0.04790  0.72795  0.65479  1.0000
  H   H3046     1.0  0.22847  0.73866  0.52678  1.0000
  C   C1720     1.0  0.09147  0.73839  0.61391  1.0000
  C   C1721     1.0  0.01033  0.59174  0.61572  1.0000
  H   H3047     1.0  0.02232  0.64299  0.56676  1.0000
  Fe  Fe188     1.0  0.09291  0.53816  0.73604  1.0000
  H   H3048     1.0  0.09620  0.73461  0.62351  1.0000
  H   H3049     1.0  0.09022  0.73798  0.57360  1.0000
  H   H3050     1.0  0.01010  0.58075  0.65031  1.0000
  C   C1722     1.0  0.01425  0.49378  0.62013  1.0000
  C   C1723     1.0  0.03465  0.66596  0.48856  1.0000
  H   H3051     1.0  0.08015  0.73903  0.49358  1.0000
  H   H3052     1.0  0.00567  0.57747  0.58886  1.0000
  H   H3053     1.0  0.10711  0.73898  0.56060  1.0000
  C   C1724     1.0  0.00738  0.61054  0.54270  1.0000
  H   H3054     1.0  0.08793  0.73753  0.54976  1.0000
  H   H3055     1.0  0.09919  0.74195  0.51992  1.0000
  H   H3056     1.0  0.38222  0.70312  0.96692  1.0000
  H   H3057     1.0  0.43103  0.57464  0.97463  1.0000
  H   H3058     1.0  0.46795  0.71166  0.96615  1.0000
  H   H3059     1.0  0.38783  0.61902  0.95679  1.0000
  Fe  Fe189     1.0  0.38229  0.66966  0.97310  1.0000
  S   S370      1.0  0.38110  0.64738  0.97371  1.0000
  C   C1725     1.0  0.10556  0.54204  0.83965  1.0000
  Fe  Fe190     1.0  0.39032  0.67742  0.94067  1.0000
  S   S371      1.0  0.38942  0.65570  0.93855  1.0000
  S   S372      1.0  0.39599  0.69445  0.92077  1.0000
  Fe  Fe191     1.0  0.36912  0.65731  0.95604  1.0000
  S   S373      1.0  0.34803  0.64995  0.96061  1.0000
  Fe  Fe192     1.0  0.40143  0.64738  0.95636  1.0000
  S   S374      1.0  0.41862  0.62683  0.95640  1.0000
  S   S375      1.0  0.36885  0.67984  0.95657  1.0000
  S   S376      1.0  0.40380  0.66898  0.95728  1.0000
  Fe  Fe193     1.0  0.30361  0.57234  0.93799  1.0000
  S   S377      1.0  0.32682  0.57421  0.92778  1.0000
  S   S378      1.0  0.28714  0.57113  0.92624  1.0000
  Fe  Fe194     1.0  0.30605  0.57463  0.96716  1.0000
  S   S379      1.0  0.32937  0.57634  0.95946  1.0000
  C   C1726     1.0  0.32447  0.68561  0.98598  1.0000
  Fe  Fe195     1.0  0.32285  0.59148  0.93989  1.0000
  S   S380      1.0  0.33462  0.60973  0.92855  1.0000
  Fe  Fe196     1.0  0.33195  0.55919  0.94797  1.0000
  S   S381      1.0  0.35192  0.54137  0.94778  1.0000
  S   S382      1.0  0.29895  0.59123  0.94836  1.0000
  S   S383      1.0  0.30919  0.55579  0.95746  1.0000
  H   H3060     1.0  0.38708  0.51801  0.93232  1.0000
  H   H3061     1.0  0.35639  0.53518  0.98602  1.0000
  C   C1727     1.0  0.50086  0.72550  0.85879  1.0000
  H   H3062     1.0  0.17973  0.49960  0.90085  1.0000
  C   C1728     1.0  0.24153  0.52643  0.97275  1.0000
  C   C1729     1.0  0.20433  0.49865  0.88004  1.0000
  C   C1730     1.0  0.48981  0.68840  0.89751  1.0000
  H   H3063     1.0  0.17389  0.49485  0.76209  1.0000
  H   H3064     1.0  0.43249  0.60281  0.89083  1.0000
  Fe  Fe197     1.0  0.06572  0.54892  0.75713  1.0000
  S   S384      1.0  0.04787  0.54193  0.77549  1.0000
  H   H3065     1.0  0.48984  0.68978  0.90814  1.0000
  S   S385      1.0  0.07096  0.57041  0.75284  1.0000
  Fe  Fe198     1.0  0.16903  0.52031  0.79732  1.0000
  S   S386      1.0  0.16956  0.52680  0.81697  1.0000
  H   H3066     1.0  0.38287  0.62737  0.93985  1.0000
  H   H3067     1.0  0.45118  0.70263  0.94417  1.0000
  Fe  Fe199     1.0  0.15573  0.51055  0.82885  1.0000
  S   S387      1.0  0.13723  0.51315  0.84808  1.0000
  Fe  Fe200     1.0  0.18842  0.50785  0.81883  1.0000
  S   S388      1.0  0.21074  0.50902  0.82037  1.0000
  S   S389      1.0  0.15313  0.50642  0.80881  1.0000
  Fe  Fe201     1.0  0.26508  0.52030  0.89238  1.0000
  S   S390      1.0  0.24425  0.53715  0.89273  1.0000
  S   S391      1.0  0.28639  0.52354  0.89475  1.0000
  C   C1731     1.0  0.33960  0.50890  0.94580  1.0000
  S   S392      1.0  0.22765  0.51115  0.89763  1.0000
  H   H3068     1.0  0.33674  0.68995  0.96394  1.0000
  Fe  Fe202     1.0  0.23881  0.52578  0.87882  1.0000
  S   S393      1.0  0.22483  0.53839  0.86250  1.0000
  Fe  Fe203     1.0  0.23497  0.52095  0.91109  1.0000
  S   S394      1.0  0.22114  0.52687  0.93144  1.0000
  S   S395      1.0  0.26070  0.51003  0.87671  1.0000
  S   S396      1.0  0.25580  0.50474  0.91155  1.0000
  C   C1732     1.0  0.37182  0.74123  0.92865  1.0000
  C   C1733     1.0  0.43920  0.67052  0.91450  1.0000
  S   S397      1.0  0.15549  0.52649  0.93842  1.0000
  H   H3069     1.0  0.10781  0.50865  0.98669  1.0000
  H   H3070     1.0  0.41074  0.61536  0.91554  1.0000
  H   H3071     1.0  0.48893  0.67721  0.89868  1.0000
  C   C1734     1.0  0.22109  0.49628  0.87373  1.0000
  C   C1735     1.0  0.20309  0.52701  0.93218  1.0000
  C   C1736     1.0  0.19210  0.53870  0.93572  1.0000
  C   C1737     1.0  0.17750  0.53851  0.93739  1.0000
  C   C1738     1.0  0.17385  0.52645  0.93597  1.0000
  C   C1739     1.0  0.18482  0.51475  0.93230  1.0000
  H   H3072     1.0  0.47915  0.65955  0.98684  1.0000
  H   H3073     1.0  0.19488  0.54786  0.93729  1.0000
  H   H3074     1.0  0.16900  0.54758  0.94015  1.0000
  H   H3075     1.0  0.06825  0.52157  0.83842  1.0000
  H   H3076     1.0  0.15603  0.50565  0.76801  1.0000
  C   C1740     1.0  0.21414  0.51818  0.83153  1.0000
  C   C1741     1.0  0.22864  0.51821  0.83089  1.0000
  C   C1742     1.0  0.23201  0.52410  0.84051  1.0000
  C   C1743     1.0  0.22087  0.53034  0.85069  1.0000
  C   C1744     1.0  0.20631  0.53079  0.85102  1.0000
  C   C1745     1.0  0.20296  0.52451  0.84165  1.0000
  H   H3077     1.0  0.23737  0.51321  0.82321  1.0000
  H   H3078     1.0  0.24324  0.52385  0.84005  1.0000
  H   H3079     1.0  0.19765  0.53582  0.85869  1.0000
  H   H3080     1.0  0.19181  0.52438  0.84234  1.0000
  H   H3081     1.0  0.43161  0.54731  0.92876  1.0000
  H   H3082     1.0  0.44701  0.66158  0.91977  1.0000
  H   H3083     1.0  0.23452  0.56560  0.74900  1.0000
  H   H3084     1.0  0.21801  0.50825  0.78849  1.0000
  H   H3085     1.0  0.49132  0.73232  0.91000  1.0000
  C   C1746     1.0  0.06991  0.50776  0.77626  1.0000
  C   C1747     1.0  0.22251  0.51503  0.77813  1.0000
  H   H3086     1.0  0.39323  0.57757  0.91030  1.0000
  C   C1748     1.0  0.13948  0.54498  0.78539  1.0000
  C   C1749     1.0  0.12525  0.55185  0.78386  1.0000
  H   H3087     1.0  0.14251  0.54364  0.79538  1.0000
  H   H3088     1.0  0.11737  0.55595  0.79261  1.0000
  C   C1750     1.0  0.03302  0.53903  0.77104  1.0000
  C   C1751     1.0  0.02444  0.53017  0.78133  1.0000
  H   H3089     1.0  0.37630  0.59862  0.93695  1.0000
  H   H3090     1.0  0.37112  0.49320  0.94169  1.0000
  C   C1752     1.0  0.02948  0.54547  0.75767  1.0000
  H   H3091     1.0  0.02705  0.52542  0.79173  1.0000
  S   S398      1.0  0.18862  0.50235  0.79842  1.0000
  H   H3092     1.0  0.42801  0.67019  0.92110  1.0000
  C   C1753     1.0  0.28750  0.55775  0.91739  1.0000
  C   C1754     1.0  0.27732  0.56055  0.90890  1.0000
  C   C1755     1.0  0.27662  0.55004  0.90228  1.0000
  C   C1756     1.0  0.28637  0.53667  0.90374  1.0000
  C   C1757     1.0  0.29667  0.53388  0.91214  1.0000
  C   C1758     1.0  0.29709  0.54429  0.91910  1.0000
  H   H3093     1.0  0.26991  0.57095  0.90742  1.0000
  H   H3094     1.0  0.26875  0.55243  0.89575  1.0000
  H   H3095     1.0  0.30427  0.52359  0.91333  1.0000
  H   H3096     1.0  0.30483  0.54197  0.92574  1.0000
  H   H3097     1.0  0.44037  0.72075  0.94190  1.0000
  C   C1759     1.0  0.20426  0.49805  0.97895  1.0000
  C   C1760     1.0  0.20099  0.55872  0.79812  1.0000
  C   C1761     1.0  0.40380  0.70803  0.92170  1.0000
  C   C1762     1.0  0.40523  0.70948  0.93475  1.0000
  C   C1763     1.0  0.40993  0.72140  0.93531  1.0000
  H   H3098     1.0  0.23300  0.54705  0.77186  1.0000
  C   C1764     1.0  0.41309  0.72972  0.90962  1.0000
  C   C1765     1.0  0.40787  0.71810  0.90913  1.0000
  H   H3099     1.0  0.40225  0.70170  0.94447  1.0000
  H   H3100     1.0  0.00599  0.52054  0.78623  1.0000
  H   H3101     1.0  0.18091  0.54781  0.79075  1.0000
  H   H3102     1.0  0.22925  0.56072  0.78178  1.0000
  C   C1766     1.0  0.34557  0.63788  0.95185  1.0000
  C   C1767     1.0  0.35215  0.63791  0.93744  1.0000
  C   C1768     1.0  0.34889  0.62904  0.93051  1.0000
  C   C1769     1.0  0.33921  0.61992  0.93796  1.0000
  C   C1770     1.0  0.33301  0.61956  0.95248  1.0000
  C   C1771     1.0  0.33604  0.62864  0.95933  1.0000
  H   H3103     1.0  0.35934  0.64513  0.93152  1.0000
  H   H3104     1.0  0.35363  0.62948  0.91924  1.0000
  H   H3105     1.0  0.32551  0.61264  0.95830  1.0000
  H   H3106     1.0  0.33090  0.62860  0.97044  1.0000
  H   H3107     1.0  0.39870  0.57460  0.94100  1.0000
  H   H3108     1.0  0.35273  0.60803  0.98302  1.0000
  H   H3109     1.0  0.26779  0.51552  0.95770  1.0000
  C   C1772     1.0  0.43321  0.62624  0.96368  1.0000
  C   C1773     1.0  0.44206  0.61297  0.96862  1.0000
  H   H3110     1.0  0.33539  0.49932  0.92341  1.0000
  H   H3111     1.0  0.17891  0.55606  0.81041  1.0000
  H   H3112     1.0  0.44019  0.60315  0.96757  1.0000
  C   C1774     1.0  0.42223  0.58065  0.96881  1.0000
  H   H3113     1.0  0.18853  0.55155  0.77223  1.0000
  C   C1775     1.0  0.45592  0.62505  0.97625  1.0000
  C   C1776     1.0  0.38385  0.55467  0.96423  1.0000
  C   C1777     1.0  0.38442  0.54011  0.96584  1.0000
  C   C1778     1.0  0.37515  0.53603  0.96000  1.0000
  C   C1779     1.0  0.36511  0.54645  0.95289  1.0000
  C   C1780     1.0  0.36504  0.56097  0.95074  1.0000
  C   C1781     1.0  0.37427  0.56507  0.95653  1.0000
  C   C1782     1.0  0.05957  0.50737  0.83224  1.0000
  H   H3114     1.0  0.37529  0.52484  0.96151  1.0000
  H   H3115     1.0  0.35778  0.56907  0.94469  1.0000
  H   H3116     1.0  0.37370  0.57636  0.95536  1.0000
  H   H3117     1.0  0.44297  0.70020  0.98303  1.0000
  C   C1783     1.0  0.16516  0.54895  0.89052  1.0000
  C   C1784     1.0  0.40574  0.57949  0.93102  1.0000
  C   C1785     1.0  0.19011  0.55958  0.82425  1.0000
  H   H3118     1.0  0.22383  0.50954  0.76943  1.0000
  H   H3119     1.0  0.05183  0.49958  0.80198  1.0000
  H   H3120     1.0  0.36869  0.51097  0.91702  1.0000
  H   H3121     1.0  0.27677  0.56508  0.95947  1.0000
  C   C1786     1.0  0.06713  0.49276  0.78328  1.0000
  H   H3122     1.0  0.40889  0.56110  0.92139  1.0000
  H   H3123     1.0  0.36910  0.72460  0.91556  1.0000
  H   H3124     1.0  0.08892  0.50424  0.82542  1.0000
  H   H3125     1.0  0.17526  0.50578  0.87671  1.0000
  H   H3126     1.0  0.19899  0.50234  0.87080  1.0000
  H   H3127     1.0  0.41125  0.59123  0.90144  1.0000
  H   H3128     1.0  0.21181  0.55585  0.80094  1.0000
  C   C1787     1.0  0.17792  0.57057  0.78043  1.0000
  H   H3129     1.0  0.39187  0.53202  0.97168  1.0000
  C   C1788     1.0  0.42471  0.55618  0.93399  1.0000
  H   H3130     1.0  0.15859  0.57355  0.87043  1.0000
  H   H3131     1.0  0.09527  0.55029  0.84123  1.0000
  H   H3132     1.0  0.32623  0.60661  0.98698  1.0000
  H   H3133     1.0  0.31196  0.59603  0.97745  1.0000
  C   C1789     1.0  0.38326  0.61747  0.94850  1.0000
  H   H3134     1.0  0.19800  0.57068  0.79571  1.0000
  Fe  Fe204     1.0  0.15074  0.50464  0.94354  1.0000
  H   H3135     1.0  0.22550  0.49829  0.95360  1.0000
  C   C1790     1.0  0.06801  0.51925  0.82827  1.0000
  S   S399      1.0  0.08810  0.53652  0.75963  1.0000
  H   H3136     1.0  0.15759  0.52284  0.85989  1.0000
  H   H3137     1.0  0.20709  0.49268  0.90540  1.0000
  H   H3138     1.0  0.06927  0.51365  0.78446  1.0000
  H   H3139     1.0  0.18484  0.53246  0.96613  1.0000
  H   H3140     1.0  0.39384  0.50685  0.98514  1.0000
  H   H3141     1.0  0.11486  0.54704  0.83812  1.0000
  H   H3142     1.0  0.46835  0.74112  0.92560  1.0000
  H   H3143     1.0  0.32384  0.65712  0.98422  1.0000
  H   H3144     1.0  0.35010  0.58522  0.97774  1.0000
  H   H3145     1.0  0.41338  0.60399  0.98014  1.0000
  C   C1791     1.0  0.16293  0.57100  0.77833  1.0000
  H   H3146     1.0  0.13988  0.50430  0.97798  1.0000
  H   H3147     1.0  0.48131  0.73004  0.93578  1.0000
  H   H3148     1.0  0.21761  0.53610  0.76511  1.0000
  H   H3149     1.0  0.44939  0.64815  0.97181  1.0000
  C   C1792     1.0  0.33218  0.69540  0.97307  1.0000
  H   H3150     1.0  0.42397  0.59842  0.91731  1.0000
  H   H3151     1.0  0.36761  0.60307  0.91666  1.0000
  H   H3152     1.0  0.15165  0.49971  0.88081  1.0000
  H   H3153     1.0  0.37095  0.57917  0.90125  1.0000
  H   H3154     1.0  0.27777  0.51140  0.92672  1.0000
  H   H3155     1.0  0.35231  0.51653  0.97358  1.0000
  C   C1793     1.0  0.20905  0.53727  0.78803  1.0000
  H   H3156     1.0  0.37984  0.72909  0.95465  1.0000
  H   H3157     1.0  0.01423  0.54841  0.74456  1.0000
  H   H3158     1.0  0.17134  0.55328  0.87972  1.0000
  H   H3159     1.0  0.47720  0.71156  0.97946  1.0000
  H   H3160     1.0  0.20801  0.50613  0.92738  1.0000
  H   H3161     1.0  0.19147  0.52545  0.98233  1.0000
  H   H3162     1.0  0.41058  0.72271  0.94550  1.0000
  H   H3163     1.0  0.16622  0.49389  0.78090  1.0000
  H   H3164     1.0  0.35900  0.58130  0.91844  1.0000
  H   H3165     1.0  0.34956  0.56029  0.97981  1.0000
  C   C1794     1.0  0.32379  0.50660  0.94991  1.0000
  H   H3166     1.0  0.39273  0.50024  0.94276  1.0000
  Fe  Fe205     1.0  0.24948  0.49602  0.89631  1.0000
  C   C1795     1.0  0.10239  0.49438  0.86437  1.0000
  S   S400      1.0  0.15363  0.49232  0.92704  1.0000
  H   H3167     1.0  0.38256  0.73429  0.92494  1.0000
  H   H3168     1.0  0.19047  0.54378  0.90025  1.0000
  C   C1796     1.0  0.39281  0.60455  0.94257  1.0000
  H   H3169     1.0  0.21010  0.55962  0.76220  1.0000
  H   H3170     1.0  0.20420  0.52775  0.96499  1.0000
  N   N97       1.0  0.09326  0.52536  0.81520  1.0000
  C   C1797     1.0  0.09524  0.52793  0.82868  1.0000
  C   C1798     1.0  0.08358  0.51473  0.81931  1.0000
  C   C1799     1.0  0.10805  0.51844  0.80738  1.0000
  C   C1800     1.0  0.08722  0.53903  0.80528  1.0000
  C   C1801     1.0  0.07690  0.55146  0.81224  1.0000
  C   C1802     1.0  0.10725  0.53619  0.82653  1.0000
  C   C1803     1.0  0.10827  0.51345  0.79390  1.0000
  N   N98       1.0  0.36048  0.73222  0.93537  1.0000
  H   H3171     1.0  0.01850  0.50835  0.75280  1.0000
  C   C1804     1.0  0.06905  0.56298  0.80145  1.0000
  C   C1805     1.0  0.12383  0.50978  0.78518  1.0000
  H   H3172     1.0  0.34289  0.66763  0.98261  1.0000
  H   H3173     1.0  0.08492  0.53367  0.83462  1.0000
  H   H3174     1.0  0.08202  0.51250  0.80960  1.0000
  S   S401      1.0  0.12713  0.50466  0.95260  1.0000
  H   H3175     1.0  0.11329  0.50894  0.81474  1.0000
  H   H3176     1.0  0.11549  0.52604  0.80371  1.0000
  H   H3177     1.0  0.09620  0.54379  0.79753  1.0000
  H   H3178     1.0  0.08145  0.53656  0.79840  1.0000
  H   H3179     1.0  0.08326  0.55670  0.81603  1.0000
  H   H3180     1.0  0.06850  0.54777  0.82154  1.0000
  H   H3181     1.0  0.11817  0.52883  0.82481  1.0000
  H   H3182     1.0  0.10702  0.54529  0.81707  1.0000
  H   H3183     1.0  0.10178  0.52194  0.78682  1.0000
  H   H3184     1.0  0.45741  0.73486  0.95128  1.0000
  C   C1806     1.0  0.12467  0.50243  0.85078  1.0000
  H   H3185     1.0  0.39291  0.59498  0.95161  1.0000
  C   C1807     1.0  0.19030  0.53556  0.89475  1.0000
  H   H3186     1.0  0.32512  0.49437  0.97162  1.0000
  H   H3187     1.0  0.37951  0.60115  0.89960  1.0000
  H   H3188     1.0  0.06183  0.57177  0.80663  1.0000
  H   H3189     1.0  0.07704  0.56764  0.79220  1.0000
  H   H3190     1.0  0.06225  0.55838  0.79745  1.0000
  C   C1808     1.0  0.12587  0.49466  0.84066  1.0000
  C   C1809     1.0  0.47190  0.73242  0.96537  1.0000
  H   H3191     1.0  0.42073  0.57355  0.96277  1.0000
  C   C1810     1.0  0.12629  0.54204  0.90788  1.0000
  C   C1811     1.0  0.12106  0.53281  0.92253  1.0000
  H   H3192     1.0  0.14046  0.56948  0.89544  1.0000
  H   H3193     1.0  0.14405  0.54686  0.91329  1.0000
  H   H3194     1.0  0.11961  0.55311  0.90783  1.0000
  H   H3195     1.0  0.14004  0.59364  0.87951  1.0000
  H   H3196     1.0  0.12242  0.53696  0.93121  1.0000
  H   H3197     1.0  0.10936  0.53281  0.92416  1.0000
  H   H3198     1.0  0.12739  0.52157  0.92322  1.0000
  N   N99       1.0  0.46213  0.70028  0.90087  1.0000
  C   C1812     1.0  0.45179  0.71212  0.89302  1.0000
  C   C1813     1.0  0.46283  0.70401  0.91435  1.0000
  C   C1814     1.0  0.47716  0.69926  0.89112  1.0000
  C   C1815     1.0  0.45813  0.68590  0.90431  1.0000
  C   C1816     1.0  0.44252  0.68502  0.91324  1.0000
  C   C1817     1.0  0.45027  0.70995  0.87874  1.0000
  C   C1818     1.0  0.01716  0.54319  0.75475  1.0000
  C   C1819     1.0  0.44875  0.71287  0.92232  1.0000
  C   C1820     1.0  0.49053  0.74125  0.91499  1.0000
  C   C1821     1.0  0.49033  0.73375  0.86774  1.0000
  C   C1822     1.0  0.43887  0.72216  0.87232  1.0000
  H   H3199     1.0  0.41918  0.61973  0.88908  1.0000
  H   H3200     1.0  0.45514  0.72252  0.89068  1.0000
  H   H3201     1.0  0.44064  0.71390  0.89979  1.0000
  H   H3202     1.0  0.46653  0.69407  0.92219  1.0000
  H   H3203     1.0  0.47114  0.71060  0.91189  1.0000
  H   H3204     1.0  0.47993  0.71005  0.88749  1.0000
  H   H3205     1.0  0.47752  0.69601  0.88123  1.0000
  H   H3206     1.0  0.45977  0.68222  0.89430  1.0000
  H   H3207     1.0  0.46563  0.67751  0.91050  1.0000
  H   H3208     1.0  0.43410  0.69342  0.90836  1.0000
  H   H3209     1.0  0.44144  0.68600  0.92431  1.0000
  H   H3210     1.0  0.46066  0.70987  0.87058  1.0000
  H   H3211     1.0  0.44682  0.69978  0.88041  1.0000
  H   H3212     1.0  0.39981  0.59127  0.97282  1.0000
  C   C1823     1.0  0.11305  0.50201  0.86283  1.0000
  H   H3213     1.0  0.44657  0.72407  0.91595  1.0000
  H   H3214     1.0  0.43914  0.70840  0.92400  1.0000
  C   C1824     1.0  0.37096  0.50478  0.93910  1.0000
  H   H3215     1.0  0.15322  0.50392  0.89662  1.0000
  C   C1825     1.0  0.16168  0.54055  0.86595  1.0000
  H   H3216     1.0  0.38325  0.61269  0.92380  1.0000
  H   H3217     1.0  0.04381  0.50021  0.78801  1.0000
  H   H3218     1.0  0.34598  0.49949  0.95215  1.0000
  H   H3219     1.0  0.48277  0.73050  0.95805  1.0000
  H   H3220     1.0  0.49780  0.72228  0.85075  1.0000
  H   H3221     1.0  0.42801  0.72272  0.87976  1.0000
  H   H3222     1.0  0.04882  0.51055  0.83938  1.0000
  H   H3223     1.0  0.14518  0.56983  0.86345  1.0000
  C   C1826     1.0  0.17468  0.53432  0.89650  1.0000
  C   C1827     1.0  0.41655  0.60602  0.91061  1.0000
  H   H3224     1.0  0.18647  0.57147  0.82154  1.0000
  N   N100      1.0  0.25084  0.54367  0.94902  1.0000
  C   C1828     1.0  0.26189  0.54692  0.95491  1.0000
  C   C1829     1.0  0.25804  0.53200  0.94064  1.0000
  C   C1830     1.0  0.24517  0.55726  0.93881  1.0000
  H   H3225     1.0  0.23089  0.57937  0.75897  1.0000
  H   H3226     1.0  0.40454  0.57535  0.98627  1.0000
  C   C1831     1.0  0.25611  0.55886  0.96361  1.0000
  C   C1832     1.0  0.23551  0.55585  0.92955  1.0000
  C   C1833     1.0  0.27058  0.51997  0.94604  1.0000
  H   H3227     1.0  0.46503  0.68192  0.98508  1.0000
  H   H3228     1.0  0.06182  0.51391  0.76965  1.0000
  H   H3229     1.0  0.37609  0.71299  0.94198  1.0000
  C   C1834     1.0  0.23156  0.56997  0.91889  1.0000
  H   H3230     1.0  0.27101  0.55004  0.94595  1.0000
  H   H3231     1.0  0.26716  0.53729  0.96196  1.0000
  H   H3232     1.0  0.24970  0.52684  0.93971  1.0000
  H   H3233     1.0  0.26310  0.53673  0.92943  1.0000
  H   H3234     1.0  0.25443  0.56182  0.93139  1.0000
  H   H3235     1.0  0.23845  0.56571  0.94471  1.0000
  H   H3236     1.0  0.11215  0.50780  0.87086  1.0000
  H   H3237     1.0  0.21490  0.50122  0.97617  1.0000
  C   C1835     1.0  0.22828  0.52521  0.98521  1.0000
  H   H3238     1.0  0.13502  0.49433  0.83173  1.0000
  H   H3239     1.0  0.25162  0.56932  0.95700  1.0000
  C   C1836     1.0  0.36001  0.61321  0.98562  1.0000
  H   H3240     1.0  0.22516  0.55310  0.93642  1.0000
  H   H3241     1.0  0.24112  0.54754  0.92319  1.0000
  H   H3242     1.0  0.28048  0.52436  0.94368  1.0000
  H   H3243     1.0  0.43803  0.72032  0.86214  1.0000
  H   H3244     1.0  0.06172  0.52876  0.82193  1.0000
  H   H3245     1.0  0.42932  0.64913  0.96093  1.0000
  C   C1837     1.0  0.19021  0.55315  0.81198  1.0000
  C   C1838     1.0  0.37463  0.59517  0.91027  1.0000
  C   C1839     1.0  0.19950  0.51516  0.93011  1.0000
  H   H3246     1.0  0.19341  0.54132  0.81546  1.0000
  H   H3247     1.0  0.18199  0.50547  0.93108  1.0000
  H   H3248     1.0  0.15745  0.51381  0.98411  1.0000
  H   H3249     1.0  0.41755  0.55150  0.94405  1.0000
  H   H3250     1.0  0.22452  0.56868  0.91256  1.0000
  H   H3251     1.0  0.22553  0.57875  0.92459  1.0000
  H   H3252     1.0  0.24156  0.57297  0.91136  1.0000
  Fe  Fe206     1.0  0.09376  0.55800  0.75380  1.0000
  H   H3253     1.0  0.24725  0.56541  0.75906  1.0000
  H   H3254     1.0  0.33945  0.51816  0.95006  1.0000
  C   C1840     1.0  0.33796  0.52500  0.92255  1.0000
  C   C1841     1.0  0.47849  0.74068  0.92859  1.0000
  H   H3255     1.0  0.21921  0.53519  0.79193  1.0000
  C   C1842     1.0  0.21233  0.52983  0.77536  1.0000
  C   C1843     1.0  0.34472  0.53086  0.90654  1.0000
  C   C1844     1.0  0.02222  0.50615  0.74194  1.0000
  H   H3256     1.0  0.03601  0.55246  0.74975  1.0000
  H   H3257     1.0  0.34807  0.69707  0.91944  1.0000
  C   C1845     1.0  0.43586  0.63888  0.96492  1.0000
  C   C1846     1.0  0.33473  0.54457  0.90014  1.0000
  C   C1847     1.0  0.26836  0.56122  0.96878  1.0000
  H   H3258     1.0  0.23340  0.51611  0.77841  1.0000
  H   H3259     1.0  0.34108  0.69826  0.97580  1.0000
  H   H3260     1.0  0.36193  0.52475  0.92678  1.0000
  H   H3261     1.0  0.33596  0.53375  0.92830  1.0000
  H   H3262     1.0  0.32704  0.52357  0.92279  1.0000
  H   H3263     1.0  0.36082  0.73261  0.96358  1.0000
  S   S402      1.0  0.39496  0.56019  0.97169  1.0000
  H   H3264     1.0  0.36366  0.70282  0.93138  1.0000
  C   C1848     1.0  0.44729  0.63830  0.97104  1.0000
  C   C1849     1.0  0.36612  0.72012  0.94691  1.0000
  H   H3265     1.0  0.15695  0.56429  0.78782  1.0000
  H   H3266     1.0  0.34649  0.52291  0.90001  1.0000
  H   H3267     1.0  0.35531  0.53356  0.90530  1.0000
  C   C1850     1.0  0.17393  0.49503  0.88340  1.0000
  H   H3268     1.0  0.43194  0.56136  0.93671  1.0000
  H   H3269     1.0  0.24457  0.51647  0.96863  1.0000
  H   H3270     1.0  0.28395  0.49937  0.94212  1.0000
  H   H3271     1.0  0.30761  0.64120  0.98368  1.0000
  N   N101      1.0  0.39637  0.59137  0.92211  1.0000
  H   H3272     1.0  0.45993  0.71770  0.93585  1.0000
  N   N102      1.0  0.34676  0.51126  0.93003  1.0000
  C   C1851     1.0  0.15760  0.49607  0.88963  1.0000
  H   H3273     1.0  0.45797  0.71942  0.98148  1.0000
  H   H3274     1.0  0.31627  0.51619  0.94509  1.0000
  H   H3275     1.0  0.32454  0.54220  0.89955  1.0000
  H   H3276     1.0  0.33197  0.55278  0.90664  1.0000
  H   H3277     1.0  0.34028  0.54913  0.88909  1.0000
  H   H3278     1.0  0.35618  0.59476  0.90254  1.0000
  C   C1852     1.0  0.38668  0.58463  0.91780  1.0000
  S   S403      1.0  0.10346  0.56283  0.76937  1.0000
  C   C1853     1.0  0.14957  0.54024  0.87993  1.0000
  H   H3279     1.0  0.09805  0.51748  0.83629  1.0000
  H   H3280     1.0  0.10554  0.53321  0.84941  1.0000
  H   H3281     1.0  0.37205  0.61572  0.95331  1.0000
  C   C1854     1.0  0.36465  0.58703  0.90798  1.0000
  H   H3282     1.0  0.43373  0.61712  0.89790  1.0000
  H   H3283     1.0  0.18322  0.57774  0.77087  1.0000
  C   C1855     1.0  0.12121  0.55363  0.77097  1.0000
  H   H3284     1.0  0.19756  0.50896  0.95864  1.0000
  H   H3285     1.0  0.22414  0.50675  0.87129  1.0000
  C   C1856     1.0  0.40794  0.58519  0.97930  1.0000
  C   C1857     1.0  0.38673  0.50653  0.93425  1.0000
  H   H3286     1.0  0.18248  0.55527  0.83409  1.0000
  H   H3287     1.0  0.37641  0.71488  0.97923  1.0000
  C   C1858     1.0  0.18734  0.55503  0.78225  1.0000
  H   H3288     1.0  0.16333  0.55149  0.86052  1.0000
  C   C1859     1.0  0.38667  0.60208  0.93093  1.0000
  H   H3289     1.0  0.23687  0.49329  0.85394  1.0000
  H   H3290     1.0  0.08096  0.50696  0.76915  1.0000
  H   H3291     1.0  0.42313  0.57114  0.91392  1.0000
  H   H3292     1.0  0.41303  0.58369  0.93474  1.0000
  H   H3293     1.0  0.32334  0.49713  0.94639  1.0000
  C   C1860     1.0  0.14594  0.54235  0.76082  1.0000
  H   H3294     1.0  0.31201  0.73981  0.96346  1.0000
  C   C1861     1.0  0.42603  0.61175  0.89619  1.0000
  N   N103      1.0  0.14991  0.54867  0.89025  1.0000
  H   H3295     1.0  0.20687  0.57318  0.77157  1.0000
  C   C1862     1.0  0.13149  0.54863  0.75952  1.0000
  H   H3296     1.0  0.15403  0.53893  0.75181  1.0000
  C   C1863     1.0  0.13845  0.58913  0.87121  1.0000
  C   C1864     1.0  0.41555  0.56705  0.92389  1.0000
  H   H3297     1.0  0.20116  0.55667  0.82655  1.0000
  H   H3298     1.0  0.12856  0.51949  0.78103  1.0000
  C   C1865     1.0  0.27459  0.50752  0.93851  1.0000
  C   C1866     1.0  0.19403  0.50955  0.97000  1.0000
  H   H3299     1.0  0.36610  0.50888  0.94907  1.0000
  C   C1867     1.0  0.14993  0.54057  0.77375  1.0000
  H   H3300     1.0  0.42559  0.59023  0.96099  1.0000
  H   H3301     1.0  0.39821  0.60750  0.90235  1.0000
  H   H3302     1.0  0.40594  0.67148  0.98713  1.0000
  H   H3303     1.0  0.40404  0.60634  0.93857  1.0000
  H   H3304     1.0  0.19662  0.52513  0.89973  1.0000
  H   H3305     1.0  0.20201  0.52837  0.77397  1.0000
  H   H3306     1.0  0.15032  0.52867  0.88521  1.0000
  C   C1868     1.0  0.22762  0.55841  0.77217  1.0000
  H   H3307     1.0  0.17614  0.57502  0.78994  1.0000
  H   H3308     1.0  0.34111  0.71588  0.91259  1.0000
  C   C1869     1.0  0.21115  0.56142  0.77235  1.0000
  H   H3309     1.0  0.19567  0.53844  0.88326  1.0000
  H   H3310     1.0  0.20178  0.53126  0.79693  1.0000
  C   C1870     1.0  0.36211  0.51331  0.92753  1.0000
  H   H3311     1.0  0.16665  0.53499  0.84529  1.0000
  H   H3312     1.0  0.38120  0.57757  0.92738  1.0000
  H   H3313     1.0  0.43970  0.66897  0.90376  1.0000
  S   S404      1.0  0.47022  0.62475  0.98370  1.0000
  C   C1871     1.0  0.31799  0.50390  0.96614  1.0000
  H   H3314     1.0  0.20110  0.50810  0.88502  1.0000
  C   C1872     1.0  0.34672  0.49921  0.92362  1.0000
  H   H3315     1.0  0.17040  0.53069  0.90811  1.0000
  C   C1873     1.0  0.40540  0.59880  0.90862  1.0000
  H   H3316     1.0  0.26393  0.56954  0.97528  1.0000
  S   S405      1.0  0.16808  0.53337  0.77520  1.0000
  N   N104      1.0  0.20212  0.55311  0.78519  1.0000
  H   H3317     1.0  0.12662  0.58987  0.87259  1.0000
  H   H3318     1.0  0.12842  0.55010  0.74951  1.0000
  C   C1874     1.0  0.15810  0.53431  0.85533  1.0000
  C   C1875     1.0  0.14275  0.54176  0.90521  1.0000
  H   H3319     1.0  0.16402  0.56698  0.76866  1.0000
  H   H3320     1.0  0.40675  0.71703  0.89903  1.0000
  C   C1876     1.0  0.14692  0.57353  0.87222  1.0000
  H   H3321     1.0  0.17224  0.53397  0.86833  1.0000
  H   H3322     1.0  0.12993  0.56412  0.88676  1.0000
  H   H3323     1.0  0.14749  0.54039  0.85259  1.0000
  H   H3324     1.0  0.17486  0.52589  0.89115  1.0000
  H   H3325     1.0  0.09325  0.49437  0.87351  1.0000
  H   H3326     1.0  0.33012  0.72946  0.94434  1.0000
  C   C1877     1.0  0.23549  0.56780  0.75897  1.0000
  H   H3327     1.0  0.46004  0.60210  0.97896  1.0000
  C   C1878     1.0  0.19370  0.52470  0.97097  1.0000
  C   C1879     1.0  0.00878  0.53408  0.76503  1.0000
  H   H3328     1.0  0.13879  0.54381  0.87689  1.0000
  C   C1880     1.0  0.41383  0.73158  0.92274  1.0000
  H   H3329     1.0  0.14821  0.53022  0.90803  1.0000
  C   C1881     1.0  0.14129  0.56394  0.88685  1.0000
  H   H3330     1.0  0.16468  0.55643  0.89722  1.0000
  H   H3331     1.0  0.12411  0.53787  0.89966  1.0000
  H   H3332     1.0  0.32423  0.70540  0.96972  1.0000
  C   C1882     1.0  0.45022  0.71349  0.93697  1.0000
  H   H3333     1.0  0.14243  0.59573  0.86051  1.0000
  H   H3334     1.0  0.10383  0.50361  0.79708  1.0000
  H   H3335     1.0  0.44208  0.73259  0.86993  1.0000
  C   C1883     1.0  0.37316  0.71160  0.97103  1.0000
  H   H3336     1.0  0.23022  0.53715  0.95589  1.0000
  H   H3337     1.0  0.33286  0.52213  0.98010  1.0000
  C   C1884     1.0  0.38156  0.49532  0.97932  1.0000
  H   H3338     1.0  0.26523  0.50232  0.94106  1.0000
  H   H3339     1.0  0.36413  0.62094  0.97590  1.0000
  C   C1885     1.0  0.45325  0.61235  0.97515  1.0000
  H   H3340     1.0  0.25046  0.52698  0.97718  1.0000
  H   H3341     1.0  0.18270  0.50804  0.97398  1.0000
  H   H3342     1.0  0.13077  0.50141  0.79192  1.0000
  S   S406      1.0  0.11756  0.49819  0.91970  1.0000
  H   H3343     1.0  0.31742  0.51344  0.97013  1.0000
  H   H3344     1.0  0.30685  0.50185  0.96885  1.0000
  H   H3345     1.0  0.21819  0.49634  0.85277  1.0000
  H   H3346     1.0  0.39226  0.50250  0.92432  1.0000
  H   H3347     1.0  0.33740  0.72626  0.96006  1.0000
  C   C1886     1.0  0.23802  0.53964  0.96059  1.0000
  S   S407      1.0  0.47215  0.73828  0.86594  1.0000
  C   C1887     1.0  0.01252  0.52749  0.77825  1.0000
  H   H3348     1.0  0.12381  0.50575  0.77589  1.0000
  H   H3349     1.0  0.15640  0.58221  0.77690  1.0000
  H   H3350     1.0  0.35258  0.50089  0.91219  1.0000
  H   H3351     1.0  0.36018  0.70772  0.90666  1.0000
  C   C1888     1.0  0.49439  0.73785  0.87814  1.0000
  H   H3352     1.0  0.38854  0.61492  0.98139  1.0000
  H   H3353     1.0  0.05765  0.50569  0.82246  1.0000
  H   H3354     1.0  0.23167  0.54895  0.96545  1.0000
  H   H3355     1.0  0.31602  0.68282  0.98250  1.0000
  C   C1889     1.0  0.05219  0.49339  0.79412  1.0000
  H   H3356     1.0  0.35832  0.71302  0.95222  1.0000
  H   H3357     1.0  0.38284  0.50128  0.96836  1.0000
  C   C1890     1.0  0.35069  0.70788  0.91595  1.0000
  C   C1891     1.0  0.35434  0.71142  0.92829  1.0000
  H   H3358     1.0  0.36334  0.70704  0.97630  1.0000
  C   C1892     1.0  0.33397  0.73445  0.95079  1.0000
  H   H3359     1.0  0.10226  0.49554  0.90053  1.0000
  H   H3360     1.0  0.06559  0.49716  0.83800  1.0000
  C   C1893     1.0  0.34306  0.51491  0.98289  1.0000
  H   H3361     1.0  0.24755  0.55590  0.97319  1.0000
  C   C1894     1.0  0.36992  0.72456  0.95889  1.0000
  H   H3362     1.0  0.21897  0.52430  0.98155  1.0000
  H   H3363     1.0  0.02158  0.50175  0.80354  1.0000
  S   S408      1.0  0.41737  0.52122  0.98529  1.0000
  H   H3364     1.0  0.34196  0.50363  0.98516  1.0000
  C   C1895     1.0  0.16361  0.49507  0.77044  1.0000
  H   H3365     1.0  0.40316  0.62600  0.98711  1.0000
  H   H3366     1.0  0.14662  0.49494  0.75365  1.0000
  H   H3367     1.0  0.27351  0.55114  0.97548  1.0000
  H   H3368     1.0  0.34491  0.71083  0.93749  1.0000
  H   H3369     1.0  0.37720  0.59431  0.98391  1.0000
  H   H3370     1.0  0.35062  0.73408  0.91776  1.0000
  H   H3371     1.0  0.05901  0.50238  0.74321  1.0000
  H   H3372     1.0  0.03118  0.49645  0.74201  1.0000
  C   C1896     1.0  0.45978  0.74154  0.95725  1.0000
  C   C1897     1.0  0.35865  0.72623  0.92373  1.0000
  H   H3373     1.0  0.07671  0.51540  0.74447  1.0000
  H   H3374     1.0  0.47263  0.73797  0.97329  1.0000
  H   H3375     1.0  0.36568  0.57357  0.98432  1.0000
  H   H3376     1.0  0.00815  0.49397  0.82880  1.0000
  C   C1898     1.0  0.46852  0.71785  0.97360  1.0000
  C   C1899     1.0  0.35364  0.57692  0.98693  1.0000
  H   H3377     1.0  0.50121  0.74000  0.91745  1.0000
  H   H3378     1.0  0.41609  0.73748  0.89988  1.0000
  C   C1900     1.0  0.34647  0.74185  0.94133  1.0000
  H   H3379     1.0  0.35860  0.75551  0.15695  1.0000
  S   S409      1.0  0.45804  0.85315  0.18131  1.0000
  C   C1901     1.0  0.46262  0.84786  0.12975  1.0000
  C   C1902     1.0  0.41911  0.86047  0.19058  1.0000
  S   S410      1.0  0.45964  0.84362  0.09010  1.0000
  H   H3380     1.0  0.41096  0.77189  0.09444  1.0000
  H   H3381     1.0  0.47547  0.82682  0.02170  1.0000
  H   H3382     1.0  0.49458  0.80367  0.10621  1.0000
  H   H3383     1.0  0.47068  0.86074  0.20028  1.0000
  S   S411      1.0  0.44108  0.78559  0.09762  1.0000
  H   H3384     1.0  0.45808  0.90581  0.22178  1.0000
  C   C1903     1.0  0.47747  0.80681  0.17288  1.0000
  H   H3385     1.0  0.40663  0.90187  0.20376  1.0000
  H   H3386     1.0  0.47423  0.82752  0.14882  1.0000
  S   S412      1.0  0.47617  0.90995  0.17875  1.0000
  H   H3387     1.0  0.46779  0.79745  0.16210  1.0000
  Fe  Fe207     1.0  0.46244  0.80457  0.21333  1.0000
  C   C1904     1.0  0.46606  0.89303  0.16815  1.0000
  C   C1905     1.0  0.46170  0.88049  0.16896  1.0000
  C   C1906     1.0  0.46330  0.86882  0.18058  1.0000
  H   H3388     1.0  0.42581  0.80327  0.12845  1.0000
  H   H3389     1.0  0.44187  0.81421  0.15323  1.0000
  H   H3390     1.0  0.44837  0.81253  0.12161  1.0000
  H   H3391     1.0  0.45703  0.87985  0.16061  1.0000
  N   N105      1.0  0.46108  0.82092  0.13874  1.0000
  S   S413      1.0  0.46832  0.78334  0.20642  1.0000
  C   C1907     1.0  0.44059  0.78413  0.18218  1.0000
  H   H3392     1.0  0.46818  0.79151  0.09770  1.0000
  H   H3393     1.0  0.47106  0.79745  0.12215  1.0000
  H   H3394     1.0  0.42959  0.78953  0.18110  1.0000
  C   C1908     1.0  0.49592  0.86079  0.23363  1.0000
  C   C1909     1.0  0.44605  0.80163  0.09632  1.0000
  C   C1910     1.0  0.43583  0.81470  0.09476  1.0000
  C   C1911     1.0  0.43995  0.82760  0.09315  1.0000
  C   C1912     1.0  0.45446  0.82750  0.09237  1.0000
  C   C1913     1.0  0.46471  0.81447  0.09369  1.0000
  C   C1914     1.0  0.46038  0.80153  0.09616  1.0000
  H   H3395     1.0  0.42471  0.81484  0.09491  1.0000
  H   H3396     1.0  0.43199  0.83768  0.09214  1.0000
  H   H3397     1.0  0.47593  0.81435  0.09305  1.0000
  C   C1915     1.0  0.46072  0.78027  0.19360  1.0000
  H   H3398     1.0  0.48336  0.82033  0.12692  1.0000
  C   C1916     1.0  0.48267  0.83405  0.01594  1.0000
  C   C1917     1.0  0.49247  0.91259  0.21685  1.0000
  C   C1918     1.0  0.47432  0.80573  0.15915  1.0000
  C   C1919     1.0  0.46582  0.79626  0.05828  1.0000
  C   C1920     1.0  0.47020  0.81054  0.05664  1.0000
  H   H3399     1.0  0.46713  0.80923  0.18085  1.0000
  H   H3400     1.0  0.39648  0.90521  0.22941  1.0000
  C   C1921     1.0  0.50088  0.85312  0.00110  1.0000
  H   H3401     1.0  0.49263  0.93930  0.20433  1.0000
  C   C1922     1.0  0.45720  0.82329  0.05544  1.0000
  H   H3402     1.0  0.43298  0.87004  0.20332  1.0000
  C   C1923     1.0  0.35812  0.74475  0.15612  1.0000
  C   C1924     1.0  0.49606  0.86385  0.15019  1.0000
  S   S414      1.0  0.46225  0.80612  0.23554  1.0000
  Fe  Fe208     1.0  0.48311  0.84212  0.07872  1.0000
  C   C1925     1.0  0.44295  0.88041  0.22144  1.0000
  Fe  Fe209     1.0  0.47827  0.74851  0.12368  1.0000
  H   H3403     1.0  0.46169  0.87035  0.11929  1.0000
  H   H3404     1.0  0.45961  0.79816  0.04990  1.0000
  H   H3405     1.0  0.45763  0.79475  0.06857  1.0000
  H   H3406     1.0  0.47882  0.81288  0.04694  1.0000
  H   H3407     1.0  0.47397  0.81023  0.06613  1.0000
  H   H3408     1.0  0.35234  0.74604  0.14758  1.0000
  H   H3409     1.0  0.47881  0.79325  0.13735  1.0000
  H   H3410     1.0  0.44955  0.77571  0.06830  1.0000
  H   H3411     1.0  0.46777  0.77576  0.04493  1.0000
  C   C1926     1.0  0.42997  0.91277  0.18452  1.0000
  C   C1927     1.0  0.46738  0.90686  0.22540  1.0000
  C   C1928     1.0  0.46860  0.76970  0.18575  1.0000
  C   C1929     1.0  0.48814  0.84052  0.02352  1.0000
  H   H3412     1.0  0.48350  0.81536  0.17075  1.0000
  H   H3413     1.0  0.44786  0.82148  0.06459  1.0000
  H   H3414     1.0  0.46031  0.83319  0.05552  1.0000
  H   H3415     1.0  0.45376  0.82501  0.04528  1.0000
  S   S415      1.0  0.47846  0.81874  0.20277  1.0000
  C   C1930     1.0  0.44992  0.81169  0.14336  1.0000
  H   H3416     1.0  0.49041  0.79417  0.07499  1.0000
  H   H3417     1.0  0.42290  0.88937  0.23401  1.0000
  H   H3418     1.0  0.43999  0.89164  0.19446  1.0000
  H   H3419     1.0  0.43318  0.82379  0.13106  1.0000
  H   H3420     1.0  0.46228  0.76187  0.07734  1.0000
  H   H3421     1.0  0.49385  0.88069  0.08163  1.0000
  H   H3422     1.0  0.49670  0.95468  0.17207  1.0000
  N   N106      1.0  0.47789  0.78290  0.05767  1.0000
  H   H3423     1.0  0.48420  0.79641  0.17749  1.0000
  H   H3424     1.0  0.47928  0.97094  0.99124  1.0000
  C   C1931     1.0  0.49543  0.84661  0.99350  1.0000
  Fe  Fe210     1.0  0.44387  0.82545  0.23250  1.0000
  H   H3425     1.0  0.39244  0.75942  0.11222  1.0000
  Fe  Fe211     1.0  0.47660  0.82193  0.22457  1.0000
  H   H3426     1.0  0.37614  0.74666  0.13048  1.0000
  C   C1932     1.0  0.47869  0.80034  0.12662  1.0000
  H   H3427     1.0  0.43787  0.91253  0.17408  1.0000
  S   S416      1.0  0.47952  0.82834  0.99192  1.0000
  H   H3428     1.0  0.46421  0.84961  0.13966  1.0000
  Fe  Fe212     1.0  0.45152  0.76724  0.11317  1.0000
  H   H3429     1.0  0.49129  0.76947  0.22557  1.0000
  C   C1933     1.0  0.41729  0.89731  0.20699  1.0000
  C   C1934     1.0  0.44681  0.78773  0.19149  1.0000
  H   H3430     1.0  0.45019  0.75936  0.05309  1.0000
  C   C1935     1.0  0.49396  0.79688  0.11720  1.0000
  C   C1936     1.0  0.46904  0.86979  0.19149  1.0000
  C   C1937     1.0  0.41347  0.76494  0.10470  1.0000
  H   H3431     1.0  0.41851  0.90533  0.21220  1.0000
  H   H3432     1.0  0.41101  0.85919  0.18544  1.0000
  S   S417      1.0  0.49082  0.86201  0.06544  1.0000
  H   H3433     1.0  0.47717  0.88322  0.19956  1.0000
  H   H3434     1.0  0.41130  0.77188  0.11239  1.0000
  C   C1938     1.0  0.44834  0.77333  0.17458  1.0000
  C   C1939     1.0  0.49079  0.89738  0.09270  1.0000
  H   H3435     1.0  0.47302  0.77760  0.08093  1.0000
  H   H3436     1.0  0.42628  0.89218  0.18568  1.0000
  H   H3437     1.0  0.46864  0.75803  0.17039  1.0000
  H   H3438     1.0  0.44491  0.75174  0.07196  1.0000
  H   H3439     1.0  0.48500  0.83836  0.03504  1.0000
  H   H3440     1.0  0.47987  0.90231  0.09105  1.0000
  S   S418      1.0  0.46658  0.74686  0.10796  1.0000
  C   C1940     1.0  0.45347  0.83627  0.13346  1.0000
  H   H3441     1.0  0.46309  0.74549  0.06224  1.0000
  H   H3442     1.0  0.48679  0.85837  0.15526  1.0000
  H   H3443     1.0  0.48663  0.75711  0.14397  1.0000
  H   H3444     1.0  0.44445  0.89122  0.21506  1.0000
  Fe  Fe213     1.0  0.45893  0.83684  0.20207  1.0000
  C   C1941     1.0  0.48041  0.88043  0.13309  1.0000
  C   C1942     1.0  0.47281  0.88253  0.19102  1.0000
  H   H3445     1.0  0.44060  0.79585  0.19747  1.0000
  C   C1943     1.0  0.47190  0.77169  0.05496  1.0000
  C   C1944     1.0  0.47141  0.89411  0.17929  1.0000
  H   H3446     1.0  0.44420  0.86628  0.12881  1.0000
  H   H3447     1.0  0.41919  0.91911  0.18241  1.0000
  H   H3448     1.0  0.47851  0.88980  0.13786  1.0000
  H   H3449     1.0  0.47988  0.88452  0.12166  1.0000
  H   H3450     1.0  0.47166  0.87440  0.13848  1.0000
  H   H3451     1.0  0.42460  0.80210  0.14715  1.0000
  C   C1945     1.0  0.46634  0.82052  0.15170  1.0000
  C   C1946     1.0  0.45907  0.76661  0.06690  1.0000
  H   H3452     1.0  0.47941  0.76394  0.18721  1.0000
  H   H3453     1.0  0.45311  0.86137  0.11177  1.0000
  N   N107      1.0  0.41712  0.88301  0.21757  1.0000
  S   S419      1.0  0.44282  0.82261  0.21117  1.0000
  S   S420      1.0  0.48645  0.91791  0.10763  1.0000
  H   H3454     1.0  0.46490  0.90202  0.15910  1.0000
  H   H3455     1.0  0.43953  0.79086  0.13723  1.0000
  C   C1947     1.0  0.42902  0.89743  0.19273  1.0000
  S   S421      1.0  0.43939  0.76810  0.16429  1.0000
  C   C1948     1.0  0.45488  0.86233  0.12196  1.0000
  H   H3456     1.0  0.48498  0.80208  0.15213  1.0000
  H   H3457     1.0  0.49833  0.79986  0.00862  1.0000
  H   H3458     1.0  0.48615  0.78187  0.02684  1.0000
  H   H3459     1.0  0.45496  0.80012  0.14655  1.0000
  C   C1949     1.0  0.47374  0.81655  0.12687  1.0000
  S   S422      1.0  0.49737  0.82029  0.23105  1.0000
  C   C1950     1.0  0.48262  0.77667  0.07181  1.0000
  H   H3460     1.0  0.45701  0.82491  0.15987  1.0000
  C   C1951     1.0  0.42661  0.88072  0.22794  1.0000
  H   H3461     1.0  0.47160  0.89646  0.23230  1.0000
  S   S423      1.0  0.47955  0.93518  0.13954  1.0000
  H   H3462     1.0  0.44991  0.83724  0.12350  1.0000
  S   S424      1.0  0.50271  0.74511  0.11926  1.0000
  H   H3463     1.0  0.43385  0.91813  0.19066  1.0000
  Fe  Fe214     1.0  0.45067  0.75777  0.14515  1.0000
  H   H3464     1.0  0.47810  0.79970  0.02985  1.0000
  H   H3465     1.0  0.42524  0.75963  0.10267  1.0000
  C   C1952     1.0  0.46254  0.76637  0.17614  1.0000
  S   S425      1.0  0.43644  0.75627  0.13162  1.0000
  C   C1953     1.0  0.48636  0.83700  0.00093  1.0000
  H   H3466     1.0  0.48264  0.90226  0.20632  1.0000
  H   H3467     1.0  0.40678  0.88062  0.19575  1.0000
  C   C1954     1.0  0.44105  0.81325  0.13218  1.0000
  S   S426      1.0  0.46464  0.77010  0.12675  1.0000
  H   H3468     1.0  0.49338  0.84024  0.14411  1.0000
  H   H3469     1.0  0.47128  0.82212  0.11618  1.0000
  C   C1955     1.0  0.43220  0.80166  0.13657  1.0000
  H   H3470     1.0  0.44336  0.83948  0.14150  1.0000
  H   H3471     1.0  0.40812  0.75045  0.13142  1.0000
  H   H3472     1.0  0.49671  0.78546  0.11645  1.0000
  Fe  Fe215     1.0  0.49493  0.92147  0.12473  1.0000
  C   C1956     1.0  0.38284  0.74260  0.13873  1.0000
  H   H3473     1.0  0.49134  0.93213  0.19055  1.0000
  Fe  Fe216     1.0  0.48870  0.91819  0.15678  1.0000
  H   H3474     1.0  0.38425  0.75248  0.14090  1.0000
  C   C1957     1.0  0.42194  0.87041  0.21039  1.0000
  C   C1958     1.0  0.49719  0.75983  0.14046  1.0000
  S   S427      1.0  0.45822  0.84130  0.22313  1.0000
  H   H3475     1.0  0.40644  0.74756  0.10210  1.0000
  C   C1959     1.0  0.47930  0.91088  0.21232  1.0000
  H   H3476     1.0  0.49592  0.79349  0.04727  1.0000
  C   C1960     1.0  0.45406  0.75510  0.06325  1.0000
  C   C1961     1.0  0.49089  0.78552  0.04566  1.0000
  C   C1962     1.0  0.41147  0.86976  0.20155  1.0000
  H   H3477     1.0  0.47443  0.92101  0.20551  1.0000
  C   C1963     1.0  0.40767  0.74351  0.12462  1.0000
  H   H3478     1.0  0.39417  0.88487  0.21917  1.0000
  H   H3479     1.0  0.49347  0.87288  0.15566  1.0000
  H   H3480     1.0  0.44767  0.87252  0.21463  1.0000
  H   H3481     1.0  0.47344  0.84468  0.12274  1.0000
  C   C1964     1.0  0.40407  0.75372  0.11052  1.0000
  C   C1965     1.0  0.45162  0.87618  0.23310  1.0000
  H   H3482     1.0  0.42732  0.86567  0.18209  1.0000
  H   H3483     1.0  0.49879  0.79233  0.22133  1.0000
  H   H3484     1.0  0.42457  0.84965  0.19580  1.0000
  C   C1966     1.0  0.49733  0.85001  0.01614  1.0000
  H   H3485     1.0  0.48074  0.76200  0.05332  1.0000
  H   H3486     1.0  0.42313  0.86007  0.21856  1.0000
  H   H3487     1.0  0.40232  0.86499  0.20889  1.0000
  H   H3488     1.0  0.48853  0.77400  0.09789  1.0000
  H   H3489     1.0  0.48730  0.76489  0.07296  1.0000
  H   H3490     1.0  0.49294  0.77170  0.15680  1.0000
  C   C1967     1.0  0.49430  0.78270  0.07465  1.0000
  C   C1968     1.0  0.48789  0.79080  0.03034  1.0000
  C   C1969     1.0  0.49830  0.77454  0.08900  1.0000
  C   C1970     1.0  0.50081  0.76804  0.14778  1.0000
  H   H3491     1.0  0.50272  0.80551  0.02220  1.0000
  H   H3492     1.0  0.48782  0.87053  0.23498  1.0000
  C   C1971     1.0  0.40174  0.88298  0.22630  1.0000
  H   H3493     1.0  0.49788  0.86488  0.17784  1.0000
  C   C1972     1.0  0.49533  0.87066  0.13428  1.0000
  H   H3494     1.0  0.42453  0.84824  0.99217  1.0000
  H   H3495     1.0  0.49776  0.96158  0.18666  1.0000
  C   C1973     1.0  0.49682  0.90305  0.10047  1.0000
  S   S428      1.0  0.49595  0.96816  0.13433  1.0000
  H   H3496     1.0  0.48798  0.92051  0.22379  1.0000
  H   H3497     1.0  0.48928  0.89579  0.05570  1.0000
  H   H3498     1.0  0.49350  0.84287  0.19709  1.0000
  C   C1974     1.0  0.49186  0.84892  0.23204  1.0000
  H   H3499     1.0  0.49959  0.77548  0.04577  1.0000
  H   H3500     1.0  0.49802  0.84172  0.17159  1.0000
  H   H3501     1.0  0.48066  0.84953  0.23212  1.0000
  H   H3502     1.0  0.46325  0.87627  0.22804  1.0000
  H   H3503     1.0  0.50277  0.85356  0.20180  1.0000
  C   C1975     1.0  0.49379  0.77244  0.23441  1.0000
  S   S429      1.0  0.49320  0.82938  0.06169  1.0000
  C   C1976     1.0  0.49867  0.88512  0.08740  1.0000
  Fe  Fe217     1.0  0.49880  0.94445  0.13669  1.0000
  H   H3504     1.0  0.49711  0.86237  0.12814  1.0000
  H   H3505     1.0  0.46337  0.91532  0.23172  1.0000
  H   H3506     1.0  0.37273  0.89890  0.23293  1.0000
  C   C1977     1.0  0.49911  0.93227  0.19677  1.0000
  H   H3507     1.0  0.49631  0.90791  0.03964  1.0000
  H   H3508     1.0  0.40119  0.87219  0.23353  1.0000
  C   C1978     1.0  0.50077  0.79622  0.01947  1.0000
  H   H3509     1.0  0.42570  0.87050  0.23601  1.0000
  H   H3510     1.0  0.50220  0.79852  0.12194  1.0000
  H   H3511     1.0  0.50184  0.90917  0.18794  1.0000
  H   H3512     1.0  0.49662  0.90228  0.22402  1.0000
  C   C1979     1.0  0.49919  0.89977  0.04920  1.0000
  S   S430      1.0  0.50166  0.83367  0.08994  1.0000
  C   C1980     1.0  0.39503  0.89435  0.23566  1.0000
  C   C1981     1.0  0.50222  0.83606  0.23102  1.0000
  Fe  Fe218     1.0  0.50248  0.84859  0.04917  1.0000
  S   S431      1.0  0.50247  0.90353  0.14232  1.0000
  H   H3513     1.0  0.50273  0.90485  0.05586  1.0000
  H   H3514     1.0  0.50293  0.82653  0.15632  1.0000
  H   H3515     1.0  0.50286  0.81562  0.13796  1.0000
  H   H3516     1.0  0.17251  0.83855  0.45263  1.0000
  H   H3517     1.0  0.48885  0.82102  0.26647  1.0000
  Fe  Fe219     1.0  0.21160  0.78330  0.47026  1.0000
  S   S432      1.0  0.23507  0.78432  0.46675  1.0000
  S   S433      1.0  0.20422  0.76302  0.47187  1.0000
  H   H3518     1.0  0.37657  0.82047  0.39284  1.0000
  H   H3519     1.0  0.38793  0.81042  0.40550  1.0000
  H   H3520     1.0  0.37046  0.80819  0.34645  1.0000
  Fe  Fe220     1.0  0.22795  0.80799  0.45790  1.0000
  S   S434      1.0  0.24164  0.81999  0.43826  1.0000
  C   C1982     1.0  0.17272  0.83432  0.44339  1.0000
  H   H3521     1.0  0.42896  0.84062  0.29219  1.0000
  S   S435      1.0  0.20491  0.80654  0.45930  1.0000
  H   H3522     1.0  0.18381  0.82788  0.43986  1.0000
  H   H3523     1.0  0.46004  0.95540  0.34710  1.0000
  H   H3524     1.0  0.46138  0.84415  0.27427  1.0000
  H   H3525     1.0  0.27814  0.80093  0.46943  1.0000
  H   H3526     1.0  0.26845  0.80355  0.48719  1.0000
  H   H3527     1.0  0.31785  0.96593  0.33126  1.0000
  H   H3528     1.0  0.42853  0.83272  0.31101  1.0000
  H   H3529     1.0  0.40410  0.93278  0.29885  1.0000
  H   H3530     1.0  0.46084  0.97769  0.35374  1.0000
  H   H3531     1.0  0.16130  0.82220  0.43765  1.0000
  S   S436      1.0  0.42333  0.82980  0.24958  1.0000
  H   H3532     1.0  0.39188  0.82945  0.33115  1.0000
  S   S437      1.0  0.14733  0.92488  0.47504  1.0000
  H   H3533     1.0  0.41099  0.82657  0.29314  1.0000
  H   H3534     1.0  0.47256  0.97351  0.32911  1.0000
  H   H3535     1.0  0.34847  0.93323  0.30761  1.0000
  Fe  Fe221     1.0  0.43214  0.88129  0.31323  1.0000
  S   S438      1.0  0.42110  0.90084  0.29931  1.0000
  S   S439      1.0  0.45644  0.87681  0.31032  1.0000
  Fe  Fe222     1.0  0.40425  0.87032  0.32716  1.0000
  S   S440      1.0  0.39090  0.88902  0.31439  1.0000
  S   S441      1.0  0.39566  0.85207  0.34359  1.0000
  Fe  Fe223     1.0  0.40997  0.88557  0.29585  1.0000
  S   S442      1.0  0.40697  0.88583  0.27417  1.0000
  Fe  Fe224     1.0  0.40328  0.90239  0.31913  1.0000
  S   S443      1.0  0.39279  0.92187  0.32881  1.0000
  S   S444      1.0  0.42239  0.86592  0.30826  1.0000
  S   S445      1.0  0.41521  0.88381  0.33332  1.0000
  Fe  Fe225     1.0  0.32859  0.86459  0.40575  1.0000
  S   S446      1.0  0.30612  0.87366  0.41744  1.0000
  S   S447      1.0  0.33284  0.87023  0.38167  1.0000
  Fe  Fe226     1.0  0.34007  0.85297  0.43259  1.0000
  S   S448      1.0  0.31889  0.86117  0.44648  1.0000
  S   S449      1.0  0.35925  0.83960  0.44172  1.0000
  Fe  Fe227     1.0  0.30862  0.85301  0.43383  1.0000
  S   S450      1.0  0.29032  0.84353  0.44955  1.0000
  Fe  Fe228     1.0  0.31776  0.88114  0.42922  1.0000
  S   S451      1.0  0.30753  0.90250  0.43516  1.0000
  S   S452      1.0  0.33016  0.84298  0.42112  1.0000
  S   S453      1.0  0.34017  0.87374  0.41632  1.0000
  Fe  Fe229     1.0  0.45136  0.91499  0.37873  1.0000
  S   S454      1.0  0.47062  0.91004  0.36097  1.0000
  S   S455      1.0  0.42968  0.92759  0.37434  1.0000
  Fe  Fe230     1.0  0.46716  0.89840  0.40196  1.0000
  H   H3536     1.0  0.49646  0.90312  0.41430  1.0000
  S   S456      1.0  0.46533  0.89113  0.42574  1.0000
  C   C1983     1.0  0.42209  0.91082  0.35032  1.0000
  Fe  Fe231     1.0  0.47371  0.88773  0.37456  1.0000
  S   S457      1.0  0.48147  0.86857  0.36455  1.0000
  S   S458      1.0  0.46377  0.92164  0.39057  1.0000
  S   S459      1.0  0.45328  0.89225  0.39121  1.0000
  H   H3537     1.0  0.48045  0.94523  0.42931  1.0000
  C   C1984     1.0  0.48121  0.91063  0.31401  1.0000
  S   S460      1.0  0.34709  0.92465  0.45428  1.0000
  Fe  Fe232     1.0  0.39201  0.91314  0.47291  1.0000
  H   H3538     1.0  0.46753  0.89147  0.25970  1.0000
  S   S461      1.0  0.41007  0.92495  0.46275  1.0000
  H   H3539     1.0  0.40676  0.99082  0.40011  1.0000
  H   H3540     1.0  0.13277  0.75003  0.39334  1.0000
  H   H3541     1.0  0.35949  0.83194  0.33257  1.0000
  S   S462      1.0  0.38441  0.90313  0.45971  1.0000
  C   C1985     1.0  0.18557  0.86311  0.46383  1.0000
  H   H3542     1.0  0.06627  0.82084  0.46056  1.0000
  H   H3543     1.0  0.46517  0.82516  0.32054  1.0000
  H   H3544     1.0  0.36959  0.81991  0.28840  1.0000
  C   C1986     1.0  0.44925  0.90017  0.43555  1.0000
  C   C1987     1.0  0.44309  0.91446  0.43002  1.0000
  C   C1988     1.0  0.43105  0.92207  0.43842  1.0000
  C   C1989     1.0  0.42461  0.91513  0.45207  1.0000
  C   C1990     1.0  0.43017  0.90056  0.45727  1.0000
  C   C1991     1.0  0.44272  0.89318  0.44916  1.0000
  H   H3545     1.0  0.44786  0.91976  0.41943  1.0000
  H   H3546     1.0  0.42666  0.93330  0.43431  1.0000
  H   H3547     1.0  0.42504  0.89508  0.46768  1.0000
  H   H3548     1.0  0.44731  0.88203  0.45339  1.0000
  C   C1992     1.0  0.36582  0.84655  0.45243  1.0000
  C   C1993     1.0  0.37659  0.83739  0.45946  1.0000
  C   C1994     1.0  0.38266  0.84248  0.46764  1.0000
  C   C1995     1.0  0.37814  0.85683  0.46881  1.0000
  C   C1996     1.0  0.36720  0.86609  0.46192  1.0000
  C   C1997     1.0  0.36100  0.86092  0.45372  1.0000
  H   H3549     1.0  0.38036  0.82631  0.45849  1.0000
  H   H3550     1.0  0.47330  0.92748  0.45141  1.0000
  H   H3551     1.0  0.36368  0.87721  0.46276  1.0000
  H   H3552     1.0  0.35278  0.86806  0.44817  1.0000
  C   C1998     1.0  0.34369  0.94634  0.43110  1.0000
  C   C1999     1.0  0.34828  0.94190  0.44400  1.0000
  C   C2000     1.0  0.35333  0.95134  0.44855  1.0000
  C   C2001     1.0  0.35300  0.96550  0.44051  1.0000
  C   C2002     1.0  0.40461  0.94010  0.30484  1.0000
  H   H3553     1.0  0.35689  0.94796  0.45852  1.0000
  H   H3554     1.0  0.35615  0.97305  0.44438  1.0000
  C   C2003     1.0  0.31912  0.93929  0.39776  1.0000
  C   C2004     1.0  0.30913  0.94216  0.41028  1.0000
  C   C2005     1.0  0.30530  0.93082  0.42161  1.0000
  C   C2006     1.0  0.31149  0.91658  0.42048  1.0000
  C   C2007     1.0  0.32091  0.91369  0.40768  1.0000
  C   C2008     1.0  0.32474  0.92503  0.39635  1.0000
  H   H3555     1.0  0.30425  0.95312  0.41121  1.0000
  H   H3556     1.0  0.29755  0.93309  0.43123  1.0000
  H   H3557     1.0  0.32540  0.90275  0.40653  1.0000
  H   H3558     1.0  0.33220  0.92273  0.38660  1.0000
  C   C2009     1.0  0.46286  0.87382  0.32589  1.0000
  C   C2010     1.0  0.47770  0.86813  0.32547  1.0000
  C   C2011     1.0  0.48325  0.86619  0.33753  1.0000
  C   C2012     1.0  0.47410  0.87048  0.34987  1.0000
  C   C2013     1.0  0.45924  0.87615  0.35034  1.0000
  C   C2014     1.0  0.45357  0.87753  0.33844  1.0000
  H   H3559     1.0  0.10674  0.74879  0.40181  1.0000
  H   H3560     1.0  0.37465  0.98780  0.40839  1.0000
  H   H3561     1.0  0.45212  0.87933  0.35992  1.0000
  H   H3562     1.0  0.44214  0.88185  0.33888  1.0000
  C   C2015     1.0  0.37852  0.85736  0.35463  1.0000
  C   C2016     1.0  0.37052  0.87151  0.35188  1.0000
  C   C2017     1.0  0.35660  0.87541  0.36041  1.0000
  C   C2018     1.0  0.35083  0.86534  0.37206  1.0000
  C   C2019     1.0  0.35900  0.85127  0.37510  1.0000
  C   C2020     1.0  0.37273  0.84724  0.36622  1.0000
  H   H3563     1.0  0.37491  0.87942  0.34305  1.0000
  H   H3564     1.0  0.35026  0.88628  0.35797  1.0000
  H   H3565     1.0  0.35447  0.84338  0.38392  1.0000
  H   H3566     1.0  0.37881  0.83624  0.36826  1.0000
  C   C2021     1.0  0.43033  0.97496  0.35878  1.0000
  C   C2022     1.0  0.42630  0.95336  0.35531  1.0000
  C   C2023     1.0  0.43019  0.94572  0.36827  1.0000
  C   C2024     1.0  0.43429  0.95264  0.37643  1.0000
  C   C2025     1.0  0.43417  0.96734  0.37177  1.0000
  H   H3567     1.0  0.42296  0.94808  0.34906  1.0000
  H   H3568     1.0  0.43720  0.94673  0.38650  1.0000
  H   H3569     1.0  0.43698  0.97277  0.37825  1.0000
  C   C2026     1.0  0.41104  0.96189  0.30527  1.0000
  H   H3570     1.0  0.22061  0.90518  0.48355  1.0000
  H   H3571     1.0  0.38011  0.83088  0.41761  1.0000
  C   C2027     1.0  0.39963  0.93734  0.31970  1.0000
  C   C2028     1.0  0.40010  0.94702  0.32734  1.0000
  C   C2029     1.0  0.40596  0.95921  0.32016  1.0000
  H   H3572     1.0  0.39623  0.94495  0.33885  1.0000
  H   H3573     1.0  0.40666  0.96645  0.32612  1.0000
  C   C2030     1.0  0.41933  0.84476  0.25728  1.0000
  C   C2031     1.0  0.40476  0.85201  0.26069  1.0000
  C   C2032     1.0  0.40108  0.86436  0.26621  1.0000
  C   C2033     1.0  0.41182  0.86926  0.26899  1.0000
  C   C2034     1.0  0.42638  0.86173  0.26612  1.0000
  C   C2035     1.0  0.43017  0.84954  0.26014  1.0000
  H   H3574     1.0  0.39635  0.84833  0.25856  1.0000
  H   H3575     1.0  0.38988  0.87026  0.26813  1.0000
  H   H3576     1.0  0.43474  0.86563  0.26801  1.0000
  H   H3577     1.0  0.44143  0.84392  0.25761  1.0000
  C   C2036     1.0  0.47754  0.82442  0.27253  1.0000
  H   H3578     1.0  0.40117  0.85086  0.29615  1.0000
  S   S463      1.0  0.08799  0.76402  0.46283  1.0000
  H   H3579     1.0  0.15059  0.83209  0.45120  1.0000
  H   H3580     1.0  0.41029  0.81942  0.31199  1.0000
  H   H3581     1.0  0.38740  0.82446  0.29960  1.0000
  C   C2037     1.0  0.36477  0.83469  0.30252  1.0000
  C   C2038     1.0  0.36249  0.83054  0.28980  1.0000
  C   C2039     1.0  0.25560  0.82614  0.44118  1.0000
  C   C2040     1.0  0.25676  0.82515  0.45507  1.0000
  C   C2041     1.0  0.26726  0.83083  0.45733  1.0000
  C   C2042     1.0  0.27717  0.83705  0.44574  1.0000
  C   C2043     1.0  0.27625  0.83794  0.43177  1.0000
  C   C2044     1.0  0.26539  0.83257  0.42951  1.0000
  H   H3582     1.0  0.24955  0.82003  0.46413  1.0000
  H   H3583     1.0  0.26778  0.83021  0.46817  1.0000
  H   H3584     1.0  0.28388  0.84269  0.42275  1.0000
  H   H3585     1.0  0.26465  0.83324  0.41872  1.0000
  C   C2045     1.0  0.36230  0.88045  0.30349  1.0000
  H   H3586     1.0  0.44739  0.88384  0.24033  1.0000
  H   H3587     1.0  0.36315  0.85405  0.31840  1.0000
  H   H3588     1.0  0.38496  0.87108  0.29700  1.0000
  C   C2046     1.0  0.41165  0.82896  0.30314  1.0000
  H   H3589     1.0  0.37277  0.86437  0.29128  1.0000
  H   H3590     1.0  0.37849  0.81718  0.35476  1.0000
  H   H3591     1.0  0.10555  0.85605  0.44471  1.0000
  C   C2047     1.0  0.34791  0.97002  0.42783  1.0000
  C   C2048     1.0  0.16134  0.82522  0.44752  1.0000
  H   H3592     1.0  0.04485  0.83027  0.44687  1.0000
  C   C2049     1.0  0.17260  0.75472  0.45026  1.0000
  C   C2050     1.0  0.18095  0.76511  0.44297  1.0000
  C   C2051     1.0  0.19026  0.76824  0.44963  1.0000
  C   C2052     1.0  0.19163  0.76064  0.46349  1.0000
  C   C2053     1.0  0.36173  0.97525  0.33988  1.0000
  H   H3593     1.0  0.35151  0.98041  0.34649  1.0000
  H   H3594     1.0  0.18031  0.77067  0.43208  1.0000
  H   H3595     1.0  0.19679  0.77610  0.44386  1.0000
  H   H3596     1.0  0.33386  0.96698  0.35337  1.0000
  C   C2054     1.0  0.09077  0.77949  0.46572  1.0000
  H   H3597     1.0  0.29630  0.93211  0.45606  1.0000
  C   C2055     1.0  0.18325  0.75028  0.47076  1.0000
  C   C2056     1.0  0.09547  0.80400  0.47080  1.0000
  C   C2057     1.0  0.10379  0.79868  0.45875  1.0000
  C   C2058     1.0  0.10165  0.78626  0.45635  1.0000
  C   C2059     1.0  0.49296  0.90392  0.32273  1.0000
  H   H3598     1.0  0.02040  0.82910  0.44575  1.0000
  H   H3599     1.0  0.11199  0.80412  0.45136  1.0000
  H   H3600     1.0  0.10825  0.78204  0.44712  1.0000
  H   H3601     1.0  0.49474  0.86172  0.33720  1.0000
  H   H3602     1.0  0.38733  0.98029  0.42943  1.0000
  H   H3603     1.0  0.48494  0.86732  0.26402  1.0000
  S   S464      1.0  0.48791  0.89156  0.38654  1.0000
  N   N108      1.0  0.38826  0.91912  0.41134  1.0000
  C   C2060     1.0  0.39101  0.93262  0.41320  1.0000
  C   C2061     1.0  0.39144  0.91953  0.39555  1.0000
  C   C2062     1.0  0.37259  0.91847  0.41839  1.0000
  C   C2063     1.0  0.39800  0.90587  0.41825  1.0000
  C   C2064     1.0  0.41459  0.90550  0.41371  1.0000
  C   C2065     1.0  0.39070  0.93301  0.42875  1.0000
  C   C2066     1.0  0.36722  0.90604  0.41643  1.0000
  C   C2067     1.0  0.38107  0.93133  0.38688  1.0000
  C   C2068     1.0  0.38621  0.93143  0.37089  1.0000
  C   C2069     1.0  0.42300  0.89204  0.42230  1.0000
  C   C2070     1.0  0.39317  0.94732  0.42929  1.0000
  C   C2071     1.0  0.35117  0.90674  0.42383  1.0000
  H   H3604     1.0  0.38266  0.94213  0.40950  1.0000
  H   H3605     1.0  0.40165  0.93475  0.40627  1.0000
  H   H3606     1.0  0.40263  0.92125  0.39040  1.0000
  H   H3607     1.0  0.39152  0.90895  0.39374  1.0000
  H   H3608     1.0  0.36516  0.92876  0.41462  1.0000
  H   H3609     1.0  0.37069  0.91727  0.43015  1.0000
  H   H3610     1.0  0.39466  0.90416  0.43010  1.0000
  H   H3611     1.0  0.39669  0.89614  0.41583  1.0000
  H   H3612     1.0  0.41718  0.91491  0.41553  1.0000
  H   H3613     1.0  0.41879  0.90529  0.40219  1.0000
  H   H3614     1.0  0.38003  0.93173  0.43597  1.0000
  H   H3615     1.0  0.39930  0.92439  0.43317  1.0000
  H   H3616     1.0  0.37346  0.89545  0.42120  1.0000
  H   H3617     1.0  0.36825  0.90660  0.40497  1.0000
  H   H3618     1.0  0.36980  0.92953  0.39041  1.0000
  H   H3619     1.0  0.38073  0.94215  0.38813  1.0000
  H   H3620     1.0  0.39722  0.93393  0.36669  1.0000
  H   H3621     1.0  0.38665  0.92086  0.36889  1.0000
  H   H3622     1.0  0.37854  0.93978  0.36492  1.0000
  H   H3623     1.0  0.43470  0.89232  0.41955  1.0000
  H   H3624     1.0  0.41894  0.89147  0.43400  1.0000
  H   H3625     1.0  0.42209  0.88223  0.41972  1.0000
  H   H3626     1.0  0.39272  0.94735  0.44054  1.0000
  H   H3627     1.0  0.40405  0.94890  0.42269  1.0000
  H   H3628     1.0  0.38454  0.95635  0.42539  1.0000
  H   H3629     1.0  0.34427  0.91710  0.41941  1.0000
  H   H3630     1.0  0.34748  0.89792  0.42210  1.0000
  H   H3631     1.0  0.34955  0.90548  0.43556  1.0000
  H   H3632     1.0  0.06295  0.81959  0.43255  1.0000
  H   H3633     1.0  0.36071  0.88837  0.38650  1.0000
  H   H3634     1.0  0.37785  0.85847  0.32191  1.0000
  H   H3635     1.0  0.47660  0.94659  0.35345  1.0000
  C   C2072     1.0  0.14790  0.87137  0.45808  1.0000
  C   C2073     1.0  0.14991  0.87496  0.44161  1.0000
  H   H3636     1.0  0.32129  0.79709  0.47146  1.0000
  H   H3637     1.0  0.31742  0.83018  0.48611  1.0000
  N   N109      1.0  0.45310  0.92193  0.31734  1.0000
  H   H3638     1.0  0.35719  0.84515  0.30358  1.0000
  C   C2074     1.0  0.16566  0.87595  0.43415  1.0000
  C   C2075     1.0  0.06331  0.80798  0.43446  1.0000
  C   C2076     1.0  0.29415  0.81235  0.48170  1.0000
  H   H3639     1.0  0.35897  0.81999  0.35798  1.0000
  H   H3640     1.0  0.44823  0.89217  0.26641  1.0000
  H   H3641     1.0  0.49861  0.76255  0.24157  1.0000
  C   C2077     1.0  0.38351  0.82946  0.32554  1.0000
  C   C2078     1.0  0.36930  0.81828  0.34980  1.0000
  C   C2079     1.0  0.49195  0.94647  0.37824  1.0000
  H   H3642     1.0  0.15409  0.87768  0.46083  1.0000
  S   S465      1.0  0.16141  0.75065  0.44143  1.0000
  H   H3643     1.0  0.14291  0.88536  0.43759  1.0000
  H   H3644     1.0  0.14748  0.86628  0.43830  1.0000
  H   H3645     1.0  0.28242  0.87122  0.46153  1.0000
  H   H3646     1.0  0.14144  0.90020  0.45604  1.0000
  H   H3647     1.0  0.05605  0.80638  0.42857  1.0000
  H   H3648     1.0  0.33248  0.97890  0.33663  1.0000
  H   H3649     1.0  0.42188  0.90054  0.34826  1.0000
  C   C2080     1.0  0.37804  0.81895  0.40385  1.0000
  C   C2081     1.0  0.48038  0.91655  0.45313  1.0000
  H   H3650     1.0  0.03275  0.82876  0.46376  1.0000
  C   C2082     1.0  0.35442  0.94620  0.34600  1.0000
  H   H3651     1.0  0.17335  0.86580  0.43766  1.0000
  H   H3652     1.0  0.16701  0.87798  0.42237  1.0000
  H   H3653     1.0  0.16846  0.88494  0.43664  1.0000
  H   H3654     1.0  0.47875  0.86800  0.28238  1.0000
  C   C2083     1.0  0.07889  0.80078  0.42810  1.0000
  H   H3655     1.0  0.34090  0.96332  0.41263  1.0000
  Fe  Fe233     1.0  0.48339  0.91431  0.37413  1.0000
  H   H3656     1.0  0.48115  0.94576  0.37822  1.0000
  H   H3657     1.0  0.34186  0.81302  0.44533  1.0000
  H   H3658     1.0  0.45678  0.83505  0.29773  1.0000
  H   H3659     1.0  0.03466  0.79679  0.44965  1.0000
  C   C2084     1.0  0.49722  0.84213  0.27299  1.0000
  H   H3660     1.0  0.06776  0.80047  0.45570  1.0000
  H   H3661     1.0  0.40258  0.82975  0.39818  1.0000
  C   C2085     1.0  0.05505  0.82668  0.46451  1.0000
  H   H3662     1.0  0.41412  0.95442  0.28613  1.0000
  H   H3663     1.0  0.48945  0.94335  0.41175  1.0000
  H   H3664     1.0  0.39892  0.97776  0.38343  1.0000
  C   C2086     1.0  0.47342  0.84097  0.27077  1.0000
  H   H3665     1.0  0.39740  0.96083  0.36914  1.0000
  C   C2087     1.0  0.47742  0.96730  0.33841  1.0000
  H   H3666     1.0  0.08005  0.78899  0.42990  1.0000
  H   H3667     1.0  0.36896  0.84094  0.40499  1.0000
  H   H3668     1.0  0.36841  0.81537  0.41160  1.0000
  H   H3669     1.0  0.37829  0.96639  0.36873  1.0000
  C   C2088     1.0  0.46754  0.81944  0.26653  1.0000
  H   H3670     1.0  0.40679  0.97852  0.42557  1.0000
  H   H3671     1.0  0.36710  0.84085  0.34110  1.0000
  C   C2089     1.0  0.37465  0.85494  0.31379  1.0000
  C   C2090     1.0  0.39333  0.85257  0.41217  1.0000
  H   H3672     1.0  0.46321  0.84324  0.32248  1.0000
  H   H3673     1.0  0.20603  0.99023  0.46209  1.0000
  H   H3674     1.0  0.21608  0.85973  0.45248  1.0000
  C   C2091     1.0  0.37872  0.89513  0.24171  1.0000
  H   H3675     1.0  0.22474  0.84129  0.45889  1.0000
  H   H3676     1.0  0.35095  0.82985  0.29171  1.0000
  H   H3677     1.0  0.36499  0.83873  0.27979  1.0000
  H   H3678     1.0  0.48438  0.96463  0.38835  1.0000
  H   H3679     1.0  0.21793  0.94388  0.47751  1.0000
  H   H3680     1.0  0.47583  0.84569  0.25908  1.0000
  C   C2092     1.0  0.29217  0.79678  0.48432  1.0000
  H   H3681     1.0  0.15039  0.78397  0.48257  1.0000
  C   C2093     1.0  0.47213  0.95322  0.34400  1.0000
  H   H3682     1.0  0.34640  0.79480  0.45566  1.0000
  H   H3683     1.0  0.01156  0.82470  0.42710  1.0000
  C   C2094     1.0  0.47088  0.93339  0.42097  1.0000
  H   H3684     1.0  0.48376  0.92074  0.30681  1.0000
  C   C2095     1.0  0.18110  0.84332  0.48409  1.0000
  H   H3685     1.0  0.47704  0.96897  0.35978  1.0000
  C   C2096     1.0  0.05885  0.80116  0.45057  1.0000
  H   H3686     1.0  0.24074  0.86327  0.48602  1.0000
  H   H3687     1.0  0.20440  0.88075  0.48149  1.0000
  H   H3688     1.0  0.46435  0.92935  0.43169  1.0000
  H   H3689     1.0  0.47730  0.89467  0.46285  1.0000
  H   H3690     1.0  0.50169  0.96621  0.35103  1.0000
  H   H3691     1.0  0.46263  0.90660  0.45481  1.0000
  H   H3692     1.0  0.40009  0.97450  0.40556  1.0000
  H   H3693     1.0  0.49543  0.91942  0.40051  1.0000
  C   C2097     1.0  0.01604  0.81535  0.43504  1.0000
  C   C2098     1.0  0.12134  0.96445  0.47866  1.0000
  H   H3694     1.0  0.31864  0.93681  0.46957  1.0000
  H   H3695     1.0  0.31648  0.81429  0.46022  1.0000
  H   H3696     1.0  0.48494  0.86521  0.31582  1.0000
  H   H3697     1.0  0.13405  0.74844  0.41146  1.0000
  H   H3698     1.0  0.35691  0.80767  0.45405  1.0000
  H   H3699     1.0  0.38076  0.98235  0.32492  1.0000
  H   H3700     1.0  0.05186  0.80061  0.47862  1.0000
  C   C2099     1.0  0.44705  0.92620  0.27903  1.0000
  C   C2100     1.0  0.38861  0.98402  0.36597  1.0000
  C   C2101     1.0  0.12486  0.86240  0.46614  1.0000
  N   N110      1.0  0.49618  0.92500  0.42809  1.0000
  H   H3701     1.0  0.46641  0.95039  0.40240  1.0000
  H   H3702     1.0  0.11038  0.76316  0.40704  1.0000
  H   H3703     1.0  0.28676  0.90755  0.47594  1.0000
  S   S466      1.0  0.17768  0.89132  0.46571  1.0000
  C   C2102     1.0  0.38295  0.87984  0.38973  1.0000
  C   C2103     1.0  0.46116  0.84199  0.30165  1.0000
  H   H3704     1.0  0.39762  0.84152  0.41809  1.0000
  N   N111      1.0  0.25870  0.89302  0.42980  1.0000
  C   C2104     1.0  0.26381  0.88040  0.42267  1.0000
  C   C2105     1.0  0.26617  0.88962  0.44205  1.0000
  C   C2106     1.0  0.24235  0.89548  0.43496  1.0000
  C   C2107     1.0  0.26249  0.90653  0.41950  1.0000
  C   C2108     1.0  0.27879  0.90544  0.41178  1.0000
  C   C2109     1.0  0.25906  0.88275  0.40844  1.0000
  C   C2110     1.0  0.23512  0.90705  0.44402  1.0000
  C   C2111     1.0  0.26170  0.87750  0.45497  1.0000
  C   C2112     1.0  0.27061  0.87467  0.46620  1.0000
  C   C2113     1.0  0.28138  0.91976  0.40186  1.0000
  C   C2114     1.0  0.26500  0.86929  0.40227  1.0000
  C   C2115     1.0  0.21863  0.90820  0.44886  1.0000
  H   H3705     1.0  0.25979  0.87088  0.42999  1.0000
  H   H3706     1.0  0.27587  0.87685  0.42057  1.0000
  H   H3707     1.0  0.27819  0.88627  0.43824  1.0000
  H   H3708     1.0  0.26458  0.89941  0.44614  1.0000
  H   H3709     1.0  0.23905  0.88525  0.44118  1.0000
  H   H3710     1.0  0.23704  0.89893  0.42568  1.0000
  H   H3711     1.0  0.25583  0.91044  0.41123  1.0000
  H   H3712     1.0  0.25964  0.91539  0.42524  1.0000
  H   H3713     1.0  0.28257  0.89725  0.40518  1.0000
  H   H3714     1.0  0.28574  0.90260  0.41963  1.0000
  H   H3715     1.0  0.24702  0.88517  0.41016  1.0000
  H   H3716     1.0  0.26318  0.89168  0.40020  1.0000
  H   H3717     1.0  0.23688  0.91778  0.43766  1.0000
  H   H3718     1.0  0.23952  0.90452  0.45375  1.0000
  H   H3719     1.0  0.25005  0.88043  0.46025  1.0000
  H   H3720     1.0  0.26357  0.86731  0.45158  1.0000
  H   H3721     1.0  0.10951  0.91671  0.46248  1.0000
  H   H3722     1.0  0.26880  0.88447  0.47029  1.0000
  S   S467      1.0  0.33701  0.98668  0.38334  1.0000
  H   H3723     1.0  0.27486  0.92318  0.39353  1.0000
  H   H3724     1.0  0.27853  0.92822  0.40808  1.0000
  H   H3725     1.0  0.29311  0.91858  0.39643  1.0000
  H   H3726     1.0  0.27709  0.86619  0.40045  1.0000
  H   H3727     1.0  0.26031  0.86023  0.40966  1.0000
  H   H3728     1.0  0.26193  0.87137  0.39185  1.0000
  H   H3729     1.0  0.13275  0.85191  0.46570  1.0000
  C   C2116     1.0  0.13014  0.90093  0.46259  1.0000
  H   H3730     1.0  0.21365  0.91652  0.45532  1.0000
  N   N112      1.0  0.15394  0.80230  0.46511  1.0000
  C   C2117     1.0  0.16500  0.81165  0.45934  1.0000
  C   C2118     1.0  0.15961  0.78875  0.47536  1.0000
  C   C2119     1.0  0.15180  0.79810  0.45254  1.0000
  C   C2120     1.0  0.13938  0.81018  0.47228  1.0000
  Fe  Fe234     1.0  0.10897  0.74745  0.46250  1.0000
  C   C2121     1.0  0.14311  0.78619  0.45611  1.0000
  H   H3731     1.0  0.42904  0.86747  0.36442  1.0000
  H   H3732     1.0  0.44744  0.83714  0.32292  1.0000
  H   H3733     1.0  0.50073  0.83027  0.27649  1.0000
  C   C2122     1.0  0.14070  0.78414  0.44239  1.0000
  H   H3734     1.0  0.17575  0.80515  0.45481  1.0000
  H   H3735     1.0  0.16694  0.81541  0.46796  1.0000
  H   H3736     1.0  0.28649  0.84170  0.48068  1.0000
  H   H3737     1.0  0.16642  0.78039  0.46941  1.0000
  H   H3738     1.0  0.16260  0.79432  0.44563  1.0000
  H   H3739     1.0  0.14595  0.80760  0.44570  1.0000
  H   H3740     1.0  0.13445  0.81940  0.46451  1.0000
  C   C2123     1.0  0.08451  0.79726  0.48011  1.0000
  H   H3741     1.0  0.17548  0.75348  0.37178  1.0000
  H   H3742     1.0  0.45609  0.82180  0.27267  1.0000
  H   H3743     1.0  0.13229  0.78886  0.46322  1.0000
  H   H3744     1.0  0.14904  0.77573  0.46150  1.0000
  C   C2124     1.0  0.12363  0.88845  0.46244  1.0000
  H   H3745     1.0  0.40490  0.86307  0.36630  1.0000
  H   H3746     1.0  0.08675  0.80278  0.43305  1.0000
  C   C2125     1.0  0.47724  0.86336  0.27409  1.0000
  H   H3747     1.0  0.05920  0.84633  0.44900  1.0000
  H   H3748     1.0  0.48348  0.83045  0.29741  1.0000
  H   H3749     1.0  0.29973  0.94104  0.47701  1.0000
  C   C2126     1.0  0.49360  0.98844  0.33978  1.0000
  H   H3750     1.0  0.13391  0.79401  0.43702  1.0000
  H   H3751     1.0  0.15128  0.78154  0.43478  1.0000
  H   H3752     1.0  0.13509  0.77515  0.44502  1.0000
  C   C2127     1.0  0.38779  0.98348  0.38182  1.0000
  C   C2128     1.0  0.32231  0.88137  0.46861  1.0000
  H   H3753     1.0  0.43018  0.85618  0.35267  1.0000
  C   C2129     1.0  0.48461  0.93725  0.42239  1.0000
  C   C2130     1.0  0.47738  0.84172  0.29430  1.0000
  H   H3754     1.0  0.45729  0.92965  0.27275  1.0000
  H   H3755     1.0  0.49635  0.98589  0.32903  1.0000
  H   H3756     1.0  0.02201  0.80638  0.46220  1.0000
  H   H3757     1.0  0.38032  0.97632  0.38873  1.0000
  H   H3758     1.0  0.12178  0.89050  0.45152  1.0000
  H   H3759     1.0  0.30191  0.95371  0.43795  1.0000
  H   H3760     1.0  0.39199  0.96921  0.35236  1.0000
  C   C2131     1.0  0.31831  0.89116  0.47911  1.0000
  H   H3761     1.0  0.19134  0.84080  0.46253  1.0000
  H   H3762     1.0  0.39876  0.98734  0.35929  1.0000
  H   H3763     1.0  0.24049  0.85048  0.46915  1.0000
  C   C2132     1.0  0.12885  0.74511  0.40478  1.0000
  H   H3764     1.0  0.21609  0.89781  0.45550  1.0000
  H   H3765     1.0  0.39108  0.83530  0.47294  1.0000
  H   H3766     1.0  0.31287  0.88270  0.46393  1.0000
  H   H3767     1.0  0.40016  0.89149  0.24495  1.0000
  C   C2133     1.0  0.17358  0.74752  0.46430  1.0000
  C   C2134     1.0  0.11167  0.85306  0.45333  1.0000
  H   H3768     1.0  0.12353  0.86980  0.44328  1.0000
  H   H3769     1.0  0.05242  0.77783  0.47323  1.0000
  H   H3770     1.0  0.15385  0.86004  0.46095  1.0000
  H   H3771     1.0  0.45308  0.86716  0.27973  1.0000
  C   C2135     1.0  0.45817  0.96136  0.30843  1.0000
  C   C2136     1.0  0.34621  0.93381  0.35216  1.0000
  C   C2137     1.0  0.30635  0.97170  0.35122  1.0000
  C   C2138     1.0  0.35495  0.92100  0.36111  1.0000
  H   H3772     1.0  0.35466  0.94995  0.35543  1.0000
  H   H3773     1.0  0.33563  0.93738  0.35932  1.0000
  H   H3774     1.0  0.31994  0.95166  0.34681  1.0000
  H   H3775     1.0  0.30718  0.96900  0.36259  1.0000
  H   H3776     1.0  0.13191  0.96780  0.47405  1.0000
  H   H3777     1.0  0.34883  0.91227  0.36556  1.0000
  H   H3778     1.0  0.36564  0.91676  0.35441  1.0000
  H   H3779     1.0  0.35679  0.92421  0.37015  1.0000
  C   C2139     1.0  0.41025  0.95236  0.29765  1.0000
  H   H3780     1.0  0.36811  0.96689  0.34716  1.0000
  C   C2140     1.0  0.30582  0.93600  0.45602  1.0000
  N   N113      1.0  0.34822  0.95866  0.33510  1.0000
  H   H3781     1.0  0.44924  0.93861  0.32887  1.0000
  H   H3782     1.0  0.36907  0.95045  0.30971  1.0000
  H   H3783     1.0  0.06269  0.84443  0.46632  1.0000
  C   C2141     1.0  0.35686  0.93982  0.30304  1.0000
  H   H3784     1.0  0.48339  0.90867  0.43408  1.0000
  H   H3785     1.0  0.49626  0.93560  0.44431  1.0000
  H   H3786     1.0  0.03549  0.82261  0.43237  1.0000
  C   C2142     1.0  0.31962  0.96324  0.34233  1.0000
  H   H3787     1.0  0.48339  0.77772  0.24070  1.0000
  C   C2143     1.0  0.37185  0.89032  0.38148  1.0000
  H   H3788     1.0  0.35296  0.94933  0.29493  1.0000
  C   C2144     1.0  0.04178  0.78447  0.47761  1.0000
  H   H3789     1.0  0.45955  0.88993  0.27865  1.0000
  C   C2145     1.0  0.22616  0.85252  0.45550  1.0000
  Fe  Fe235     1.0  0.38080  0.88591  0.47947  1.0000
  H   H3790     1.0  0.23523  0.85332  0.44587  1.0000
  H   H3791     1.0  0.34430  0.92988  0.34367  1.0000
  C   C2146     1.0  0.48995  0.91286  0.43875  1.0000
  H   H3792     1.0  0.36604  0.94162  0.34150  1.0000
  H   H3793     1.0  0.05221  0.82337  0.47637  1.0000
  H   H3794     1.0  0.18431  0.74427  0.48142  1.0000
  C   C2147     1.0  0.42662  0.96793  0.35045  1.0000
  H   H3795     1.0  0.38419  0.84219  0.28942  1.0000
  C   C2148     1.0  0.30831  0.93326  0.47133  1.0000
  H   H3796     1.0  0.42376  0.97375  0.34036  1.0000
  C   C2149     1.0  0.33388  0.96730  0.34210  1.0000
  C   C2150     1.0  0.38082  0.83547  0.30028  1.0000
  C   C2151     1.0  0.30343  0.95203  0.44895  1.0000
  H   H3797     1.0  0.29628  0.96890  0.35085  1.0000
  S   S468      1.0  0.41882  0.97674  0.29578  1.0000
  C   C2152     1.0  0.42700  0.83115  0.30098  1.0000
  H   H3798     1.0  0.21967  0.84283  0.48570  1.0000
  C   C2153     1.0  0.34401  0.96019  0.42280  1.0000
  H   H3799     1.0  0.04420  0.84918  0.46413  1.0000
  H   H3800     1.0  0.46626  0.91732  0.33287  1.0000
  H   H3801     1.0  0.46416  0.90181  0.32897  1.0000
  C   C2154     1.0  0.39987  0.84257  0.30628  1.0000
  H   H3802     1.0  0.36182  0.82634  0.31219  1.0000
  H   H3803     1.0  0.43516  0.82153  0.29809  1.0000
  H   H3804     1.0  0.30540  0.98345  0.34697  1.0000
  C   C2155     1.0  0.47066  0.90584  0.46107  1.0000
  H   H3805     1.0  0.31556  0.93042  0.44914  1.0000
  H   H3806     1.0  0.11329  0.77802  0.48611  1.0000
  S   S469      1.0  0.12584  0.74927  0.47265  1.0000
  C   C2156     1.0  0.46579  0.91291  0.32399  1.0000
  H   H3807     1.0  0.44524  0.90673  0.34728  1.0000
  N   N114      1.0  0.38435  0.84062  0.31149  1.0000
  C   C2157     1.0  0.37452  0.86749  0.30037  1.0000
  H   H3808     1.0  0.38623  0.81844  0.32355  1.0000
  H   H3809     1.0  0.40274  0.84662  0.31424  1.0000
  H   H3810     1.0  0.47112  0.80766  0.26728  1.0000
  H   H3811     1.0  0.35148  0.87786  0.30547  1.0000
  H   H3812     1.0  0.39375  0.88234  0.38419  1.0000
  C   C2158     1.0  0.46191  0.87082  0.27097  1.0000
  H   H3813     1.0  0.33975  0.93911  0.42754  1.0000
  H   H3814     1.0  0.03330  0.78305  0.47307  1.0000
  H   H3815     1.0  0.40348  0.86951  0.43315  1.0000
  C   C2159     1.0  0.37054  0.98674  0.33211  1.0000
  N   N115      1.0  0.48096  0.84706  0.27821  1.0000
  H   H3816     1.0  0.48750  0.91616  0.46020  1.0000
  C   C2160     1.0  0.04265  0.80050  0.47425  1.0000
  N   N116      1.0  0.39464  0.85268  0.39664  1.0000
  S   S470      1.0  0.32479  0.95330  0.38381  1.0000
  C   C2161     1.0  0.35887  0.96844  0.32901  1.0000
  C   C2162     1.0  0.43662  0.91507  0.34262  1.0000
  H   H3817     1.0  0.43623  0.92527  0.34518  1.0000
  H   H3818     1.0  0.42055  0.90936  0.36206  1.0000
  C   C2163     1.0  0.36895  0.83106  0.33697  1.0000
  H   H3819     1.0  0.36298  0.88370  0.31301  1.0000
  H   H3820     1.0  0.36324  0.88966  0.29413  1.0000
  H   H3821     1.0  0.17030  0.84350  0.43439  1.0000
  H   H3822     1.0  0.39811  0.85261  0.43814  1.0000
  H   H3823     1.0  0.33789  0.94750  0.32622  1.0000
  H   H3824     1.0  0.43975  0.90607  0.32428  1.0000
  S   S471      1.0  0.31242  0.97752  0.41294  1.0000
  C   C2164     1.0  0.43949  0.91668  0.32614  1.0000
  H   H3825     1.0  0.46574  0.92286  0.29543  1.0000
  H   H3826     1.0  0.08164  0.80529  0.41638  1.0000
  S   S472      1.0  0.15913  0.95432  0.48503  1.0000
  C   C2165     1.0  0.17006  0.74471  0.37275  1.0000
  H   H3827     1.0  0.38272  0.86312  0.37985  1.0000
  C   C2166     1.0  0.34642  0.95387  0.32272  1.0000
  H   H3828     1.0  0.36977  0.96259  0.32409  1.0000
  Fe  Fe236     1.0  0.31920  0.97445  0.39038  1.0000
  C   C2167     1.0  0.21798  0.85462  0.48163  1.0000
  C   C2168     1.0  0.45549  0.91996  0.30233  1.0000
  C   C2169     1.0  0.45064  0.93751  0.31776  1.0000
  H   H3829     1.0  0.48199  0.90314  0.30724  1.0000
  H   H3830     1.0  0.49113  0.89346  0.32984  1.0000
  H   H3831     1.0  0.33170  0.88402  0.45982  1.0000
  H   H3832     1.0  0.27604  0.78569  0.48409  1.0000
  H   H3833     1.0  0.36434  0.93461  0.32240  1.0000
  H   H3834     1.0  0.29356  0.95820  0.45512  1.0000
  H   H3835     1.0  0.43808  0.93256  0.27356  1.0000
  H   H3836     1.0  0.45101  0.86517  0.23951  1.0000
  H   H3837     1.0  0.45076  0.94382  0.41364  1.0000
  H   H3838     1.0  0.31132  0.83493  0.46990  1.0000
  H   H3839     1.0  0.35513  0.97731  0.32021  1.0000
  C   C2170     1.0  0.39282  0.83830  0.39594  1.0000
  H   H3840     1.0  0.37344  0.99059  0.34010  1.0000
  H   H3841     1.0  0.34248  0.96344  0.31462  1.0000
  H   H3842     1.0  0.42961  0.92409  0.32274  1.0000
  C   C2171     1.0  0.34577  0.80629  0.45506  1.0000
  C   C2172     1.0  0.02646  0.81948  0.44128  1.0000
  H   H3843     1.0  0.49286  0.91117  0.32944  1.0000
  C   C2173     1.0  0.18659  0.84831  0.46949  1.0000
  C   C2174     1.0  0.36022  0.94451  0.31486  1.0000
  C   C2175     1.0  0.46291  0.94533  0.30863  1.0000
  H   H3844     1.0  0.41211  0.84392  0.37025  1.0000
  H   H3845     1.0  0.46590  0.94421  0.29737  1.0000
  S   S473      1.0  0.09940  0.81874  0.47416  1.0000
  H   H3846     1.0  0.26732  0.86594  0.47532  1.0000
  H   H3847     1.0  0.36693  0.93317  0.29763  1.0000
  H   H3848     1.0  0.41293  0.91932  0.34680  1.0000
  C   C2176     1.0  0.46096  0.94659  0.41367  1.0000
  C   C2177     1.0  0.37926  0.83301  0.40632  1.0000
  H   H3849     1.0  0.10781  0.74684  0.42008  1.0000
  H   H3850     1.0  0.02181  0.80637  0.42955  1.0000
  H   H3851     1.0  0.12113  0.84411  0.45108  1.0000
  H   H3852     1.0  0.37481  0.88923  0.37017  1.0000
  H   H3853     1.0  0.47378  0.92496  0.41480  1.0000
  H   H3854     1.0  0.39211  0.83847  0.38497  1.0000
  H   H3855     1.0  0.15132  0.85239  0.48397  1.0000
  C   C2178     1.0  0.11670  0.86608  0.45388  1.0000
  C   C2179     1.0  0.13309  0.87131  0.48226  1.0000
  C   C2180     1.0  0.38911  0.96918  0.36396  1.0000
  H   H3856     1.0  0.44827  0.91468  0.27937  1.0000
  H   H3857     1.0  0.18293  0.98557  0.48186  1.0000
  H   H3858     1.0  0.18946  0.86703  0.45248  1.0000
  H   H3859     1.0  0.30867  0.90851  0.46355  1.0000
  H   H3860     1.0  0.47672  0.81883  0.28396  1.0000
  H   H3861     1.0  0.46105  0.86859  0.26098  1.0000
  H   H3862     1.0  0.43294  0.92533  0.29977  1.0000
  C   C2181     1.0  0.49377  0.95709  0.38397  1.0000
  C   C2182     1.0  0.39754  0.98579  0.40670  1.0000
  C   C2183     1.0  0.44332  0.92867  0.29420  1.0000
  H   H3863     1.0  0.45686  0.90836  0.30259  1.0000
  H   H3864     1.0  0.12539  0.92425  0.45749  1.0000
  C   C2184     1.0  0.01558  0.85239  0.48271  1.0000
  H   H3865     1.0  0.12156  0.91655  0.44498  1.0000
  H   H3866     1.0  0.43644  0.84832  0.36907  1.0000
  H   H3867     1.0  0.10678  0.87473  0.45577  1.0000
  H   H3868     1.0  0.40018  0.87313  0.40846  1.0000
  C   C2185     1.0  0.45919  0.88711  0.26878  1.0000
  H   H3869     1.0  0.45456  0.85304  0.29980  1.0000
  H   H3870     1.0  0.38161  0.85534  0.41768  1.0000
  C   C2186     1.0  0.32004  0.80875  0.47049  1.0000
  H   H3871     1.0  0.44395  0.98793  0.26167  1.0000
  H   H3872     1.0  0.11250  0.88966  0.46955  1.0000
  H   H3873     1.0  0.44888  0.96635  0.30304  1.0000
  C   C2187     1.0  0.31555  0.90719  0.47116  1.0000
  N   N117      1.0  0.04441  0.80828  0.45870  1.0000
  C   C2188     1.0  0.42804  0.85672  0.36407  1.0000
  H   H3874     1.0  0.11629  0.86034  0.47615  1.0000
  C   C2189     1.0  0.41274  0.85435  0.37174  1.0000
  C   C2190     1.0  0.45920  0.83651  0.31788  1.0000
  N   N118      1.0  0.13243  0.87346  0.46683  1.0000
  C   C2191     1.0  0.04374  0.82383  0.45802  1.0000
  C   C2192     1.0  0.40965  0.85440  0.38788  1.0000
  S   S474      1.0  0.34513  0.98812  0.41881  1.0000
  C   C2193     1.0  0.28290  0.91595  0.48230  1.0000
  H   H3875     1.0  0.37179  0.90148  0.38150  1.0000
  H   H3876     1.0  0.45481  0.96316  0.31951  1.0000
  H   H3877     1.0  0.41357  0.85724  0.41318  1.0000
  C   C2194     1.0  0.47290  0.97598  0.35027  1.0000
  H   H3878     1.0  0.41201  0.86453  0.38829  1.0000
  H   H3879     1.0  0.41808  0.84569  0.39262  1.0000
  H   H3880     1.0  0.44173  0.94037  0.29327  1.0000
  H   H3881     1.0  0.46732  0.96672  0.30242  1.0000
  C   C2195     1.0  0.40170  0.86215  0.41524  1.0000
  H   H3882     1.0  0.21357  0.91138  0.43945  1.0000
  H   H3883     1.0  0.46803  0.82484  0.25506  1.0000
  H   H3884     1.0  0.23044  0.86829  0.46328  1.0000
  H   H3885     1.0  0.37985  0.88187  0.40068  1.0000
  H   H3886     1.0  0.37183  0.86266  0.39723  1.0000
  H   H3887     1.0  0.13143  0.80312  0.47618  1.0000
  C   C2196     1.0  0.38275  0.86414  0.39064  1.0000
  S   S475      1.0  0.38680  0.86262  0.47872  1.0000
  H   H3888     1.0  0.19791  0.96579  0.47745  1.0000
  H   H3889     1.0  0.45799  0.95541  0.41945  1.0000
  H   H3890     1.0  0.38524  0.86921  0.43313  1.0000
  C   C2197     1.0  0.39681  0.86342  0.43086  1.0000
  C   C2198     1.0  0.12107  0.91547  0.45648  1.0000
  H   H3891     1.0  0.47264  0.94107  0.31338  1.0000
  H   H3892     1.0  0.37439  0.90281  0.24891  1.0000
  H   H3893     1.0  0.44016  0.94378  0.31473  1.0000
  Fe  Fe237     1.0  0.36226  0.91473  0.46911  1.0000
  H   H3894     1.0  0.31306  0.95625  0.44816  1.0000
  C   C2199     1.0  0.39653  0.98518  0.42243  1.0000
  H   H3895     1.0  0.10430  0.84931  0.46365  1.0000
  H   H3896     1.0  0.05897  0.78979  0.45112  1.0000
  H   H3897     1.0  0.32618  0.90906  0.46416  1.0000
  C   C2200     1.0  0.00772  0.84344  0.48085  1.0000
  H   H3898     1.0  0.14658  0.82307  0.48268  1.0000
  C   C2201     1.0  0.03191  0.80703  0.45332  1.0000
  C   C2202     1.0  0.05525  0.84264  0.46072  1.0000
  H   H3899     1.0  0.03263  0.80620  0.48072  1.0000
  H   H3900     1.0  0.20702  0.85787  0.47911  1.0000
  Fe  Fe238     1.0  0.16254  0.90397  0.48172  1.0000
  N   N119      1.0  0.30866  0.81386  0.48290  1.0000
  H   H3901     1.0  0.33570  0.82241  0.46727  1.0000
  H   H3902     1.0  0.47589  0.94694  0.33554  1.0000
  S   S476      1.0  0.22291  0.81425  0.47901  1.0000
  H   H3903     1.0  0.13026  0.90087  0.47368  1.0000
  C   C2203     1.0  0.33565  0.81097  0.46849  1.0000
  H   H3904     1.0  0.22231  0.96938  0.47111  1.0000
  C   C2204     1.0  0.13924  0.81552  0.48542  1.0000
  C   C2205     1.0  0.08204  0.78511  0.47746  1.0000
  H   H3905     1.0  0.50015  0.84448  0.26108  1.0000
  Fe  Fe239     1.0  0.32914  0.99103  0.40541  1.0000
  H   H3906     1.0  0.29217  0.81816  0.47091  1.0000
  H   H3907     1.0  0.37675  0.88442  0.24801  1.0000
  H   H3908     1.0  0.11530  0.96730  0.47000  1.0000
  H   H3909     1.0  0.20228  0.90724  0.48157  1.0000
  C   C2206     1.0  0.17952  0.87282  0.47285  1.0000
  H   H3910     1.0  0.22293  0.88186  0.47801  1.0000
  H   H3911     1.0  0.37926  0.99148  0.36187  1.0000
  S   S477      1.0  0.36997  0.92623  0.48082  1.0000
  H   H3912     1.0  0.46456  0.90831  0.47162  1.0000
  C   C2207     1.0  0.22963  0.85696  0.46741  1.0000
  H   H3913     1.0  0.48115  0.84806  0.29958  1.0000
  H   H3914     1.0  0.18074  0.78966  0.47801  1.0000
  N   N120      1.0  0.30925  0.91809  0.48045  1.0000
  Fe  Fe240     1.0  0.20068  0.81098  0.48108  1.0000
  H   H3915     1.0  0.33074  0.91618  0.48337  1.0000
  H   H3916     1.0  0.49891  0.90348  0.44143  1.0000
  H   H3917     1.0  0.45308  0.98988  0.37092  1.0000
  H   H3918     1.0  0.30100  0.79037  0.47747  1.0000
  C   C2208     1.0  0.27782  0.79681  0.48106  1.0000
  H   H3919     1.0  0.12343  0.95260  0.48269  1.0000
  C   C2209     1.0  0.16949  0.78989  0.48459  1.0000
  H   H3920     1.0  0.50229  0.97989  0.35934  1.0000
  H   H3921     1.0  0.30142  0.85930  0.47758  1.0000
  H   H3922     1.0  0.15617  0.74779  0.39301  1.0000
  H   H3923     1.0  0.34048  0.80448  0.47774  1.0000
  C   C2210     1.0  0.11244  0.75130  0.40867  1.0000
  H   H3924     1.0  0.32761  0.88852  0.48437  1.0000
  C   C2211     1.0  0.23569  0.99038  0.46402  1.0000
  H   H3925     1.0  0.24175  0.97902  0.46477  1.0000
  H   H3926     1.0  0.27980  0.92659  0.47524  1.0000
  C   C2212     1.0  0.21631  0.97075  0.48207  1.0000
  H   H3927     1.0  0.48943  0.96451  0.33466  1.0000
  C   C2213     1.0  0.30864  0.82946  0.48144  1.0000
  N   N121      1.0  0.21162  0.98648  0.48255  1.0000
  H   H3928     1.0  0.13956  0.87842  0.48321  1.0000
  H   H3929     1.0  0.32536  0.86997  0.47423  1.0000
  H   H3930     1.0  0.11966  0.83254  0.48373  1.0000
  H   H3931     1.0  0.01485  0.86326  0.47632  1.0000
  H   H3932     1.0  0.44485  0.89107  0.48521  1.0000
  H   H3933     1.0  0.00675  0.81206  0.44361  1.0000
  N   N122      1.0  0.47745  0.99017  0.34614  1.0000
  H   H3934     1.0  0.16120  0.74917  0.36675  1.0000
  H   H3935     1.0  0.07357  0.77990  0.48461  1.0000
  H   H3936     1.0  0.47930  0.98806  0.36778  1.0000
  H   H3937     1.0  0.23172  0.98733  0.48708  1.0000
  H   H3938     1.0  0.40021  0.95387  0.47718  1.0000
  H   H3939     1.0  0.41928  0.93245  0.48720  1.0000
  S   S478      1.0  0.50247  0.92478  0.36347  1.0000
  C   C2214     1.0  0.50246  0.91144  0.40741  1.0000
  H   H3940     1.0  0.11047  0.98377  0.48621  1.0000
  C   C2215     1.0  0.21387  0.87820  0.48660  1.0000
  H   H3941     1.0  0.08932  0.90333  0.48683  1.0000
  C   C2216     1.0  0.20407  0.96234  0.48607  1.0000
  H   H3942     1.0  0.30854  0.88852  0.48728  1.0000
  S   S479      1.0  0.11014  0.78564  0.58099  1.0000
  Fe  Fe241     1.0  0.21658  0.83308  0.56801  1.0000
  S   S480      1.0  0.23854  0.82158  0.57289  1.0000
  S   S481      1.0  0.19502  0.82583  0.57622  1.0000
  Fe  Fe242     1.0  0.22849  0.85870  0.54846  1.0000
  S   S482      1.0  0.25142  0.84916  0.55113  1.0000
  S   S483      1.0  0.22225  0.88052  0.53467  1.0000
  Fe  Fe243     1.0  0.24697  0.82881  0.54922  1.0000
  S   S484      1.0  0.26345  0.81362  0.53640  1.0000
  Fe  Fe244     1.0  0.24105  0.84301  0.57449  1.0000
  S   S485      1.0  0.24962  0.84523  0.59271  1.0000
  S   S486      1.0  0.22501  0.83910  0.54432  1.0000
  S   S487      1.0  0.21818  0.85384  0.57186  1.0000
  S   S488      1.0  0.17742  0.96969  0.53376  1.0000
  H   H3943     1.0  0.49748  0.90171  0.66733  1.0000
  S   S489      1.0  0.13649  0.92598  0.50936  1.0000
  C   C2217     1.0  0.08312  0.75133  0.50693  1.0000
  H   H3944     1.0  0.44307  0.97830  0.59664  1.0000
  S   S490      1.0  0.14543  0.89509  0.49952  1.0000
  H   H3945     1.0  0.30262  0.81806  0.51244  1.0000
  C   C2218     1.0  0.08761  0.74801  0.55186  1.0000
  Fe  Fe245     1.0  0.15261  0.90504  0.51311  1.0000
  S   S491      1.0  0.15567  0.89212  0.53480  1.0000
  H   H3946     1.0  0.15903  0.77767  0.50470  1.0000
  S   S492      1.0  0.17105  0.91215  0.49575  1.0000
  Fe  Fe246     1.0  0.06770  0.82087  0.52410  1.0000
  C   C2219     1.0  0.32174  0.92214  0.55751  1.0000
  S   S493      1.0  0.06284  0.80368  0.54379  1.0000
  C   C2220     1.0  0.16618  0.79358  0.61330  1.0000
  H   H3947     1.0  0.19898  0.75692  0.64890  1.0000
  C   C2221     1.0  0.34016  0.94913  0.60934  1.0000
  H   H3948     1.0  0.38176  0.90497  0.62174  1.0000
  H   H3949     1.0  0.31204  0.89827  0.57044  1.0000
  S   S494      1.0  0.05875  0.84417  0.52444  1.0000
  Fe  Fe247     1.0  0.38638  0.95412  0.58269  1.0000
  S   S495      1.0  0.40684  0.93709  0.58327  1.0000
  Fe  Fe248     1.0  0.38527  0.95263  0.55305  1.0000
  S   S496      1.0  0.40575  0.93555  0.55125  1.0000
  S   S497      1.0  0.37364  0.96017  0.53488  1.0000
  Fe  Fe249     1.0  0.39621  0.92577  0.57397  1.0000
  S   S498      1.0  0.39747  0.90204  0.58150  1.0000
  Fe  Fe250     1.0  0.41410  0.94878  0.56071  1.0000
  S   S499      1.0  0.43596  0.95433  0.55065  1.0000
  S   S500      1.0  0.37512  0.94199  0.57513  1.0000
  S   S501      1.0  0.39423  0.96680  0.56078  1.0000
  S   S502      1.0  0.35894  0.90774  0.52215  1.0000
  Fe  Fe251     1.0  0.46823  0.95333  0.61360  1.0000
  S   S503      1.0  0.47866  0.93481  0.62913  1.0000
  S   S504      1.0  0.47576  0.95683  0.58968  1.0000
  C   C2222     1.0  0.00887  0.82932  0.48892  1.0000
  S   S505      1.0  0.45751  0.95176  0.65399  1.0000
  Fe  Fe252     1.0  0.47951  0.95174  0.63947  1.0000
  C   C2223     1.0  0.09274  0.83802  0.55884  1.0000
  Fe  Fe253     1.0  0.45591  0.93610  0.64261  1.0000
  S   S506      1.0  0.44823  0.91691  0.65799  1.0000
  H   H3950     1.0  0.15662  0.81451  0.52497  1.0000
  H   H3951     1.0  0.48263  0.96593  0.67602  1.0000
  Fe  Fe254     1.0  0.36774  0.92120  0.69030  1.0000
  S   S507      1.0  0.37998  0.92767  0.66777  1.0000
  H   H3952     1.0  0.47951  0.93056  0.70087  1.0000
  Fe  Fe255     1.0  0.31843  0.89426  0.61232  1.0000
  S   S508      1.0  0.30614  0.91044  0.59679  1.0000
  S   S509      1.0  0.33944  0.87891  0.60584  1.0000
  Fe  Fe256     1.0  0.29478  0.90055  0.63788  1.0000
  S   S510      1.0  0.27992  0.91665  0.62427  1.0000
  S   S511      1.0  0.28817  0.89613  0.66210  1.0000
  Fe  Fe257     1.0  0.28682  0.90091  0.60972  1.0000
  S   S512      1.0  0.27422  0.89780  0.59487  1.0000
  Fe  Fe258     1.0  0.30028  0.92463  0.61243  1.0000
  S   S513      1.0  0.30002  0.94848  0.60571  1.0000
  S   S514      1.0  0.29957  0.88403  0.62466  1.0000
  S   S515      1.0  0.31474  0.90926  0.62664  1.0000
  C   C2224     1.0  0.23297  0.85902  0.49579  1.0000
  C   C2225     1.0  0.30814  0.96614  0.63982  1.0000
  C   C2226     1.0  0.30648  0.95198  0.64290  1.0000
  C   C2227     1.0  0.30342  0.94667  0.63270  1.0000
  C   C2228     1.0  0.30238  0.95539  0.61916  1.0000
  C   C2229     1.0  0.30395  0.96961  0.61607  1.0000
  C   C2230     1.0  0.30680  0.97500  0.62639  1.0000
  H   H3953     1.0  0.30772  0.94502  0.65318  1.0000
  H   H3954     1.0  0.30201  0.93577  0.63533  1.0000
  H   H3955     1.0  0.30334  0.97634  0.60558  1.0000
  H   H3956     1.0  0.41198  0.98850  0.54991  1.0000
  H   H3957     1.0  0.13125  0.82952  0.52559  1.0000
  C   C2231     1.0  0.30940  0.90745  0.69203  1.0000
  C   C2232     1.0  0.31757  0.90591  0.67828  1.0000
  C   C2233     1.0  0.31123  0.90271  0.66873  1.0000
  C   C2234     1.0  0.29693  0.90048  0.67315  1.0000
  C   C2235     1.0  0.28915  0.90141  0.68709  1.0000
  C   C2236     1.0  0.29525  0.90502  0.69635  1.0000
  H   H3958     1.0  0.32867  0.90717  0.67503  1.0000
  H   H3959     1.0  0.31743  0.90181  0.65807  1.0000
  H   H3960     1.0  0.27820  0.89956  0.69067  1.0000
  C   C2237     1.0  0.42938  0.91895  0.66050  1.0000
  C   C2238     1.0  0.42125  0.91292  0.67375  1.0000
  C   C2239     1.0  0.40600  0.91566  0.67620  1.0000
  C   C2240     1.0  0.39896  0.92397  0.66521  1.0000
  C   C2241     1.0  0.40714  0.92951  0.65186  1.0000
  C   C2242     1.0  0.42231  0.92712  0.64953  1.0000
  H   H3961     1.0  0.42671  0.90639  0.68221  1.0000
  H   H3962     1.0  0.39973  0.91136  0.68653  1.0000
  H   H3963     1.0  0.40170  0.93574  0.64334  1.0000
  H   H3964     1.0  0.42854  0.93146  0.63918  1.0000
  S   S516      1.0  0.24351  0.77945  0.50316  1.0000
  C   C2243     1.0  0.44636  0.95512  0.56208  1.0000
  C   C2244     1.0  0.44203  0.95120  0.57705  1.0000
  C   C2245     1.0  0.45092  0.95169  0.58574  1.0000
  C   C2246     1.0  0.46407  0.95621  0.57945  1.0000
  C   C2247     1.0  0.46820  0.96032  0.56453  1.0000
  C   C2248     1.0  0.45941  0.95978  0.55590  1.0000
  H   H3965     1.0  0.43201  0.94754  0.58192  1.0000
  H   H3966     1.0  0.44774  0.94830  0.59725  1.0000
  C   C2249     1.0  0.35777  0.89159  0.64513  1.0000
  H   H3967     1.0  0.33544  0.97699  0.54402  1.0000
  C   C2250     1.0  0.36811  0.94602  0.53209  1.0000
  C   C2251     1.0  0.36366  0.94768  0.51945  1.0000
  C   C2252     1.0  0.36074  0.93597  0.51638  1.0000
  C   C2253     1.0  0.36176  0.92271  0.52617  1.0000
  C   C2254     1.0  0.36530  0.92131  0.53921  1.0000
  C   C2255     1.0  0.36874  0.93287  0.54205  1.0000
  H   H3968     1.0  0.36304  0.95787  0.51177  1.0000
  H   H3969     1.0  0.36592  0.91114  0.54692  1.0000
  H   H3970     1.0  0.37209  0.93147  0.55187  1.0000
  C   C2256     1.0  0.38098  0.89617  0.58815  1.0000
  C   C2257     1.0  0.36745  0.90572  0.59085  1.0000
  C   C2258     1.0  0.35454  0.90058  0.59622  1.0000
  C   C2259     1.0  0.35520  0.88584  0.59903  1.0000
  C   C2260     1.0  0.36869  0.87631  0.59634  1.0000
  C   C2261     1.0  0.38153  0.88146  0.59095  1.0000
  H   H3971     1.0  0.36690  0.91700  0.58900  1.0000
  H   H3972     1.0  0.34410  0.90795  0.59823  1.0000
  H   H3973     1.0  0.36922  0.86491  0.59849  1.0000
  H   H3974     1.0  0.39193  0.87401  0.58893  1.0000
  H   H3975     1.0  0.23490  0.79626  0.59997  1.0000
  C   C2262     1.0  0.35473  0.90570  0.63375  1.0000
  H   H3976     1.0  0.09215  0.83664  0.57040  1.0000
  H   H3977     1.0  0.35215  0.87066  0.65248  1.0000
  H   H3978     1.0  0.09053  0.75674  0.49764  1.0000
  H   H3979     1.0  0.34943  0.97130  0.62176  1.0000
  S   S517      1.0  0.14385  0.75784  0.59080  1.0000
  C   C2263     1.0  0.10319  0.90149  0.50090  1.0000
  C   C2264     1.0  0.10906  0.89281  0.51251  1.0000
  C   C2265     1.0  0.10609  0.87915  0.51871  1.0000
  C   C2266     1.0  0.09741  0.87395  0.51322  1.0000
  C   C2267     1.0  0.23610  0.75216  0.53515  1.0000
  H   H3980     1.0  0.11581  0.89668  0.51683  1.0000
  H   H3981     1.0  0.11070  0.87253  0.52769  1.0000
  C   C2268     1.0  0.26905  0.91275  0.49322  1.0000
  C   C2269     1.0  0.17014  0.94738  0.50918  1.0000
  C   C2270     1.0  0.17429  0.95090  0.51992  1.0000
  C   C2271     1.0  0.17193  0.96531  0.52053  1.0000
  C   C2272     1.0  0.16563  0.97617  0.51026  1.0000
  H   H3982     1.0  0.23315  0.74710  0.54670  1.0000
  H   H3983     1.0  0.17187  0.93626  0.50880  1.0000
  H   H3984     1.0  0.17920  0.94246  0.52781  1.0000
  C   C2273     1.0  0.18962  0.79874  0.61477  1.0000
  S   S518      1.0  0.12992  0.75042  0.56770  1.0000
  C   C2274     1.0  0.25734  0.85945  0.59287  1.0000
  C   C2275     1.0  0.25999  0.87046  0.58076  1.0000
  C   C2276     1.0  0.26528  0.88199  0.58156  1.0000
  C   C2277     1.0  0.26838  0.88251  0.59433  1.0000
  C   C2278     1.0  0.26614  0.87129  0.60632  1.0000
  C   C2279     1.0  0.26060  0.85989  0.60559  1.0000
  H   H3985     1.0  0.25784  0.87011  0.57084  1.0000
  H   H3986     1.0  0.26699  0.89058  0.57221  1.0000
  H   H3987     1.0  0.26837  0.87154  0.61625  1.0000
  H   H3988     1.0  0.25867  0.85142  0.61502  1.0000
  C   C2280     1.0  0.20349  0.88415  0.53562  1.0000
  C   C2281     1.0  0.19646  0.89762  0.52887  1.0000
  C   C2282     1.0  0.18166  0.90019  0.52878  1.0000
  C   C2283     1.0  0.17386  0.88938  0.53566  1.0000
  C   C2284     1.0  0.18074  0.87617  0.54298  1.0000
  C   C2285     1.0  0.19556  0.87354  0.54292  1.0000
  H   H3989     1.0  0.20248  0.90597  0.52354  1.0000
  H   H3990     1.0  0.17623  0.91059  0.52354  1.0000
  H   H3991     1.0  0.17469  0.86783  0.54842  1.0000
  H   H3992     1.0  0.20080  0.86320  0.54841  1.0000
  C   C2286     1.0  0.24830  0.78923  0.51264  1.0000
  C   C2287     1.0  0.23881  0.80146  0.51694  1.0000
  C   C2288     1.0  0.24303  0.80865  0.52490  1.0000
  C   C2289     1.0  0.25695  0.80404  0.52797  1.0000
  C   C2290     1.0  0.26630  0.79177  0.52368  1.0000
  C   C2291     1.0  0.26188  0.78424  0.51634  1.0000
  H   H3993     1.0  0.22816  0.80517  0.51440  1.0000
  H   H3994     1.0  0.23557  0.81781  0.52849  1.0000
  H   H3995     1.0  0.27695  0.78798  0.52619  1.0000
  C   C2292     1.0  0.19204  0.81037  0.57290  1.0000
  C   C2293     1.0  0.17771  0.80846  0.57591  1.0000
  C   C2294     1.0  0.13288  0.81801  0.53091  1.0000
  H   H3996     1.0  0.16866  0.81698  0.57901  1.0000
  H   H3997     1.0  0.49284  0.97747  0.63099  1.0000
  C   C2295     1.0  0.09731  0.78926  0.57054  1.0000
  C   C2296     1.0  0.10165  0.78974  0.55580  1.0000
  C   C2297     1.0  0.09113  0.79447  0.54740  1.0000
  C   C2298     1.0  0.07629  0.79795  0.55388  1.0000
  C   C2299     1.0  0.07200  0.79667  0.56870  1.0000
  C   C2300     1.0  0.08250  0.79270  0.57695  1.0000
  H   H3998     1.0  0.11312  0.78712  0.55080  1.0000
  H   H3999     1.0  0.09449  0.79532  0.53596  1.0000
  H   H4000     1.0  0.06055  0.79932  0.57374  1.0000
  H   H4001     1.0  0.33213  0.85958  0.54726  1.0000
  N   N123      1.0  0.36219  0.91733  0.63310  1.0000
  C   C2301     1.0  0.35908  0.92986  0.62083  1.0000
  C   C2302     1.0  0.37846  0.91117  0.63033  1.0000
  C   C2303     1.0  0.35772  0.92227  0.64700  1.0000
  C   C2304     1.0  0.34156  0.92985  0.65136  1.0000
  C   C2305     1.0  0.38844  0.92217  0.62568  1.0000
  C   C2306     1.0  0.33824  0.93356  0.66594  1.0000
  C   C2307     1.0  0.40447  0.91452  0.62453  1.0000
  H   H4002     1.0  0.36112  0.93964  0.62260  1.0000
  C   C2308     1.0  0.10243  0.74534  0.60157  1.0000
  H   H4003     1.0  0.38149  0.90346  0.64010  1.0000
  H   H4004     1.0  0.36059  0.91322  0.65599  1.0000
  H   H4005     1.0  0.36403  0.93013  0.64648  1.0000
  H   H4006     1.0  0.33416  0.92301  0.65191  1.0000
  H   H4007     1.0  0.33908  0.94021  0.64362  1.0000
  H   H4008     1.0  0.35382  0.89365  0.65609  1.0000
  H   H4009     1.0  0.38566  0.92917  0.63338  1.0000
  H   H4010     1.0  0.38749  0.92918  0.61500  1.0000
  H   H4011     1.0  0.33479  0.93218  0.62697  1.0000
  H   H4012     1.0  0.33065  0.95073  0.60474  1.0000
  H   H4013     1.0  0.34395  0.94198  0.66532  1.0000
  H   H4014     1.0  0.32633  0.93770  0.66932  1.0000
  H   H4015     1.0  0.34166  0.92393  0.67414  1.0000
  H   H4016     1.0  0.40633  0.90782  0.63512  1.0000
  H   H4017     1.0  0.40790  0.90764  0.61659  1.0000
  H   H4018     1.0  0.41134  0.92261  0.62092  1.0000
  C   C2309     1.0  0.12393  0.82314  0.49171  1.0000
  H   H4019     1.0  0.48363  0.90315  0.69190  1.0000
  H   H4020     1.0  0.37451  0.86466  0.55409  1.0000
  C   C2310     1.0  0.18255  0.78778  0.61222  1.0000
  H   H4021     1.0  0.16401  0.80421  0.60587  1.0000
  H   H4022     1.0  0.20676  0.77049  0.62366  1.0000
  C   C2311     1.0  0.30970  0.87103  0.58629  1.0000
  C   C2312     1.0  0.33862  0.93943  0.57639  1.0000
  H   H4023     1.0  0.29581  0.90619  0.49841  1.0000
  C   C2313     1.0  0.31201  0.98122  0.55345  1.0000
  H   H4024     1.0  0.04651  0.77914  0.49876  1.0000
  C   C2314     1.0  0.30823  0.85895  0.59971  1.0000
  H   H4025     1.0  0.34073  0.90622  0.55162  1.0000
  H   H4026     1.0  0.39336  0.94410  0.51008  1.0000
  H   H4027     1.0  0.31684  0.79537  0.52467  1.0000
  H   H4028     1.0  0.34674  0.88370  0.54585  1.0000
  H   H4029     1.0  0.10164  0.96891  0.49433  1.0000
  H   H4030     1.0  0.23609  0.79115  0.57644  1.0000
  H   H4031     1.0  0.12393  0.82681  0.50124  1.0000
  H   H4032     1.0  0.33026  0.85838  0.57631  1.0000
  H   H4033     1.0  0.31138  0.84835  0.59678  1.0000
  H   H4034     1.0  0.40151  0.98535  0.62050  1.0000
  S   S519      1.0  0.20584  0.78793  0.49217  1.0000
  H   H4035     1.0  0.29675  0.86051  0.60585  1.0000
  H   H4036     1.0  0.39096  0.82905  0.67214  1.0000
  S   S520      1.0  0.43211  0.98845  0.64116  1.0000
  H   H4037     1.0  0.42989  0.92280  0.52401  1.0000
  C   C2315     1.0  0.10586  0.82724  0.55199  1.0000
  H   H4038     1.0  0.19238  0.74664  0.50210  1.0000
  H   H4039     1.0  0.07181  0.75769  0.50764  1.0000
  C   C2316     1.0  0.11235  0.97205  0.49073  1.0000
  H   H4040     1.0  0.03751  0.76702  0.49591  1.0000
  H   H4041     1.0  0.34392  0.93068  0.57050  1.0000
  H   H4042     1.0  0.33187  0.87052  0.58528  1.0000
  H   H4043     1.0  0.31658  0.85750  0.56190  1.0000
  H   H4044     1.0  0.26385  0.96364  0.70424  1.0000
  C   C2317     1.0  0.19364  0.84071  0.52577  1.0000
  H   H4045     1.0  0.19570  0.86514  0.50500  1.0000
  H   H4046     1.0  0.30827  0.98585  0.62384  1.0000
  H   H4047     1.0  0.18550  0.78209  0.64152  1.0000
  H   H4048     1.0  0.13886  0.97910  0.61939  1.0000
  C   C2318     1.0  0.20944  0.81947  0.60859  1.0000
  N   N124      1.0  0.11341  0.97547  0.51558  1.0000
  C   C2319     1.0  0.29422  0.83923  0.48775  1.0000
  C   C2320     1.0  0.12002  0.96758  0.50347  1.0000
  C   C2321     1.0  0.11644  0.96504  0.52929  1.0000
  S   S521      1.0  0.39072  0.89471  0.49201  1.0000
  H   H4049     1.0  0.08439  0.87880  0.49761  1.0000
  Fe  Fe259     1.0  0.16111  0.98812  0.54216  1.0000
  C   C2322     1.0  0.13275  0.95805  0.52935  1.0000
  H   H4050     1.0  0.49195  0.95056  0.68714  1.0000
  C   C2323     1.0  0.14746  0.74395  0.52279  1.0000
  H   H4051     1.0  0.43400  0.98940  0.60912  1.0000
  H   H4052     1.0  0.22932  0.75557  0.51530  1.0000
  C   C2324     1.0  0.13440  0.94643  0.54295  1.0000
  H   H4053     1.0  0.09231  0.97063  0.51944  1.0000
  H   H4054     1.0  0.16162  0.78603  0.61038  1.0000
  H   H4055     1.0  0.13162  0.96828  0.49903  1.0000
  H   H4056     1.0  0.12024  0.95588  0.50754  1.0000
  H   H4057     1.0  0.11051  0.95622  0.53195  1.0000
  H   H4058     1.0  0.11231  0.97039  0.53848  1.0000
  H   H4059     1.0  0.25553  0.74978  0.51790  1.0000
  C   C2325     1.0  0.41091  0.93046  0.49731  1.0000
  H   H4060     1.0  0.19796  0.82507  0.60829  1.0000
  H   H4061     1.0  0.39857  0.92437  0.52648  1.0000
  C   C2326     1.0  0.35813  0.98473  0.68561  1.0000
  H   H4062     1.0  0.37975  0.98416  0.64352  1.0000
  H   H4063     1.0  0.13865  0.96621  0.52903  1.0000
  H   H4064     1.0  0.13824  0.95294  0.52012  1.0000
  H   H4065     1.0  0.32861  0.98265  0.59435  1.0000
  H   H4066     1.0  0.25909  0.74723  0.53528  1.0000
  C   C2327     1.0  0.19704  0.78014  0.64216  1.0000
  H   H4067     1.0  0.27023  0.95216  0.72687  1.0000
  H   H4068     1.0  0.18948  0.75396  0.52869  1.0000
  H   H4069     1.0  0.47835  0.96380  0.55960  1.0000
  C   C2328     1.0  0.10268  0.98547  0.58970  1.0000
  C   C2329     1.0  0.48582  0.90735  0.66914  1.0000
  H   H4070     1.0  0.47913  0.89979  0.66961  1.0000
  H   H4071     1.0  0.24791  0.97207  0.64106  1.0000
  H   H4072     1.0  0.20906  0.75307  0.55453  1.0000
  H   H4073     1.0  0.14618  0.94184  0.54274  1.0000
  H   H4074     1.0  0.12942  0.95105  0.55259  1.0000
  H   H4075     1.0  0.12921  0.93760  0.54360  1.0000
  C   C2330     1.0  0.27838  0.94380  0.68712  1.0000
  S   S522      1.0  0.31191  0.97223  0.65308  1.0000
  C   C2331     1.0  0.28017  0.93880  0.67345  1.0000
  H   H4076     1.0  0.26697  0.94981  0.68978  1.0000
  H   H4077     1.0  0.28029  0.93400  0.69564  1.0000
  C   C2332     1.0  0.31560  0.92658  0.49989  1.0000
  H   H4078     1.0  0.40186  0.84243  0.68246  1.0000
  H   H4079     1.0  0.08752  0.97880  0.61857  1.0000
  H   H4080     1.0  0.29128  0.93215  0.67055  1.0000
  H   H4081     1.0  0.27221  0.93209  0.67518  1.0000
  H   H4082     1.0  0.27824  0.94814  0.66441  1.0000
  N   N125      1.0  0.20977  0.75581  0.53206  1.0000
  H   H4083     1.0  0.12861  0.82111  0.59537  1.0000
  H   H4084     1.0  0.18284  0.80278  0.62443  1.0000
  H   H4085     1.0  0.14286  0.81770  0.57105  1.0000
  H   H4086     1.0  0.11563  0.83195  0.57548  1.0000
  H   H4087     1.0  0.21074  0.83154  0.62325  1.0000
  H   H4088     1.0  0.10601  0.83014  0.54035  1.0000
  H   H4089     1.0  0.49704  0.84311  0.73596  1.0000
  H   H4090     1.0  0.18842  0.80821  0.60568  1.0000
  C   C2333     1.0  0.04810  0.78650  0.52517  1.0000
  H   H4091     1.0  0.40796  0.95261  0.49952  1.0000
  C   C2334     1.0  0.38459  0.84333  0.71867  1.0000
  H   H4092     1.0  0.30242  0.87063  0.57977  1.0000
  H   H4093     1.0  0.43308  0.94327  0.49415  1.0000
  H   H4094     1.0  0.21161  0.78103  0.59953  1.0000
  H   H4095     1.0  0.04542  0.78935  0.53574  1.0000
  N   N126      1.0  0.20538  0.79344  0.61582  1.0000
  C   C2335     1.0  0.42413  0.89855  0.49922  1.0000
  H   H4096     1.0  0.26729  0.96965  0.63970  1.0000
  H   H4097     1.0  0.29018  0.92199  0.72768  1.0000
  H   H4098     1.0  0.33153  0.86392  0.71406  1.0000
  H   H4099     1.0  0.23469  0.77773  0.60849  1.0000
  C   C2336     1.0  0.13988  0.85490  0.50512  1.0000
  C   C2337     1.0  0.20404  0.98778  0.49774  1.0000
  C   C2338     1.0  0.23899  0.78239  0.58559  1.0000
  C   C2339     1.0  0.35284  0.98040  0.61385  1.0000
  H   H4100     1.0  0.44499  0.94120  0.52033  1.0000
  C   C2340     1.0  0.02529  0.83329  0.50098  1.0000
  H   H4101     1.0  0.29988  0.87033  0.54541  1.0000
  H   H4102     1.0  0.09480  0.78229  0.51765  1.0000
  H   H4103     1.0  0.44221  0.88040  0.50343  1.0000
  H   H4104     1.0  0.31521  0.85904  0.60674  1.0000
  H   H4105     1.0  0.46281  0.96283  0.54436  1.0000
  C   C2341     1.0  0.41159  0.90362  0.53408  1.0000
  H   H4106     1.0  0.34059  0.98226  0.70446  1.0000
  H   H4107     1.0  0.43655  0.98513  0.57392  1.0000
  H   H4108     1.0  0.11841  0.76479  0.51652  1.0000
  H   H4109     1.0  0.23285  0.86480  0.50389  1.0000
  H   H4110     1.0  0.40295  0.88989  0.55406  1.0000
  C   C2342     1.0  0.22588  0.75023  0.52677  1.0000
  C   C2343     1.0  0.13949  0.84278  0.54690  1.0000
  C   C2344     1.0  0.14097  0.85844  0.54175  1.0000
  H   H4111     1.0  0.14283  0.83862  0.55726  1.0000
  Fe  Fe260     1.0  0.22862  0.79061  0.48792  1.0000
  H   H4112     1.0  0.13431  0.86476  0.54987  1.0000
  H   H4113     1.0  0.15254  0.85896  0.54002  1.0000
  H   H4114     1.0  0.13742  0.86350  0.53151  1.0000
  H   H4115     1.0  0.50279  0.95945  0.61080  1.0000
  H   H4116     1.0  0.33734  0.95646  0.61675  1.0000
  H   H4117     1.0  0.14236  0.80620  0.49399  1.0000
  H   H4118     1.0  0.25308  0.95136  0.62976  1.0000
  H   H4119     1.0  0.23558  0.76370  0.53405  1.0000
  C   C2345     1.0  0.34821  0.98316  0.56077  1.0000
  C   C2346     1.0  0.09490  0.75778  0.53813  1.0000
  H   H4120     1.0  0.34783  0.86561  0.55525  1.0000
  H   H4121     1.0  0.12074  0.84632  0.53799  1.0000
  C   C2347     1.0  0.20099  0.78611  0.56880  1.0000
  H   H4122     1.0  0.23098  0.98544  0.61805  1.0000
  H   H4123     1.0  0.25863  0.84759  0.50544  1.0000
  C   C2348     1.0  0.49938  0.97744  0.63806  1.0000
  H   H4124     1.0  0.20021  0.84011  0.50359  1.0000
  C   C2349     1.0  0.36004  0.95508  0.73314  1.0000
  H   H4125     1.0  0.18748  0.78562  0.60136  1.0000
  H   H4126     1.0  0.34362  0.92648  0.61068  1.0000
  C   C2350     1.0  0.09567  0.74483  0.56385  1.0000
  H   H4127     1.0  0.19647  0.96385  0.49635  1.0000
  C   C2351     1.0  0.09399  0.89658  0.49573  1.0000
  H   H4128     1.0  0.02725  0.78455  0.49868  1.0000
  H   H4129     1.0  0.04346  0.79601  0.51748  1.0000
  C   C2352     1.0  0.44814  0.98633  0.66041  1.0000
  Fe  Fe261     1.0  0.15436  0.93235  0.49073  1.0000
  H   H4130     1.0  0.33799  0.96446  0.58248  1.0000
  H   H4131     1.0  0.47612  0.94404  0.67549  1.0000
  C   C2353     1.0  0.33908  0.95399  0.56598  1.0000
  C   C2354     1.0  0.32753  0.92391  0.50802  1.0000
  H   H4132     1.0  0.38510  0.94588  0.48816  1.0000
  S   S523      1.0  0.34674  0.94719  0.73144  1.0000
  C   C2355     1.0  0.29670  0.85350  0.48844  1.0000
  H   H4133     1.0  0.35184  0.85787  0.69354  1.0000
  C   C2356     1.0  0.31278  0.80470  0.49665  1.0000
  H   H4134     1.0  0.41903  0.90420  0.48996  1.0000
  C   C2357     1.0  0.10336  0.96420  0.57995  1.0000
  C   C2358     1.0  0.17547  0.85299  0.49313  1.0000
  H   H4135     1.0  0.38615  0.96318  0.48964  1.0000
  C   C2359     1.0  0.40278  0.91497  0.73733  1.0000
  H   H4136     1.0  0.30534  0.92536  0.50798  1.0000
  H   H4137     1.0  0.26439  0.92102  0.49977  1.0000
  H   H4138     1.0  0.08100  0.74226  0.52940  1.0000
  H   H4139     1.0  0.21739  0.88513  0.50441  1.0000
  H   H4140     1.0  0.19250  0.75306  0.55093  1.0000
  H   H4141     1.0  0.22128  0.80085  0.62160  1.0000
  H   H4142     1.0  0.43600  0.90303  0.51240  1.0000
  H   H4143     1.0  0.37375  0.99109  0.54328  1.0000
  H   H4144     1.0  0.43757  0.91364  0.49476  1.0000
  H   H4145     1.0  0.12859  0.85596  0.51168  1.0000
  C   C2360     1.0  0.25205  0.98997  0.69110  1.0000
  C   C2361     1.0  0.03803  0.77847  0.49376  1.0000
  H   H4146     1.0  0.11087  0.81593  0.57604  1.0000
  C   C2362     1.0  0.32412  0.89518  0.56685  1.0000
  H   H4147     1.0  0.23486  0.84015  0.51314  1.0000
  C   C2363     1.0  0.20459  0.84279  0.51138  1.0000
  H   H4148     1.0  0.16607  0.91832  0.56474  1.0000
  C   C2364     1.0  0.37133  0.96604  0.65715  1.0000
  H   H4149     1.0  0.37361  0.83305  0.70102  1.0000
  Fe  Fe262     1.0  0.13065  0.76989  0.57434  1.0000
  H   H4150     1.0  0.39209  0.90785  0.55076  1.0000
  H   H4151     1.0  0.18291  0.84813  0.52497  1.0000
  H   H4152     1.0  0.19814  0.78864  0.64671  1.0000
  H   H4153     1.0  0.26915  0.77466  0.51323  1.0000
  S   S524      1.0  0.18401  0.76655  0.57446  1.0000
  H   H4154     1.0  0.30972  0.92438  0.55890  1.0000
  H   H4155     1.0  0.12902  0.80482  0.55225  1.0000
  H   H4156     1.0  0.14852  0.81255  0.51188  1.0000
  H   H4157     1.0  0.23794  0.83571  0.49602  1.0000
  H   H4158     1.0  0.20664  0.91254  0.55218  1.0000
  H   H4159     1.0  0.34956  0.95177  0.60059  1.0000
  H   H4160     1.0  0.36957  0.88649  0.64344  1.0000
  H   H4161     1.0  0.08976  0.98176  0.54003  1.0000
  H   H4162     1.0  0.32608  0.93055  0.54862  1.0000
  H   H4163     1.0  0.28492  0.81746  0.48933  1.0000
  H   H4164     1.0  0.39697  0.95414  0.66839  1.0000
  H   H4165     1.0  0.39738  0.91604  0.72857  1.0000
  H   H4166     1.0  0.10292  0.95267  0.58287  1.0000
  N   N127      1.0  0.45948  0.92671  0.69897  1.0000
  C   C2365     1.0  0.46504  0.92016  0.68600  1.0000
  C   C2366     1.0  0.46862  0.93672  0.69883  1.0000
  C   C2367     1.0  0.44408  0.93517  0.69899  1.0000
  C   C2368     1.0  0.43297  0.92642  0.69965  1.0000
  C   C2369     1.0  0.47103  0.94866  0.68506  1.0000
  C   C2370     1.0  0.48141  0.91261  0.68308  1.0000
  C   C2371     1.0  0.21643  0.82937  0.61250  1.0000
  C   C2372     1.0  0.41740  0.93522  0.70277  1.0000
  C   C2373     1.0  0.48109  0.95749  0.68600  1.0000
  H   H4167     1.0  0.45888  0.91196  0.68689  1.0000
  H   H4168     1.0  0.46286  0.92833  0.67623  1.0000
  H   H4169     1.0  0.46356  0.94242  0.70774  1.0000
  H   H4170     1.0  0.43992  0.94102  0.70786  1.0000
  H   H4171     1.0  0.44372  0.94375  0.68904  1.0000
  H   H4172     1.0  0.43366  0.91634  0.70802  1.0000
  H   H4173     1.0  0.43500  0.92364  0.68915  1.0000
  H   H4174     1.0  0.46057  0.95617  0.68345  1.0000
  H   H4175     1.0  0.18398  0.77739  0.62010  1.0000
  C   C2374     1.0  0.25611  0.84061  0.49991  1.0000
  C   C2375     1.0  0.12044  0.98788  0.51323  1.0000
  H   H4176     1.0  0.06920  0.79182  0.51778  1.0000
  H   H4177     1.0  0.27141  0.90198  0.50041  1.0000
  H   H4178     1.0  0.14467  0.86344  0.50592  1.0000
  H   H4179     1.0  0.41629  0.94576  0.69512  1.0000
  H   H4180     1.0  0.40967  0.92935  0.70190  1.0000
  H   H4181     1.0  0.17399  0.76698  0.49410  1.0000
  H   H4182     1.0  0.31071  0.97059  0.56041  1.0000
  H   H4183     1.0  0.29781  0.79867  0.53353  1.0000
  H   H4184     1.0  0.04295  0.77753  0.52620  1.0000
  H   H4185     1.0  0.42117  0.88796  0.72095  1.0000
  H   H4186     1.0  0.21876  0.77712  0.62909  1.0000
  C   C2376     1.0  0.20669  0.85852  0.50632  1.0000
  H   H4187     1.0  0.22815  0.82451  0.61235  1.0000
  N   N128      1.0  0.37797  0.85113  0.70585  1.0000
  C   C2377     1.0  0.01761  0.82430  0.49902  1.0000
  C   C2378     1.0  0.12364  0.84158  0.54861  1.0000
  H   H4188     1.0  0.41666  0.97594  0.57380  1.0000
  H   H4189     1.0  0.35295  0.96561  0.70140  1.0000
  H   H4190     1.0  0.43996  0.92154  0.72761  1.0000
  H   H4191     1.0  0.12152  0.80534  0.59784  1.0000
  H   H4192     1.0  0.06654  0.77951  0.50931  1.0000
  H   H4193     1.0  0.17160  0.84910  0.50449  1.0000
  H   H4194     1.0  0.48433  0.91659  0.65991  1.0000
  H   H4195     1.0  0.20891  0.86142  0.51540  1.0000
  H   H4196     1.0  0.38069  0.82176  0.72155  1.0000
  H   H4197     1.0  0.42255  0.94520  0.66969  1.0000
  C   C2379     1.0  0.19051  0.79635  0.53146  1.0000
  C   C2380     1.0  0.31975  0.87980  0.55391  1.0000
  H   H4198     1.0  0.37777  0.87365  0.70281  1.0000
  S   S525      1.0  0.14986  0.77527  0.55697  1.0000
  H   H4199     1.0  0.08156  0.74697  0.61603  1.0000
  C   C2381     1.0  0.20968  0.88817  0.49727  1.0000
  C   C2382     1.0  0.39639  0.82354  0.68123  1.0000
  C   C2383     1.0  0.41896  0.95648  0.66407  1.0000
  H   H4200     1.0  0.19862  0.88761  0.50405  1.0000
  H   H4201     1.0  0.45594  0.90569  0.71156  1.0000
  H   H4202     1.0  0.21008  0.77739  0.56628  1.0000
  H   H4203     1.0  0.48383  0.98932  0.68905  1.0000
  C   C2384     1.0  0.13161  0.81561  0.54725  1.0000
  H   H4204     1.0  0.19591  0.79777  0.53922  1.0000
  H   H4205     1.0  0.33797  0.92557  0.50042  1.0000
  S   S526      1.0  0.34607  0.93556  0.69699  1.0000
  H   H4206     1.0  0.35762  0.93726  0.50647  1.0000
  H   H4207     1.0  0.28889  0.90599  0.70697  1.0000
  C   C2385     1.0  0.32750  0.98377  0.55126  1.0000
  C   C2386     1.0  0.20364  0.79935  0.56872  1.0000
  C   C2387     1.0  0.34376  0.93359  0.61743  1.0000
  H   H4208     1.0  0.36677  0.92789  0.61059  1.0000
  H   H4209     1.0  0.09423  0.97043  0.57464  1.0000
  C   C2388     1.0  0.21437  0.79028  0.60160  1.0000
  S   S527      1.0  0.35925  0.90106  0.69673  1.0000
  C   C2389     1.0  0.35527  0.87791  0.56515  1.0000
  H   H4210     1.0  0.41858  0.89394  0.53028  1.0000
  C   C2390     1.0  0.46016  0.91474  0.71219  1.0000
  C   C2391     1.0  0.13991  0.85584  0.48960  1.0000
  H   H4211     1.0  0.29056  0.80829  0.51048  1.0000
  Fe  Fe263     1.0  0.13083  0.91666  0.49415  1.0000
  H   H4212     1.0  0.14073  0.80365  0.59587  1.0000
  H   H4213     1.0  0.47171  0.90988  0.71291  1.0000
  S   S528      1.0  0.44530  0.95319  0.62611  1.0000
  H   H4214     1.0  0.48851  0.91996  0.68197  1.0000
  H   H4215     1.0  0.31177  0.98977  0.57758  1.0000
  S   S529      1.0  0.31570  0.91285  0.70429  1.0000
  H   H4216     1.0  0.18502  0.77638  0.54377  1.0000
  C   C2392     1.0  0.30872  0.98200  0.53914  1.0000
  H   H4217     1.0  0.30040  0.94553  0.68372  1.0000
  H   H4218     1.0  0.42349  0.96838  0.59858  1.0000
  S   S530      1.0  0.37258  0.87809  0.73227  1.0000
  C   C2393     1.0  0.41054  0.97633  0.61753  1.0000
  Fe  Fe264     1.0  0.33795  0.91511  0.70477  1.0000
  H   H4219     1.0  0.35511  0.97574  0.55385  1.0000
  H   H4220     1.0  0.13584  0.80209  0.57368  1.0000
  H   H4221     1.0  0.01850  0.81340  0.50533  1.0000
  H   H4222     1.0  0.17098  0.87496  0.49471  1.0000
  H   H4223     1.0  0.40224  0.96091  0.63603  1.0000
  S   S531      1.0  0.49829  0.94901  0.64950  1.0000
  H   H4224     1.0  0.34273  0.90947  0.63590  1.0000
  C   C2394     1.0  0.28950  0.95297  0.68516  1.0000
  H   H4225     1.0  0.17687  0.90215  0.55907  1.0000
  H   H4226     1.0  0.20183  0.89703  0.59328  1.0000
  H   H4227     1.0  0.36240  0.95414  0.64782  1.0000
  C   C2395     1.0  0.20740  0.77184  0.53061  1.0000
  H   H4228     1.0  0.20303  0.80741  0.62987  1.0000
  C   C2396     1.0  0.38004  0.84151  0.69583  1.0000
  H   H4229     1.0  0.37865  0.94088  0.72314  1.0000
  H   H4230     1.0  0.14715  0.83678  0.53891  1.0000
  N   N129      1.0  0.08753  0.76230  0.52566  1.0000
  S   S532      1.0  0.06213  0.82259  0.50330  1.0000
  H   H4231     1.0  0.28959  0.96079  0.67470  1.0000
  Fe  Fe265     1.0  0.16322  0.76163  0.57286  1.0000
  C   C2397     1.0  0.09121  0.88272  0.50180  1.0000
  H   H4232     1.0  0.35790  0.90284  0.62309  1.0000
  H   H4233     1.0  0.29967  0.94081  0.70781  1.0000
  H   H4234     1.0  0.39929  0.81884  0.73534  1.0000
  S   S533      1.0  0.15666  0.75332  0.52859  1.0000
  C   C2398     1.0  0.20448  0.74923  0.54764  1.0000
  H   H4235     1.0  0.32321  0.88648  0.54308  1.0000
  H   H4236     1.0  0.39752  0.88971  0.71559  1.0000
  H   H4237     1.0  0.32043  0.90493  0.49730  1.0000
  C   C2399     1.0  0.39728  0.97742  0.66160  1.0000
  Fe  Fe266     1.0  0.05506  0.84616  0.50263  1.0000
  Fe  Fe267     1.0  0.08142  0.84678  0.51271  1.0000
  H   H4238     1.0  0.15969  0.74823  0.50096  1.0000
  H   H4239     1.0  0.24992  0.88455  0.54046  1.0000
  H   H4240     1.0  0.06921  0.84442  0.56151  1.0000
  C   C2400     1.0  0.21006  0.80486  0.61961  1.0000
  H   H4241     1.0  0.33326  0.95465  0.55769  1.0000
  C   C2401     1.0  0.32581  0.86957  0.57788  1.0000
  C   C2402     1.0  0.37091  0.87560  0.55631  1.0000
  C   C2403     1.0  0.20359  0.90478  0.56238  1.0000
  H   H4242     1.0  0.18066  0.91946  0.54899  1.0000
  H   H4243     1.0  0.21470  0.80079  0.56607  1.0000
  C   C2404     1.0  0.34991  0.88068  0.64424  1.0000
  H   H4244     1.0  0.35374  0.87798  0.63351  1.0000
  H   H4245     1.0  0.31790  0.95544  0.68313  1.0000
  H   H4246     1.0  0.25848  0.89265  0.54910  1.0000
  H   H4247     1.0  0.19210  0.82949  0.52902  1.0000
  H   H4248     1.0  0.13041  0.77207  0.49152  1.0000
  S   S534      1.0  0.09541  0.85617  0.52048  1.0000
  C   C2405     1.0  0.30195  0.80775  0.51067  1.0000
  C   C2406     1.0  0.20110  0.75341  0.52289  1.0000
  C   C2407     1.0  0.11378  0.98371  0.60927  1.0000
  H   H4249     1.0  0.33793  0.88500  0.64618  1.0000
  S   S535      1.0  0.37552  0.96091  0.60324  1.0000
  H   H4250     1.0  0.32922  0.91278  0.51465  1.0000
  H   H4251     1.0  0.21161  0.79941  0.59268  1.0000
  C   C2408     1.0  0.13081  0.81067  0.59230  1.0000
  H   H4252     1.0  0.21816  0.93442  0.58840  1.0000
  Fe  Fe268     1.0  0.08426  0.82717  0.49307  1.0000
  C   C2409     1.0  0.39268  0.95247  0.48790  1.0000
  H   H4253     1.0  0.11644  0.84908  0.55545  1.0000
  N   N130      1.0  0.28741  0.96060  0.69696  1.0000
  H   H4254     1.0  0.09779  0.75018  0.59190  1.0000
  H   H4255     1.0  0.25512  0.90141  0.53150  1.0000
  C   C2410     1.0  0.31450  0.96259  0.69074  1.0000
  C   C2411     1.0  0.28323  0.93102  0.73269  1.0000
  C   C2412     1.0  0.25074  0.89488  0.54208  1.0000
  C   C2413     1.0  0.20943  0.90382  0.48935  1.0000
  C   C2414     1.0  0.26135  0.95301  0.63444  1.0000
  C   C2415     1.0  0.36496  0.97830  0.60270  1.0000
  H   H4256     1.0  0.32565  0.90728  0.54427  1.0000
  H   H4257     1.0  0.23606  0.77255  0.58511  1.0000
  C   C2416     1.0  0.15120  0.74314  0.50836  1.0000
  H   H4258     1.0  0.12439  0.81370  0.52910  1.0000
  H   H4259     1.0  0.27740  0.99202  0.62334  1.0000
  H   H4260     1.0  0.29727  0.97733  0.68138  1.0000
  C   C2417     1.0  0.17489  0.86768  0.48756  1.0000
  H   H4261     1.0  0.10516  0.75401  0.60464  1.0000
  C   C2418     1.0  0.41308  0.88281  0.72900  1.0000
  H   H4262     1.0  0.16055  0.79468  0.62441  1.0000
  H   H4263     1.0  0.35508  0.86956  0.57526  1.0000
  H   H4264     1.0  0.47624  0.96285  0.69518  1.0000
  C   C2419     1.0  0.40123  0.94525  0.49966  1.0000
  Fe  Fe269     1.0  0.36438  0.89908  0.71787  1.0000
  C   C2420     1.0  0.17004  0.77733  0.49755  1.0000
  H   H4265     1.0  0.40785  0.85409  0.69476  1.0000
  H   H4266     1.0  0.19274  0.76628  0.66332  1.0000
  C   C2421     1.0  0.08722  0.99032  0.61330  1.0000
  H   H4267     1.0  0.30573  0.88133  0.58985  1.0000
  H   H4268     1.0  0.46615  0.98679  0.59361  1.0000
  H   H4269     1.0  0.11388  0.96542  0.57228  1.0000
  C   C2422     1.0  0.38926  0.87709  0.73620  1.0000
  C   C2423     1.0  0.29818  0.97026  0.69207  1.0000
  C   C2424     1.0  0.32424  0.97347  0.68523  1.0000
  H   H4270     1.0  0.31672  0.95611  0.70125  1.0000
  S   S536      1.0  0.07702  0.85102  0.49083  1.0000
  H   H4271     1.0  0.37829  0.87679  0.56235  1.0000
  Fe  Fe270     1.0  0.35254  0.93066  0.71799  1.0000
  H   H4272     1.0  0.41455  0.93713  0.71373  1.0000
  H   H4273     1.0  0.26856  0.97693  0.67797  1.0000
  H   H4274     1.0  0.20515  0.91961  0.58106  1.0000
  C   C2425     1.0  0.34455  0.87679  0.55683  1.0000
  C   C2426     1.0  0.17502  0.79539  0.57550  1.0000
  C   C2427     1.0  0.27236  0.97006  0.69994  1.0000
  H   H4275     1.0  0.23744  0.89027  0.56958  1.0000
  H   H4276     1.0  0.40179  0.82822  0.69852  1.0000
  H   H4277     1.0  0.39661  0.83998  0.71545  1.0000
  H   H4278     1.0  0.14962  0.79859  0.52790  1.0000
  C   C2428     1.0  0.40017  0.86369  0.69809  1.0000
  H   H4279     1.0  0.11263  0.97251  0.61459  1.0000
  H   H4280     1.0  0.32718  0.93857  0.58163  1.0000
  H   H4281     1.0  0.23845  0.90827  0.57718  1.0000
  C   C2429     1.0  0.40508  0.96246  0.62422  1.0000
  C   C2430     1.0  0.06462  0.78225  0.51973  1.0000
  H   H4282     1.0  0.23714  0.92733  0.58887  1.0000
  H   H4283     1.0  0.14260  0.81463  0.54894  1.0000
  H   H4284     1.0  0.32425  0.92263  0.56749  1.0000
  C   C2431     1.0  0.18668  0.78399  0.57242  1.0000
  H   H4285     1.0  0.41615  0.93816  0.51999  1.0000
  S   S537      1.0  0.37500  0.91797  0.71065  1.0000
  H   H4286     1.0  0.46045  0.98425  0.67595  1.0000
  H   H4287     1.0  0.10334  0.81639  0.55597  1.0000
  H   H4288     1.0  0.20512  0.91090  0.49713  1.0000
  H   H4289     1.0  0.29571  0.97760  0.69950  1.0000
  H   H4290     1.0  0.09072  0.77626  0.50449  1.0000
  C   C2432     1.0  0.23575  0.90307  0.54869  1.0000
  H   H4291     1.0  0.22462  0.90776  0.59364  1.0000
  H   H4292     1.0  0.22722  0.87173  0.58630  1.0000
  C   C2433     1.0  0.19130  0.78042  0.53295  1.0000
  H   H4293     1.0  0.11388  0.75599  0.50531  1.0000
  H   H4294     1.0  0.40791  0.81867  0.67682  1.0000
  C   C2434     1.0  0.22901  0.89392  0.56319  1.0000
  H   H4295     1.0  0.22778  0.88395  0.56106  1.0000
  H   H4296     1.0  0.23722  0.91320  0.55011  1.0000
  H   H4297     1.0  0.22316  0.86358  0.61231  1.0000
  H   H4298     1.0  0.29459  0.95500  0.71692  1.0000
  C   C2435     1.0  0.22752  0.91370  0.58239  1.0000
  H   H4299     1.0  0.22883  0.90571  0.54083  1.0000
  H   H4300     1.0  0.20647  0.86625  0.60670  1.0000
  H   H4301     1.0  0.21169  0.76348  0.65423  1.0000
  H   H4302     1.0  0.38312  0.86754  0.68664  1.0000
  C   C2436     1.0  0.37358  0.98140  0.65477  1.0000
  H   H4303     1.0  0.37174  0.88369  0.54600  1.0000
  H   H4304     1.0  0.36481  0.96241  0.66801  1.0000
  Fe  Fe271     1.0  0.44897  0.96875  0.63647  1.0000
  C   C2437     1.0  0.22127  0.87985  0.59281  1.0000
  C   C2438     1.0  0.22872  0.92854  0.58288  1.0000
  H   H4305     1.0  0.20896  0.87933  0.61483  1.0000
  H   H4306     1.0  0.39093  0.81479  0.68817  1.0000
  H   H4307     1.0  0.21224  0.77405  0.53839  1.0000
  H   H4308     1.0  0.19763  0.84272  0.53423  1.0000
  C   C2439     1.0  0.40528  0.87700  0.68812  1.0000
  H   H4309     1.0  0.20127  0.94059  0.49004  1.0000
  H   H4310     1.0  0.17894  0.80216  0.53370  1.0000
  C   C2440     1.0  0.21446  0.87180  0.60757  1.0000
  H   H4311     1.0  0.22937  0.88488  0.59418  1.0000
  C   C2441     1.0  0.39881  0.89886  0.54562  1.0000
  C   C2442     1.0  0.14782  0.81039  0.52354  1.0000
  S   S538      1.0  0.10805  0.91808  0.49242  1.0000
  N   N131      1.0  0.21468  0.90114  0.57147  1.0000
  C   C2443     1.0  0.20947  0.89092  0.58532  1.0000
  C   C2444     1.0  0.21564  0.91490  0.57439  1.0000
  H   H4312     1.0  0.20305  0.88421  0.58347  1.0000
  H   H4313     1.0  0.23200  0.93495  0.57188  1.0000
  C   C2445     1.0  0.05995  0.99186  0.61951  1.0000
  C   C2446     1.0  0.43609  0.98914  0.59764  1.0000
  H   H4314     1.0  0.36934  0.96887  0.63526  1.0000
  C   C2447     1.0  0.42955  0.90919  0.50418  1.0000
  H   H4315     1.0  0.39523  0.96294  0.62054  1.0000
  C   C2448     1.0  0.45019  0.98889  0.67274  1.0000
  C   C2449     1.0  0.26084  0.97826  0.61912  1.0000
  C   C2450     1.0  0.26779  0.98176  0.68699  1.0000
  H   H4316     1.0  0.30483  0.78547  0.52268  1.0000
  C   C2451     1.0  0.13322  0.81291  0.57607  1.0000
  H   H4317     1.0  0.20334  0.89492  0.55928  1.0000
  H   H4318     1.0  0.21712  0.92320  0.56424  1.0000
  H   H4319     1.0  0.41601  0.89344  0.50788  1.0000
  H   H4320     1.0  0.06768  0.98378  0.53141  1.0000
  C   C2452     1.0  0.23116  0.78676  0.59983  1.0000
  H   H4321     1.0  0.09409  0.98725  0.50733  1.0000
  C   C2453     1.0  0.09705  0.98019  0.51734  1.0000
  S   S539      1.0  0.47112  0.97021  0.62284  1.0000
  C   C2454     1.0  0.36327  0.96535  0.64639  1.0000
  H   H4322     1.0  0.39774  0.88691  0.69104  1.0000
  C   C2455     1.0  0.25198  0.74517  0.52951  1.0000
  H   H4323     1.0  0.35839  0.97791  0.70826  1.0000
  H   H4324     1.0  0.37561  0.96631  0.68272  1.0000
  H   H4325     1.0  0.16399  0.79385  0.57832  1.0000
  C   C2456     1.0  0.25897  0.96886  0.63452  1.0000
  H   H4326     1.0  0.38191  0.95839  0.65541  1.0000
  H   H4327     1.0  0.35208  0.97219  0.64802  1.0000
  C   C2457     1.0  0.08871  0.98854  0.52929  1.0000
  H   H4328     1.0  0.45490  0.92867  0.72763  1.0000
  S   S540      1.0  0.14445  0.98275  0.56232  1.0000
  H   H4329     1.0  0.09564  0.75498  0.56648  1.0000
  C   C2458     1.0  0.18772  0.91158  0.56926  1.0000
  C   C2459     1.0  0.07186  0.76985  0.53075  1.0000
  S   S541      1.0  0.09049  0.82322  0.51401  1.0000
  H   H4330     1.0  0.32846  0.89537  0.57596  1.0000
  C   C2460     1.0  0.32877  0.90737  0.55407  1.0000
  C   C2461     1.0  0.37444  0.97813  0.68039  1.0000
  H   H4331     1.0  0.41366  0.95305  0.62136  1.0000
  H   H4332     1.0  0.27135  0.94012  0.71604  1.0000
  H   H4333     1.0  0.10627  0.75175  0.53512  1.0000
  C   C2462     1.0  0.11213  0.76635  0.50831  1.0000
  H   H4334     1.0  0.18702  0.92255  0.57041  1.0000
  H   H4335     1.0  0.18374  0.90504  0.57997  1.0000
  C   C2463     1.0  0.39594  0.83422  0.68986  1.0000
  H   H4336     1.0  0.06473  0.76195  0.53544  1.0000
  C   C2464     1.0  0.17724  0.91294  0.55991  1.0000
  C   C2465     1.0  0.35289  0.86502  0.69979  1.0000
  H   H4337     1.0  0.41375  0.90780  0.73535  1.0000
  H   H4338     1.0  0.35262  0.88856  0.56786  1.0000
  H   H4339     1.0  0.30801  0.88469  0.55759  1.0000
  C   C2466     1.0  0.40264  0.96175  0.66955  1.0000
  S   S542      1.0  0.18056  0.82520  0.49114  1.0000
  C   C2467     1.0  0.29457  0.91619  0.48988  1.0000
  H   H4340     1.0  0.21321  0.77686  0.51984  1.0000
  N   N132      1.0  0.32857  0.88031  0.56388  1.0000
  C   C2468     1.0  0.32072  0.86469  0.55169  1.0000
  H   H4341     1.0  0.19584  0.80120  0.52042  1.0000
  H   H4342     1.0  0.31548  0.87239  0.53058  1.0000
  C   C2469     1.0  0.23970  0.84309  0.50155  1.0000
  C   C2470     1.0  0.38518  0.95515  0.73177  1.0000
  H   H4343     1.0  0.40095  0.86347  0.70906  1.0000
  C   C2471     1.0  0.11599  0.99010  0.62086  1.0000
  H   H4344     1.0  0.18576  0.77970  0.52498  1.0000
  H   H4345     1.0  0.07912  0.79237  0.58832  1.0000
  C   C2472     1.0  0.09569  0.77244  0.51393  1.0000
  H   H4346     1.0  0.35983  0.86273  0.71940  1.0000
  H   H4347     1.0  0.35810  0.87360  0.69217  1.0000
  H   H4348     1.0  0.36743  0.83244  0.73334  1.0000
  H   H4349     1.0  0.28244  0.98909  0.59514  1.0000
  C   C2473     1.0  0.20753  0.77984  0.62725  1.0000
  H   H4350     1.0  0.37552  0.84772  0.68628  1.0000
  H   H4351     1.0  0.40575  0.87727  0.67680  1.0000
  H   H4352     1.0  0.07093  0.77494  0.53969  1.0000
  H   H4353     1.0  0.43154  0.95594  0.51306  1.0000
  H   H4354     1.0  0.27142  0.97559  0.70856  1.0000
  H   H4355     1.0  0.17754  0.77799  0.50372  1.0000
  C   C2474     1.0  0.40616  0.91550  0.52159  1.0000
  H   H4356     1.0  0.26041  0.94646  0.64557  1.0000
  N   N133      1.0  0.12046  0.82674  0.55458  1.0000
  C   C2475     1.0  0.43670  0.93697  0.50411  1.0000
  C   C2476     1.0  0.38418  0.86432  0.69801  1.0000
  H   H4357     1.0  0.26051  0.82923  0.50473  1.0000
  C   C2477     1.0  0.31154  0.86567  0.54122  1.0000
  C   C2478     1.0  0.31957  0.91577  0.49004  1.0000
  H   H4358     1.0  0.21572  0.83976  0.60451  1.0000
  H   H4359     1.0  0.41634  0.87686  0.68910  1.0000
  H   H4360     1.0  0.39194  0.89511  0.54092  1.0000
  N   N134      1.0  0.21802  0.86221  0.49276  1.0000
  C   C2479     1.0  0.36916  0.99012  0.59236  1.0000
  H   H4361     1.0  0.31238  0.85474  0.53983  1.0000
  N   N135      1.0  0.10115  0.99188  0.60222  1.0000
  H   H4362     1.0  0.07852  0.83701  0.54598  1.0000
  H   H4363     1.0  0.20082  0.76220  0.51309  1.0000
  H   H4364     1.0  0.40079  0.96127  0.68115  1.0000
  C   C2480     1.0  0.11939  0.82235  0.57067  1.0000
  H   H4365     1.0  0.40337  0.98378  0.66443  1.0000
  C   C2481     1.0  0.36176  0.85618  0.71134  1.0000
  H   H4366     1.0  0.26151  0.84280  0.48839  1.0000
  C   C2482     1.0  0.39968  0.88385  0.72596  1.0000
  C   C2483     1.0  0.45193  0.91910  0.72662  1.0000
  H   H4367     1.0  0.30366  0.98958  0.55845  1.0000
  H   H4368     1.0  0.32441  0.93151  0.51522  1.0000
  H   H4369     1.0  0.38264  0.85079  0.72584  1.0000
  C   C2484     1.0  0.41537  0.98782  0.57074  1.0000
  C   C2485     1.0  0.07836  0.83604  0.55738  1.0000
  H   H4370     1.0  0.21482  0.83482  0.51262  1.0000
  H   H4371     1.0  0.32172  0.98066  0.69276  1.0000
  H   H4372     1.0  0.21526  0.81809  0.59768  1.0000
  H   H4373     1.0  0.16425  0.98730  0.51034  1.0000
  C   C2486     1.0  0.42468  0.92976  0.51512  1.0000
  S   S543      1.0  0.35787  0.89659  0.48794  1.0000
  H   H4374     1.0  0.27239  0.94912  0.62816  1.0000
  H   H4375     1.0  0.13013  0.98538  0.63564  1.0000
  H   H4376     1.0  0.33132  0.87817  0.69819  1.0000
  Fe  Fe272     1.0  0.36788  0.90695  0.49891  1.0000
  C   C2487     1.0  0.41552  0.97833  0.60102  1.0000
  H   H4377     1.0  0.09366  0.84923  0.55334  1.0000
  H   H4378     1.0  0.39669  0.95065  0.72876  1.0000
  H   H4379     1.0  0.14650  0.84432  0.50946  1.0000
  H   H4380     1.0  0.44663  0.92869  0.50122  1.0000
  H   H4381     1.0  0.09570  0.76745  0.54116  1.0000
  C   C2488     1.0  0.12855  0.98043  0.62766  1.0000
  H   H4382     1.0  0.35653  0.84696  0.71704  1.0000
  C   C2489     1.0  0.44101  0.94710  0.51042  1.0000
  H   H4383     1.0  0.09170  0.96749  0.60083  1.0000
  H   H4384     1.0  0.25097  0.78016  0.58446  1.0000
  H   H4385     1.0  0.37854  0.98846  0.58369  1.0000
  H   H4386     1.0  0.42147  0.95689  0.65242  1.0000
  H   H4387     1.0  0.11131  0.96249  0.59829  1.0000
  H   H4388     1.0  0.42517  0.96320  0.66612  1.0000
  H   H4389     1.0  0.41788  0.90748  0.53930  1.0000
  C   C2490     1.0  0.20037  0.76581  0.65275  1.0000
  H   H4390     1.0  0.40150  0.97811  0.64988  1.0000
  H   H4391     1.0  0.07640  0.82533  0.56363  1.0000
  H   H4392     1.0  0.27247  0.97473  0.61391  1.0000
  H   H4393     1.0  0.21610  0.94191  0.49656  1.0000
  Fe  Fe273     1.0  0.15048  0.75451  0.55177  1.0000
  H   H4394     1.0  0.25465  0.97512  0.61315  1.0000
  H   H4395     1.0  0.33582  0.96768  0.68413  1.0000
  H   H4396     1.0  0.25592  0.98970  0.64750  1.0000
  C   C2491     1.0  0.37498  0.94963  0.72862  1.0000
  H   H4397     1.0  0.41953  0.97570  0.62248  1.0000
  C   C2492     1.0  0.16400  0.95830  0.49883  1.0000
  H   H4398     1.0  0.33781  0.87984  0.71266  1.0000
  H   H4399     1.0  0.39913  0.91126  0.51748  1.0000
  H   H4400     1.0  0.12616  0.96969  0.63320  1.0000
  H   H4401     1.0  0.16593  0.79986  0.48866  1.0000
  H   H4402     1.0  0.35060  0.95406  0.56068  1.0000
  C   C2493     1.0  0.29059  0.94995  0.71053  1.0000
  C   C2494     1.0  0.33747  0.87212  0.70665  1.0000
  N   N136      1.0  0.42196  0.99127  0.59314  1.0000
  H   H4403     1.0  0.07610  0.75316  0.55587  1.0000
  H   H4404     1.0  0.45700  0.97999  0.65402  1.0000
  C   C2495     1.0  0.37912  0.82970  0.72803  1.0000
  C   C2496     1.0  0.11860  0.77664  0.49502  1.0000
  H   H4405     1.0  0.21053  0.98018  0.50543  1.0000
  H   H4406     1.0  0.03163  0.82945  0.50909  1.0000
  H   H4407     1.0  0.31652  0.97345  0.53394  1.0000
  H   H4408     1.0  0.34466  0.93789  0.58474  1.0000
  S   S544      1.0  0.34232  0.91154  0.72658  1.0000
  C   C2497     1.0  0.10213  0.96935  0.59338  1.0000
  H   H4409     1.0  0.24443  0.98259  0.69451  1.0000
  C   C2498     1.0  0.30566  0.79606  0.52364  1.0000
  N   N137      1.0  0.38106  0.98388  0.66491  1.0000
  H   H4410     1.0  0.38045  0.97997  0.68745  1.0000
  H   H4411     1.0  0.28968  0.92501  0.49575  1.0000
  H   H4412     1.0  0.28893  0.83417  0.49863  1.0000
  H   H4413     1.0  0.35143  0.98425  0.67857  1.0000
  H   H4414     1.0  0.29751  0.98039  0.54096  1.0000
  S   S545      1.0  0.03478  0.85838  0.49446  1.0000
  H   H4415     1.0  0.40434  0.92559  0.73730  1.0000
  C   C2499     1.0  0.33215  0.96655  0.57386  1.0000
  H   H4416     1.0  0.44985  0.95191  0.50254  1.0000
  N   N138      1.0  0.41786  0.92122  0.50954  1.0000
  H   H4417     1.0  0.28075  0.98980  0.64812  1.0000
  C   C2500     1.0  0.16173  0.97267  0.49941  1.0000
  H   H4418     1.0  0.35303  0.97980  0.57039  1.0000
  H   H4419     1.0  0.07814  0.80118  0.48947  1.0000
  C   C2501     1.0  0.08803  0.74895  0.52100  1.0000
  H   H4420     1.0  0.11722  0.78728  0.49737  1.0000
  H   H4421     1.0  0.32078  0.96562  0.57952  1.0000
  C   C2502     1.0  0.27775  0.94376  0.72128  1.0000
  H   H4422     1.0  0.43255  0.87904  0.49113  1.0000
  H   H4423     1.0  0.31459  0.79310  0.49675  1.0000
  H   H4424     1.0  0.13375  0.84803  0.48974  1.0000
  H   H4425     1.0  0.40580  0.97851  0.59729  1.0000
  H   H4426     1.0  0.32339  0.80608  0.49737  1.0000
  H   H4427     1.0  0.13247  0.98413  0.51151  1.0000
  H   H4428     1.0  0.40395  0.92468  0.49492  1.0000
  H   H4429     1.0  0.12197  0.87443  0.48890  1.0000
  C   C2503     1.0  0.02452  0.84728  0.49266  1.0000
  H   H4430     1.0  0.06138  0.98002  0.62151  1.0000
  H   H4431     1.0  0.15702  0.98112  0.49139  1.0000
  H   H4432     1.0  0.19347  0.98446  0.50103  1.0000
  H   H4433     1.0  0.31424  0.93786  0.49368  1.0000
  N   N139      1.0  0.33264  0.98145  0.56478  1.0000
  H   H4434     1.0  0.10611  0.99121  0.62960  1.0000
  C   C2504     1.0  0.43677  0.88655  0.49448  1.0000
  H   H4435     1.0  0.11664  0.81548  0.49514  1.0000
  H   H4436     1.0  0.32272  0.98008  0.67456  1.0000
  H   H4437     1.0  0.28614  0.86035  0.49270  1.0000
  H   H4438     1.0  0.11317  0.98676  0.58189  1.0000
  H   H4439     1.0  0.43061  0.98709  0.55009  1.0000
  H   H4440     1.0  0.12422  0.98276  0.60102  1.0000
  C   C2505     1.0  0.35220  0.97709  0.70086  1.0000
  H   H4441     1.0  0.09416  0.99134  0.58355  1.0000
  H   H4442     1.0  0.30418  0.85165  0.49564  1.0000
  H   H4443     1.0  0.27475  0.98977  0.68318  1.0000
  H   H4444     1.0  0.36267  0.98882  0.65503  1.0000
  H   H4445     1.0  0.22408  0.96508  0.48922  1.0000
  H   H4446     1.0  0.29191  0.79121  0.49570  1.0000
  H   H4447     1.0  0.26078  0.91283  0.48753  1.0000
  C   C2506     1.0  0.21032  0.94619  0.48761  1.0000
  Fe  Fe274     1.0  0.48398  0.83436  0.96777  1.0000
  Fe  Fe275     1.0  0.47014  0.83349  0.94429  1.0000
  H   H4448     1.0  0.40710  0.88901  0.93627  1.0000
  S   S546      1.0  0.45062  0.83011  0.93906  1.0000
  Fe  Fe276     1.0  0.48665  0.85640  0.93952  1.0000
  S   S547      1.0  0.48524  0.87981  0.92889  1.0000
  H   H4449     1.0  0.45181  0.89737  0.73943  1.0000
  S   S548      1.0  0.46744  0.85029  0.95631  1.0000
  Fe  Fe277     1.0  0.46397  0.93194  0.83061  1.0000
  S   S549      1.0  0.47462  0.90971  0.84047  1.0000
  S   S550      1.0  0.45848  0.93574  0.80934  1.0000
  Fe  Fe278     1.0  0.46758  0.94476  0.85294  1.0000
  S   S551      1.0  0.46426  0.96452  0.86093  1.0000
  H   H4450     1.0  0.43458  0.81813  0.92687  1.0000
  Fe  Fe279     1.0  0.46166  0.91506  0.86150  1.0000
  S   S552      1.0  0.45149  0.89846  0.87907  1.0000
  S   S553      1.0  0.48128  0.94218  0.83131  1.0000
  S   S554      1.0  0.44918  0.93642  0.85137  1.0000
  H   H4451     1.0  0.41602  0.86941  0.97377  1.0000
  H   H4452     1.0  0.44635  0.87714  0.94355  1.0000
  H   H4453     1.0  0.42138  0.81867  0.89981  1.0000
  S   S555      1.0  0.43187  0.78213  0.90021  1.0000
  H   H4454     1.0  0.37420  0.87540  0.95779  1.0000
  H   H4455     1.0  0.34618  0.91193  0.75878  1.0000
  C   C2507     1.0  0.39225  0.86935  0.74958  1.0000
  H   H4456     1.0  0.47324  0.78122  0.93896  1.0000
  C   C2508     1.0  0.42601  0.86135  0.97055  1.0000
  S   S556      1.0  0.47194  0.78342  0.90187  1.0000
  Fe  Fe280     1.0  0.45613  0.77533  0.89555  1.0000
  S   S557      1.0  0.48489  0.81683  0.95729  1.0000
  C   C2509     1.0  0.43040  0.87042  0.92931  1.0000
  C   C2510     1.0  0.42793  0.85986  0.95501  1.0000
  Fe  Fe281     1.0  0.43572  0.87702  0.79608  1.0000
  S   S558      1.0  0.44248  0.88778  0.77319  1.0000
  S   S559      1.0  0.42323  0.89049  0.81211  1.0000
  Fe  Fe282     1.0  0.45208  0.84786  0.79139  1.0000
  S   S560      1.0  0.46084  0.85604  0.76796  1.0000
  S   S561      1.0  0.45937  0.82444  0.80146  1.0000
  Fe  Fe283     1.0  0.46455  0.87408  0.77471  1.0000
  C   C2511     1.0  0.42098  0.93267  0.77259  1.0000
  Fe  Fe284     1.0  0.43820  0.86930  0.76767  1.0000
  H   H4457     1.0  0.47246  0.98358  0.87279  1.0000
  S   S562      1.0  0.45825  0.86463  0.79817  1.0000
  S   S563      1.0  0.42889  0.85965  0.79075  1.0000
  C   C2512     1.0  0.43312  0.80890  0.84650  1.0000
  C   C2513     1.0  0.44427  0.79924  0.83954  1.0000
  C   C2514     1.0  0.45215  0.80408  0.82565  1.0000
  C   C2515     1.0  0.44907  0.81862  0.81873  1.0000
  C   C2516     1.0  0.43797  0.82830  0.82571  1.0000
  C   C2517     1.0  0.42994  0.82343  0.83953  1.0000
  H   H4458     1.0  0.44666  0.78799  0.84477  1.0000
  H   H4459     1.0  0.46060  0.79652  0.82025  1.0000
  H   H4460     1.0  0.43550  0.83954  0.82045  1.0000
  H   H4461     1.0  0.42128  0.83093  0.84484  1.0000
  H   H4462     1.0  0.39197  0.89844  0.75132  1.0000
  Fe  Fe285     1.0  0.50300  0.82537  0.94056  1.0000
  H   H4463     1.0  0.44358  0.94951  0.75795  1.0000
  C   C2518     1.0  0.49957  0.84466  0.74552  1.0000
  C   C2519     1.0  0.40547  0.86884  0.75287  1.0000
  H   H4464     1.0  0.49292  0.85598  0.88005  1.0000
  H   H4465     1.0  0.49135  0.88792  0.88360  1.0000
  H   H4466     1.0  0.40765  0.86317  0.76329  1.0000
  H   H4467     1.0  0.46447  0.93873  0.77000  1.0000
  H   H4468     1.0  0.43299  0.92938  0.77121  1.0000
  H   H4469     1.0  0.35715  0.89814  0.78115  1.0000
  C   C2520     1.0  0.50155  0.76876  0.83856  1.0000
  H   H4470     1.0  0.43586  0.84077  0.86444  1.0000
  H   H4471     1.0  0.46042  0.88122  0.83357  1.0000
  C   C2521     1.0  0.35545  0.96669  0.73991  1.0000
  H   H4472     1.0  0.49433  0.96948  0.96717  1.0000
  H   H4473     1.0  0.45883  0.78791  0.96880  1.0000
  H   H4474     1.0  0.49584  0.89360  0.79125  1.0000
  C   C2522     1.0  0.49748  0.83334  0.81625  1.0000
  H   H4475     1.0  0.44348  0.97000  0.81543  1.0000
  C   C2523     1.0  0.44901  0.92283  0.81047  1.0000
  C   C2524     1.0  0.43675  0.92092  0.82152  1.0000
  C   C2525     1.0  0.42867  0.91115  0.82186  1.0000
  C   C2526     1.0  0.43320  0.90289  0.81149  1.0000
  C   C2527     1.0  0.44577  0.90450  0.80074  1.0000
  C   C2528     1.0  0.45354  0.91460  0.80010  1.0000
  H   H4476     1.0  0.43335  0.92716  0.82966  1.0000
  H   H4477     1.0  0.41909  0.90979  0.83032  1.0000
  H   H4478     1.0  0.44959  0.89795  0.79292  1.0000
  H   H4479     1.0  0.46315  0.91588  0.79167  1.0000
  C   C2529     1.0  0.36412  0.90141  0.77035  1.0000
  C   C2530     1.0  0.48132  0.96640  0.86148  1.0000
  C   C2531     1.0  0.48228  0.97671  0.86804  1.0000
  H   H4480     1.0  0.44215  0.86490  0.92766  1.0000
  H   H4481     1.0  0.47718  0.83208  0.85703  1.0000
  H   H4482     1.0  0.37344  0.74619  0.93661  1.0000
  C   C2532     1.0  0.47401  0.88557  0.91646  1.0000
  C   C2533     1.0  0.46744  0.87598  0.91398  1.0000
  C   C2534     1.0  0.45985  0.88024  0.90295  1.0000
  C   C2535     1.0  0.45888  0.89410  0.89428  1.0000
  C   C2536     1.0  0.46434  0.90407  0.89756  1.0000
  C   C2537     1.0  0.47195  0.89979  0.90860  1.0000
  H   H4483     1.0  0.46827  0.86524  0.92045  1.0000
  H   H4484     1.0  0.45521  0.87264  0.90079  1.0000
  H   H4485     1.0  0.46268  0.91508  0.89164  1.0000
  H   H4486     1.0  0.43551  0.86481  0.97142  1.0000
  C   C2538     1.0  0.45634  0.81817  0.92760  1.0000
  C   C2539     1.0  0.47120  0.81251  0.92313  1.0000
  C   C2540     1.0  0.47583  0.80219  0.91483  1.0000
  C   C2541     1.0  0.46564  0.79743  0.91097  1.0000
  C   C2542     1.0  0.45076  0.80336  0.91507  1.0000
  C   C2543     1.0  0.44610  0.81376  0.92341  1.0000
  H   H4487     1.0  0.47915  0.81562  0.92654  1.0000
  H   H4488     1.0  0.48731  0.79740  0.91205  1.0000
  S   S564      1.0  0.47899  0.92384  0.86459  1.0000
  H   H4489     1.0  0.48336  0.81306  0.84379  1.0000
  C   C2544     1.0  0.35821  0.94055  0.77418  1.0000
  C   C2545     1.0  0.34377  0.95152  0.77658  1.0000
  H   H4490     1.0  0.37343  0.89211  0.76901  1.0000
  H   H4491     1.0  0.48087  0.98915  0.95252  1.0000
  H   H4492     1.0  0.50286  0.86589  0.81643  1.0000
  C   C2546     1.0  0.44206  0.90715  0.93742  1.0000
  C   C2547     1.0  0.49406  0.95761  0.85530  1.0000
  H   H4493     1.0  0.49650  0.89177  0.85413  1.0000
  H   H4494     1.0  0.31667  0.75377  0.94807  1.0000
  C   C2548     1.0  0.41536  0.94913  0.77137  1.0000
  H   H4495     1.0  0.27383  0.92721  0.74061  1.0000
  H   H4496     1.0  0.38188  0.92948  0.75516  1.0000
  H   H4497     1.0  0.49181  0.82579  0.75831  1.0000
  H   H4498     1.0  0.44969  0.74360  0.96566  1.0000
  H   H4499     1.0  0.48826  0.89783  0.81495  1.0000
  H   H4500     1.0  0.47387  0.99022  0.98588  1.0000
  H   H4501     1.0  0.48653  0.75057  0.94065  1.0000
  C   C2549     1.0  0.37904  0.91930  0.75558  1.0000
  H   H4502     1.0  0.38437  0.76482  0.91726  1.0000
  H   H4503     1.0  0.50148  0.87752  0.89720  1.0000
  C   C2550     1.0  0.46449  0.76467  0.95637  1.0000
  H   H4504     1.0  0.49463  0.86874  0.78781  1.0000
  H   H4505     1.0  0.39229  0.97337  0.77522  1.0000
  H   H4506     1.0  0.42287  0.90378  0.93368  1.0000
  H   H4507     1.0  0.45579  0.76452  0.96637  1.0000
  H   H4508     1.0  0.38425  0.86398  0.75749  1.0000
  S   S565      1.0  0.43241  0.87589  0.74601  1.0000
  H   H4509     1.0  0.40361  0.90192  0.79056  1.0000
  H   H4510     1.0  0.35819  0.87935  0.76288  1.0000
  H   H4511     1.0  0.49683  0.91075  0.88541  1.0000
  H   H4512     1.0  0.47761  0.76298  0.92774  1.0000
  C   C2551     1.0  0.34935  0.88921  0.76235  1.0000
  H   H4513     1.0  0.34388  0.88979  0.75381  1.0000
  H   H4514     1.0  0.47491  0.76015  0.96005  1.0000
  H   H4515     1.0  0.47567  0.86847  0.88033  1.0000
  H   H4516     1.0  0.34719  0.92285  0.78076  1.0000
  H   H4517     1.0  0.38006  0.89078  0.95849  1.0000
  C   C2552     1.0  0.49805  0.93150  0.90008  1.0000
  H   H4518     1.0  0.36565  0.94574  0.76480  1.0000
  H   H4519     1.0  0.44101  0.98982  0.84770  1.0000
  H   H4520     1.0  0.47737  0.85172  0.89384  1.0000
  H   H4521     1.0  0.43841  0.95700  0.78729  1.0000
  H   H4522     1.0  0.41333  0.77930  0.94827  1.0000
  H   H4523     1.0  0.50047  0.80519  0.77444  1.0000
  H   H4524     1.0  0.49189  0.92287  0.90453  1.0000
  N   N140      1.0  0.45617  0.84379  0.86654  1.0000
  H   H4525     1.0  0.46755  0.85501  0.84617  1.0000
  C   C2553     1.0  0.50264  0.83251  0.77097  1.0000
  N   N141      1.0  0.42526  0.87374  0.94403  1.0000
  H   H4526     1.0  0.44120  0.83105  0.89523  1.0000
  H   H4527     1.0  0.44106  0.85059  0.91161  1.0000
  H   H4528     1.0  0.44286  0.79975  0.91208  1.0000
  H   H4529     1.0  0.40037  0.90694  0.75973  1.0000
  H   H4530     1.0  0.42165  0.85094  0.93390  1.0000
  H   H4531     1.0  0.49889  0.77378  0.80517  1.0000
  S   S566      1.0  0.48312  0.88491  0.76283  1.0000
  H   H4532     1.0  0.39936  0.86399  0.94767  1.0000
  H   H4533     1.0  0.46816  0.95328  0.75485  1.0000
  C   C2554     1.0  0.46456  0.78056  0.94885  1.0000
  H   H4534     1.0  0.43037  0.86687  0.90257  1.0000
  C   C2555     1.0  0.45633  0.85549  0.85300  1.0000
  H   H4535     1.0  0.40047  0.88450  0.80056  1.0000
  H   H4536     1.0  0.36844  0.91415  0.79189  1.0000
  H   H4537     1.0  0.46924  0.80526  0.84297  1.0000
  H   H4538     1.0  0.36635  0.75013  0.90729  1.0000
  C   C2556     1.0  0.42983  0.85707  0.91131  1.0000
  H   H4539     1.0  0.49346  0.94967  0.85017  1.0000
  C   C2557     1.0  0.43423  0.89774  0.93385  1.0000
  C   C2558     1.0  0.39374  0.90878  0.75180  1.0000
  H   H4540     1.0  0.42366  0.85054  0.90895  1.0000
  C   C2559     1.0  0.46726  0.78844  0.95863  1.0000
  H   H4541     1.0  0.46664  0.79991  0.95323  1.0000
  H   H4542     1.0  0.46138  0.83889  0.88737  1.0000
  H   H4543     1.0  0.41102  0.86726  0.92488  1.0000
  H   H4544     1.0  0.43621  0.91020  0.94779  1.0000
  C   C2560     1.0  0.43471  0.88307  0.94483  1.0000
  C   C2561     1.0  0.49810  0.88924  0.81273  1.0000
  H   H4545     1.0  0.44245  0.91712  0.92888  1.0000
  H   H4546     1.0  0.49913  0.79743  0.94048  1.0000
  H   H4547     1.0  0.45412  0.85727  0.88108  1.0000
  N   N142      1.0  0.41935  0.95535  0.78153  1.0000
  C   C2562     1.0  0.41455  0.97152  0.77754  1.0000
  C   C2563     1.0  0.43556  0.95146  0.78053  1.0000
  H   H4548     1.0  0.43982  0.89617  0.92291  1.0000
  C   C2564     1.0  0.41192  0.94930  0.79663  1.0000
  C   C2565     1.0  0.41386  0.95546  0.80849  1.0000
  C   C2566     1.0  0.39783  0.97770  0.78080  1.0000
  H   H4549     1.0  0.42758  0.78689  0.93503  1.0000
  C   C2567     1.0  0.44524  0.95513  0.76532  1.0000
  C   C2568     1.0  0.46138  0.95053  0.76580  1.0000
  C   C2569     1.0  0.40409  0.95028  0.82294  1.0000
  H   H4550     1.0  0.47824  0.78380  0.96105  1.0000
  C   C2570     1.0  0.42531  0.84698  0.98124  1.0000
  H   H4551     1.0  0.41858  0.97554  0.76585  1.0000
  H   H4552     1.0  0.41960  0.97674  0.78283  1.0000
  H   H4553     1.0  0.40508  0.93095  0.76201  1.0000
  C   C2571     1.0  0.45122  0.98712  0.81854  1.0000
  H   H4554     1.0  0.33844  0.95401  0.76744  1.0000
  H   H4555     1.0  0.45343  0.90139  0.93808  1.0000
  H   H4556     1.0  0.40007  0.95060  0.79745  1.0000
  C   C2572     1.0  0.39502  0.89581  0.79664  1.0000
  H   H4557     1.0  0.41111  0.96736  0.80605  1.0000
  H   H4558     1.0  0.42531  0.95182  0.80975  1.0000
  H   H4559     1.0  0.38609  0.82988  0.74690  1.0000
  H   H4560     1.0  0.39301  0.97509  0.79245  1.0000
  C   C2573     1.0  0.44946  0.88183  0.84085  1.0000
  H   H4561     1.0  0.48513  0.87479  0.81237  1.0000
  H   H4562     1.0  0.36289  0.90351  0.74819  1.0000
  H   H4563     1.0  0.44279  0.96687  0.76074  1.0000
  H   H4564     1.0  0.34859  0.74838  0.94763  1.0000
  H   H4565     1.0  0.34193  0.74984  0.93247  1.0000
  H   H4566     1.0  0.44890  0.75573  0.93386  1.0000
  H   H4567     1.0  0.40627  0.93836  0.82591  1.0000
  H   H4568     1.0  0.40630  0.95413  0.83138  1.0000
  H   H4569     1.0  0.39242  0.95457  0.82254  1.0000
  C   C2574     1.0  0.49112  0.98007  0.97019  1.0000
  H   H4570     1.0  0.47987  0.78087  0.83562  1.0000
  C   C2575     1.0  0.48592  0.76952  0.83799  1.0000
  H   H4571     1.0  0.46304  0.96721  0.81161  1.0000
  H   H4572     1.0  0.40331  0.95125  0.77298  1.0000
  H   H4573     1.0  0.50232  0.83009  0.88904  1.0000
  S   S567      1.0  0.45901  0.77761  0.87208  1.0000
  C   C2576     1.0  0.37664  0.91182  0.78203  1.0000
  H   H4574     1.0  0.46372  0.95616  0.77279  1.0000
  H   H4575     1.0  0.45723  0.87425  0.86018  1.0000
  H   H4576     1.0  0.40754  0.88915  0.95384  1.0000
  H   H4577     1.0  0.46793  0.82181  0.87268  1.0000
  Fe  Fe286     1.0  0.43463  0.78287  0.87688  1.0000
  H   H4578     1.0  0.46738  0.90406  0.73889  1.0000
  H   H4579     1.0  0.49854  0.76516  0.86106  1.0000
  H   H4580     1.0  0.43902  0.87234  0.86205  1.0000
  N   N143      1.0  0.46283  0.75549  0.94745  1.0000
  H   H4581     1.0  0.41956  0.82533  0.88151  1.0000
  C   C2577     1.0  0.48701  0.94590  0.89908  1.0000
  H   H4582     1.0  0.47989  0.94684  0.89179  1.0000
  H   H4583     1.0  0.47636  0.90743  0.91095  1.0000
  H   H4584     1.0  0.37329  0.92182  0.74672  1.0000
  H   H4585     1.0  0.41595  0.92661  0.78317  1.0000
  H   H4586     1.0  0.42958  0.88045  0.92082  1.0000
  C   C2578     1.0  0.45017  0.87112  0.85515  1.0000
  H   H4587     1.0  0.45088  0.82006  0.85852  1.0000
  H   H4588     1.0  0.43926  0.85373  0.95188  1.0000
  H   H4589     1.0  0.48511  0.83911  0.87260  1.0000
  H   H4590     1.0  0.43370  0.85187  0.87627  1.0000
  C   C2579     1.0  0.40952  0.88182  0.94652  1.0000
  H   H4591     1.0  0.42245  0.93323  0.75022  1.0000
  H   H4592     1.0  0.47949  0.85634  0.86155  1.0000
  C   C2580     1.0  0.45037  0.76278  0.93998  1.0000
  C   C2581     1.0  0.48098  0.85688  0.88239  1.0000
  H   H4593     1.0  0.48633  0.74432  0.88500  1.0000
  C   C2582     1.0  0.47278  0.81017  0.84971  1.0000
  H   H4594     1.0  0.44536  0.81887  0.88356  1.0000
  H   H4595     1.0  0.41619  0.93749  0.79960  1.0000
  C   C2583     1.0  0.38132  0.76129  0.90909  1.0000
  H   H4596     1.0  0.46824  0.97881  0.97810  1.0000
  H   H4597     1.0  0.50200  0.78724  0.89306  1.0000
  H   H4598     1.0  0.36195  0.98096  0.74851  1.0000
  C   C2584     1.0  0.47743  0.84970  0.87254  1.0000
  C   C2585     1.0  0.38245  0.88208  0.95265  1.0000
  C   C2586     1.0  0.43522  0.76713  0.94983  1.0000
  H   H4599     1.0  0.49055  0.85289  0.75007  1.0000
  C   C2587     1.0  0.43851  0.82927  0.88589  1.0000
  H   H4600     1.0  0.41523  0.83770  0.89319  1.0000
  H   H4601     1.0  0.49826  0.84900  0.98192  1.0000
  H   H4602     1.0  0.39092  0.75392  0.90402  1.0000
  H   H4603     1.0  0.44998  0.85380  0.84617  1.0000
  H   H4604     1.0  0.35116  0.93034  0.76196  1.0000
  H   H4605     1.0  0.48001  0.94673  0.90984  1.0000
  C   C2588     1.0  0.36851  0.75386  0.91583  1.0000
  H   H4606     1.0  0.33628  0.94734  0.78660  1.0000
  C   C2589     1.0  0.47671  0.75296  0.93615  1.0000
  H   H4607     1.0  0.36286  0.93834  0.78371  1.0000
  C   C2590     1.0  0.46132  0.82346  0.85312  1.0000
  C   C2591     1.0  0.46155  0.84757  0.87747  1.0000
  H   H4608     1.0  0.35888  0.76209  0.91946  1.0000
  H   H4609     1.0  0.34392  0.97115  0.74318  1.0000
  H   H4610     1.0  0.43097  0.75741  0.95604  1.0000
  H   H4611     1.0  0.38861  0.90038  0.80608  1.0000
  C   C2592     1.0  0.44070  0.84198  0.87278  1.0000
  S   S568      1.0  0.45636  0.75185  0.90107  1.0000
  C   C2593     1.0  0.42268  0.82772  0.89034  1.0000
  C   C2594     1.0  0.35555  0.90260  0.75902  1.0000
  H   H4612     1.0  0.42306  0.77107  0.93336  1.0000
  C   C2595     1.0  0.46614  0.83014  0.86280  1.0000
  C   C2596     1.0  0.38748  0.82239  0.73994  1.0000
  H   H4613     1.0  0.49751  0.77297  0.94086  1.0000
  Fe  Fe287     1.0  0.45702  0.75471  0.87795  1.0000
  H   H4614     1.0  0.42079  0.91617  0.76234  1.0000
  C   C2597     1.0  0.50146  0.83039  0.75651  1.0000
  H   H4615     1.0  0.44538  0.89290  0.84274  1.0000
  H   H4616     1.0  0.48597  0.76428  0.82951  1.0000
  H   H4617     1.0  0.42106  0.85260  0.95528  1.0000
  H   H4618     1.0  0.48674  0.83788  0.82265  1.0000
  H   H4619     1.0  0.50277  0.82350  0.82312  1.0000
  Fe  Fe288     1.0  0.49091  0.92033  0.84284  1.0000
  Fe  Fe289     1.0  0.43213  0.75868  0.90365  1.0000
  H   H4620     1.0  0.46691  0.98070  0.83210  1.0000
  C   C2598     1.0  0.42220  0.86110  0.92575  1.0000
  H   H4621     1.0  0.48866  0.98566  0.83288  1.0000
  C   C2599     1.0  0.39770  0.87272  0.95318  1.0000
  H   H4622     1.0  0.43918  0.93983  0.78511  1.0000
  S   S569      1.0  0.42312  0.80310  0.86393  1.0000
  H   H4623     1.0  0.44191  0.87971  0.83561  1.0000
  H   H4624     1.0  0.48829  0.87338  0.82971  1.0000
  H   H4625     1.0  0.34121  0.88842  0.77270  1.0000
  H   H4626     1.0  0.45265  0.96482  0.82998  1.0000
  H   H4627     1.0  0.45997  0.83116  0.84283  1.0000
  H   H4628     1.0  0.49180  0.91903  0.78985  1.0000
  H   H4629     1.0  0.48010  0.76385  0.84832  1.0000
  H   H4630     1.0  0.49969  0.90176  0.76875  1.0000
  H   H4631     1.0  0.43151  0.88573  0.95555  1.0000
  C   C2600     1.0  0.45275  0.97131  0.81890  1.0000
  C   C2601     1.0  0.32088  0.74536  0.95686  1.0000
  H   H4632     1.0  0.48704  0.94555  0.78242  1.0000
  H   H4633     1.0  0.37831  0.77088  0.90065  1.0000
  C   C2602     1.0  0.35586  0.92669  0.77165  1.0000
  C   C2603     1.0  0.41706  0.92800  0.76107  1.0000
  H   H4634     1.0  0.49271  0.95495  0.89502  1.0000
  H   H4635     1.0  0.47421  0.80217  0.85981  1.0000
  H   H4636     1.0  0.49290  0.78348  0.85292  1.0000
  C   C2604     1.0  0.49481  0.78420  0.79822  1.0000
  S   S570      1.0  0.43263  0.75998  0.88066  1.0000
  C   C2605     1.0  0.49596  0.97807  0.86858  1.0000
  H   H4637     1.0  0.45293  0.77245  0.93168  1.0000
  C   C2606     1.0  0.38054  0.96634  0.73908  1.0000
  H   H4638     1.0  0.37742  0.88926  0.79330  1.0000
  C   C2607     1.0  0.49504  0.94501  0.78863  1.0000
  H   H4639     1.0  0.48817  0.82196  0.80708  1.0000
  S   S571      1.0  0.48835  0.84060  0.92666  1.0000
  C   C2608     1.0  0.50180  0.77381  0.85179  1.0000
  H   H4640     1.0  0.39217  0.89124  0.77808  1.0000
  H   H4641     1.0  0.38406  0.91933  0.77943  1.0000
  H   H4642     1.0  0.44981  0.91069  0.74938  1.0000
  C   C2609     1.0  0.38521  0.89622  0.78703  1.0000
  H   H4643     1.0  0.49618  0.77160  0.88104  1.0000
  H   H4644     1.0  0.39781  0.86766  0.96459  1.0000
  C   C2610     1.0  0.42417  0.77668  0.94103  1.0000
  H   H4645     1.0  0.44069  0.99070  0.82568  1.0000
  H   H4646     1.0  0.48936  0.94454  0.80002  1.0000
  H   H4647     1.0  0.43565  0.77312  0.95747  1.0000
  H   H4648     1.0  0.48890  0.81292  0.78863  1.0000
  N   N144      1.0  0.36919  0.91460  0.76981  1.0000
  H   H4649     1.0  0.41910  0.95468  0.76005  1.0000
  H   H4650     1.0  0.48386  0.78919  0.80390  1.0000
  H   H4651     1.0  0.38150  0.88693  0.94137  1.0000
  C   C2611     1.0  0.49331  0.87493  0.81807  1.0000
  H   H4652     1.0  0.34580  0.96165  0.77747  1.0000
  H   H4653     1.0  0.45397  0.78635  0.94597  1.0000
  S   S572      1.0  0.41926  0.74663  0.92382  1.0000
  H   H4654     1.0  0.49128  0.83695  0.77625  1.0000
  H   H4655     1.0  0.49936  0.95496  0.78447  1.0000
  H   H4656     1.0  0.43534  0.83875  0.97840  1.0000
  C   C2612     1.0  0.49528  0.82983  0.80314  1.0000
  H   H4657     1.0  0.48950  0.83996  0.79711  1.0000
  C   C2613     1.0  0.46439  0.98943  0.82274  1.0000
  H   H4658     1.0  0.49878  0.86641  0.85417  1.0000
  H   H4659     1.0  0.32395  0.75053  0.96377  1.0000
  C   C2614     1.0  0.41589  0.87563  0.74255  1.0000
  C   C2615     1.0  0.50193  0.91782  0.79349  1.0000
  H   H4660     1.0  0.49819  0.91717  0.80525  1.0000
  H   H4661     1.0  0.49382  0.78203  0.78824  1.0000
  C   C2616     1.0  0.50053  0.80825  0.78432  1.0000
  C   C2617     1.0  0.47725  0.98005  0.98204  1.0000
  H   H4662     1.0  0.49658  0.98594  0.87382  1.0000
  H   H4663     1.0  0.49983  0.98090  0.97474  1.0000
  H   H4664     1.0  0.50121  0.93378  0.87720  1.0000
  H   H4665     1.0  0.48811  0.75158  0.90717  1.0000
  H   H4666     1.0  0.38325  0.81281  0.74667  1.0000
  C   C2618     1.0  0.50232  0.88219  0.88558  1.0000
  S   S573      1.0  0.39315  0.97123  0.74537  1.0000
  H   H4667     1.0  0.47396  0.98723  0.81383  1.0000
  C   C2619     1.0  0.50023  0.87413  0.76475  1.0000
  C   C2620     1.0  0.45549  0.90701  0.73930  1.0000
  H   H4668     1.0  0.41562  0.84320  0.98137  1.0000
  H   H4669     1.0  0.28966  0.93416  0.73840  1.0000
  C   C2621     1.0  0.36565  0.97233  0.74284  1.0000
  H   H4670     1.0  0.50020  0.92026  0.76599  1.0000
  H   H4671     1.0  0.55004  0.15715  0.09210  1.0000
  S   S574      1.0  0.53305  0.02288  0.13230  1.0000
  Fe  Fe290     1.0  0.56499  0.02551  0.14634  1.0000
  S   S575      1.0  0.55216  0.04471  0.13363  1.0000
  S   S576      1.0  0.58448  0.02782  0.15234  1.0000
  S   S577      1.0  0.50604  0.11891  0.21125  1.0000
  C   C2622     1.0  0.54476  0.01177  0.06982  1.0000
  Fe  Fe291     1.0  0.55359  0.02999  0.11977  1.0000
  S   S578      1.0  0.55811  0.03722  0.09586  1.0000
  H   H4672     1.0  0.64667  0.22894  0.99787  1.0000
  C   C2623     1.0  0.54549  0.17630  0.02796  1.0000
  C   C2624     1.0  0.51170  0.09438  0.13588  1.0000
  S   S579      1.0  0.53206  0.14625  0.02879  1.0000
  H   H4673     1.0  0.50709  0.18627  0.06959  1.0000
  S   S580      1.0  0.54205  0.11102  0.04047  1.0000
  H   H4674     1.0  0.52008  0.18680  0.15018  1.0000
  Fe  Fe292     1.0  0.54740  0.13104  0.04204  1.0000
  S   S581      1.0  0.56943  0.13561  0.03858  1.0000
  Fe  Fe293     1.0  0.52533  0.12655  0.02880  1.0000
  H   H4675     1.0  0.55376  0.99529  0.11910  1.0000
  S   S582      1.0  0.53165  0.13276  0.06296  1.0000
  C   C2625     1.0  0.53541  0.17968  0.05347  1.0000
  H   H4676     1.0  0.63469  0.07710  0.20133  1.0000
  S   S583      1.0  0.60716  0.05369  0.20458  1.0000
  S   S584      1.0  0.57312  0.07161  0.20910  1.0000
  Fe  Fe294     1.0  0.58532  0.04935  0.21683  1.0000
  S   S585      1.0  0.57601  0.03117  0.21656  1.0000
  Fe  Fe295     1.0  0.59505  0.07642  0.19826  1.0000
  S   S586      1.0  0.59975  0.08664  0.17467  1.0000
  Fe  Fe296     1.0  0.58132  0.16088  0.12965  1.0000
  S   S587      1.0  0.58097  0.18369  0.11727  1.0000
  S   S588      1.0  0.57909  0.15372  0.15362  1.0000
  Fe  Fe297     1.0  0.58214  0.15017  0.10406  1.0000
  S   S589      1.0  0.58209  0.17173  0.08915  1.0000
  S   S590      1.0  0.57997  0.12993  0.09974  1.0000
  Fe  Fe298     1.0  0.59803  0.17395  0.10027  1.0000
  S   S591      1.0  0.61610  0.18477  0.08582  1.0000
  Fe  Fe299     1.0  0.56517  0.18032  0.10682  1.0000
  H   H4677     1.0  0.58010  0.20639  0.14293  1.0000
  S   S592      1.0  0.59995  0.15130  0.11351  1.0000
  S   S593      1.0  0.56365  0.15859  0.12085  1.0000
  H   H4678     1.0  0.53608  0.08845  0.19999  1.0000
  H   H4679     1.0  0.52600  0.13269  0.18313  1.0000
  H   H4680     1.0  0.55360  0.23294  0.12256  1.0000
  H   H4681     1.0  0.62493  0.07662  0.18862  1.0000
  H   H4682     1.0  0.53859  0.05262  0.04203  1.0000
  H   H4683     1.0  0.54971  0.07907  0.04056  1.0000
  H   H4684     1.0  0.59225  0.99440  0.17690  1.0000
  Fe  Fe300     1.0  0.54760  0.00547  0.14492  1.0000
  C   C2626     1.0  0.53197  0.19183  0.12827  1.0000
  H   H4685     1.0  0.52607  0.15711  0.15604  1.0000
  H   H4686     1.0  0.63492  0.13591  0.18381  1.0000
  C   C2627     1.0  0.55639  0.19362  0.05767  1.0000
  C   C2628     1.0  0.53097  0.19854  0.11413  1.0000
  H   H4687     1.0  0.52589  0.09300  0.16866  1.0000
  H   H4688     1.0  0.55589  0.06077  0.04991  1.0000
  H   H4689     1.0  0.54679  0.07630  0.00976  1.0000
  C   C2629     1.0  0.51042  0.18561  0.07951  1.0000
  H   H4690     1.0  0.62907  0.06387  0.14509  1.0000
  C   C2630     1.0  0.52037  0.11032  0.22016  1.0000
  H   H4691     1.0  0.57953  0.22823  0.12341  1.0000
  H   H4692     1.0  0.57028  0.12105  0.13765  1.0000
  H   H4693     1.0  0.54429  0.04978  0.21731  1.0000
  H   H4694     1.0  0.52131  0.15187  0.18180  1.0000
  H   H4695     1.0  0.54670  0.15339  0.16870  1.0000
  Fe  Fe301     1.0  0.57685  0.07638  0.22822  1.0000
  H   H4696     1.0  0.63378  0.13777  0.13913  1.0000
  C   C2631     1.0  0.53017  0.00423  0.10558  1.0000
  C   C2632     1.0  0.62343  0.14400  0.14457  1.0000
  C   C2633     1.0  0.61714  0.20085  0.08934  1.0000
  C   C2634     1.0  0.62313  0.21120  0.07813  1.0000
  C   C2635     1.0  0.62343  0.22437  0.08058  1.0000
  C   C2636     1.0  0.61820  0.22706  0.09437  1.0000
  C   C2637     1.0  0.61268  0.21650  0.10565  1.0000
  H   H4697     1.0  0.53378  0.13912  0.15484  1.0000
  H   H4698     1.0  0.62726  0.20915  0.06747  1.0000
  H   H4699     1.0  0.62786  0.23237  0.07184  1.0000
  H   H4700     1.0  0.53306  0.01702  0.07186  1.0000
  H   H4701     1.0  0.52718  0.99507  0.08220  1.0000
  H   H4702     1.0  0.55109  0.03217  0.06577  1.0000
  C   C2638     1.0  0.52811  0.14313  0.17634  1.0000
  H   H4703     1.0  0.54249  0.18645  0.13077  1.0000
  H   H4704     1.0  0.62280  0.15561  0.13963  1.0000
  H   H4705     1.0  0.68773  0.23413  0.02044  1.0000
  H   H4706     1.0  0.56373  0.10235  0.99211  1.0000
  S   S594      1.0  0.56831  0.01154  0.13113  1.0000
  C   C2639     1.0  0.59263  0.10507  0.16915  1.0000
  C   C2640     1.0  0.59588  0.11147  0.15456  1.0000
  C   C2641     1.0  0.59114  0.12628  0.14976  1.0000
  C   C2642     1.0  0.58354  0.13491  0.15953  1.0000
  C   C2643     1.0  0.58003  0.12850  0.17416  1.0000
  C   C2644     1.0  0.58444  0.11354  0.17898  1.0000
  H   H4707     1.0  0.60238  0.10505  0.14691  1.0000
  H   H4708     1.0  0.59377  0.13101  0.13849  1.0000
  H   H4709     1.0  0.57405  0.13512  0.18179  1.0000
  H   H4710     1.0  0.58177  0.10863  0.19027  1.0000
  C   C2645     1.0  0.57296  0.13380  0.05536  1.0000
  C   C2646     1.0  0.56818  0.12319  0.06697  1.0000
  C   C2647     1.0  0.57067  0.12193  0.08047  1.0000
  C   C2648     1.0  0.57752  0.13154  0.08255  1.0000
  C   C2649     1.0  0.58225  0.14223  0.07096  1.0000
  C   C2650     1.0  0.58014  0.14323  0.05732  1.0000
  H   H4711     1.0  0.56273  0.11582  0.06550  1.0000
  H   H4712     1.0  0.56695  0.11370  0.08941  1.0000
  H   H4713     1.0  0.58779  0.14950  0.07244  1.0000
  H   H4714     1.0  0.58390  0.15140  0.04833  1.0000
  C   C2651     1.0  0.52546  0.10995  0.00306  1.0000
  H   H4715     1.0  0.59187  0.20602  0.07290  1.0000
  C   C2652     1.0  0.63555  0.09470  0.18229  1.0000
  H   H4716     1.0  0.53709  0.11583  0.20153  1.0000
  C   C2653     1.0  0.53911  0.08526  0.00506  1.0000
  C   C2654     1.0  0.53483  0.09819  0.00973  1.0000
  H   H4717     1.0  0.56242  0.21846  0.14499  1.0000
  C   C2655     1.0  0.56541  0.11227  0.99370  1.0000
  H   H4718     1.0  0.53893  0.09912  0.01831  1.0000
  C   C2656     1.0  0.58226  0.02798  0.17037  1.0000
  C   C2657     1.0  0.57079  0.02311  0.18095  1.0000
  C   C2658     1.0  0.56913  0.02369  0.19523  1.0000
  C   C2659     1.0  0.57864  0.02957  0.19887  1.0000
  C   C2660     1.0  0.59019  0.03424  0.18831  1.0000
  C   C2661     1.0  0.59217  0.03317  0.17417  1.0000
  H   H4719     1.0  0.56336  0.01871  0.17821  1.0000
  H   H4720     1.0  0.56043  0.01970  0.20339  1.0000
  H   H4721     1.0  0.59782  0.03840  0.19104  1.0000
  H   H4722     1.0  0.60135  0.03647  0.16618  1.0000
  C   C2662     1.0  0.54757  0.05464  0.09178  1.0000
  C   C2663     1.0  0.57092  0.19552  0.05873  1.0000
  H   H4723     1.0  0.53425  0.19126  0.04808  1.0000
  C   C2664     1.0  0.64744  0.22138  0.00835  1.0000
  C   C2665     1.0  0.54284  0.07778  0.07528  1.0000
  C   C2666     1.0  0.55178  0.06410  0.07879  1.0000
  H   H4724     1.0  0.54600  0.01935  0.23345  1.0000
  H   H4725     1.0  0.51484  0.05700  0.08526  1.0000
  H   H4726     1.0  0.54605  0.08504  0.06521  1.0000
  H   H4727     1.0  0.56198  0.06086  0.07153  1.0000
  S   S595      1.0  0.54657  0.19785  0.10017  1.0000
  H   H4728     1.0  0.66090  0.11586  0.19729  1.0000
  H   H4729     1.0  0.52586  0.05318  0.21593  1.0000
  H   H4730     1.0  0.54975  0.02747  0.05004  1.0000
  C   C2667     1.0  0.52759  0.08918  0.12865  1.0000
  C   C2668     1.0  0.53653  0.07676  0.20239  1.0000
  H   H4731     1.0  0.51557  0.07566  0.10520  1.0000
  H   H4732     1.0  0.60024  0.13339  0.18394  1.0000
  H   H4733     1.0  0.59389  0.20505  0.99544  1.0000
  N   N145      1.0  0.53785  0.17714  0.06834  1.0000
  H   H4734     1.0  0.63568  0.21242  0.99237  1.0000
  Fe  Fe302     1.0  0.51573  0.14632  0.04957  1.0000
  H   H4735     1.0  0.51787  0.13834  0.14041  1.0000
  H   H4736     1.0  0.64583  0.09644  0.18337  1.0000
  N   N146      1.0  0.54110  0.99531  0.09568  1.0000
  C   C2669     1.0  0.51776  0.01553  0.09932  1.0000
  C   C2670     1.0  0.51736  0.20567  0.11101  1.0000
  H   H4737     1.0  0.60540  0.21706  0.01412  1.0000
  H   H4738     1.0  0.59892  0.22227  0.06672  1.0000
  H   H4739     1.0  0.52611  0.19883  0.06973  1.0000
  Fe  Fe303     1.0  0.52476  0.11415  0.06037  1.0000
  H   H4740     1.0  0.52491  0.17717  0.05398  1.0000
  H   H4741     1.0  0.51047  0.02763  0.11616  1.0000
  H   H4742     1.0  0.56512  0.01844  0.05812  1.0000
  S   S596      1.0  0.62968  0.05105  0.23106  1.0000
  H   H4743     1.0  0.62455  0.22256  0.01553  1.0000
  H   H4744     1.0  0.57004  0.19720  0.06950  1.0000
  H   H4745     1.0  0.58623  0.99431  0.16149  1.0000
  C   C2671     1.0  0.53168  0.07120  0.21855  1.0000
  H   H4746     1.0  0.53409  0.08410  0.13696  1.0000
  C   C2672     1.0  0.57161  0.10828  0.00709  1.0000
  H   H4747     1.0  0.59895  0.19686  0.03413  1.0000
  H   H4748     1.0  0.57384  0.20511  0.05061  1.0000
  H   H4749     1.0  0.57033  0.08193  0.09497  1.0000
  H   H4750     1.0  0.58861  0.21854  0.05646  1.0000
  H   H4751     1.0  0.63600  0.09586  0.17078  1.0000
  C   C2673     1.0  0.61282  0.18270  0.04781  1.0000
  C   C2674     1.0  0.51930  0.19207  0.13925  1.0000
  H   H4752     1.0  0.54798  0.20316  0.06032  1.0000
  H   H4753     1.0  0.53089  0.11669  0.16561  1.0000
  C   C2675     1.0  0.63427  0.20536  0.00332  1.0000
  H   H4754     1.0  0.52957  0.06012  0.06452  1.0000
  H   H4755     1.0  0.53847  0.06679  0.16373  1.0000
  H   H4756     1.0  0.59240  0.19641  0.01404  1.0000
  C   C2676     1.0  0.52520  0.06769  0.05539  1.0000
  H   H4757     1.0  0.53145  0.05183  0.11156  1.0000
  H   H4758     1.0  0.61411  0.14100  0.14278  1.0000
  H   H4759     1.0  0.60783  0.19540  0.11190  1.0000
  H   H4760     1.0  0.52431  0.14237  0.09910  1.0000
  H   H4761     1.0  0.51660  0.21108  0.10012  1.0000
  H   H4762     1.0  0.54378  0.05818  0.18056  1.0000
  H   H4763     1.0  0.55749  0.10336  0.21368  1.0000
  H   H4764     1.0  0.54601  0.14114  0.18598  1.0000
  H   H4765     1.0  0.52874  0.18762  0.08635  1.0000
  H   H4766     1.0  0.53426  0.17687  0.02712  1.0000
  C   C2677     1.0  0.53359  0.08390  0.99415  1.0000
  H   H4767     1.0  0.55109  0.12366  0.13906  1.0000
  C   C2678     1.0  0.63541  0.12415  0.18678  1.0000
  H   H4768     1.0  0.60886  0.21841  0.11638  1.0000
  C   C2679     1.0  0.52042  0.10876  0.99176  1.0000
  C   C2680     1.0  0.53581  0.02332  0.22941  1.0000
  H   H4769     1.0  0.63421  0.11922  0.16223  1.0000
  C   C2681     1.0  0.54401  0.14297  0.17512  1.0000
  H   H4770     1.0  0.56860  0.06813  0.11999  1.0000
  H   H4771     1.0  0.61074  0.07132  0.13025  1.0000
  H   H4772     1.0  0.53741  0.13933  0.10988  1.0000
  H   H4773     1.0  0.52033  0.01369  0.22545  1.0000
  C   C2682     1.0  0.55107  0.06756  0.04075  1.0000
  H   H4774     1.0  0.65122  0.13361  0.20018  1.0000
  C   C2683     1.0  0.58005  0.21823  0.00987  1.0000
  C   C2684     1.0  0.62367  0.12507  0.16784  1.0000
  C   C2685     1.0  0.55321  0.02316  0.06039  1.0000
  C   C2686     1.0  0.55029  0.00452  0.08384  1.0000
  C   C2687     1.0  0.50921  0.05168  0.05639  1.0000
  C   C2688     1.0  0.53470  0.05901  0.10144  1.0000
  C   C2689     1.0  0.68498  0.23266  0.04920  1.0000
  C   C2690     1.0  0.62206  0.10532  0.18887  1.0000
  H   H4775     1.0  0.64569  0.11948  0.17980  1.0000
  H   H4776     1.0  0.54787  0.07121  0.19831  1.0000
  C   C2691     1.0  0.53876  0.15742  0.09165  1.0000
  C   C2692     1.0  0.52624  0.18767  0.07612  1.0000
  H   H4777     1.0  0.61024  0.14062  0.19122  1.0000
  H   H4778     1.0  0.63896  0.17217  0.00205  1.0000
  H   H4779     1.0  0.52689  0.15943  0.07540  1.0000
  C   C2693     1.0  0.60838  0.13024  0.19071  1.0000
  H   H4780     1.0  0.56329  0.08710  0.11884  1.0000
  C   C2694     1.0  0.60013  0.12347  0.20577  1.0000
  H   H4781     1.0  0.63193  0.14497  0.16170  1.0000
  C   C2695     1.0  0.60774  0.21108  0.00559  1.0000
  H   H4782     1.0  0.54318  0.13442  0.09278  1.0000
  H   H4783     1.0  0.58721  0.22397  0.09209  1.0000
  H   H4784     1.0  0.57518  0.21222  0.09661  1.0000
  C   C2696     1.0  0.61205  0.20349  0.10313  1.0000
  C   C2697     1.0  0.52489  0.14590  0.16138  1.0000
  H   H4785     1.0  0.52914  0.07503  0.19670  1.0000
  H   H4786     1.0  0.55872  0.11452  0.15463  1.0000
  H   H4787     1.0  0.51735  0.04363  0.06211  1.0000
  H   H4788     1.0  0.61499  0.12167  0.16521  1.0000
  H   H4789     1.0  0.56639  0.22156  0.07526  1.0000
  H   H4790     1.0  0.58333  0.21216  0.11692  1.0000
  C   C2698     1.0  0.58962  0.21758  0.06751  1.0000
  H   H4791     1.0  0.56142  0.17034  0.06491  1.0000
  C   C2699     1.0  0.62271  0.14127  0.16059  1.0000
  H   H4792     1.0  0.55131  0.13417  0.17000  1.0000
  H   H4793     1.0  0.56528  0.20237  0.13857  1.0000
  H   H4794     1.0  0.52851  0.08099  0.12265  1.0000
  N   N147      1.0  0.57958  0.07606  0.14107  1.0000
  C   C2700     1.0  0.56673  0.06898  0.14749  1.0000
  C   C2701     1.0  0.58454  0.07651  0.12513  1.0000
  C   C2702     1.0  0.59191  0.06684  0.14810  1.0000
  C   C2703     1.0  0.57633  0.09088  0.14392  1.0000
  C   C2704     1.0  0.56324  0.10183  0.13856  1.0000
  C   C2705     1.0  0.56066  0.06715  0.16390  1.0000
  C   C2706     1.0  0.60693  0.07108  0.14188  1.0000
  C   C2707     1.0  0.57273  0.07816  0.11679  1.0000
  C   C2708     1.0  0.50559  0.19854  0.13602  1.0000
  C   C2709     1.0  0.56068  0.11610  0.14282  1.0000
  C   C2710     1.0  0.54762  0.05997  0.16874  1.0000
  H   H4795     1.0  0.51434  0.09534  0.03989  1.0000
  H   H4796     1.0  0.56972  0.05809  0.14511  1.0000
  H   H4797     1.0  0.55741  0.07490  0.14245  1.0000
  H   H4798     1.0  0.59065  0.08521  0.11963  1.0000
  H   H4799     1.0  0.59241  0.06632  0.12318  1.0000
  H   H4800     1.0  0.59356  0.05546  0.14750  1.0000
  H   H4801     1.0  0.58924  0.06696  0.15969  1.0000
  H   H4802     1.0  0.57478  0.09025  0.15557  1.0000
  H   H4803     1.0  0.58586  0.09592  0.13866  1.0000
  H   H4804     1.0  0.55305  0.09780  0.14308  1.0000
  H   H4805     1.0  0.56552  0.10428  0.12670  1.0000
  H   H4806     1.0  0.56893  0.06017  0.16995  1.0000
  H   H4807     1.0  0.55701  0.07772  0.16695  1.0000
  H   H4808     1.0  0.60636  0.08179  0.14353  1.0000
  H   H4809     1.0  0.62438  0.17988  0.04869  1.0000
  S   S597      1.0  0.51967  0.12625  0.00858  1.0000
  C   C2711     1.0  0.56149  0.22576  0.11576  1.0000
  H   H4810     1.0  0.63080  0.18243  0.02241  1.0000
  S   S598      1.0  0.59797  0.08324  0.21677  1.0000
  H   H4811     1.0  0.51159  0.10182  0.14238  1.0000
  C   C2712     1.0  0.51753  0.10335  0.23464  1.0000
  H   H4812     1.0  0.58338  0.09063  0.09677  1.0000
  H   H4813     1.0  0.59556  0.11476  0.20499  1.0000
  H   H4814     1.0  0.56453  0.10227  0.01616  1.0000
  C   C2713     1.0  0.57031  0.21120  0.13828  1.0000
  S   S599      1.0  0.51240  0.05243  0.15348  1.0000
  H   H4815     1.0  0.64451  0.07173  0.18479  1.0000
  C   C2714     1.0  0.61074  0.19400  0.03409  1.0000
  C   C2715     1.0  0.57476  0.21955  0.12290  1.0000
  H   H4816     1.0  0.69043  0.23004  0.05827  1.0000
  H   H4817     1.0  0.54698  0.22779  0.09589  1.0000
  H   H4818     1.0  0.57018  0.21489  0.00979  1.0000
  H   H4819     1.0  0.58790  0.07143  0.09796  1.0000
  H   H4820     1.0  0.57206  0.11811  0.01004  1.0000
  H   H4821     1.0  0.51613  0.10069  0.18393  1.0000
  C   C2716     1.0  0.57607  0.22359  0.09170  1.0000
  H   H4822     1.0  0.54795  0.18716  0.02379  1.0000
  C   C2717     1.0  0.53715  0.16183  0.07588  1.0000
  C   C2718     1.0  0.53571  0.14247  0.09877  1.0000
  H   H4823     1.0  0.61236  0.14808  0.16529  1.0000
  H   H4824     1.0  0.55629  0.21670  0.11689  1.0000
  H   H4825     1.0  0.53575  0.01031  0.10930  1.0000
  H   H4826     1.0  0.62016  0.04950  0.14745  1.0000
  C   C2719     1.0  0.51088  0.04394  0.19601  1.0000
  C   C2720     1.0  0.61976  0.18820  0.02052  1.0000
  H   H4827     1.0  0.62064  0.10176  0.20066  1.0000
  C   C2721     1.0  0.57902  0.08070  0.10064  1.0000
  H   H4828     1.0  0.52052  0.05171  0.03353  1.0000
  H   H4829     1.0  0.54606  0.15425  0.07022  1.0000
  H   H4830     1.0  0.55878  0.06521  0.03072  1.0000
  H   H4831     1.0  0.55329  0.16899  0.02124  1.0000
  C   C2722     1.0  0.65125  0.12196  0.20379  1.0000
  C   C2723     1.0  0.53647  0.06422  0.04181  1.0000
  H   H4832     1.0  0.63586  0.20670  0.02436  1.0000
  C   C2724     1.0  0.61855  0.06038  0.14936  1.0000
  N   N148      1.0  0.56460  0.23367  0.10024  1.0000
  S   S600      1.0  0.54544  0.01786  0.16126  1.0000
  C   C2725     1.0  0.55254  0.17953  0.06786  1.0000
  H   H4833     1.0  0.52217  0.02461  0.09165  1.0000
  H   H4834     1.0  0.61534  0.05984  0.16109  1.0000
  H   H4835     1.0  0.58270  0.10127  0.00536  1.0000
  Fe  Fe304     1.0  0.53274  0.03609  0.14728  1.0000
  H   H4836     1.0  0.53111  0.16498  0.09810  1.0000
  H   H4837     1.0  0.53250  0.07054  0.03213  1.0000
  H   H4838     1.0  0.61235  0.10350  0.18656  1.0000
  N   N149      1.0  0.62243  0.12108  0.18386  1.0000
  H   H4839     1.0  0.55080  0.04934  0.16584  1.0000
  H   H4840     1.0  0.64734  0.22760  0.01606  1.0000
  H   H4841     1.0  0.64437  0.19677  0.00334  1.0000
  H   H4842     1.0  0.52167  0.11662  0.15236  1.0000
  H   H4843     1.0  0.55326  0.17966  0.07877  1.0000
  C   C2726     1.0  0.69369  0.24109  0.03583  1.0000
  H   H4844     1.0  0.50927  0.17510  0.08690  1.0000
  C   C2727     1.0  0.53480  0.11048  0.21270  1.0000
  H   H4845     1.0  0.63772  0.10743  0.20657  1.0000
  H   H4846     1.0  0.53850  0.02869  0.21793  1.0000
  H   H4847     1.0  0.61363  0.20374  0.03469  1.0000
  C   C2728     1.0  0.50465  0.20544  0.12190  1.0000
  H   H4848     1.0  0.60946  0.17282  0.04806  1.0000
  H   H4849     1.0  0.65217  0.11841  0.21516  1.0000
  H   H4850     1.0  0.51872  0.99895  0.14750  1.0000
  C   C2729     1.0  0.52959  0.08183  0.08466  1.0000
  H   H4851     1.0  0.50914  0.07526  0.03385  1.0000
  S   S601      1.0  0.53797  0.06738  0.98918  1.0000
  N   N150      1.0  0.51022  0.14394  0.16128  1.0000
  H   H4852     1.0  0.56698  0.99705  0.10240  1.0000
  H   H4853     1.0  0.68420  0.22246  0.04725  1.0000
  H   H4854     1.0  0.50778  0.08488  0.14318  1.0000
  H   H4855     1.0  0.55833  0.17022  0.04372  1.0000
  H   H4856     1.0  0.50510  0.09537  0.11671  1.0000
  C   C2730     1.0  0.62309  0.19160  0.99440  1.0000
  H   H4857     1.0  0.50979  0.15554  0.11717  1.0000
  S   S602      1.0  0.51706  0.09781  0.07985  1.0000
  H   H4858     1.0  0.52021  0.07699  0.22169  1.0000
  H   H4859     1.0  0.52315  0.16143  0.13292  1.0000
  H   H4860     1.0  0.52524  0.99715  0.11549  1.0000
  C   C2731     1.0  0.51515  0.04325  0.18153  1.0000
  H   H4861     1.0  0.60979  0.21919  0.99536  1.0000
  H   H4862     1.0  0.50600  0.11220  0.11861  1.0000
  C   C2732     1.0  0.52569  0.07254  0.09784  1.0000
  H   H4863     1.0  0.55737  0.19353  0.04634  1.0000
  H   H4864     1.0  0.57969  0.18595  0.05676  1.0000
  C   C2733     1.0  0.52033  0.11635  0.16382  1.0000
  H   H4865     1.0  0.61462  0.17962  0.02025  1.0000
  C   C2734     1.0  0.54702  0.17052  0.04349  1.0000
  C   C2735     1.0  0.63452  0.21403  0.01390  1.0000
  H   H4866     1.0  0.55454  0.11963  0.99587  1.0000
  C   C2736     1.0  0.63483  0.07912  0.18975  1.0000
  H   H4867     1.0  0.53219  0.09829  0.12120  1.0000
  S   S603      1.0  0.50755  0.12790  0.04855  1.0000
  H   H4868     1.0  0.54639  0.00353  0.06362  1.0000
  H   H4869     1.0  0.54549  0.15931  0.04681  1.0000
  H   H4870     1.0  0.51233  0.01088  0.09393  1.0000
  H   H4871     1.0  0.62803  0.12516  0.20943  1.0000
  H   H4872     1.0  0.52424  0.03502  0.17810  1.0000
  H   H4873     1.0  0.52537  0.07853  0.05633  1.0000
  H   H4874     1.0  0.58074  0.22853  0.00186  1.0000
  H   H4875     1.0  0.59121  0.14333  0.21350  1.0000
  C   C2737     1.0  0.58730  0.13454  0.21194  1.0000
  Fe  Fe305     1.0  0.60822  0.05991  0.22414  1.0000
  H   H4876     1.0  0.56143  0.99803  0.08034  1.0000
  C   C2738     1.0  0.50807  0.12893  0.16875  1.0000
  H   H4877     1.0  0.58135  0.12926  0.22248  1.0000
  C   C2739     1.0  0.63719  0.11912  0.20247  1.0000
  C   C2740     1.0  0.50935  0.14626  0.14587  1.0000
  H   H4878     1.0  0.57957  0.13916  0.20468  1.0000
  H   H4879     1.0  0.60728  0.11886  0.21352  1.0000
  H   H4880     1.0  0.70484  0.23432  0.03335  1.0000
  C   C2741     1.0  0.59360  0.20662  0.00613  1.0000
  H   H4881     1.0  0.65791  0.21331  0.00711  1.0000
  C   C2742     1.0  0.54637  0.10337  0.21956  1.0000
  H   H4882     1.0  0.53848  0.07404  0.22401  1.0000
  C   C2743     1.0  0.51338  0.03197  0.04309  1.0000
  H   H4883     1.0  0.60605  0.18701  0.05730  1.0000
  N   N151      1.0  0.62109  0.19904  0.00635  1.0000
  H   H4884     1.0  0.53862  0.00292  0.22404  1.0000
  H   H4885     1.0  0.52360  0.02610  0.04673  1.0000
  C   C2744     1.0  0.51117  0.04812  0.04165  1.0000
  H   H4886     1.0  0.55207  0.01310  0.08793  1.0000
  C   C2745     1.0  0.53290  0.05475  0.22217  1.0000
  N   N152      1.0  0.50983  0.06674  0.05641  1.0000
  C   C2746     1.0  0.57561  0.22571  0.07576  1.0000
  C   C2747     1.0  0.50344  0.05890  0.08430  1.0000
  H   H4887     1.0  0.57896  0.21994  0.02069  1.0000
  H   H4888     1.0  0.51424  0.02983  0.03250  1.0000
  C   C2748     1.0  0.51697  0.10180  0.17234  1.0000
  C   C2749     1.0  0.50758  0.05319  0.17161  1.0000
  H   H4889     1.0  0.51676  0.03626  0.20365  1.0000
  H   H4890     1.0  0.50660  0.10063  0.17081  1.0000
  C   C2750     1.0  0.51138  0.16116  0.13624  1.0000
  C   C2751     1.0  0.55051  0.23773  0.09523  1.0000
  H   H4891     1.0  0.50869  0.17440  0.11543  1.0000
  H   H4892     1.0  0.61389  0.18628  0.99640  1.0000
  C   C2752     1.0  0.50552  0.16454  0.12277  1.0000
  C   C2753     1.0  0.63726  0.17989  0.99188  1.0000
  C   C2754     1.0  0.54352  0.09657  0.23407  1.0000
  H   H4893     1.0  0.57409  0.23711  0.07003  1.0000
  H   H4894     1.0  0.69857  0.24036  0.99553  1.0000
  H   H4895     1.0  0.50708  0.12694  0.18045  1.0000
  C   C2755     1.0  0.53006  0.01027  0.23021  1.0000
  C   C2756     1.0  0.50597  0.02175  0.11109  1.0000
  H   H4896     1.0  0.50555  0.16988  0.14191  1.0000
  H   H4897     1.0  0.67379  0.23914  0.05232  1.0000
  H   H4898     1.0  0.51418  0.03654  0.23421  1.0000
  H   H4899     1.0  0.53381  0.24176  0.11467  1.0000
  S   S604      1.0  0.58734  0.05359  0.23700  1.0000
  H   H4900     1.0  0.50401  0.02788  0.05081  1.0000
  H   H4901     1.0  0.50405  0.14140  0.07728  1.0000
  H   H4902     1.0  0.52088  0.24181  0.09661  1.0000
  C   C2757     1.0  0.50331  0.07752  0.04453  1.0000
  Fe  Fe306     1.0  0.81265  0.06932  0.46345  1.0000
  S   S605      1.0  0.78916  0.06763  0.46978  1.0000
  H   H4903     1.0  0.77646  0.12814  0.48715  1.0000
  Fe  Fe307     1.0  0.80585  0.10139  0.45174  1.0000
  S   S606      1.0  0.78181  0.10225  0.45672  1.0000
  S   S607      1.0  0.81393  0.12212  0.44139  1.0000
  H   H4904     1.0  0.62520  0.03164  0.37329  1.0000
  C   C2758     1.0  0.93443  0.17931  0.46990  1.0000
  Fe  Fe308     1.0  0.78748  0.08210  0.44824  1.0000
  S   S608      1.0  0.77262  0.08075  0.43473  1.0000
  S   S609      1.0  0.64204  0.00512  0.44826  1.0000
  S   S610      1.0  0.81143  0.08255  0.44126  1.0000
  Fe  Fe309     1.0  0.88059  0.18292  0.44794  1.0000
  S   S611      1.0  0.88455  0.15905  0.44957  1.0000
  S   S612      1.0  0.88600  0.19862  0.42687  1.0000
  H   H4905     1.0  0.81255  0.04941  0.44271  1.0000
  H   H4906     1.0  0.73670  0.04926  0.29660  1.0000
  C   C2759     1.0  0.62713  0.02463  0.38368  1.0000
  C   C2760     1.0  0.51563  0.05659  0.24557  1.0000
  C   C2761     1.0  0.87005  0.04281  0.47491  1.0000
  Fe  Fe310     1.0  0.86355  0.16026  0.46631  1.0000
  S   S613      1.0  0.84778  0.14545  0.47255  1.0000
  S   S614      1.0  0.89308  0.18043  0.46438  1.0000
  S   S615      1.0  0.85865  0.18436  0.46336  1.0000
  H   H4907     1.0  0.83805  0.03227  0.42384  1.0000
  H   H4908     1.0  0.62463  0.07817  0.47000  1.0000
  H   H4909     1.0  0.87479  0.01215  0.43257  1.0000
  H   H4910     1.0  0.67808  0.00812  0.36815  1.0000
  H   H4911     1.0  0.77751  0.14182  0.47071  1.0000
  C   C2762     1.0  0.61329  0.99438  0.33769  1.0000
  H   H4912     1.0  0.87034  0.03906  0.44412  1.0000
  C   C2763     1.0  0.56435  0.99481  0.41724  1.0000
  C   C2764     1.0  0.61422  0.04513  0.48410  1.0000
  C   C2765     1.0  0.54609  0.05506  0.24840  1.0000
  Fe  Fe311     1.0  0.73338  0.00287  0.40569  1.0000
  S   S616      1.0  0.71134  0.01735  0.40463  1.0000
  H   H4913     1.0  0.62173  0.99328  0.32815  1.0000
  Fe  Fe312     1.0  0.74728  0.02755  0.40444  1.0000
  S   S617      1.0  0.72649  0.04396  0.40231  1.0000
  S   S618      1.0  0.76785  0.03069  0.40867  1.0000
  Fe  Fe313     1.0  0.71563  0.02790  0.41963  1.0000
  S   S619      1.0  0.70056  0.03479  0.43929  1.0000
  Fe  Fe314     1.0  0.72393  0.03199  0.38730  1.0000
  S   S620      1.0  0.71441  0.04427  0.36786  1.0000
  S   S621      1.0  0.73639  0.01204  0.42249  1.0000
  S   S622      1.0  0.74601  0.01696  0.38753  1.0000
  Fe  Fe315     1.0  0.64901  0.00230  0.33005  1.0000
  S   S623      1.0  0.64661  0.00469  0.30771  1.0000
  H   H4914     1.0  0.87425  0.16015  0.41394  1.0000
  Fe  Fe316     1.0  0.67535  0.01630  0.32058  1.0000
  S   S624      1.0  0.67484  0.02040  0.29728  1.0000
  S   S625      1.0  0.69493  0.01791  0.32773  1.0000
  Fe  Fe317     1.0  0.65042  0.02682  0.30416  1.0000
  S   S626      1.0  0.60680  0.02009  0.45373  1.0000
  C   C2766     1.0  0.58229  0.00468  0.42175  1.0000
  S   S627      1.0  0.65124  0.02483  0.32696  1.0000
  H   H4915     1.0  0.61169  0.06122  0.27930  1.0000
  S   S628      1.0  0.63304  0.04646  0.44281  1.0000
  H   H4916     1.0  0.58297  0.99799  0.37212  1.0000
  H   H4917     1.0  0.68496  0.03933  0.38929  1.0000
  H   H4918     1.0  0.70578  0.04366  0.30890  1.0000
  H   H4919     1.0  0.73555  0.02619  0.31534  1.0000
  C   C2767     1.0  0.72717  0.04810  0.30569  1.0000
  N   N153      1.0  0.74295  0.03935  0.32483  1.0000
  H   H4920     1.0  0.78505  0.03641  0.29733  1.0000
  H   H4921     1.0  0.63936  0.00724  0.37391  1.0000
  H   H4922     1.0  0.94895  0.03882  0.45184  1.0000
  C   C2768     1.0  0.75675  0.04132  0.31371  1.0000
  H   H4923     1.0  0.88083  0.23152  0.39859  1.0000
  H   H4924     1.0  0.68819  0.99489  0.43152  1.0000
  C   C2769     1.0  0.65427  0.00096  0.25197  1.0000
  Fe  Fe318     1.0  0.78536  0.08770  0.47769  1.0000
  C   C2770     1.0  0.87387  0.10267  0.46725  1.0000
  H   H4925     1.0  0.72178  0.03540  0.32724  1.0000
  C   C2771     1.0  0.68194  0.03837  0.43944  1.0000
  C   C2772     1.0  0.67219  0.04844  0.44695  1.0000
  C   C2773     1.0  0.65722  0.05130  0.44748  1.0000
  C   C2774     1.0  0.65190  0.04368  0.44099  1.0000
  C   C2775     1.0  0.66163  0.03349  0.43360  1.0000
  C   C2776     1.0  0.67668  0.03102  0.43260  1.0000
  H   H4926     1.0  0.67622  0.05414  0.45225  1.0000
  H   H4927     1.0  0.64975  0.05920  0.45317  1.0000
  H   H4928     1.0  0.65756  0.02764  0.42851  1.0000
  H   H4929     1.0  0.68414  0.02323  0.42679  1.0000
  C   C2777     1.0  0.70623  0.03632  0.35922  1.0000
  C   C2778     1.0  0.69751  0.04527  0.34972  1.0000
  C   C2779     1.0  0.69247  0.03949  0.34113  1.0000
  C   C2780     1.0  0.69635  0.02470  0.34177  1.0000
  C   C2781     1.0  0.70464  0.01570  0.35165  1.0000
  C   C2782     1.0  0.70936  0.02145  0.36052  1.0000
  H   H4930     1.0  0.69506  0.05680  0.34862  1.0000
  H   H4931     1.0  0.68650  0.04660  0.33327  1.0000
  H   H4932     1.0  0.70799  0.00429  0.35202  1.0000
  H   H4933     1.0  0.71608  0.01443  0.36777  1.0000
  C   C2783     1.0  0.63038  0.04925  0.24897  1.0000
  C   C2784     1.0  0.64290  0.04081  0.25380  1.0000
  C   C2785     1.0  0.64404  0.03939  0.26789  1.0000
  C   C2786     1.0  0.63284  0.04679  0.27711  1.0000
  C   C2787     1.0  0.61898  0.05636  0.25832  1.0000
  H   H4934     1.0  0.84869  0.99940  0.40934  1.0000
  H   H4935     1.0  0.65381  0.03301  0.27146  1.0000
  H   H4936     1.0  0.56148  0.01709  0.41749  1.0000
  H   H4937     1.0  0.75569  0.01869  0.43908  1.0000
  H   H4938     1.0  0.69007  0.01216  0.46776  1.0000
  C   C2788     1.0  0.95479  0.22124  0.46745  1.0000
  H   H4939     1.0  0.52720  0.00434  0.24150  1.0000
  S   S629      1.0  0.62673  0.02220  0.42089  1.0000
  C   C2789     1.0  0.89516  0.21107  0.42799  1.0000
  C   C2790     1.0  0.89184  0.21627  0.44044  1.0000
  C   C2791     1.0  0.83087  0.02259  0.44683  1.0000
  H   H4940     1.0  0.67577  0.99532  0.25686  1.0000
  C   C2792     1.0  0.62278  0.99839  0.25841  1.0000
  C   C2793     1.0  0.90593  0.21585  0.41633  1.0000
  H   H4941     1.0  0.88344  0.21279  0.44945  1.0000
  H   H4942     1.0  0.93143  0.12537  0.44941  1.0000
  C   C2794     1.0  0.78390  0.13257  0.47726  1.0000
  H   H4943     1.0  0.90862  0.21180  0.40670  1.0000
  H   H4944     1.0  0.66342  0.01014  0.26404  1.0000
  Fe  Fe319     1.0  0.62779  0.02652  0.44130  1.0000
  H   H4945     1.0  0.73645  0.08010  0.33381  1.0000
  H   H4946     1.0  0.61316  0.02777  0.24803  1.0000
  H   H4947     1.0  0.80835  0.19199  0.46084  1.0000
  C   C2795     1.0  0.64186  0.02225  0.47881  1.0000
  Fe  Fe320     1.0  0.63897  0.00005  0.42900  1.0000
  H   H4948     1.0  0.90680  0.07999  0.48399  1.0000
  H   H4949     1.0  0.66613  0.04805  0.38954  1.0000
  C   C2796     1.0  0.77148  0.06651  0.42782  1.0000
  C   C2797     1.0  0.76213  0.06950  0.41844  1.0000
  C   C2798     1.0  0.76053  0.05857  0.41292  1.0000
  C   C2799     1.0  0.76856  0.04451  0.41643  1.0000
  C   C2800     1.0  0.77797  0.04150  0.42579  1.0000
  C   C2801     1.0  0.77923  0.05237  0.43165  1.0000
  H   H4950     1.0  0.75610  0.08039  0.41537  1.0000
  H   H4951     1.0  0.75338  0.06111  0.40561  1.0000
  H   H4952     1.0  0.78426  0.03068  0.42857  1.0000
  H   H4953     1.0  0.78618  0.04987  0.43911  1.0000
  C   C2802     1.0  0.82457  0.12804  0.44930  1.0000
  C   C2803     1.0  0.82845  0.14142  0.44308  1.0000
  C   C2804     1.0  0.83638  0.14665  0.44955  1.0000
  C   C2805     1.0  0.84038  0.13854  0.46233  1.0000
  C   C2806     1.0  0.83698  0.12496  0.46818  1.0000
  C   C2807     1.0  0.82914  0.11972  0.46172  1.0000
  H   H4954     1.0  0.82503  0.14787  0.43339  1.0000
  H   H4955     1.0  0.83887  0.15716  0.44495  1.0000
  C   C2808     1.0  0.67376  0.03748  0.39178  1.0000
  H   H4956     1.0  0.82638  0.10938  0.46653  1.0000
  H   H4957     1.0  0.55141  0.03762  0.23804  1.0000
  H   H4958     1.0  0.66378  0.01723  0.46630  1.0000
  C   C2809     1.0  0.85342  0.22669  0.41150  1.0000
  H   H4959     1.0  0.95110  0.21995  0.47926  1.0000
  H   H4960     1.0  0.89714  0.22536  0.47803  1.0000
  H   H4961     1.0  0.55375  0.99627  0.41508  1.0000
  C   C2810     1.0  0.95242  0.07583  0.47634  1.0000
  H   H4962     1.0  0.68036  0.99693  0.45800  1.0000
  H   H4963     1.0  0.84129  0.07496  0.45971  1.0000
  H   H4964     1.0  0.59188  0.00934  0.48515  1.0000
  H   H4965     1.0  0.60395  0.02664  0.39292  1.0000
  H   H4966     1.0  0.73516  0.06256  0.32082  1.0000
  N   N154      1.0  0.72740  0.05578  0.45318  1.0000
  C   C2811     1.0  0.73732  0.05967  0.45997  1.0000
  C   C2812     1.0  0.73501  0.04228  0.44752  1.0000
  C   C2813     1.0  0.72422  0.06803  0.44067  1.0000
  C   C2814     1.0  0.71303  0.05399  0.46334  1.0000
  H   H4967     1.0  0.82159  0.01849  0.44640  1.0000
  H   H4968     1.0  0.50643  0.05922  0.24014  1.0000
  C   C2815     1.0  0.71557  0.06560  0.43103  1.0000
  C   C2816     1.0  0.74611  0.03094  0.45574  1.0000
  C   C2817     1.0  0.75067  0.01684  0.45072  1.0000
  C   C2818     1.0  0.56539  0.01177  0.45977  1.0000
  H   H4969     1.0  0.55536  0.01221  0.46844  1.0000
  C   C2819     1.0  0.71514  0.07766  0.41757  1.0000
  H   H4970     1.0  0.74794  0.06041  0.45218  1.0000
  H   H4971     1.0  0.74007  0.05114  0.46932  1.0000
  H   H4972     1.0  0.72685  0.03681  0.44678  1.0000
  H   H4973     1.0  0.74140  0.04503  0.43635  1.0000
  H   H4974     1.0  0.73460  0.07074  0.43373  1.0000
  H   H4975     1.0  0.71771  0.07793  0.44442  1.0000
  H   H4976     1.0  0.92525  0.07946  0.44029  1.0000
  H   H4977     1.0  0.70605  0.05118  0.45793  1.0000
  C   C2820     1.0  0.91035  0.23059  0.42974  1.0000
  H   H4978     1.0  0.55307  0.06040  0.23866  1.0000
  H   H4979     1.0  0.73067  0.08331  0.45599  1.0000
  H   H4980     1.0  0.82856  0.00557  0.43006  1.0000
  H   H4981     1.0  0.70412  0.06544  0.43684  1.0000
  H   H4982     1.0  0.72051  0.05537  0.42750  1.0000
  H   H4983     1.0  0.75613  0.03503  0.45375  1.0000
  H   H4984     1.0  0.74171  0.02845  0.46744  1.0000
  H   H4985     1.0  0.74108  0.01207  0.45286  1.0000
  H   H4986     1.0  0.51769  0.06719  0.24490  1.0000
  H   H4987     1.0  0.93349  0.22402  0.46408  1.0000
  H   H4988     1.0  0.80263  0.14179  0.47064  1.0000
  H   H4989     1.0  0.98111  0.06076  0.47652  1.0000
  C   C2821     1.0  0.81806  0.18549  0.46513  1.0000
  C   C2822     1.0  0.83989  0.99906  0.46126  1.0000
  H   H4990     1.0  0.76988  0.01953  0.31370  1.0000
  H   H4991     1.0  0.59763  0.02342  0.29381  1.0000
  H   H4992     1.0  0.72634  0.07788  0.41098  1.0000
  H   H4993     1.0  0.70865  0.07577  0.41104  1.0000
  H   H4994     1.0  0.70998  0.08823  0.42046  1.0000
  S   S630      1.0  0.63500  0.99307  0.35085  1.0000
  H   H4995     1.0  0.96601  0.21467  0.46482  1.0000
  H   H4996     1.0  0.68140  0.01759  0.38495  1.0000
  H   H4997     1.0  0.86172  0.21673  0.40978  1.0000
  H   H4998     1.0  0.66216  0.00125  0.35494  1.0000
  H   H4999     1.0  0.90383  0.99933  0.47303  1.0000
  H   H5000     1.0  0.85500  0.02984  0.47706  1.0000
  H   H5001     1.0  0.86300  0.00707  0.45712  1.0000
  H   H5002     1.0  0.52174  0.02748  0.24942  1.0000
  C   C2823     1.0  0.94436  0.21685  0.46148  1.0000
  C   C2824     1.0  0.93325  0.08870  0.46326  1.0000
  C   C2825     1.0  0.85621  0.01585  0.45050  1.0000
  H   H5003     1.0  0.72031  0.03325  0.29771  1.0000
  C   C2826     1.0  0.62297  0.05661  0.48217  1.0000
  H   H5004     1.0  0.84147  0.09115  0.48366  1.0000
  C   C2827     1.0  0.94554  0.05642  0.46214  1.0000
  C   C2828     1.0  0.69560  0.00078  0.46766  1.0000
  C   C2829     1.0  0.62031  0.05531  0.27229  1.0000
  Fe  Fe321     1.0  0.60699  0.01371  0.43380  1.0000
  C   C2830     1.0  0.58771  0.99701  0.34993  1.0000
  H   H5005     1.0  0.76485  0.04297  0.31861  1.0000
  N   N155      1.0  0.93686  0.07705  0.47596  1.0000
  H   H5006     1.0  0.91748  0.21501  0.46008  1.0000
  H   H5007     1.0  0.80704  0.18326  0.48725  1.0000
  C   C2831     1.0  0.65831  0.01965  0.47698  1.0000
  C   C2832     1.0  0.93098  0.18966  0.44001  1.0000
  H   H5008     1.0  0.74319  0.07343  0.35005  1.0000
  H   H5009     1.0  0.86446  0.11667  0.48247  1.0000
  C   C2833     1.0  0.71372  0.04216  0.47719  1.0000
  H   H5010     1.0  0.56257  0.01207  0.44964  1.0000
  S   S631      1.0  0.63445  0.04591  0.29454  1.0000
  H   H5011     1.0  0.75881  0.00909  0.45655  1.0000
  H   H5012     1.0  0.82020  0.05557  0.42400  1.0000
  H   H5013     1.0  0.84009  0.11859  0.47801  1.0000
  C   C2834     1.0  0.73708  0.07116  0.34341  1.0000
  H   H5014     1.0  0.61205  0.01216  0.38373  1.0000
  H   H5015     1.0  0.54785  0.04465  0.27041  1.0000
  C   C2835     1.0  0.84947  0.00375  0.43540  1.0000
  H   H5016     1.0  0.84538  0.22391  0.42164  1.0000
  C   C2836     1.0  0.73180  0.03657  0.31872  1.0000
  C   C2837     1.0  0.93734  0.17372  0.48526  1.0000
  H   H5017     1.0  0.95503  0.19426  0.46547  1.0000
  H   H5018     1.0  0.63886  0.03121  0.46998  1.0000
  H   H5019     1.0  0.94057  0.08611  0.45316  1.0000
  H   H5020     1.0  0.67089  0.03235  0.40331  1.0000
  H   H5021     1.0  0.75457  0.05133  0.30540  1.0000
  H   H5022     1.0  0.72093  0.07418  0.47281  1.0000
  C   C2838     1.0  0.86747  0.02140  0.43704  1.0000
  H   H5023     1.0  0.72510  0.05305  0.33659  1.0000
  C   C2839     1.0  0.81837  0.04589  0.43256  1.0000
  C   C2840     1.0  0.71599  0.04395  0.30049  1.0000
  H   H5024     1.0  0.70674  0.06433  0.46631  1.0000
  C   C2841     1.0  0.64119  0.01285  0.38123  1.0000
  H   H5025     1.0  0.91939  0.19522  0.44073  1.0000
  C   C2842     1.0  0.61605  0.01047  0.26680  1.0000
  H   H5026     1.0  0.94086  0.19955  0.47977  1.0000
  H   H5027     1.0  0.61476  0.01815  0.48299  1.0000
  H   H5028     1.0  0.72201  0.05868  0.30852  1.0000
  C   C2843     1.0  0.77709  0.03311  0.29357  1.0000
  H   H5029     1.0  0.86226  0.02902  0.42852  1.0000
  H   H5030     1.0  0.93337  0.11143  0.44043  1.0000
  N   N156      1.0  0.52873  0.04732  0.23777  1.0000
  S   S632      1.0  0.91358  0.02096  0.48345  1.0000
  C   C2844     1.0  0.97440  0.06274  0.48707  1.0000
  H   H5031     1.0  0.57383  0.08833  0.30605  1.0000
  S   S633      1.0  0.56933  0.99952  0.34961  1.0000
  H   H5032     1.0  0.75740  0.02537  0.30177  1.0000
  H   H5033     1.0  0.89653  0.23021  0.45084  1.0000
  H   H5034     1.0  0.85146  0.02439  0.45674  1.0000
  H   H5035     1.0  0.93192  0.18638  0.41915  1.0000
  S   S634      1.0  0.58701  0.01923  0.42473  1.0000
  C   C2845     1.0  0.89931  0.22609  0.44124  1.0000
  H   H5036     1.0  0.93685  0.20829  0.44145  1.0000
  C   C2846     1.0  0.65784  0.02457  0.38591  1.0000
  H   H5037     1.0  0.60866  0.99576  0.37234  1.0000
  H   H5038     1.0  0.94625  0.06415  0.45166  1.0000
  C   C2847     1.0  0.89592  0.21420  0.48341  1.0000
  H   H5039     1.0  0.60193  0.03179  0.26471  1.0000
  H   H5040     1.0  0.55678  0.08357  0.30775  1.0000
  H   H5041     1.0  0.61519  0.01051  0.40120  1.0000
  H   H5042     1.0  0.72069  0.04372  0.48340  1.0000
  H   H5043     1.0  0.94046  0.03522  0.47059  1.0000
  H   H5044     1.0  0.75680  0.02720  0.33970  1.0000
  H   H5045     1.0  0.88571  0.03180  0.43130  1.0000
  C   C2848     1.0  0.56872  0.00657  0.41861  1.0000
  C   C2849     1.0  0.66756  0.00482  0.37351  1.0000
  H   H5046     1.0  0.73788  0.02946  0.34748  1.0000
  C   C2850     1.0  0.93861  0.19674  0.44705  1.0000
  H   H5047     1.0  0.86308  0.10065  0.46813  1.0000
  H   H5048     1.0  0.94616  0.10428  0.46131  1.0000
  H   H5049     1.0  0.83982  0.04171  0.43614  1.0000
  H   H5050     1.0  0.78054  0.15639  0.48597  1.0000
  Fe  Fe322     1.0  0.67106  0.99802  0.30258  1.0000
  C   C2851     1.0  0.93819  0.19057  0.42414  1.0000
  H   H5051     1.0  0.81147  0.04059  0.42952  1.0000
  H   H5052     1.0  0.87812  0.03375  0.47884  1.0000
  H   H5053     1.0  0.77264  0.04212  0.28533  1.0000
  C   C2852     1.0  0.91362  0.22546  0.41726  1.0000
  H   H5054     1.0  0.88211  0.09245  0.46692  1.0000
  H   H5055     1.0  0.94953  0.18404  0.42286  1.0000
  H   H5056     1.0  0.52685  0.09149  0.25288  1.0000
  H   H5057     1.0  0.60933  0.06298  0.25465  1.0000
  H   H5058     1.0  0.92227  0.22868  0.40842  1.0000
  C   C2853     1.0  0.66591  0.99489  0.36482  1.0000
  H   H5059     1.0  0.82428  0.19291  0.46588  1.0000
  H   H5060     1.0  0.80262  0.12731  0.48628  1.0000
  C   C2854     1.0  0.65519  0.02798  0.36067  1.0000
  C   C2855     1.0  0.64998  0.04437  0.36021  1.0000
  C   C2856     1.0  0.61797  0.07029  0.47143  1.0000
  H   H5061     1.0  0.82800  0.01261  0.47704  1.0000
  N   N157      1.0  0.84414  0.01056  0.44824  1.0000
  H   H5062     1.0  0.86437  0.07888  0.46202  1.0000
  C   C2857     1.0  0.64812  0.05293  0.34525  1.0000
  Fe  Fe323     1.0  0.62100  0.99818  0.45916  1.0000
  H   H5063     1.0  0.64648  0.01108  0.24855  1.0000
  S   S635      1.0  0.80895  0.08804  0.47340  1.0000
  H   H5064     1.0  0.55790  0.09431  0.31909  1.0000
  C   C2858     1.0  0.61381  0.01803  0.39082  1.0000
  H   H5065     1.0  0.61655  0.02324  0.29189  1.0000
  H   H5066     1.0  0.63936  0.01256  0.47750  1.0000
  H   H5067     1.0  0.95663  0.05252  0.46436  1.0000
  H   H5068     1.0  0.66622  0.02657  0.35345  1.0000
  H   H5069     1.0  0.64827  0.02510  0.35528  1.0000
  H   H5070     1.0  0.65808  0.04839  0.36294  1.0000
  H   H5071     1.0  0.63948  0.04699  0.36783  1.0000
  H   H5072     1.0  0.99251  0.24105  0.34477  1.0000
  H   H5073     1.0  0.74569  0.04855  0.34905  1.0000
  H   H5074     1.0  0.82521  0.17873  0.45755  1.0000
  H   H5075     1.0  0.61937  0.06789  0.46084  1.0000
  H   H5076     1.0  0.91651  0.11672  0.45304  1.0000
  H   H5077     1.0  0.67164  0.01264  0.24515  1.0000
  H   H5078     1.0  0.78292  0.02384  0.28852  1.0000
  H   H5079     1.0  0.67662  0.03284  0.37123  1.0000
  C   C2859     1.0  0.83678  0.00285  0.47612  1.0000
  H   H5080     1.0  0.64523  0.06461  0.34502  1.0000
  H   H5081     1.0  0.65842  0.05063  0.33716  1.0000
  H   H5082     1.0  0.63926  0.05021  0.34234  1.0000
  H   H5083     1.0  0.53961  0.03455  0.25482  1.0000
  H   H5084     1.0  0.53683  0.06334  0.25238  1.0000
  C   C2860     1.0  0.74483  0.05688  0.33904  1.0000
  H   H5085     1.0  0.72587  0.07066  0.34987  1.0000
  C   C2861     1.0  0.88211  0.14959  0.41515  1.0000
  H   H5086     1.0  0.88631  0.14674  0.40451  1.0000
  N   N158      1.0  0.87915  0.11145  0.43949  1.0000
  C   C2862     1.0  0.88948  0.09724  0.43795  1.0000
  C   C2863     1.0  0.86443  0.11079  0.43812  1.0000
  C   C2864     1.0  0.88508  0.12325  0.42794  1.0000
  C   C2865     1.0  0.87762  0.11463  0.45385  1.0000
  C   C2866     1.0  0.54151  0.04299  0.24486  1.0000
  C   C2867     1.0  0.90483  0.09538  0.44043  1.0000
  C   C2868     1.0  0.87445  0.13820  0.42594  1.0000
  C   C2869     1.0  0.86408  0.10781  0.42377  1.0000
  C   C2870     1.0  0.84851  0.10958  0.42248  1.0000
  H   H5087     1.0  0.92429  0.17622  0.47001  1.0000
  C   C2871     1.0  0.91405  0.08037  0.43923  1.0000
  H   H5088     1.0  0.89128  0.09560  0.42695  1.0000
  H   H5089     1.0  0.88465  0.08815  0.44520  1.0000
  H   H5090     1.0  0.86008  0.10217  0.44670  1.0000
  H   H5091     1.0  0.85629  0.12081  0.43990  1.0000
  H   H5092     1.0  0.88895  0.12017  0.41738  1.0000
  H   H5093     1.0  0.89495  0.12484  0.43019  1.0000
  H   H5094     1.0  0.88767  0.11744  0.45434  1.0000
  H   H5095     1.0  0.86893  0.12437  0.45532  1.0000
  S   S636      1.0  0.91703  0.14271  0.46993  1.0000
  S   S637      1.0  0.55792  0.08772  0.24277  1.0000
  H   H5096     1.0  0.91064  0.10333  0.43235  1.0000
  H   H5097     1.0  0.94348  0.17261  0.46333  1.0000
  H   H5098     1.0  0.87004  0.14184  0.43617  1.0000
  H   H5099     1.0  0.86515  0.13790  0.42184  1.0000
  H   H5100     1.0  0.86929  0.11517  0.41437  1.0000
  H   H5101     1.0  0.86979  0.09657  0.42315  1.0000
  H   H5102     1.0  0.84861  0.10645  0.41261  1.0000
  H   H5103     1.0  0.84261  0.10264  0.43183  1.0000
  H   H5104     1.0  0.84262  0.12098  0.42176  1.0000
  H   H5105     1.0  0.89128  0.15072  0.41892  1.0000
  C   C2872     1.0  0.87700  0.02899  0.44081  1.0000
  H   H5106     1.0  0.81121  0.15991  0.47069  1.0000
  C   C2873     1.0  0.50989  0.05001  0.26162  1.0000
  C   C2874     1.0  0.86241  0.06819  0.46514  1.0000
  H   H5107     1.0  0.84664  0.00470  0.47805  1.0000
  H   H5108     1.0  0.95981  0.07465  0.46577  1.0000
  C   C2875     1.0  0.76479  0.02879  0.30611  1.0000
  C   C2876     1.0  0.55489  0.04886  0.26006  1.0000
  C   C2877     1.0  0.92857  0.11497  0.45071  1.0000
  H   H5109     1.0  0.85318  0.01148  0.42548  1.0000
  H   H5110     1.0  0.56419  0.04003  0.25708  1.0000
  H   H5111     1.0  0.55921  0.05743  0.26152  1.0000
  C   C2878     1.0  0.74617  0.02739  0.33759  1.0000
  H   H5112     1.0  0.82687  0.02713  0.45655  1.0000
  H   H5113     1.0  0.88222  0.02192  0.44964  1.0000
  C   C2879     1.0  0.73634  0.05320  0.33000  1.0000
  H   H5114     1.0  0.91480  0.07825  0.42867  1.0000
  Fe  Fe324     1.0  0.89511  0.15686  0.46755  1.0000
  H   H5115     1.0  0.75598  0.05789  0.33291  1.0000
  C   C2880     1.0  0.93456  0.10393  0.46302  1.0000
  H   H5116     1.0  0.69162  0.99398  0.47824  1.0000
  C   C2881     1.0  0.84931  0.06597  0.46390  1.0000
  C   C2882     1.0  0.67322  0.02773  0.38264  1.0000
  H   H5117     1.0  0.95058  0.19225  0.44416  1.0000
  H   H5118     1.0  0.60633  0.07522  0.47532  1.0000
  C   C2883     1.0  0.85698  0.04057  0.47372  1.0000
  H   H5119     1.0  0.64964  0.03464  0.38722  1.0000
  H   H5120     1.0  0.92349  0.06471  0.47270  1.0000
  H   H5121     1.0  0.92852  0.10727  0.47314  1.0000
  H   H5122     1.0  0.71328  0.05203  0.29082  1.0000
  H   H5123     1.0  0.90404  0.09682  0.45121  1.0000
  C   C2884     1.0  0.83296  0.03560  0.43415  1.0000
  C   C2885     1.0  0.91078  0.20374  0.48205  1.0000
  S   S638      1.0  0.82975  0.04915  0.46821  1.0000
  H   H5124     1.0  0.92212  0.08933  0.46229  1.0000
  N   N159      1.0  0.58137  0.04482  0.32777  1.0000
  C   C2886     1.0  0.58710  0.03327  0.31926  1.0000
  C   C2887     1.0  0.56891  0.04075  0.33984  1.0000
  C   C2888     1.0  0.57656  0.05889  0.31780  1.0000
  C   C2889     1.0  0.59298  0.04636  0.33411  1.0000
  C   C2890     1.0  0.60034  0.03245  0.34355  1.0000
  C   C2891     1.0  0.60170  0.03409  0.30813  1.0000
  C   C2892     1.0  0.56810  0.07170  0.32497  1.0000
  C   C2893     1.0  0.55535  0.03989  0.33529  1.0000
  C   C2894     1.0  0.54309  0.03677  0.34838  1.0000
  C   C2895     1.0  0.61270  0.03501  0.34833  1.0000
  C   C2896     1.0  0.60607  0.02232  0.29973  1.0000
  C   C2897     1.0  0.56392  0.08528  0.31374  1.0000
  H   H5125     1.0  0.57900  0.03343  0.31329  1.0000
  H   H5126     1.0  0.58839  0.02248  0.32651  1.0000
  H   H5127     1.0  0.57252  0.02994  0.34652  1.0000
  H   H5128     1.0  0.56541  0.04816  0.34731  1.0000
  H   H5129     1.0  0.56975  0.05761  0.31119  1.0000
  H   H5130     1.0  0.58619  0.06237  0.30989  1.0000
  H   H5131     1.0  0.60167  0.05085  0.32551  1.0000
  H   H5132     1.0  0.58834  0.05429  0.34104  1.0000
  H   H5133     1.0  0.60508  0.02374  0.33763  1.0000
  H   H5134     1.0  0.59241  0.02863  0.35335  1.0000
  H   H5135     1.0  0.60086  0.04455  0.30033  1.0000
  H   H5136     1.0  0.61070  0.03269  0.31342  1.0000
  H   H5137     1.0  0.57485  0.07414  0.33085  1.0000
  H   H5138     1.0  0.55788  0.06945  0.33257  1.0000
  H   H5139     1.0  0.55101  0.05007  0.32821  1.0000
  H   H5140     1.0  0.55814  0.03106  0.32956  1.0000
  H   H5141     1.0  0.54681  0.02649  0.35575  1.0000
  H   H5142     1.0  0.53945  0.04559  0.35425  1.0000
  H   H5143     1.0  0.53366  0.03581  0.34491  1.0000
  H   H5144     1.0  0.60839  0.04292  0.35528  1.0000
  H   H5145     1.0  0.61819  0.02472  0.35447  1.0000
  H   H5146     1.0  0.62087  0.03903  0.33887  1.0000
  H   H5147     1.0  0.60761  0.01155  0.30704  1.0000
  H   H5148     1.0  0.93138  0.17813  0.44512  1.0000
  H   H5149     1.0  0.93840  0.20188  0.41844  1.0000
  C   C2898     1.0  0.80448  0.16579  0.47917  1.0000
  H   H5150     1.0  0.94832  0.21892  0.44967  1.0000
  H   H5151     1.0  0.75241  0.00889  0.32700  1.0000
  C   C2899     1.0  0.87265  0.05667  0.47095  1.0000
  H   H5152     1.0  0.63477  0.05257  0.47808  1.0000
  H   H5153     1.0  0.64172  0.00479  0.39152  1.0000
  H   H5154     1.0  0.90923  0.07205  0.44785  1.0000
  H   H5155     1.0  0.84765  0.23082  0.40255  1.0000
  S   S639      1.0  0.88837  0.05967  0.47381  1.0000
  N   N160      1.0  0.65533  0.01791  0.37520  1.0000
  H   H5156     1.0  0.62723  0.00337  0.24706  1.0000
  H   H5157     1.0  0.91420  0.23985  0.35729  1.0000
  S   S640      1.0  0.67310  0.99351  0.32526  1.0000
  N   N161      1.0  0.93358  0.19514  0.46311  1.0000
  C   C2900     1.0  0.93462  0.06317  0.47441  1.0000
  H   H5158     1.0  0.88376  0.10932  0.48071  1.0000
  C   C2901     1.0  0.52909  0.09668  0.24164  1.0000
  H   H5159     1.0  0.65184  0.03553  0.24651  1.0000
  C   C2902     1.0  0.66702  0.00500  0.25472  1.0000
  H   H5160     1.0  0.75320  0.07595  0.46545  1.0000
  C   C2903     1.0  0.59139  0.99687  0.36252  1.0000
  H   H5161     1.0  0.62772  0.03135  0.39055  1.0000
  H   H5162     1.0  0.65623  0.01741  0.39676  1.0000
  C   C2904     1.0  0.91814  0.20370  0.46617  1.0000
  C   C2905     1.0  0.94373  0.20080  0.46797  1.0000
  C   C2906     1.0  0.61690  0.99451  0.35025  1.0000
  H   H5163     1.0  0.91095  0.19963  0.46218  1.0000
  H   H5164     1.0  0.95365  0.08588  0.47828  1.0000
  H   H5165     1.0  0.59588  0.99523  0.32795  1.0000
  C   C2907     1.0  0.60595  0.99562  0.36265  1.0000
  H   H5166     1.0  0.79481  0.17253  0.47489  1.0000
  H   H5167     1.0  0.68583  0.00118  0.40645  1.0000
  C   C2908     1.0  0.84648  0.05216  0.46847  1.0000
  C   C2909     1.0  0.73165  0.07396  0.46518  1.0000
  C   C2910     1.0  0.94092  0.04361  0.46052  1.0000
  H   H5168     1.0  0.73823  0.08645  0.47599  1.0000
  H   H5169     1.0  0.93499  0.05480  0.48452  1.0000
  H   H5170     1.0  0.94850  0.17439  0.48516  1.0000
  H   H5171     1.0  0.51886  0.04467  0.26730  1.0000
  H   H5172     1.0  0.93003  0.04701  0.45780  1.0000
  H   H5173     1.0  0.69521  0.00434  0.44562  1.0000
  C   C2911     1.0  0.87324  0.10700  0.48099  1.0000
  H   H5174     1.0  0.59743  0.01990  0.25669  1.0000
  H   H5175     1.0  0.95754  0.05300  0.48721  1.0000
  C   C2912     1.0  0.86062  0.23802  0.41259  1.0000
  H   H5176     1.0  0.70750  0.99987  0.46592  1.0000
  C   C2913     1.0  0.74227  0.07596  0.47276  1.0000
  C   C2914     1.0  0.57686  0.99821  0.46373  1.0000
  H   H5177     1.0  0.60888  0.00642  0.27710  1.0000
  H   H5178     1.0  0.78898  0.12411  0.47097  1.0000
  H   H5179     1.0  0.85929  0.99503  0.43678  1.0000
  H   H5180     1.0  0.56976  0.02142  0.45817  1.0000
  H   H5181     1.0  0.74334  0.06728  0.48250  1.0000
  H   H5182     1.0  0.66906  0.99802  0.38416  1.0000
  C   C2915     1.0  0.59869  0.99549  0.33758  1.0000
  H   H5183     1.0  0.69118  0.04024  0.48125  1.0000
  H   H5184     1.0  0.88861  0.21115  0.47859  1.0000
  C   C2916     1.0  0.74604  0.01192  0.33717  1.0000
  H   H5185     1.0  0.57889  0.99829  0.47407  1.0000
  H   H5186     1.0  0.64330  0.99765  0.27407  1.0000
  Fe  Fe325     1.0  0.87172  0.18009  0.47996  1.0000
  C   C2917     1.0  0.69852  0.04216  0.48689  1.0000
  C   C2918     1.0  0.79580  0.13717  0.48089  1.0000
  H   H5187     1.0  0.94503  0.15114  0.48418  1.0000
  H   H5188     1.0  0.58710  0.99893  0.45545  1.0000
  H   H5189     1.0  0.62450  0.01461  0.26883  1.0000
  H   H5190     1.0  0.71789  0.03143  0.47452  1.0000
  H   H5191     1.0  0.90823  0.09742  0.48453  1.0000
  C   C2919     1.0  0.60655  0.02321  0.25853  1.0000
  S   S641      1.0  0.87457  0.15634  0.48446  1.0000
  C   C2920     1.0  0.91271  0.24063  0.36852  1.0000
  H   H5192     1.0  0.50604  0.06921  0.26980  1.0000
  H   H5193     1.0  0.88978  0.24175  0.37359  1.0000
  H   H5194     1.0  0.95507  0.23273  0.46260  1.0000
  H   H5195     1.0  0.61591  0.04261  0.47347  1.0000
  C   C2921     1.0  0.87241  0.24176  0.39882  1.0000
  H   H5196     1.0  0.66137  0.02940  0.47751  1.0000
  H   H5197     1.0  0.90115  0.24095  0.39549  1.0000
  H   H5198     1.0  0.73467  0.01103  0.33849  1.0000
  C   C2922     1.0  0.83844  0.99725  0.43211  1.0000
  H   H5199     1.0  0.82360  0.17002  0.48362  1.0000
  C   C2923     1.0  0.81349  0.17605  0.47991  1.0000
  H   H5200     1.0  0.91515  0.22959  0.37521  1.0000
  H   H5201     1.0  0.94029  0.12723  0.48417  1.0000
  H   H5202     1.0  0.60247  0.05048  0.48662  1.0000
  H   H5203     1.0  0.86571  0.23343  0.42202  1.0000
  H   H5204     1.0  0.66219  0.01048  0.48538  1.0000
  C   C2924     1.0  0.69224  0.99637  0.45565  1.0000
  H   H5205     1.0  0.50642  0.10343  0.24054  1.0000
  C   C2925     1.0  0.52434  0.03376  0.23822  1.0000
  C   C2926     1.0  0.91709  0.13067  0.48663  1.0000
  H   H5206     1.0  0.50358  0.04196  0.26254  1.0000
  C   C2927     1.0  0.75212  0.00087  0.34939  1.0000
  H   H5207     1.0  0.74624  0.00375  0.35981  1.0000
  H   H5208     1.0  0.82989  0.99611  0.46087  1.0000
  C   C2928     1.0  0.89556  0.99369  0.47389  1.0000
  H   H5209     1.0  0.65878  0.99539  0.24297  1.0000
  H   H5210     1.0  0.90068  0.99411  0.45126  1.0000
  H   H5211     1.0  0.76392  0.00036  0.34785  1.0000
  H   H5212     1.0  0.62259  0.99337  0.29187  1.0000
  H   H5213     1.0  0.61345  0.99434  0.25803  1.0000
  H   H5214     1.0  0.70491  0.99334  0.40034  1.0000
  H   H5215     1.0  0.59039  0.03397  0.48708  1.0000
  H   H5216     1.0  0.81932  0.13941  0.48724  1.0000
  H   H5217     1.0  0.91743  0.20697  0.48742  1.0000
  Fe  Fe326     1.0  0.79574  0.11566  0.55033  1.0000
  S   S642      1.0  0.81626  0.12290  0.54744  1.0000
  S   S643      1.0  0.77910  0.12694  0.53686  1.0000
  Fe  Fe327     1.0  0.80252  0.09030  0.57452  1.0000
  S   S644      1.0  0.82407  0.09503  0.57373  1.0000
  S   S645      1.0  0.79438  0.07054  0.58863  1.0000
  Fe  Fe328     1.0  0.81211  0.11822  0.57134  1.0000
  S   S646      1.0  0.81347  0.13433  0.58302  1.0000
  Fe  Fe329     1.0  0.82680  0.09956  0.54987  1.0000
  S   S647      1.0  0.84672  0.09513  0.53273  1.0000
  S   S648      1.0  0.79021  0.11309  0.57421  1.0000
  S   S649      1.0  0.80667  0.09264  0.55081  1.0000
  Fe  Fe330     1.0  0.87682  0.17253  0.58323  1.0000
  S   S650      1.0  0.88585  0.19082  0.56743  1.0000
  S   S651      1.0  0.85270  0.17238  0.59021  1.0000
  Fe  Fe331     1.0  0.90648  0.15657  0.58917  1.0000
  S   S652      1.0  0.91814  0.17305  0.57348  1.0000
  S   S653      1.0  0.91695  0.13807  0.60458  1.0000
  Fe  Fe332     1.0  0.89955  0.18925  0.58296  1.0000
  S   S654      1.0  0.90245  0.20945  0.58788  1.0000
  Fe  Fe333     1.0  0.90372  0.17330  0.55936  1.0000
  S   S655      1.0  0.91255  0.17165  0.53631  1.0000
  S   S656      1.0  0.88869  0.17262  0.59950  1.0000
  S   S657      1.0  0.89388  0.15518  0.57423  1.0000
  Fe  Fe334     1.0  0.95367  0.08249  0.55950  1.0000
  S   S658      1.0  0.94920  0.10301  0.54328  1.0000
  S   S659      1.0  0.94920  0.08091  0.58316  1.0000
  Fe  Fe335     1.0  0.96510  0.06435  0.53713  1.0000
  S   S660      1.0  0.96149  0.08331  0.51892  1.0000
  S   S661      1.0  0.97523  0.04179  0.53437  1.0000
  Fe  Fe336     1.0  0.97082  0.09413  0.53018  1.0000
  S   S662      1.0  0.98599  0.10904  0.51852  1.0000
  Fe  Fe337     1.0  0.94028  0.09030  0.53387  1.0000
  S   S663      1.0  0.97615  0.07457  0.54721  1.0000
  S   S664      1.0  0.94314  0.07033  0.55108  1.0000
  S   S665      1.0  0.88274  0.02822  0.50698  1.0000
  N   N162      1.0  0.98831  0.17970  0.62963  1.0000
  S   S666      1.0  0.91182  0.00787  0.51811  1.0000
  C   C2929     1.0  0.59355  0.02488  0.49589  1.0000
  S   S667      1.0  0.99607  0.21320  0.65229  1.0000
  Fe  Fe338     1.0  0.89622  0.02846  0.52149  1.0000
  S   S668      1.0  0.88498  0.03234  0.54342  1.0000
  S   S669      1.0  0.90981  0.04268  0.50468  1.0000
  C   C2930     1.0  0.83510  0.07306  0.50005  1.0000
  Fe  Fe339     1.0  0.56799  0.00819  0.65153  1.0000
  S   S670      1.0  0.57959  0.02555  0.64971  1.0000
  H   H5218     1.0  0.64710  0.99400  0.63249  1.0000
  Fe  Fe340     1.0  0.89766  0.04055  0.48966  1.0000
  H   H5219     1.0  0.78894  0.15463  0.51507  1.0000
  H   H5220     1.0  0.94077  0.11009  0.50762  1.0000
  S   S671      1.0  0.65711  0.01542  0.56640  1.0000
  Fe  Fe341     1.0  0.62450  0.04529  0.71249  1.0000
  S   S672      1.0  0.64609  0.04955  0.69855  1.0000
  Fe  Fe342     1.0  0.59735  0.03418  0.71808  1.0000
  S   S673      1.0  0.58167  0.02499  0.71270  1.0000
  S   S674      1.0  0.60165  0.05638  0.70985  1.0000
  S   S675      1.0  0.62050  0.02294  0.71884  1.0000
  Fe  Fe343     1.0  0.71258  0.02106  0.60270  1.0000
  S   S676      1.0  0.73247  0.02409  0.60749  1.0000
  H   H5221     1.0  0.60580  0.01808  0.54621  1.0000
  Fe  Fe344     1.0  0.69159  0.03664  0.62524  1.0000
  S   S677      1.0  0.70966  0.04129  0.63179  1.0000
  S   S678      1.0  0.66733  0.04109  0.63471  1.0000
  Fe  Fe345     1.0  0.71982  0.04659  0.60819  1.0000
  S   S679      1.0  0.72877  0.06666  0.59684  1.0000
  Fe  Fe346     1.0  0.72084  0.01847  0.63051  1.0000
  S   S680      1.0  0.70065  0.04400  0.60168  1.0000
  S   S681      1.0  0.70212  0.01348  0.62571  1.0000
  H   H5222     1.0  0.61326  0.02483  0.60161  1.0000
  H   H5223     1.0  0.83891  0.06576  0.49259  1.0000
  C   C2931     1.0  0.75578  0.06875  0.54994  1.0000
  H   H5224     1.0  0.98687  0.19885  0.61260  1.0000
  C   C2932     1.0  0.61146  0.03524  0.50991  1.0000
  S   S682      1.0  0.64148  0.00186  0.54231  1.0000
  Fe  Fe347     1.0  0.92446  0.02203  0.50012  1.0000
  H   H5225     1.0  0.83125  0.17190  0.62615  1.0000
  H   H5226     1.0  0.84595  0.04318  0.53639  1.0000
  C   C2933     1.0  0.89424  0.19795  0.63539  1.0000
  H   H5227     1.0  0.99710  0.13315  0.51711  1.0000
  H   H5228     1.0  0.92923  0.03899  0.54194  1.0000
  S   S683      1.0  0.94875  0.01828  0.49691  1.0000
  C   C2934     1.0  0.81082  0.13244  0.50996  1.0000
  C   C2935     1.0  0.65172  0.04686  0.68094  1.0000
  C   C2936     1.0  0.64192  0.04564  0.67376  1.0000
  C   C2937     1.0  0.64681  0.04384  0.65956  1.0000
  C   C2938     1.0  0.66155  0.04299  0.65260  1.0000
  C   C2939     1.0  0.67139  0.04385  0.65993  1.0000
  C   C2940     1.0  0.66645  0.04594  0.67400  1.0000
  H   H5229     1.0  0.63053  0.04638  0.67903  1.0000
  H   H5230     1.0  0.63915  0.04320  0.65393  1.0000
  H   H5231     1.0  0.68273  0.04322  0.65467  1.0000
  H   H5232     1.0  0.67405  0.04693  0.67951  1.0000
  H   H5233     1.0  0.60029  0.04220  0.51067  1.0000
  C   C2941     1.0  0.69722  0.99936  0.57548  1.0000
  C   C2942     1.0  0.60643  0.02743  0.53700  1.0000
  H   H5234     1.0  0.64136  0.01842  0.69303  1.0000
  C   C2943     1.0  0.67330  0.01319  0.57187  1.0000
  C   C2944     1.0  0.91903  0.03597  0.54885  1.0000
  H   H5235     1.0  0.92661  0.03321  0.58332  1.0000
  H   H5236     1.0  0.84048  0.21426  0.63750  1.0000
  C   C2945     1.0  0.68769  0.02242  0.58204  1.0000
  C   C2946     1.0  0.67503  0.02403  0.57728  1.0000
  H   H5237     1.0  0.95836  0.03379  0.56721  1.0000
  C   C2947     1.0  0.77268  0.10199  0.50769  1.0000
  H   H5238     1.0  0.80865  0.13670  0.51968  1.0000
  C   C2948     1.0  0.85504  0.21220  0.59494  1.0000
  H   H5239     1.0  0.92563  0.15648  0.49095  1.0000
  C   C2949     1.0  0.78153  0.07157  0.54700  1.0000
  H   H5240     1.0  0.72822  0.11943  0.55876  1.0000
  C   C2950     1.0  0.82670  0.04807  0.56248  1.0000
  H   H5241     1.0  0.77017  0.17382  0.52595  1.0000
  C   C2951     1.0  0.58058  0.02586  0.66698  1.0000
  C   C2952     1.0  0.57284  0.01763  0.67884  1.0000
  C   C2953     1.0  0.57337  0.01755  0.69267  1.0000
  C   C2954     1.0  0.58190  0.02549  0.69490  1.0000
  C   C2955     1.0  0.58997  0.03364  0.68308  1.0000
  C   C2956     1.0  0.58920  0.03393  0.66908  1.0000
  H   H5242     1.0  0.56633  0.01131  0.67740  1.0000
  H   H5243     1.0  0.72056  0.09562  0.50504  1.0000
  H   H5244     1.0  0.59657  0.03987  0.68473  1.0000
  H   H5245     1.0  0.59526  0.04034  0.65993  1.0000
  H   H5246     1.0  0.68886  0.03079  0.58628  1.0000
  N   N163      1.0  0.73748  0.07451  0.63493  1.0000
  H   H5247     1.0  0.99855  0.09013  0.54214  1.0000
  H   H5248     1.0  0.94026  0.01197  0.57146  1.0000
  C   C2957     1.0  0.95551  0.02503  0.50766  1.0000
  C   C2958     1.0  0.94738  0.03680  0.51368  1.0000
  C   C2959     1.0  0.95348  0.04224  0.52170  1.0000
  C   C2960     1.0  0.96743  0.03556  0.52413  1.0000
  C   C2961     1.0  0.97538  0.02366  0.51836  1.0000
  C   C2962     1.0  0.96954  0.01856  0.50996  1.0000
  H   H5249     1.0  0.93659  0.04194  0.51187  1.0000
  H   H5250     1.0  0.94739  0.05157  0.52601  1.0000
  H   H5251     1.0  0.98619  0.01848  0.52020  1.0000
  H   H5252     1.0  0.99510  0.15906  0.56313  1.0000
  H   H5253     1.0  0.85810  0.23291  0.58103  1.0000
  H   H5254     1.0  0.83134  0.06505  0.54445  1.0000
  H   H5255     1.0  0.89453  0.11420  0.51541  1.0000
  C   C2963     1.0  0.91444  0.21090  0.59774  1.0000
  C   C2964     1.0  0.92299  0.19883  0.60503  1.0000
  C   C2965     1.0  0.93206  0.20049  0.61297  1.0000
  C   C2966     1.0  0.93297  0.21421  0.61356  1.0000
  H   H5256     1.0  0.96203  0.19578  0.59254  1.0000
  C   C2967     1.0  0.91113  0.00923  0.58585  1.0000
  H   H5257     1.0  0.92244  0.18821  0.60473  1.0000
  C   C2968     1.0  0.79275  0.16257  0.50525  1.0000
  H   H5258     1.0  0.74022  0.05388  0.54267  1.0000
  C   C2969     1.0  0.99234  0.15294  0.64412  1.0000
  C   C2970     1.0  0.92507  0.12214  0.59857  1.0000
  C   C2971     1.0  0.93137  0.11005  0.60783  1.0000
  C   C2972     1.0  0.93851  0.09736  0.60307  1.0000
  C   C2973     1.0  0.93944  0.09670  0.58902  1.0000
  C   C2974     1.0  0.93287  0.10870  0.57986  1.0000
  C   C2975     1.0  0.92576  0.12146  0.58459  1.0000
  H   H5259     1.0  0.93085  0.11055  0.61866  1.0000
  H   H5260     1.0  0.94353  0.08810  0.61023  1.0000
  H   H5261     1.0  0.93325  0.10820  0.56915  1.0000
  H   H5262     1.0  0.92101  0.13082  0.57738  1.0000
  C   C2976     1.0  0.89934  0.17709  0.52587  1.0000
  C   C2977     1.0  0.90102  0.17016  0.51488  1.0000
  C   C2978     1.0  0.89073  0.17446  0.50629  1.0000
  C   C2979     1.0  0.87886  0.18596  0.50846  1.0000
  C   C2980     1.0  0.87727  0.19301  0.51931  1.0000
  C   C2981     1.0  0.88738  0.18848  0.52813  1.0000
  H   H5263     1.0  0.91016  0.16127  0.51321  1.0000
  H   H5264     1.0  0.89209  0.16893  0.49794  1.0000
  C   C2982     1.0  0.77644  0.06924  0.58972  1.0000
  C   C2983     1.0  0.77222  0.05609  0.59627  1.0000
  C   C2984     1.0  0.75777  0.05497  0.59804  1.0000
  C   C2985     1.0  0.74738  0.06708  0.59349  1.0000
  C   C2986     1.0  0.75166  0.08015  0.58672  1.0000
  C   C2987     1.0  0.76614  0.08123  0.58474  1.0000
  H   H5265     1.0  0.78013  0.04678  0.60015  1.0000
  H   H5266     1.0  0.75461  0.04483  0.60327  1.0000
  H   H5267     1.0  0.74368  0.08960  0.58327  1.0000
  H   H5268     1.0  0.76925  0.09141  0.57969  1.0000
  C   C2988     1.0  0.82552  0.14426  0.58409  1.0000
  C   C2989     1.0  0.81981  0.15395  0.59313  1.0000
  C   C2990     1.0  0.82839  0.16228  0.59474  1.0000
  C   C2991     1.0  0.84298  0.16108  0.58744  1.0000
  C   C2992     1.0  0.84891  0.15142  0.57824  1.0000
  C   C2993     1.0  0.84016  0.14303  0.57652  1.0000
  H   H5269     1.0  0.80857  0.15504  0.59901  1.0000
  H   H5270     1.0  0.82363  0.16970  0.60179  1.0000
  H   H5271     1.0  0.86011  0.15056  0.57235  1.0000
  H   H5272     1.0  0.84465  0.13570  0.56939  1.0000
  C   C2994     1.0  0.85737  0.07781  0.53626  1.0000
  C   C2995     1.0  0.86704  0.07245  0.52478  1.0000
  C   C2996     1.0  0.87519  0.05837  0.52704  1.0000
  C   C2997     1.0  0.87427  0.04979  0.54088  1.0000
  C   C2998     1.0  0.86477  0.05521  0.55249  1.0000
  C   C2999     1.0  0.85612  0.06920  0.55015  1.0000
  H   H5273     1.0  0.86786  0.07903  0.51402  1.0000
  H   H5274     1.0  0.88211  0.05421  0.51799  1.0000
  H   H5275     1.0  0.86394  0.04855  0.56321  1.0000
  H   H5276     1.0  0.84851  0.07329  0.55904  1.0000
  C   C3000     1.0  0.96514  0.23529  0.68024  1.0000
  C   C3001     1.0  0.76351  0.12021  0.52192  1.0000
  C   C3002     1.0  0.77686  0.11694  0.52587  1.0000
  C   C3003     1.0  0.78823  0.10624  0.52055  1.0000
  C   C3004     1.0  0.97151  0.19700  0.59576  1.0000
  H   H5277     1.0  0.75471  0.12850  0.52589  1.0000
  H   H5278     1.0  0.79865  0.10375  0.52336  1.0000
  H   H5279     1.0  0.66649  0.03362  0.57794  1.0000
  C   C3005     1.0  0.73091  0.09234  0.50878  1.0000
  N   N164      1.0  0.83670  0.16968  0.53222  1.0000
  C   C3006     1.0  0.84544  0.15852  0.52362  1.0000
  C   C3007     1.0  0.84645  0.17156  0.54057  1.0000
  C   C3008     1.0  0.82351  0.16507  0.54273  1.0000
  C   C3009     1.0  0.81229  0.16230  0.53617  1.0000
  C   C3010     1.0  0.85106  0.14320  0.53219  1.0000
  C   C3011     1.0  0.79899  0.15863  0.54771  1.0000
  C   C3012     1.0  0.85923  0.13308  0.52204  1.0000
  H   H5280     1.0  0.85514  0.16234  0.51612  1.0000
  H   H5281     1.0  0.83901  0.15709  0.51679  1.0000
  H   H5282     1.0  0.55324  0.07058  0.73671  1.0000
  H   H5283     1.0  0.85010  0.16138  0.54803  1.0000
  H   H5284     1.0  0.82680  0.15533  0.55094  1.0000
  H   H5285     1.0  0.81738  0.17344  0.54895  1.0000
  H   H5286     1.0  0.81723  0.15331  0.53058  1.0000
  H   H5287     1.0  0.80812  0.17208  0.52857  1.0000
  H   H5288     1.0  0.85884  0.14319  0.53838  1.0000
  H   H5289     1.0  0.84190  0.13859  0.53964  1.0000
  H   H5290     1.0  0.79272  0.16810  0.55232  1.0000
  H   H5291     1.0  0.79174  0.15539  0.54298  1.0000
  H   H5292     1.0  0.80229  0.14965  0.55653  1.0000
  H   H5293     1.0  0.86276  0.12207  0.52830  1.0000
  H   H5294     1.0  0.85212  0.13255  0.51538  1.0000
  H   H5295     1.0  0.86910  0.13674  0.51493  1.0000
  H   H5296     1.0  0.72032  0.09408  0.53036  1.0000
  H   H5297     1.0  0.87211  0.21782  0.57614  1.0000
  C   C3013     1.0  0.95837  0.06357  0.48811  1.0000
  H   H5298     1.0  0.82192  0.11171  0.52033  1.0000
  N   N165      1.0  0.66911  0.99995  0.70057  1.0000
  C   C3014     1.0  0.66381  0.01239  0.70792  1.0000
  H   H5299     1.0  0.59041  0.00290  0.50426  1.0000
  C   C3015     1.0  0.69200  0.00918  0.68406  1.0000
  H   H5300     1.0  0.66825  0.02277  0.73684  1.0000
  H   H5301     1.0  0.52774  0.00342  0.61122  1.0000
  H   H5302     1.0  0.84108  0.17980  0.50066  1.0000
  H   H5303     1.0  0.95736  0.22806  0.68460  1.0000
  C   C3016     1.0  0.70857  0.00583  0.68194  1.0000
  Fe  Fe348     1.0  0.59700  0.05683  0.73318  1.0000
  H   H5304     1.0  0.88777  0.01186  0.59505  1.0000
  H   H5305     1.0  0.92817  0.07080  0.49876  1.0000
  H   H5306     1.0  0.79072  0.06721  0.51037  1.0000
  H   H5307     1.0  0.78327  0.14255  0.50111  1.0000
  H   H5308     1.0  0.98892  0.09968  0.58566  1.0000
  H   H5309     1.0  0.66558  0.01370  0.68005  1.0000
  H   H5310     1.0  0.66589  0.02249  0.70025  1.0000
  C   C3017     1.0  0.61039  0.02059  0.49383  1.0000
  H   H5311     1.0  0.65178  0.01447  0.71174  1.0000
  H   H5312     1.0  0.98923  0.16050  0.62286  1.0000
  H   H5313     1.0  0.68957  0.01053  0.67347  1.0000
  H   H5314     1.0  0.68776  0.01955  0.68742  1.0000
  S   S684      1.0  0.54663  0.00527  0.66688  1.0000
  H   H5315     1.0  0.86506  0.18435  0.61999  1.0000
  C   C3018     1.0  0.82462  0.19923  0.49934  1.0000
  H   H5316     1.0  0.97316  0.16569  0.63570  1.0000
  H   H5317     1.0  0.63893  0.03260  0.49631  1.0000
  H   H5318     1.0  0.59558  0.03494  0.53794  1.0000
  H   H5319     1.0  0.78174  0.18663  0.51744  1.0000
  H   H5320     1.0  0.62791  0.01209  0.68013  1.0000
  H   H5321     1.0  0.81355  0.20376  0.50515  1.0000
  H   H5322     1.0  0.93809  0.15422  0.50207  1.0000
  H   H5323     1.0  0.71308  0.01426  0.67321  1.0000
  H   H5324     1.0  0.71166  0.00561  0.69189  1.0000
  C   C3019     1.0  0.91046  0.08583  0.48981  1.0000
  C   C3020     1.0  0.90777  0.06234  0.54030  1.0000
  C   C3021     1.0  0.90850  0.04974  0.55326  1.0000
  C   C3022     1.0  0.69887  0.01015  0.58102  1.0000
  H   H5325     1.0  0.78188  0.18339  0.49347  1.0000
  C   C3023     1.0  0.69968  0.09036  0.62413  1.0000
  H   H5326     1.0  0.73754  0.10457  0.54068  1.0000
  H   H5327     1.0  0.74581  0.10096  0.61501  1.0000
  H   H5328     1.0  0.68851  0.08850  0.62916  1.0000
  H   H5329     1.0  0.69927  0.10202  0.62218  1.0000
  H   H5330     1.0  0.70329  0.08700  0.61373  1.0000
  H   H5331     1.0  0.72727  0.03260  0.57847  1.0000
  H   H5332     1.0  0.71714  0.04083  0.56467  1.0000
  H   H5333     1.0  0.89728  0.04788  0.55779  1.0000
  H   H5334     1.0  0.81640  0.05888  0.49848  1.0000
  H   H5335     1.0  0.76059  0.02504  0.64393  1.0000
  H   H5336     1.0  0.62201  0.99469  0.63617  1.0000
  H   H5337     1.0  0.96919  0.20810  0.59738  1.0000
  H   H5338     1.0  0.74831  0.03080  0.63194  1.0000
  C   C3024     1.0  0.90952  0.02246  0.57320  1.0000
  H   H5339     1.0  0.96039  0.15558  0.54019  1.0000
  H   H5340     1.0  0.65112  0.03164  0.60676  1.0000
  H   H5341     1.0  0.73207  0.07241  0.67933  1.0000
  C   C3025     1.0  0.97233  0.23534  0.69194  1.0000
  S   S685      1.0  0.97879  0.22983  0.61864  1.0000
  H   H5342     1.0  0.89925  0.00106  0.60723  1.0000
  C   C3026     1.0  0.94956  0.03253  0.57706  1.0000
  H   H5343     1.0  0.93159  0.01650  0.53158  1.0000
  C   C3027     1.0  0.84558  0.23328  0.62167  1.0000
  H   H5344     1.0  0.97381  0.14268  0.65373  1.0000
  H   H5345     1.0  0.94177  0.15601  0.55007  1.0000
  C   C3028     1.0  0.78625  0.09901  0.51121  1.0000
  H   H5346     1.0  0.72460  0.09564  0.62750  1.0000
  H   H5347     1.0  0.82189  0.19049  0.52773  1.0000
  C   C3029     1.0  0.93058  0.11472  0.50425  1.0000
  H   H5348     1.0  0.61814  0.04180  0.51153  1.0000
  H   H5349     1.0  0.78966  0.04895  0.51980  1.0000
  H   H5350     1.0  0.72227  0.10453  0.57220  1.0000
  C   C3030     1.0  0.61543  0.01293  0.60476  1.0000
  H   H5351     1.0  0.97134  0.12310  0.58566  1.0000
  C   C3031     1.0  0.00053  0.14795  0.56178  1.0000
  H   H5352     1.0  0.71513  0.08360  0.67489  1.0000
  H   H5353     1.0  0.71558  0.06718  0.65987  1.0000
  H   H5354     1.0  0.74563  0.07485  0.65294  1.0000
  H   H5355     1.0  0.73058  0.07994  0.56659  1.0000
  H   H5356     1.0  0.79508  0.09086  0.50707  1.0000
  H   H5357     1.0  0.85585  0.07964  0.49225  1.0000
  H   H5358     1.0  0.77116  0.07486  0.52977  1.0000
  H   H5359     1.0  0.83983  0.19372  0.61312  1.0000
  H   H5360     1.0  0.63603  0.05460  0.61261  1.0000
  H   H5361     1.0  0.89713  0.02030  0.60256  1.0000
  H   H5362     1.0  0.93837  0.19102  0.61872  1.0000
  H   H5363     1.0  0.95033  0.15861  0.56720  1.0000
  H   H5364     1.0  0.85083  0.16737  0.62115  1.0000
  H   H5365     1.0  0.83007  0.99342  0.49873  1.0000
  C   C3032     1.0  0.63359  0.02544  0.49369  1.0000
  Fe  Fe349     1.0  0.95447  0.23278  0.62696  1.0000
  H   H5366     1.0  0.66019  0.00994  0.60249  1.0000
  H   H5367     1.0  0.97350  0.23142  0.67120  1.0000
  C   C3033     1.0  0.72202  0.07253  0.67617  1.0000
  C   C3034     1.0  0.55796  0.99707  0.73358  1.0000
  C   C3035     1.0  0.70997  0.08157  0.63404  1.0000
  C   C3036     1.0  0.68548  0.99685  0.69521  1.0000
  H   H5368     1.0  0.98685  0.22793  0.71217  1.0000
  H   H5369     1.0  0.73813  0.05838  0.62394  1.0000
  C   C3037     1.0  0.95272  0.14809  0.57475  1.0000
  H   H5370     1.0  0.71581  0.06534  0.68491  1.0000
  H   H5371     1.0  0.77255  0.09255  0.60651  1.0000
  C   C3038     1.0  0.93506  0.03411  0.57321  1.0000
  H   H5372     1.0  0.75464  0.07532  0.61566  1.0000
  H   H5373     1.0  0.83231  0.17806  0.56008  1.0000
  N   N166      1.0  0.96362  0.13716  0.56693  1.0000
  H   H5374     1.0  0.91483  0.00825  0.55350  1.0000
  H   H5375     1.0  0.93927  0.13960  0.53667  1.0000
  C   C3039     1.0  0.95694  0.13536  0.55576  1.0000
  C   C3040     1.0  0.72558  0.08421  0.62756  1.0000
  H   H5376     1.0  0.61466  0.03282  0.53765  1.0000
  C   C3041     1.0  0.98971  0.13810  0.56806  1.0000
  C   C3042     1.0  0.96448  0.19285  0.66439  1.0000
  H   H5377     1.0  0.98668  0.13549  0.63905  1.0000
  H   H5378     1.0  0.74129  0.03056  0.65084  1.0000
  H   H5379     1.0  0.90850  0.23406  0.59304  1.0000
  C   C3043     1.0  0.89799  0.01076  0.59842  1.0000
  H   H5380     1.0  0.93261  0.04494  0.56639  1.0000
  H   H5381     1.0  0.90671  0.03214  0.57772  1.0000
  C   C3044     1.0  0.75044  0.03271  0.64154  1.0000
  C   C3045     1.0  0.82397  0.11986  0.51021  1.0000
  H   H5382     1.0  0.72871  0.05520  0.64184  1.0000
  C   C3046     1.0  0.61331  0.00044  0.66165  1.0000
  H   H5383     1.0  0.93029  0.08871  0.49306  1.0000
  H   H5384     1.0  0.75436  0.04964  0.64854  1.0000
  C   C3047     1.0  0.97373  0.18607  0.60965  1.0000
  C   C3048     1.0  0.76792  0.07684  0.54076  1.0000
  H   H5385     1.0  0.78581  0.05985  0.54773  1.0000
  C   C3049     1.0  0.75214  0.04812  0.63883  1.0000
  H   H5386     1.0  0.96766  0.10637  0.56591  1.0000
  H   H5387     1.0  0.77906  0.07383  0.55781  1.0000
  C   C3050     1.0  0.94816  0.14560  0.53253  1.0000
  H   H5388     1.0  0.84178  0.16862  0.63940  1.0000
  H   H5389     1.0  0.83074  0.07315  0.52204  1.0000
  H   H5390     1.0  0.56709  0.01125  0.70165  1.0000
  H   H5391     1.0  0.53272  0.05683  0.72895  1.0000
  N   N167      1.0  0.61741  0.03159  0.49536  1.0000
  H   H5392     1.0  0.80146  0.12819  0.51044  1.0000
  H   H5393     1.0  0.73216  0.05602  0.66435  1.0000
  H   H5394     1.0  0.98400  0.11290  0.56179  1.0000
  C   C3051     1.0  0.97756  0.14234  0.55946  1.0000
  H   H5395     1.0  0.85562  0.20143  0.59332  1.0000
  C   C3052     1.0  0.90451  0.11715  0.50867  1.0000
  H   H5396     1.0  0.95965  0.14164  0.59532  1.0000
  C   C3053     1.0  0.66241  0.00392  0.68769  1.0000
  H   H5397     1.0  0.56541  0.05664  0.71788  1.0000
  H   H5398     1.0  0.61640  0.02115  0.64882  1.0000
  H   H5399     1.0  0.76041  0.05739  0.54890  1.0000
  H   H5400     1.0  0.83207  0.20632  0.49812  1.0000
  H   H5401     1.0  0.89969  0.02279  0.56947  1.0000
  H   H5402     1.0  0.98134  0.19536  0.58701  1.0000
  H   H5403     1.0  0.64165  0.99620  0.67702  1.0000
  H   H5404     1.0  0.94655  0.01213  0.54020  1.0000
  H   H5405     1.0  0.94886  0.16448  0.60288  1.0000
  H   H5406     1.0  0.93514  0.15837  0.59891  1.0000
  C   C3054     1.0  0.74239  0.08031  0.53032  1.0000
  H   H5407     1.0  0.76683  0.00985  0.61128  1.0000
  H   H5408     1.0  0.90034  0.07269  0.50943  1.0000
  C   C3055     1.0  0.53851  0.00383  0.60375  1.0000
  C   C3056     1.0  0.62965  0.02758  0.61876  1.0000
  C   C3057     1.0  0.63972  0.03487  0.60536  1.0000
  C   C3058     1.0  0.84151  0.18932  0.62415  1.0000
  H   H5409     1.0  0.71346  0.99528  0.67896  1.0000
  H   H5410     1.0  0.71398  0.11235  0.55687  1.0000
  H   H5411     1.0  0.91385  0.03341  0.54156  1.0000
  C   C3059     1.0  0.63528  0.05121  0.60317  1.0000
  H   H5412     1.0  0.83816  0.04334  0.56348  1.0000
  C   C3060     1.0  0.73249  0.05262  0.56559  1.0000
  C   C3061     1.0  0.73590  0.09909  0.55216  1.0000
  H   H5413     1.0  0.85925  0.17769  0.55831  1.0000
  H   H5414     1.0  0.97530  0.17523  0.60769  1.0000
  H   H5415     1.0  0.72263  0.07678  0.52650  1.0000
  Fe  Fe350     1.0  0.54213  0.99834  0.64933  1.0000
  S   S686      1.0  0.56221  0.00363  0.63324  1.0000
  H   H5416     1.0  0.61809  0.03265  0.61822  1.0000
  H   H5417     1.0  0.63119  0.03076  0.62799  1.0000
  H   H5418     1.0  0.82177  0.05585  0.56956  1.0000
  H   H5419     1.0  0.97760  0.22402  0.69604  1.0000
  H   H5420     1.0  0.85320  0.23498  0.62708  1.0000
  H   H5421     1.0  0.94858  0.04101  0.58274  1.0000
  C   C3062     1.0  0.00137  0.05819  0.50640  1.0000
  H   H5422     1.0  0.60266  0.01638  0.52325  1.0000
  C   C3063     1.0  0.63039  0.00666  0.60908  1.0000
  H   H5423     1.0  0.71978  0.08715  0.55376  1.0000
  H   H5424     1.0  0.53694  0.07904  0.73081  1.0000
  C   C3064     1.0  0.94530  0.16243  0.59415  1.0000
  C   C3065     1.0  0.61508  0.00754  0.59198  1.0000
  H   H5425     1.0  0.60980  0.01168  0.63307  1.0000
  H   H5426     1.0  0.64277  0.05614  0.59358  1.0000
  H   H5427     1.0  0.62398  0.05521  0.60148  1.0000
  H   H5428     1.0  0.99118  0.13126  0.65630  1.0000
  H   H5429     1.0  0.82561  0.11470  0.50122  1.0000
  H   H5430     1.0  0.65053  0.01126  0.62983  1.0000
  C   C3066     1.0  0.73121  0.08474  0.55499  1.0000
  C   C3067     1.0  0.97731  0.18877  0.63945  1.0000
  C   C3068     1.0  0.77925  0.17489  0.50311  1.0000
  H   H5431     1.0  0.87470  0.20227  0.60220  1.0000
  Fe  Fe351     1.0  0.65476  0.99707  0.55876  1.0000
  C   C3069     1.0  0.97481  0.10989  0.57052  1.0000
  H   H5432     1.0  0.98278  0.13824  0.54949  1.0000
  H   H5433     1.0  0.84036  0.19081  0.52000  1.0000
  H   H5434     1.0  0.98643  0.08782  0.57625  1.0000
  H   H5435     1.0  0.77512  0.09063  0.62426  1.0000
  H   H5436     1.0  0.80079  0.16671  0.50804  1.0000
  H   H5437     1.0  0.96485  0.12782  0.54930  1.0000
  C   C3070     1.0  0.55427  0.05778  0.71642  1.0000
  C   C3071     1.0  0.79508  0.05574  0.50997  1.0000
  H   H5438     1.0  0.95537  0.12022  0.58358  1.0000
  H   H5439     1.0  0.88613  0.19406  0.53640  1.0000
  H   H5440     1.0  0.64523  0.01390  0.66815  1.0000
  H   H5441     1.0  0.76084  0.07213  0.63156  1.0000
  H   H5442     1.0  0.74277  0.04978  0.56935  1.0000
  H   H5443     1.0  0.97502  0.15424  0.55566  1.0000
  H   H5444     1.0  0.95223  0.06549  0.49883  1.0000
  H   H5445     1.0  0.83569  0.21679  0.62110  1.0000
  H   H5446     1.0  0.75085  0.11502  0.51040  1.0000
  H   H5447     1.0  0.94737  0.13037  0.56098  1.0000
  H   H5448     1.0  0.89985  0.07193  0.54357  1.0000
  C   C3072     1.0  0.98087  0.09703  0.58147  1.0000
  H   H5449     1.0  0.54056  0.00959  0.72277  1.0000
  H   H5450     1.0  0.72986  0.08827  0.65013  1.0000
  C   C3073     1.0  0.76134  0.11260  0.51311  1.0000
  H   H5451     1.0  0.79247  0.05398  0.50056  1.0000
  H   H5452     1.0  0.94438  0.15569  0.52497  1.0000
  H   H5453     1.0  0.97991  0.19945  0.63741  1.0000
  H   H5454     1.0  0.62152  0.05961  0.49245  1.0000
  C   C3074     1.0  0.68438  0.00080  0.57106  1.0000
  H   H5455     1.0  0.77037  0.17068  0.50197  1.0000
  C   C3075     1.0  0.95184  0.14921  0.54483  1.0000
  S   S687      1.0  0.86585  0.19169  0.49780  1.0000
  H   H5456     1.0  0.72269  0.06478  0.54813  1.0000
  H   H5457     1.0  0.70556  0.08503  0.64436  1.0000
  H   H5458     1.0  0.60991  0.00284  0.71042  1.0000
  S   S688      1.0  0.73346  0.00443  0.64699  1.0000
  C   C3076     1.0  0.84457  0.21727  0.62567  1.0000
  H   H5459     1.0  0.99292  0.06354  0.51447  1.0000
  N   N168      1.0  0.83167  0.05121  0.52139  1.0000
  C   C3077     1.0  0.84122  0.04041  0.51270  1.0000
  C   C3078     1.0  0.83407  0.04570  0.53651  1.0000
  C   C3079     1.0  0.81564  0.05350  0.52183  1.0000
  C   C3080     1.0  0.81159  0.05190  0.50846  1.0000
  C   C3081     1.0  0.83966  0.02461  0.51913  1.0000
  C   C3082     1.0  0.93614  0.02272  0.56495  1.0000
  C   C3083     1.0  0.84602  0.01542  0.50792  1.0000
  H   H5460     1.0  0.85660  0.17442  0.53309  1.0000
  H   H5461     1.0  0.83948  0.04344  0.50165  1.0000
  H   H5462     1.0  0.83040  0.03544  0.54154  1.0000
  H   H5463     1.0  0.81055  0.04578  0.53106  1.0000
  H   H5464     1.0  0.60636  0.00963  0.61356  1.0000
  H   H5465     1.0  0.81546  0.04065  0.50710  1.0000
  H   H5466     1.0  0.60234  0.00095  0.66021  1.0000
  H   H5467     1.0  0.84571  0.01977  0.52786  1.0000
  H   H5468     1.0  0.82807  0.02400  0.52368  1.0000
  H   H5469     1.0  0.90423  0.18922  0.63478  1.0000
  N   N169      1.0  0.92246  0.02293  0.56066  1.0000
  H   H5470     1.0  0.64071  0.99983  0.70035  1.0000
  H   H5471     1.0  0.73618  0.03183  0.56025  1.0000
  H   H5472     1.0  0.83971  0.01925  0.49939  1.0000
  H   H5473     1.0  0.85764  0.01582  0.50304  1.0000
  H   H5474     1.0  0.66740  0.03367  0.71912  1.0000
  H   H5475     1.0  0.89415  0.13105  0.49190  1.0000
  C   C3084     1.0  0.67466  0.99713  0.61607  1.0000
  C   C3085     1.0  0.86490  0.21057  0.60527  1.0000
  H   H5476     1.0  0.54610  0.00509  0.60951  1.0000
  H   H5477     1.0  0.76181  0.04942  0.62989  1.0000
  H   H5478     1.0  0.88981  0.09064  0.50489  1.0000
  C   C3086     1.0  0.72801  0.08573  0.52485  1.0000
  C   C3087     1.0  0.62108  0.00646  0.63452  1.0000
  C   C3088     1.0  0.73839  0.05913  0.63477  1.0000
  H   H5479     1.0  0.84930  0.23695  0.60992  1.0000
  C   C3089     1.0  0.00184  0.10021  0.53953  1.0000
  H   H5480     1.0  0.72387  0.05885  0.57283  1.0000
  H   H5481     1.0  0.65187  0.02652  0.73039  1.0000
  N   N170      1.0  0.85849  0.20673  0.62115  1.0000
  H   H5482     1.0  0.00221  0.20169  0.62783  1.0000
  H   H5483     1.0  0.67664  0.00662  0.61840  1.0000
  C   C3090     1.0  0.65997  0.00088  0.61191  1.0000
  H   H5484     1.0  0.70961  0.07019  0.63574  1.0000
  C   C3091     1.0  0.54339  0.05660  0.73088  1.0000
  H   H5485     1.0  0.83397  0.12343  0.50947  1.0000
  H   H5486     1.0  0.61647  0.99566  0.59482  1.0000
  C   C3092     1.0  0.77338  0.18188  0.51603  1.0000
  H   H5487     1.0  0.82404  0.19899  0.48847  1.0000
  H   H5488     1.0  0.68354  0.99391  0.60707  1.0000
  C   C3093     1.0  0.72587  0.06731  0.66228  1.0000
  H   H5489     1.0  0.84584  0.19324  0.56303  1.0000
  H   H5490     1.0  0.75482  0.06857  0.56139  1.0000
  Fe  Fe352     1.0  0.98011  0.23020  0.64059  1.0000
  C   C3094     1.0  0.81340  0.14444  0.49640  1.0000
  H   H5491     1.0  0.89751  0.20834  0.62994  1.0000
  C   C3095     1.0  0.93647  0.15793  0.49093  1.0000
  C   C3096     1.0  0.90424  0.12684  0.49541  1.0000
  H   H5492     1.0  0.85676  0.19437  0.54516  1.0000
  C   C3097     1.0  0.75176  0.07838  0.62617  1.0000
  C   C3098     1.0  0.85108  0.18723  0.55439  1.0000
  C   C3099     1.0  0.95771  0.23783  0.58189  1.0000
  C   C3100     1.0  0.73503  0.07680  0.64987  1.0000
  H   H5493     1.0  0.91172  0.99926  0.58258  1.0000
  H   H5494     1.0  0.96356  0.18786  0.61789  1.0000
  H   H5495     1.0  0.86914  0.22053  0.60252  1.0000
  C   C3101     1.0  0.91512  0.22462  0.59855  1.0000
  H   H5496     1.0  0.60441  0.01235  0.58893  1.0000
  H   H5497     1.0  0.92915  0.99982  0.56284  1.0000
  H   H5498     1.0  0.00155  0.06539  0.49561  1.0000
  H   H5499     1.0  0.58217  0.00009  0.58433  1.0000
  H   H5500     1.0  0.82658  0.23992  0.63804  1.0000
  H   H5501     1.0  0.88918  0.19797  0.64685  1.0000
  H   H5502     1.0  0.55146  0.02017  0.72524  1.0000
  H   H5503     1.0  0.73871  0.08444  0.50273  1.0000
  H   H5504     1.0  0.98561  0.17940  0.65926  1.0000
  H   H5505     1.0  0.86439  0.20690  0.64049  1.0000
  C   C3102     1.0  0.84400  0.08467  0.49405  1.0000
  N   N171      1.0  0.79994  0.15526  0.49292  1.0000
  H   H5506     1.0  0.89075  0.21388  0.49491  1.0000
  H   H5507     1.0  0.75196  0.99337  0.61266  1.0000
  C   C3103     1.0  0.54635  0.01076  0.73033  1.0000
  H   H5508     1.0  0.99591  0.23809  0.72615  1.0000
  H   H5509     1.0  0.92104  0.00795  0.58977  1.0000
  C   C3104     1.0  0.64724  0.00447  0.62462  1.0000
  H   H5510     1.0  0.97825  0.05367  0.49556  1.0000
  C   C3105     1.0  0.90101  0.08409  0.50499  1.0000
  H   H5511     1.0  0.97191  0.09375  0.59048  1.0000
  H   H5512     1.0  0.85431  0.22098  0.57252  1.0000
  H   H5513     1.0  0.97051  0.17262  0.65851  1.0000
  C   C3106     1.0  0.85594  0.19161  0.62578  1.0000
  H   H5514     1.0  0.74780  0.08948  0.52678  1.0000
  H   H5515     1.0  0.92467  0.23691  0.60685  1.0000
  C   C3107     1.0  0.94088  0.99401  0.53747  1.0000
  H   H5516     1.0  0.76361  0.19056  0.51438  1.0000
  H   H5517     1.0  0.92951  0.17991  0.49294  1.0000
  C   C3108     1.0  0.99576  0.23358  0.70595  1.0000
  C   C3109     1.0  0.83678  0.06513  0.51541  1.0000
  H   H5518     1.0  0.85288  0.04045  0.51123  1.0000
  H   H5519     1.0  0.84351  0.21719  0.59883  1.0000
  H   H5520     1.0  0.94299  0.17279  0.58634  1.0000
  H   H5521     1.0  0.57542  0.01563  0.49742  1.0000
  H   H5522     1.0  0.74821  0.09868  0.63289  1.0000
  H   H5523     1.0  0.69109  0.99374  0.70419  1.0000
  S   S689      1.0  0.95612  0.23169  0.64938  1.0000
  C   C3110     1.0  0.78924  0.14813  0.49070  1.0000
  H   H5524     1.0  0.63873  0.00939  0.59919  1.0000
  C   C3111     1.0  0.92431  0.22628  0.60638  1.0000
  C   C3112     1.0  0.82608  0.05584  0.54701  1.0000
  H   H5525     1.0  0.88135  0.18468  0.63352  1.0000
  H   H5526     1.0  0.83281  0.19271  0.54467  1.0000
  H   H5527     1.0  0.86827  0.20210  0.52080  1.0000
  C   C3113     1.0  0.98712  0.18720  0.61440  1.0000
  H   H5528     1.0  0.72850  0.08357  0.61608  1.0000
  H   H5529     1.0  0.79008  0.07732  0.54000  1.0000
  H   H5530     1.0  0.96693  0.15634  0.58245  1.0000
  H   H5531     1.0  0.66625  0.00175  0.72983  1.0000
  H   H5532     1.0  0.94215  0.14462  0.57934  1.0000
  H   H5533     1.0  0.55457  0.04908  0.71133  1.0000
  H   H5534     1.0  0.78328  0.00298  0.61800  1.0000
  H   H5535     1.0  0.74610  0.09714  0.55584  1.0000
  C   C3114     1.0  0.76800  0.09649  0.61659  1.0000
  C   C3115     1.0  0.63981  0.00737  0.67821  1.0000
  H   H5536     1.0  0.56526  0.99512  0.72336  1.0000
  C   C3116     1.0  0.95728  0.15145  0.58690  1.0000
  C   C3117     1.0  0.83221  0.18409  0.52234  1.0000
  H   H5537     1.0  0.84845  0.06317  0.51574  1.0000
  H   H5538     1.0  0.76811  0.10809  0.61405  1.0000
  S   S690      1.0  0.91792  0.09839  0.52935  1.0000
  C   C3118     1.0  0.83949  0.18280  0.55008  1.0000
  C   C3119     1.0  0.91768  0.11105  0.51308  1.0000
  C   C3120     1.0  0.75239  0.09443  0.62299  1.0000
  H   H5539     1.0  0.98548  0.13848  0.57948  1.0000
  H   H5540     1.0  0.95789  0.13906  0.52656  1.0000
  H   H5541     1.0  0.69925  0.03343  0.49666  1.0000
  S   S691      1.0  0.76899  0.09163  0.49799  1.0000
  N   N172      1.0  0.89054  0.10598  0.57559  1.0000
  C   C3121     1.0  0.87959  0.11522  0.58528  1.0000
  C   C3122     1.0  0.88280  0.09951  0.56863  1.0000
  C   C3123     1.0  0.89932  0.09384  0.58483  1.0000
  C   C3124     1.0  0.90093  0.11430  0.56437  1.0000
  C   C3125     1.0  0.89432  0.12672  0.55308  1.0000
  C   C3126     1.0  0.88566  0.12029  0.59537  1.0000
  C   C3127     1.0  0.91053  0.08228  0.57726  1.0000
  C   C3128     1.0  0.86788  0.10855  0.56535  1.0000
  C   C3129     1.0  0.86245  0.10166  0.55659  1.0000
  C   C3130     1.0  0.90589  0.13476  0.54312  1.0000
  C   C3131     1.0  0.87397  0.13109  0.60309  1.0000
  C   C3132     1.0  0.91605  0.06912  0.58826  1.0000
  H   H5542     1.0  0.87124  0.10917  0.59241  1.0000
  H   H5543     1.0  0.87349  0.12492  0.57899  1.0000
  H   H5544     1.0  0.89004  0.09679  0.55846  1.0000
  H   H5545     1.0  0.88041  0.08911  0.57560  1.0000
  H   H5546     1.0  0.89180  0.08834  0.59404  1.0000
  H   H5547     1.0  0.90589  0.09802  0.58954  1.0000
  H   H5548     1.0  0.90687  0.11868  0.56947  1.0000
  H   H5549     1.0  0.90949  0.10705  0.55807  1.0000
  H   H5550     1.0  0.88537  0.13463  0.55812  1.0000
  H   H5551     1.0  0.89025  0.12239  0.54621  1.0000
  H   H5552     1.0  0.88940  0.11107  0.60382  1.0000
  H   H5553     1.0  0.89492  0.12541  0.58942  1.0000
  H   H5554     1.0  0.92012  0.08670  0.57057  1.0000
  H   H5555     1.0  0.90597  0.07860  0.57029  1.0000
  H   H5556     1.0  0.85949  0.10915  0.57547  1.0000
  H   H5557     1.0  0.86842  0.11967  0.55938  1.0000
  H   H5558     1.0  0.87038  0.10068  0.54627  1.0000
  H   H5559     1.0  0.86074  0.09082  0.56267  1.0000
  H   H5560     1.0  0.85188  0.10840  0.55425  1.0000
  H   H5561     1.0  0.90090  0.14346  0.53503  1.0000
  H   H5562     1.0  0.91035  0.13964  0.54921  1.0000
  H   H5563     1.0  0.91496  0.12741  0.53737  1.0000
  H   H5564     1.0  0.86444  0.12639  0.60939  1.0000
  H   H5565     1.0  0.87856  0.13416  0.61050  1.0000
  H   H5566     1.0  0.87029  0.14097  0.59530  1.0000
  H   H5567     1.0  0.92020  0.07232  0.59591  1.0000
  H   H5568     1.0  0.90719  0.06336  0.59428  1.0000
  H   H5569     1.0  0.92516  0.06170  0.58271  1.0000
  C   C3133     1.0  0.00097  0.12447  0.52547  1.0000
  H   H5570     1.0  0.95394  0.19663  0.66095  1.0000
  Fe  Fe353     1.0  0.89948  0.00873  0.50199  1.0000
  H   H5571     1.0  0.81446  0.06008  0.54652  1.0000
  C   C3134     1.0  0.88369  0.19544  0.62808  1.0000
  H   H5572     1.0  0.97587  0.00947  0.50535  1.0000
  H   H5573     1.0  0.87089  0.09813  0.49037  1.0000
  S   S692      1.0  0.94501  0.21550  0.62350  1.0000
  C   C3135     1.0  0.58748  0.01239  0.49568  1.0000
  H   H5574     1.0  0.96632  0.19131  0.63713  1.0000
  H   H5575     1.0  0.85598  0.18730  0.63738  1.0000
  H   H5576     1.0  0.74971  0.07217  0.52422  1.0000
  C   C3136     1.0  0.73398  0.06138  0.54989  1.0000
  C   C3137     1.0  0.83040  0.18403  0.50735  1.0000
  H   H5577     1.0  0.80978  0.06436  0.52379  1.0000
  H   H5578     1.0  0.91169  0.05309  0.56137  1.0000
  N   N173      1.0  0.63226  0.01146  0.62143  1.0000
  C   C3138     1.0  0.77224  0.00126  0.61919  1.0000
  H   H5579     1.0  0.99696  0.18283  0.60668  1.0000
  H   H5580     1.0  0.94513  0.02436  0.55533  1.0000
  C   C3139     1.0  0.98555  0.13982  0.64853  1.0000
  C   C3140     1.0  0.72799  0.03866  0.56723  1.0000
  C   C3141     1.0  0.84138  0.17332  0.62797  1.0000
  H   H5581     1.0  0.96173  0.23738  0.59140  1.0000
  H   H5582     1.0  0.91861  0.06511  0.53557  1.0000
  H   H5583     1.0  0.96238  0.18754  0.67595  1.0000
  C   C3142     1.0  0.92521  0.00960  0.55498  1.0000
  H   H5584     1.0  0.62149  0.01465  0.52272  1.0000
  H   H5585     1.0  0.82348  0.07835  0.50016  1.0000
  H   H5586     1.0  0.66662  0.99516  0.68166  1.0000
  C   C3143     1.0  0.66397  0.02426  0.72721  1.0000
  S   S693      1.0  0.71500  0.00818  0.58650  1.0000
  S   S694      1.0  0.52059  0.00468  0.64281  1.0000
  H   H5587     1.0  0.84546  0.00406  0.51304  1.0000
  C   C3144     1.0  0.93644  0.00907  0.54048  1.0000
  H   H5588     1.0  0.94746  0.23390  0.58566  1.0000
  C   C3145     1.0  0.72435  0.10945  0.56054  1.0000
  H   H5589     1.0  0.88943  0.19517  0.61686  1.0000
  H   H5590     1.0  0.99142  0.15652  0.65392  1.0000
  H   H5591     1.0  0.90410  0.05954  0.53209  1.0000
  H   H5592     1.0  0.51274  0.04720  0.64691  1.0000
  H   H5593     1.0  0.61182  0.00436  0.67144  1.0000
  H   H5594     1.0  0.90551  0.08757  0.51214  1.0000
  H   H5595     1.0  0.83204  0.19451  0.63157  1.0000
  H   H5596     1.0  0.55110  0.06828  0.70911  1.0000
  C   C3146     1.0  0.61081  0.02232  0.52299  1.0000
  H   H5597     1.0  0.96912  0.20223  0.66307  1.0000
  H   H5598     1.0  0.53709  0.01338  0.59482  1.0000
  C   C3147     1.0  0.86946  0.20738  0.62890  1.0000
  H   H5599     1.0  0.95263  0.02186  0.58416  1.0000
  C   C3148     1.0  0.99683  0.11136  0.52869  1.0000
  H   H5600     1.0  0.73547  0.10200  0.50639  1.0000
  H   H5601     1.0  0.63578  0.01505  0.50153  1.0000
  H   H5602     1.0  0.82047  0.03944  0.56617  1.0000
  C   C3149     1.0  0.86023  0.22154  0.58027  1.0000
  H   H5603     1.0  0.82288  0.17726  0.50807  1.0000
  C   C3150     1.0  0.62160  0.00968  0.64871  1.0000
  H   H5604     1.0  0.63931  0.03209  0.59549  1.0000
  H   H5605     1.0  0.76436  0.08857  0.53990  1.0000
  H   H5606     1.0  0.68190  0.00876  0.71851  1.0000
  C   C3151     1.0  0.96601  0.12283  0.57737  1.0000
  C   C3152     1.0  0.98517  0.16492  0.63271  1.0000
  H   H5607     1.0  0.99280  0.23943  0.67823  1.0000
  N   N174      1.0  0.74092  0.07412  0.54621  1.0000
  C   C3153     1.0  0.93029  0.12446  0.49101  1.0000
  H   H5608     1.0  0.62381  0.01063  0.58259  1.0000
  H   H5609     1.0  0.69376  0.05256  0.49023  1.0000
  H   H5610     1.0  0.82124  0.14968  0.49805  1.0000
  H   H5611     1.0  0.61333  0.01020  0.50137  1.0000
  C   C3154     1.0  0.66984  0.01069  0.72118  1.0000
  H   H5612     1.0  0.58818  0.02812  0.50621  1.0000
  H   H5613     1.0  0.87298  0.21779  0.62466  1.0000
  C   C3155     1.0  0.97520  0.18226  0.65574  1.0000
  H   H5614     1.0  0.76584  0.00213  0.63017  1.0000
  H   H5615     1.0  0.84146  0.09186  0.50157  1.0000
  H   H5616     1.0  0.63285  0.00768  0.65017  1.0000
  S   S695      1.0  0.62022  0.04773  0.73516  1.0000
  H   H5617     1.0  0.96363  0.23931  0.70071  1.0000
  H   H5618     1.0  0.59359  0.00135  0.73469  1.0000
  C   C3156     1.0  0.64550  0.00746  0.69092  1.0000
  H   H5619     1.0  0.99582  0.12690  0.56777  1.0000
  H   H5620     1.0  0.97583  0.07283  0.48868  1.0000
  C   C3157     1.0  0.92698  0.08046  0.48981  1.0000
  H   H5621     1.0  0.99843  0.04815  0.50651  1.0000
  H   H5622     1.0  0.63222  0.99472  0.61154  1.0000
  H   H5623     1.0  0.96581  0.23054  0.57533  1.0000
  H   H5624     1.0  0.58788  0.99330  0.71525  1.0000
  H   H5625     1.0  0.94793  0.99428  0.52654  1.0000
  H   H5626     1.0  0.68309  0.99236  0.56699  1.0000
  H   H5627     1.0  0.90882  0.19293  0.48779  1.0000
  Fe  Fe354     1.0  0.54035  0.12179  0.80299  1.0000
  S   S696      1.0  0.53744  0.12621  0.82457  1.0000
  H   H5628     1.0  0.61200  0.08052  0.76959  1.0000
  Fe  Fe355     1.0  0.57325  0.11187  0.79964  1.0000
  S   S697      1.0  0.57293  0.11539  0.82106  1.0000
  Fe  Fe356     1.0  0.55343  0.10542  0.82881  1.0000
  S   S698      1.0  0.54984  0.08936  0.84976  1.0000
  Fe  Fe357     1.0  0.55703  0.13599  0.81500  1.0000
  S   S699      1.0  0.55491  0.15738  0.82011  1.0000
  S   S700      1.0  0.55512  0.10016  0.80792  1.0000
  S   S701      1.0  0.55872  0.13339  0.79281  1.0000
  Fe  Fe358     1.0  0.57997  0.16934  0.88139  1.0000
  S   S702      1.0  0.56361  0.18708  0.89083  1.0000
  S   S703      1.0  0.59089  0.16830  0.85837  1.0000
  Fe  Fe359     1.0  0.58225  0.15010  0.91040  1.0000
  S   S704      1.0  0.56599  0.16577  0.92264  1.0000
  S   S705      1.0  0.59548  0.12883  0.91950  1.0000
  Fe  Fe360     1.0  0.55333  0.16926  0.90584  1.0000
  S   S706      1.0  0.52913  0.17042  0.91239  1.0000
  Fe  Fe361     1.0  0.57756  0.18239  0.90693  1.0000
  S   S707      1.0  0.58117  0.20158  0.91278  1.0000
  S   S708      1.0  0.56856  0.15197  0.89516  1.0000
  S   S709      1.0  0.59484  0.16631  0.89598  1.0000
  H   H5629     1.0  0.53494  0.08833  0.82914  1.0000
  S   S710      1.0  0.52895  0.08490  0.92816  1.0000
  Fe  Fe362     1.0  0.53405  0.07204  0.96707  1.0000
  S   S711      1.0  0.54290  0.05739  0.95163  1.0000
  Fe  Fe363     1.0  0.54964  0.07685  0.93597  1.0000
  S   S712      1.0  0.57181  0.07551  0.92134  1.0000
  H   H5630     1.0  0.55274  0.06707  0.76105  1.0000
  C   C3158     1.0  0.59288  0.20599  0.85545  1.0000
  S   S713      1.0  0.54247  0.09074  0.95189  1.0000
  H   H5631     1.0  0.57646  0.00845  0.76120  1.0000
  H   H5632     1.0  0.60762  0.02905  0.79963  1.0000
  S   S714      1.0  0.53576  0.03782  0.83533  1.0000
  H   H5633     1.0  0.61085  0.05070  0.80470  1.0000
  C   C3159     1.0  0.57171  0.06512  0.79456  1.0000
  C   C3160     1.0  0.60201  0.11786  0.87665  1.0000
  H   H5634     1.0  0.61257  0.18948  0.90077  1.0000
  C   C3161     1.0  0.53728  0.09262  0.75475  1.0000
  N   N175      1.0  0.58363  0.11377  0.86481  1.0000
  H   H5635     1.0  0.60224  0.21569  0.89240  1.0000
  Fe  Fe364     1.0  0.62464  0.23005  0.94939  1.0000
  H   H5636     1.0  0.58768  0.21511  0.84781  1.0000
  H   H5637     1.0  0.55486  0.07598  0.78268  1.0000
  S   S715      1.0  0.62500  0.20799  0.94638  1.0000
  H   H5638     1.0  0.59499  0.03965  0.78862  1.0000
  C   C3162     1.0  0.61721  0.04145  0.77976  1.0000
  H   H5639     1.0  0.51718  0.16701  0.83043  1.0000
  C   C3163     1.0  0.57778  0.03698  0.83792  1.0000
  H   H5640     1.0  0.56813  0.11490  0.85257  1.0000
  H   H5641     1.0  0.63731  0.16671  0.90978  1.0000
  H   H5642     1.0  0.58072  0.07294  0.88961  1.0000
  S   S716      1.0  0.54132  0.00263  0.86583  1.0000
  H   H5643     1.0  0.57402  0.07525  0.79492  1.0000
  H   H5644     1.0  0.59258  0.10678  0.95911  1.0000
  H   H5645     1.0  0.55388  0.11992  0.87830  1.0000
  H   H5646     1.0  0.63516  0.17888  0.97099  1.0000
  C   C3164     1.0  0.59421  0.07851  0.83211  1.0000
  H   H5647     1.0  0.65462  0.18944  0.83873  1.0000
  H   H5648     1.0  0.56166  0.09685  0.87128  1.0000
  C   C3165     1.0  0.53775  0.02647  0.92051  1.0000
  C   C3166     1.0  0.53072  0.03685  0.92872  1.0000
  H   H5649     1.0  0.54890  0.02085  0.92077  1.0000
  H   H5650     1.0  0.53645  0.03921  0.93529  1.0000
  C   C3167     1.0  0.59289  0.20272  0.92301  1.0000
  C   C3168     1.0  0.59285  0.21634  0.92460  1.0000
  C   C3169     1.0  0.60252  0.21805  0.93180  1.0000
  C   C3170     1.0  0.61239  0.20612  0.93756  1.0000
  C   C3171     1.0  0.61235  0.19243  0.93613  1.0000
  C   C3172     1.0  0.60261  0.19071  0.92897  1.0000
  H   H5651     1.0  0.58538  0.22569  0.92009  1.0000
  H   H5652     1.0  0.60241  0.22865  0.93276  1.0000
  C   C3173     1.0  0.60296  0.11887  0.84116  1.0000
  H   H5653     1.0  0.60273  0.18015  0.92791  1.0000
  C   C3174     1.0  0.58890  0.11454  0.91854  1.0000
  C   C3175     1.0  0.57410  0.11613  0.91913  1.0000
  C   C3176     1.0  0.56878  0.10420  0.91974  1.0000
  C   C3177     1.0  0.57835  0.09081  0.91930  1.0000
  C   C3178     1.0  0.59324  0.08942  0.91802  1.0000
  C   C3179     1.0  0.59846  0.10120  0.91794  1.0000
  H   H5654     1.0  0.56664  0.12638  0.91974  1.0000
  H   H5655     1.0  0.55725  0.10532  0.92070  1.0000
  H   H5656     1.0  0.60063  0.07906  0.91777  1.0000
  H   H5657     1.0  0.60989  0.09994  0.91751  1.0000
  H   H5658     1.0  0.63401  0.21907  0.88648  1.0000
  C   C3180     1.0  0.61302  0.21606  0.88487  1.0000
  H   H5659     1.0  0.50828  0.99638  0.81462  1.0000
  C   C3181     1.0  0.52157  0.16733  0.89978  1.0000
  C   C3182     1.0  0.52969  0.16647  0.88594  1.0000
  C   C3183     1.0  0.52311  0.16470  0.87591  1.0000
  H   H5660     1.0  0.59175  0.10164  0.84820  1.0000
  H   H5661     1.0  0.62317  0.99351  0.73901  1.0000
  H   H5662     1.0  0.54097  0.16728  0.88293  1.0000
  H   H5663     1.0  0.52945  0.16391  0.86530  1.0000
  C   C3184     1.0  0.59058  0.09418  0.77363  1.0000
  C   C3185     1.0  0.57695  0.09878  0.77006  1.0000
  C   C3186     1.0  0.57410  0.09308  0.76003  1.0000
  H   H5664     1.0  0.61133  0.11294  0.86896  1.0000
  H   H5665     1.0  0.56862  0.10679  0.77497  1.0000
  C   C3187     1.0  0.52686  0.17514  0.78416  1.0000
  C   C3188     1.0  0.56505  0.15923  0.83130  1.0000
  C   C3189     1.0  0.55778  0.16611  0.84266  1.0000
  C   C3190     1.0  0.56556  0.16838  0.85140  1.0000
  C   C3191     1.0  0.58078  0.16446  0.84835  1.0000
  C   C3192     1.0  0.58812  0.15787  0.83677  1.0000
  C   C3193     1.0  0.58027  0.15510  0.82837  1.0000
  H   H5666     1.0  0.54608  0.16978  0.84461  1.0000
  H   H5667     1.0  0.55981  0.17366  0.86015  1.0000
  H   H5668     1.0  0.59990  0.15499  0.83424  1.0000
  H   H5669     1.0  0.58600  0.15022  0.81934  1.0000
  H   H5670     1.0  0.59787  0.13484  0.88803  1.0000
  H   H5671     1.0  0.61641  0.12489  0.88496  1.0000
  C   C3194     1.0  0.57983  0.10143  0.87699  1.0000
  C   C3195     1.0  0.52253  0.09802  0.79442  1.0000
  H   H5672     1.0  0.56406  0.09575  0.96985  1.0000
  H   H5673     1.0  0.60931  0.21671  0.85512  1.0000
  H   H5674     1.0  0.53383  0.09652  0.79452  1.0000
  C   C3196     1.0  0.54405  0.07535  0.84707  1.0000
  C   C3197     1.0  0.54641  0.06164  0.85602  1.0000
  C   C3198     1.0  0.54304  0.05016  0.85295  1.0000
  C   C3199     1.0  0.53788  0.05232  0.84060  1.0000
  C   C3200     1.0  0.53499  0.06611  0.83203  1.0000
  C   C3201     1.0  0.53775  0.07764  0.83547  1.0000
  H   H5675     1.0  0.55132  0.05976  0.86500  1.0000
  H   H5676     1.0  0.54523  0.03949  0.85966  1.0000
  H   H5677     1.0  0.53055  0.06787  0.82276  1.0000
  H   H5678     1.0  0.59996  0.10957  0.88666  1.0000
  N   N176      1.0  0.51114  0.17606  0.80984  1.0000
  H   H5679     1.0  0.51995  0.08918  0.74775  1.0000
  H   H5680     1.0  0.50691  0.16007  0.80144  1.0000
  H   H5681     1.0  0.62212  0.21351  0.90347  1.0000
  H   H5682     1.0  0.54320  0.18804  0.77329  1.0000
  C   C3202     1.0  0.57604  0.09455  0.96723  1.0000
  H   H5683     1.0  0.59587  0.08728  0.82242  1.0000
  H   H5684     1.0  0.63693  0.18335  0.86126  1.0000
  C   C3203     1.0  0.50413  0.99925  0.82524  1.0000
  H   H5685     1.0  0.64157  0.17505  0.88329  1.0000
  H   H5686     1.0  0.61451  0.05175  0.77204  1.0000
  H   H5687     1.0  0.58702  0.11396  0.98065  1.0000
  H   H5688     1.0  0.57781  0.08689  0.94833  1.0000
  C   C3204     1.0  0.52941  0.10836  0.75398  1.0000
  C   C3205     1.0  0.50524  0.20403  0.91069  1.0000
  Fe  Fe365     1.0  0.52740  0.02214  0.85476  1.0000
  C   C3206     1.0  0.57256  0.09121  0.87350  1.0000
  H   H5689     1.0  0.61963  0.03258  0.77417  1.0000
  H   H5690     1.0  0.56186  0.08197  0.89506  1.0000
  H   H5691     1.0  0.61061  0.10537  0.82550  1.0000
  H   H5692     1.0  0.60950  0.13792  0.87034  1.0000
  H   H5693     1.0  0.59286  0.21977  0.86857  1.0000
  C   C3207     1.0  0.51489  0.08104  0.89780  1.0000
  H   H5694     1.0  0.56366  0.09692  0.75715  1.0000
  H   H5695     1.0  0.51438  0.13268  0.90008  1.0000
  H   H5696     1.0  0.52766  0.20409  0.90948  1.0000
  C   C3208     1.0  0.51619  0.04382  0.92873  1.0000
  H   H5697     1.0  0.58927  0.00647  0.78007  1.0000
  H   H5698     1.0  0.57265  0.10533  0.88661  1.0000
  H   H5699     1.0  0.57456  0.13049  0.98274  1.0000
  H   H5700     1.0  0.57502  0.04635  0.84285  1.0000
  C   C3209     1.0  0.60671  0.12963  0.88017  1.0000
  H   H5701     1.0  0.61992  0.16342  0.91027  1.0000
  H   H5702     1.0  0.53441  0.16883  0.80379  1.0000
  H   H5703     1.0  0.60066  0.03646  0.82731  1.0000
  C   C3210     1.0  0.60767  0.19912  0.87457  1.0000
  C   C3211     1.0  0.59581  0.10774  0.85346  1.0000
  N   N177      1.0  0.61935  0.20218  0.87971  1.0000
  H   H5704     1.0  0.59583  0.05579  0.83774  1.0000
  H   H5705     1.0  0.57601  0.99534  0.78667  1.0000
  H   H5706     1.0  0.60456  0.09972  0.85834  1.0000
  H   H5707     1.0  0.52005  0.10939  0.76329  1.0000
  H   H5708     1.0  0.51458  0.11347  0.84863  1.0000
  H   H5709     1.0  0.60806  0.06210  0.82136  1.0000
  C   C3212     1.0  0.63673  0.17149  0.98141  1.0000
  H   H5710     1.0  0.55399  0.03819  0.78527  1.0000
  H   H5711     1.0  0.60205  0.07762  0.83862  1.0000
  C   C3213     1.0  0.56125  0.03913  0.77441  1.0000
  C   C3214     1.0  0.51681  0.19173  0.83935  1.0000
  H   H5712     1.0  0.57919  0.12765  0.87944  1.0000
  H   H5713     1.0  0.63652  0.15323  0.90128  1.0000
  H   H5714     1.0  0.58933  0.13403  0.86225  1.0000
  C   C3215     1.0  0.58645  0.99681  0.77899  1.0000
  H   H5715     1.0  0.61082  0.22522  0.87574  1.0000
  H   H5716     1.0  0.60673  0.07020  0.75208  1.0000
  H   H5717     1.0  0.57357  0.13114  0.84956  1.0000
  H   H5718     1.0  0.56898  0.04594  0.77321  1.0000
  C   C3216     1.0  0.52341  0.12323  0.90216  1.0000
  H   H5719     1.0  0.54583  0.14115  0.85120  1.0000
  C   C3217     1.0  0.62276  0.19033  0.89242  1.0000
  H   H5720     1.0  0.66060  0.19106  0.85359  1.0000
  H   H5721     1.0  0.50978  0.20474  0.79351  1.0000
  H   H5722     1.0  0.57965  0.07297  0.96412  1.0000
  H   H5723     1.0  0.57280  0.02276  0.85872  1.0000
  H   H5724     1.0  0.61990  0.18313  0.94057  1.0000
  S   S717      1.0  0.51990  0.12643  0.79451  1.0000
  H   H5725     1.0  0.51821  0.19870  0.81679  1.0000
  C   C3218     1.0  0.52037  0.18841  0.82455  1.0000
  H   H5726     1.0  0.62376  0.10400  0.83575  1.0000
  C   C3219     1.0  0.58552  0.06501  0.81917  1.0000
  H   H5727     1.0  0.52593  0.16417  0.78451  1.0000
  C   C3220     1.0  0.55673  0.12796  0.86835  1.0000
  N   N178      1.0  0.50672  0.09624  0.89282  1.0000
  N   N179      1.0  0.53377  0.06812  0.75335  1.0000
  C   C3221     1.0  0.60091  0.21145  0.86321  1.0000
  S   S718      1.0  0.51509  0.03023  0.87451  1.0000
  C   C3222     1.0  0.57799  0.13483  0.95621  1.0000
  C   C3223     1.0  0.58075  0.10893  0.95947  1.0000
  H   H5728     1.0  0.54701  0.04593  0.73762  1.0000
  C   C3224     1.0  0.55194  0.12670  0.95247  1.0000
  C   C3225     1.0  0.59415  0.13490  0.95496  1.0000
  H   H5729     1.0  0.63215  0.21523  0.86210  1.0000
  H   H5730     1.0  0.52348  0.19911  0.83931  1.0000
  C   C3226     1.0  0.54173  0.17704  0.77457  1.0000
  C   C3227     1.0  0.53546  0.12975  0.95465  1.0000
  C   C3228     1.0  0.59782  0.14915  0.94576  1.0000
  H   H5731     1.0  0.58444  0.01371  0.84491  1.0000
  H   H5732     1.0  0.59113  0.02889  0.81974  1.0000
  H   H5733     1.0  0.52844  0.18749  0.79802  1.0000
  S   S719      1.0  0.62195  0.00969  0.75992  1.0000
  H   H5734     1.0  0.57107  0.14477  0.95974  1.0000
  H   H5735     1.0  0.57700  0.13620  0.94508  1.0000
  H   H5736     1.0  0.58015  0.11128  0.94806  1.0000
  H   H5737     1.0  0.54901  0.05788  0.89057  1.0000
  H   H5738     1.0  0.59168  0.02394  0.85265  1.0000
  C   C3229     1.0  0.59675  0.06430  0.82777  1.0000
  H   H5739     1.0  0.55558  0.13588  0.94425  1.0000
  H   H5740     1.0  0.55649  0.11683  0.94817  1.0000
  H   H5741     1.0  0.60163  0.12622  0.94979  1.0000
  H   H5742     1.0  0.59648  0.13348  0.96558  1.0000
  H   H5743     1.0  0.57444  0.06730  0.82619  1.0000
  N   N180      1.0  0.58771  0.05204  0.81309  1.0000
  H   H5744     1.0  0.52223  0.11898  0.91385  1.0000
  H   H5745     1.0  0.50613  0.00475  0.92240  1.0000
  H   H5746     1.0  0.58296  0.08127  0.83859  1.0000
  H   H5747     1.0  0.51880  0.15296  0.81349  1.0000
  C   C3230     1.0  0.59013  0.03826  0.82422  1.0000
  C   C3231     1.0  0.59841  0.07809  0.75713  1.0000
  H   H5748     1.0  0.53118  0.12028  0.96157  1.0000
  H   H5749     1.0  0.53036  0.13916  0.95963  1.0000
  H   H5750     1.0  0.53251  0.13217  0.94412  1.0000
  H   H5751     1.0  0.60943  0.14892  0.94487  1.0000
  H   H5752     1.0  0.59610  0.15098  0.93479  1.0000
  H   H5753     1.0  0.51740  0.05796  0.76927  1.0000
  H   H5754     1.0  0.53761  0.08393  0.88884  1.0000
  H   H5755     1.0  0.56690  0.07056  0.88245  1.0000
  H   H5756     1.0  0.50846  0.19891  0.90139  1.0000
  H   H5757     1.0  0.61165  0.18920  0.87032  1.0000
  C   C3232     1.0  0.52677  0.08316  0.75568  1.0000
  H   H5758     1.0  0.51926  0.12606  0.85559  1.0000
  H   H5759     1.0  0.53885  0.06142  0.90777  1.0000
  H   H5760     1.0  0.51920  0.08273  0.76637  1.0000
  C   C3233     1.0  0.63297  0.20383  0.86813  1.0000
  C   C3234     1.0  0.60138  0.08398  0.76699  1.0000
  C   C3235     1.0  0.65217  0.19568  0.84710  1.0000
  C   C3236     1.0  0.50879  0.16124  0.81151  1.0000
  H   H5761     1.0  0.54870  0.07368  0.80179  1.0000
  H   H5762     1.0  0.50438  0.04819  0.74756  1.0000
  C   C3237     1.0  0.56635  0.99826  0.74411  1.0000
  H   H5763     1.0  0.57894  0.06172  0.78476  1.0000
  C   C3238     1.0  0.61507  0.11144  0.83042  1.0000
  C   C3239     1.0  0.51722  0.08653  0.79373  1.0000
  C   C3240     1.0  0.52554  0.17712  0.79938  1.0000
  H   H5764     1.0  0.55063  0.16907  0.77924  1.0000
  C   C3241     1.0  0.55598  0.06848  0.79309  1.0000
  H   H5765     1.0  0.59842  0.19680  0.88375  1.0000
  C   C3242     1.0  0.60442  0.03972  0.79263  1.0000
  H   H5766     1.0  0.52437  0.01145  0.97237  1.0000
  N   N181      1.0  0.57259  0.12176  0.96589  1.0000
  C   C3243     1.0  0.54401  0.06107  0.76341  1.0000
  H   H5767     1.0  0.58423  0.20080  0.86324  1.0000
  H   H5768     1.0  0.56004  0.04521  0.75244  1.0000
  H   H5769     1.0  0.56434  0.05524  0.81682  1.0000
  C   C3244     1.0  0.63102  0.16400  0.90360  1.0000
  C   C3245     1.0  0.57041  0.07841  0.88597  1.0000
  H   H5770     1.0  0.54476  0.03827  0.76467  1.0000
  H   H5771     1.0  0.51938  0.18170  0.84742  1.0000
  Fe  Fe366     1.0  0.52139  0.06665  0.94510  1.0000
  H   H5772     1.0  0.57935  0.08687  0.86407  1.0000
  H   H5773     1.0  0.55132  0.11614  0.97449  1.0000
  H   H5774     1.0  0.53098  0.07602  0.87860  1.0000
  C   C3246     1.0  0.58248  0.08340  0.95799  1.0000
  H   H5775     1.0  0.53226  0.18377  0.82180  1.0000
  C   C3247     1.0  0.54385  0.13274  0.86110  1.0000
  H   H5776     1.0  0.53382  0.13720  0.86843  1.0000
  H   H5777     1.0  0.54213  0.12341  0.85829  1.0000
  H   H5778     1.0  0.56785  0.03612  0.83525  1.0000
  H   H5779     1.0  0.55806  0.13743  0.87129  1.0000
  C   C3248     1.0  0.55640  0.12477  0.96676  1.0000
  C   C3249     1.0  0.58514  0.99879  0.76362  1.0000
  H   H5780     1.0  0.53148  0.05362  0.89769  1.0000
  H   H5781     1.0  0.53270  0.10255  0.89734  1.0000
  C   C3250     1.0  0.58804  0.12401  0.87055  1.0000
  H   H5782     1.0  0.58015  0.09007  0.97723  1.0000
  C   C3251     1.0  0.57554  0.11984  0.98049  1.0000
  H   H5783     1.0  0.62713  0.04112  0.78324  1.0000
  H   H5784     1.0  0.59092  0.15827  0.95064  1.0000
  H   H5785     1.0  0.60784  0.12528  0.84525  1.0000
  H   H5786     1.0  0.54258  0.17530  0.76382  1.0000
  H   H5787     1.0  0.53706  0.11463  0.75424  1.0000
  S   S720      1.0  0.53890  0.00957  0.90272  1.0000
  H   H5788     1.0  0.50927  0.07317  0.89679  1.0000
  H   H5789     1.0  0.62428  0.17169  0.88365  1.0000
  H   H5790     1.0  0.58982  0.09470  0.88071  1.0000
  H   H5791     1.0  0.51815  0.22018  0.89929  1.0000
  H   H5792     1.0  0.53796  0.06136  0.77466  1.0000
  C   C3252     1.0  0.53038  0.02336  0.91200  1.0000
  H   H5793     1.0  0.59454  0.08182  0.95465  1.0000
  H   H5794     1.0  0.62322  0.23833  0.90031  1.0000
  H   H5795     1.0  0.54172  0.08900  0.76455  1.0000
  S   S721      1.0  0.63519  0.23310  0.96547  1.0000
  Fe  Fe367     1.0  0.52093  0.09684  0.94578  1.0000
  C   C3253     1.0  0.57080  0.12179  0.85812  1.0000
  H   H5796     1.0  0.55083  0.13461  0.97107  1.0000
  H   H5797     1.0  0.60057  0.19807  0.84936  1.0000
  Fe  Fe368     1.0  0.52773  0.00984  0.88584  1.0000
  H   H5798     1.0  0.52448  0.07613  0.79345  1.0000
  C   C3254     1.0  0.51702  0.21191  0.90947  1.0000
  H   H5799     1.0  0.58588  0.07485  0.81042  1.0000
  C   C3255     1.0  0.60092  0.05187  0.80083  1.0000
  H   H5800     1.0  0.61999  0.11965  0.82174  1.0000
  S   S722      1.0  0.59396  0.10066  0.78680  1.0000
  H   H5801     1.0  0.59484  0.12628  0.83516  1.0000
  S   S723      1.0  0.51059  0.01077  0.85498  1.0000
  C   C3256     1.0  0.63021  0.17518  0.88954  1.0000
  C   C3257     1.0  0.55227  0.04541  0.76292  1.0000
  H   H5802     1.0  0.63025  0.19279  0.89747  1.0000
  C   C3258     1.0  0.51107  0.10087  0.87674  1.0000
  H   H5803     1.0  0.53382  0.12689  0.89791  1.0000
  H   H5804     1.0  0.59994  0.06238  0.79295  1.0000
  H   H5805     1.0  0.55254  0.05857  0.79376  1.0000
  C   C3259     1.0  0.52348  0.11155  0.89492  1.0000
  C   C3260     1.0  0.50840  0.16392  0.87957  1.0000
  H   H5806     1.0  0.51407  0.02487  0.96040  1.0000
  C   C3261     1.0  0.53083  0.07646  0.88963  1.0000
  C   C3262     1.0  0.53794  0.06145  0.89692  1.0000
  C   C3263     1.0  0.58469  0.08252  0.75375  1.0000
  C   C3264     1.0  0.51177  0.17751  0.82436  1.0000
  C   C3265     1.0  0.51019  0.12179  0.85509  1.0000
  H   H5807     1.0  0.52285  0.10100  0.87309  1.0000
  H   H5808     1.0  0.56771  0.02824  0.77329  1.0000
  C   C3266     1.0  0.50884  0.04077  0.92017  1.0000
  C   C3267     1.0  0.58202  0.02350  0.84920  1.0000
  H   H5809     1.0  0.57403  0.04284  0.80599  1.0000
  H   H5810     1.0  0.62916  0.19891  0.84945  1.0000
  C   C3268     1.0  0.57418  0.05321  0.80811  1.0000
  H   H5811     1.0  0.52550  0.11625  0.88330  1.0000
  H   H5812     1.0  0.51472  0.07875  0.90942  1.0000
  H   H5813     1.0  0.64715  0.16348  0.97942  1.0000
  H   H5814     1.0  0.52595  0.04912  0.75509  1.0000
  C   C3269     1.0  0.51334  0.11161  0.79439  1.0000
  H   H5815     1.0  0.59566  0.00085  0.75655  1.0000
  H   H5816     1.0  0.52548  0.11296  0.74389  1.0000
  C   C3270     1.0  0.63702  0.19481  0.85656  1.0000
  C   C3271     1.0  0.51599  0.03069  0.91166  1.0000
  H   H5817     1.0  0.65267  0.20701  0.84172  1.0000
  C   C3272     1.0  0.52126  0.01394  0.96192  1.0000
  H   H5818     1.0  0.51371  0.05380  0.81978  1.0000
  C   C3273     1.0  0.62249  0.22032  0.89247  1.0000
  H   H5819     1.0  0.51209  0.10683  0.82738  1.0000
  S   S724      1.0  0.51178  0.07929  0.96224  1.0000
  H   H5820     1.0  0.53136  0.01386  0.95333  1.0000
  H   H5821     1.0  0.50629  0.08623  0.84676  1.0000
  C   C3274     1.0  0.52177  0.05998  0.75744  1.0000
  H   H5822     1.0  0.50509  0.19684  0.84246  1.0000
  H   H5823     1.0  0.52032  0.09489  0.97874  1.0000
  H   H5824     1.0  0.64251  0.20136  0.87309  1.0000
  H   H5825     1.0  0.51836  0.18315  0.77901  1.0000
  C   C3275     1.0  0.50701  0.16613  0.90356  1.0000
  H   H5826     1.0  0.53828  0.01276  0.74030  1.0000
  S   S725      1.0  0.59112  0.03533  0.74117  1.0000
  C   C3276     1.0  0.50847  0.06754  0.75049  1.0000
  H   H5827     1.0  0.51440  0.21708  0.91868  1.0000
  H   H5828     1.0  0.62279  0.19963  0.98400  1.0000
  H   H5829     1.0  0.54644  0.09201  0.74522  1.0000
  H   H5830     1.0  0.56938  0.00891  0.74034  1.0000
  H   H5831     1.0  0.51661  0.00972  0.93861  1.0000
  H   H5832     1.0  0.50525  0.19547  0.92064  1.0000
  H   H5833     1.0  0.50751  0.15194  0.93719  1.0000
  H   H5834     1.0  0.50976  0.09282  0.87162  1.0000
  C   C3277     1.0  0.61680  0.23590  0.89405  1.0000
  H   H5835     1.0  0.51624  0.16011  0.94538  1.0000
  H   H5836     1.0  0.60519  0.23770  0.89986  1.0000
  S   S726      1.0  0.58026  0.07493  0.74199  1.0000
  C   C3278     1.0  0.50888  0.10651  0.90036  1.0000
  H   H5837     1.0  0.55811  0.99900  0.75433  1.0000
  S   S727      1.0  0.51084  0.99723  0.88934  1.0000
  H   H5838     1.0  0.50638  0.08370  0.82954  1.0000
  S   S728      1.0  0.50826  0.11957  0.94283  1.0000
  C   C3279     1.0  0.51346  0.00270  0.96170  1.0000
  H   H5839     1.0  0.50775  0.10180  0.91201  1.0000
  H   H5840     1.0  0.52132  0.99220  0.96284  1.0000
  C   C3280     1.0  0.50555  0.15850  0.94518  1.0000
  H   H5841     1.0  0.50437  0.13405  0.82370  1.0000
  H   H5842     1.0  0.51026  0.02831  0.90514  1.0000
  Fe  Fe369     1.0  0.61467  0.02611  0.74117  1.0000
  H   H5843     1.0  0.68177  0.23124  0.98673  1.0000
  H   H5844     1.0  0.62769  0.16569  0.98587  1.0000
  C   C3281     1.0  0.54202  0.06917  0.73789  1.0000
  H   H5845     1.0  0.51199  0.07183  0.73882  1.0000
  C   C3282     1.0  0.50778  0.00659  0.94782  1.0000
  S   S729      1.0  0.50682  0.05594  0.93976  1.0000
  H   H5846     1.0  0.50550  0.13999  0.96261  1.0000
  H   H5847     1.0  0.50456  0.01058  0.82411  1.0000
  H   H5848     1.0  0.51332  0.11789  0.98649  1.0000
  H   H5849     1.0  0.50455  0.06124  0.84484  1.0000
  H   H5850     1.0  0.50415  0.00250  0.97112  1.0000
  H   H5851     1.0  0.50449  0.03977  0.83124  1.0000
  H   H5852     1.0  0.64685  0.18489  0.98702  1.0000
  C   C3283     1.0  0.50320  0.05033  0.82354  1.0000
  H   H5853     1.0  0.51135  0.99218  0.83246  1.0000
  C   C3284     1.0  0.52443  0.09575  0.98735  1.0000
  Fe  Fe370     1.0  0.73228  0.34827  0.07847  1.0000
  S   S730      1.0  0.70859  0.35736  0.07783  1.0000
  S   S731      1.0  0.74596  0.35163  0.09200  1.0000
  Fe  Fe371     1.0  0.73650  0.33020  0.05631  1.0000
  S   S732      1.0  0.71349  0.33810  0.05366  1.0000
  S   S733      1.0  0.75321  0.31377  0.04506  1.0000
  Fe  Fe372     1.0  0.71672  0.35943  0.05404  1.0000
  S   S734      1.0  0.71015  0.37904  0.03762  1.0000
  Fe  Fe373     1.0  0.70733  0.33505  0.07760  1.0000
  S   S735      1.0  0.68957  0.32307  0.09127  1.0000
  S   S736      1.0  0.74035  0.35188  0.05457  1.0000
  S   S737      1.0  0.73040  0.32568  0.08032  1.0000
  C   C3285     1.0  0.72371  0.28608  0.06497  1.0000
  H   H5854     1.0  0.72794  0.27474  0.07012  1.0000
  S   S738      1.0  0.87424  0.41079  0.19761  1.0000
  H   H5855     1.0  0.58085  0.24322  0.10266  1.0000
  C   C3286     1.0  0.63148  0.25877  0.01723  1.0000
  H   H5856     1.0  0.87317  0.41135  0.11992  1.0000
  H   H5857     1.0  0.66710  0.43297  0.01482  1.0000
  H   H5858     1.0  0.68792  0.32473  0.02445  1.0000
  H   H5859     1.0  0.52432  0.28647  0.03095  1.0000
  H   H5860     1.0  0.56447  0.41780  0.99846  1.0000
  S   S739      1.0  0.64977  0.46206  0.05376  1.0000
  Fe  Fe374     1.0  0.60764  0.40909  0.01410  1.0000
  H   H5861     1.0  0.69466  0.25077  0.03852  1.0000
  S   S740      1.0  0.58742  0.40150  0.01655  1.0000
  Fe  Fe375     1.0  0.63256  0.40533  0.02810  1.0000
  S   S741      1.0  0.64211  0.42240  0.01103  1.0000
  S   S742      1.0  0.64168  0.39247  0.04725  1.0000
  Fe  Fe376     1.0  0.61896  0.43471  0.01273  1.0000
  S   S743      1.0  0.61317  0.45798  0.01337  1.0000
  C   C3287     1.0  0.57760  0.38501  0.98885  1.0000
  S   S744      1.0  0.60970  0.41848  0.03113  1.0000
  S   S745      1.0  0.62961  0.39423  0.01282  1.0000
  S   S746      1.0  0.80195  0.47987  0.14938  1.0000
  Fe  Fe377     1.0  0.80444  0.39998  0.10998  1.0000
  S   S747      1.0  0.78757  0.41637  0.09948  1.0000
  S   S748      1.0  0.82191  0.38486  0.09815  1.0000
  Fe  Fe378     1.0  0.79031  0.40611  0.13944  1.0000
  S   S749      1.0  0.77148  0.42253  0.13153  1.0000
  S   S750      1.0  0.79332  0.40049  0.16240  1.0000
  Fe  Fe379     1.0  0.77152  0.40716  0.11848  1.0000
  S   S751      1.0  0.75124  0.40490  0.11291  1.0000
  Fe  Fe380     1.0  0.78888  0.43022  0.11315  1.0000
  S   S752      1.0  0.78883  0.45382  0.10459  1.0000
  S   S753      1.0  0.78852  0.38991  0.12836  1.0000
  S   S754      1.0  0.80764  0.41463  0.12164  1.0000
  S   S755      1.0  0.88910  0.44823  0.18764  1.0000
  Fe  Fe381     1.0  0.94759  0.46255  0.12698  1.0000
  S   S756      1.0  0.92939  0.48168  0.12278  1.0000
  S   S757      1.0  0.94332  0.44030  0.13629  1.0000
  Fe  Fe382     1.0  0.97057  0.48020  0.11464  1.0000
  H   H5862     1.0  0.64956  0.34576  0.06169  1.0000
  H   H5863     1.0  0.83556  0.41074  0.98831  1.0000
  H   H5864     1.0  0.81844  0.46297  0.19090  1.0000
  H   H5865     1.0  0.70565  0.29192  0.08297  1.0000
  C   C3288     1.0  0.53482  0.41959  0.00140  1.0000
  H   H5866     1.0  0.61526  0.25397  0.03652  1.0000
  S   S758      1.0  0.95787  0.47362  0.13702  1.0000
  S   S759      1.0  0.96175  0.46742  0.10506  1.0000
  Fe  Fe383     1.0  0.88710  0.45383  0.03681  1.0000
  S   S760      1.0  0.90099  0.43396  0.04765  1.0000
  S   S761      1.0  0.89057  0.46365  0.01318  1.0000
  Fe  Fe384     1.0  0.86374  0.45621  0.06392  1.0000
  S   S762      1.0  0.87524  0.43631  0.07694  1.0000
  S   S763      1.0  0.84166  0.46710  0.07448  1.0000
  Fe  Fe385     1.0  0.89515  0.44525  0.06577  1.0000
  S   S764      1.0  0.90993  0.44248  0.08041  1.0000
  Fe  Fe386     1.0  0.87986  0.42700  0.05780  1.0000
  S   S765      1.0  0.87831  0.40483  0.05836  1.0000
  S   S766      1.0  0.88325  0.46598  0.05398  1.0000
  S   S767      1.0  0.86639  0.44601  0.04580  1.0000
  H   H5867     1.0  0.71439  0.24332  0.00797  1.0000
  H   H5868     1.0  0.54979  0.45950  0.98998  1.0000
  C   C3289     1.0  0.90507  0.43737  0.00667  1.0000
  H   H5869     1.0  0.56274  0.25293  0.10734  1.0000
  H   H5870     1.0  0.86779  0.44804  0.98980  1.0000
  C   C3290     1.0  0.68245  0.26581  0.06640  1.0000
  S   S768      1.0  0.64392  0.26110  0.02567  1.0000
  H   H5871     1.0  0.90727  0.43413  0.01726  1.0000
  H   H5872     1.0  0.56313  0.26067  0.07996  1.0000
  C   C3291     1.0  0.62637  0.25678  0.99550  1.0000
  C   C3292     1.0  0.68308  0.27030  0.00953  1.0000
  C   C3293     1.0  0.92636  0.48049  0.08201  1.0000
  C   C3294     1.0  0.92787  0.46769  0.09236  1.0000
  C   C3295     1.0  0.92247  0.45632  0.09180  1.0000
  C   C3296     1.0  0.91544  0.45760  0.08099  1.0000
  C   C3297     1.0  0.91367  0.47048  0.07069  1.0000
  H   H5873     1.0  0.84952  0.41200  0.00541  1.0000
  H   H5874     1.0  0.93346  0.46635  0.10069  1.0000
  H   H5875     1.0  0.92401  0.44637  0.09968  1.0000
  H   H5876     1.0  0.90835  0.47153  0.06220  1.0000
  H   H5877     1.0  0.67448  0.24852  0.02671  1.0000
  H   H5878     1.0  0.65495  0.42246  0.08038  1.0000
  C   C3298     1.0  0.86730  0.40353  0.12827  1.0000
  C   C3299     1.0  0.90388  0.44520  0.17330  1.0000
  C   C3300     1.0  0.90903  0.43201  0.16915  1.0000
  C   C3301     1.0  0.92141  0.43023  0.15789  1.0000
  C   C3302     1.0  0.92844  0.44166  0.15086  1.0000
  C   C3303     1.0  0.92326  0.45465  0.15519  1.0000
  C   C3304     1.0  0.91097  0.45644  0.16620  1.0000
  H   H5879     1.0  0.90358  0.42326  0.17465  1.0000
  H   H5880     1.0  0.92546  0.42011  0.15456  1.0000
  H   H5881     1.0  0.92879  0.46338  0.15015  1.0000
  H   H5882     1.0  0.90700  0.46667  0.16920  1.0000
  C   C3305     1.0  0.80626  0.40676  0.16706  1.0000
  C   C3306     1.0  0.81338  0.41719  0.15742  1.0000
  C   C3307     1.0  0.82384  0.42174  0.16123  1.0000
  H   H5883     1.0  0.81072  0.42186  0.14707  1.0000
  H   H5884     1.0  0.82918  0.42991  0.15369  1.0000
  C   C3308     1.0  0.83690  0.39122  0.08646  1.0000
  C   C3309     1.0  0.84822  0.38151  0.07976  1.0000
  C   C3310     1.0  0.86068  0.38598  0.07078  1.0000
  C   C3311     1.0  0.86199  0.40009  0.06866  1.0000
  C   C3312     1.0  0.85057  0.40994  0.07516  1.0000
  C   C3313     1.0  0.83788  0.40553  0.08392  1.0000
  H   H5885     1.0  0.84746  0.37045  0.08169  1.0000
  H   H5886     1.0  0.86951  0.37836  0.06579  1.0000
  H   H5887     1.0  0.85158  0.42088  0.07353  1.0000
  H   H5888     1.0  0.82900  0.41310  0.08893  1.0000
  C   C3314     1.0  0.79960  0.47271  0.13614  1.0000
  C   C3315     1.0  0.79810  0.48112  0.12256  1.0000
  C   C3316     1.0  0.79502  0.47523  0.11274  1.0000
  C   C3317     1.0  0.79349  0.46095  0.11650  1.0000
  C   C3318     1.0  0.79524  0.45253  0.12996  1.0000
  C   C3319     1.0  0.79836  0.45837  0.13969  1.0000
  S   S769      1.0  0.74168  0.29099  0.99695  1.0000
  H   H5889     1.0  0.79372  0.48178  0.10231  1.0000
  H   H5890     1.0  0.79396  0.44154  0.13299  1.0000
  H   H5891     1.0  0.79967  0.45177  0.15005  1.0000
  H   H5892     1.0  0.90212  0.41935  0.21050  1.0000
  H   H5893     1.0  0.97940  0.46089  0.05461  1.0000
  H   H5894     1.0  0.73110  0.28649  0.03632  1.0000
  H   H5895     1.0  0.93378  0.43160  0.21387  1.0000
  C   C3320     1.0  0.93840  0.45907  0.20700  1.0000
  C   C3321     1.0  0.63700  0.46132  0.04489  1.0000
  C   C3322     1.0  0.63561  0.44788  0.04435  1.0000
  C   C3323     1.0  0.62761  0.44690  0.03519  1.0000
  C   C3324     1.0  0.62086  0.45935  0.02665  1.0000
  C   C3325     1.0  0.62133  0.47283  0.02798  1.0000
  C   C3326     1.0  0.62944  0.47381  0.03708  1.0000
  H   H5896     1.0  0.64123  0.43819  0.05052  1.0000
  H   H5897     1.0  0.62700  0.43646  0.03454  1.0000
  H   H5898     1.0  0.64334  0.37729  0.99165  1.0000
  H   H5899     1.0  0.99322  0.48237  0.16302  1.0000
  H   H5900     1.0  0.71518  0.30597  0.07289  1.0000
  C   C3327     1.0  0.57468  0.45236  0.00639  1.0000
  C   C3328     1.0  0.57721  0.38933  0.00116  1.0000
  C   C3329     1.0  0.58876  0.39460  0.00184  1.0000
  C   C3330     1.0  0.60912  0.25216  0.01808  1.0000
  H   H5901     1.0  0.89318  0.40521  0.00977  1.0000
  H   H5902     1.0  0.56226  0.26425  0.05283  1.0000
  H   H5903     1.0  0.56783  0.38891  0.01003  1.0000
  S   S770      1.0  0.61835  0.24346  0.09785  1.0000
  S   S771      1.0  0.62935  0.29156  0.04567  1.0000
  C   C3331     1.0  0.80941  0.40127  0.18076  1.0000
  H   H5904     1.0  0.56798  0.27641  0.09279  1.0000
  H   H5905     1.0  0.78530  0.34353  0.02640  1.0000
  H   H5906     1.0  0.72374  0.48062  0.12686  1.0000
  H   H5907     1.0  0.54041  0.28252  0.00703  1.0000
  C   C3332     1.0  0.67552  0.24972  0.99657  1.0000
  H   H5908     1.0  0.75170  0.34213  0.01648  1.0000
  C   C3333     1.0  0.58847  0.30675  0.03873  1.0000
  C   C3334     1.0  0.57967  0.31894  0.03183  1.0000
  C   C3335     1.0  0.58072  0.32138  0.01703  1.0000
  C   C3336     1.0  0.59029  0.31145  0.00927  1.0000
  C   C3337     1.0  0.59876  0.29910  0.01627  1.0000
  C   C3338     1.0  0.59794  0.29682  0.03092  1.0000
  H   H5909     1.0  0.57238  0.32667  0.03784  1.0000
  H   H5910     1.0  0.57421  0.33095  0.01166  1.0000
  H   H5911     1.0  0.60604  0.29125  0.01037  1.0000
  C   C3339     1.0  0.74690  0.36671  0.09772  1.0000
  C   C3340     1.0  0.75747  0.36493  0.10547  1.0000
  C   C3341     1.0  0.75906  0.37652  0.11000  1.0000
  C   C3342     1.0  0.74979  0.39003  0.10716  1.0000
  C   C3343     1.0  0.73893  0.39177  0.09969  1.0000
  C   C3344     1.0  0.73762  0.38024  0.09480  1.0000
  H   H5912     1.0  0.76441  0.35442  0.10812  1.0000
  H   H5913     1.0  0.76724  0.37491  0.11599  1.0000
  H   H5914     1.0  0.73161  0.40214  0.09754  1.0000
  H   H5915     1.0  0.72937  0.38175  0.08893  1.0000
  C   C3345     1.0  0.69123  0.38237  0.03977  1.0000
  C   C3346     1.0  0.68424  0.39350  0.03019  1.0000
  C   C3347     1.0  0.66902  0.39650  0.03225  1.0000
  C   C3348     1.0  0.66078  0.38846  0.04396  1.0000
  C   C3349     1.0  0.66782  0.37728  0.05347  1.0000
  C   C3350     1.0  0.68302  0.37417  0.05133  1.0000
  H   H5916     1.0  0.69057  0.39979  0.02118  1.0000
  H   H5917     1.0  0.66371  0.40514  0.02490  1.0000
  H   H5918     1.0  0.66154  0.37099  0.06251  1.0000
  H   H5919     1.0  0.68834  0.36546  0.05870  1.0000
  C   C3351     1.0  0.67887  0.31753  0.08304  1.0000
  C   C3352     1.0  0.67224  0.30583  0.09032  1.0000
  C   C3353     1.0  0.66438  0.30080  0.08355  1.0000
  H   H5920     1.0  0.67342  0.30048  0.10112  1.0000
  H   H5921     1.0  0.65953  0.29165  0.08914  1.0000
  C   C3354     1.0  0.74497  0.29818  0.00966  1.0000
  C   C3355     1.0  0.75654  0.29080  0.01635  1.0000
  C   C3356     1.0  0.75905  0.29591  0.02697  1.0000
  C   C3357     1.0  0.74999  0.30840  0.03106  1.0000
  C   C3358     1.0  0.73867  0.31608  0.02406  1.0000
  C   C3359     1.0  0.73612  0.31092  0.01339  1.0000
  H   H5922     1.0  0.76350  0.28101  0.01343  1.0000
  H   H5923     1.0  0.76792  0.29000  0.03223  1.0000
  H   H5924     1.0  0.73173  0.32585  0.02702  1.0000
  H   H5925     1.0  0.72727  0.31672  0.00811  1.0000
  N   N182      1.0  0.55197  0.29292  0.01519  1.0000
  C   C3360     1.0  0.54923  0.30571  0.02167  1.0000
  C   C3361     1.0  0.55510  0.27939  0.02651  1.0000
  H   H5926     1.0  0.90154  0.48397  0.14682  1.0000
  C   C3362     1.0  0.53890  0.29287  0.01007  1.0000
  C   C3363     1.0  0.95629  0.42958  0.09395  1.0000
  C   C3364     1.0  0.54478  0.32070  0.01191  1.0000
  H   H5927     1.0  0.67683  0.37163  0.01123  1.0000
  H   H5928     1.0  0.80192  0.48236  0.22294  1.0000
  H   H5929     1.0  0.55197  0.24330  0.08379  1.0000
  H   H5930     1.0  0.85169  0.42627  0.04183  1.0000
  C   C3365     1.0  0.53979  0.33252  0.02035  1.0000
  H   H5931     1.0  0.88259  0.40413  0.14810  1.0000
  H   H5932     1.0  0.55918  0.30597  0.02472  1.0000
  H   H5933     1.0  0.54088  0.30473  0.03191  1.0000
  H   H5934     1.0  0.54627  0.27972  0.03636  1.0000
  H   H5935     1.0  0.55497  0.26980  0.02294  1.0000
  H   H5936     1.0  0.73719  0.25053  0.99267  1.0000
  H   H5937     1.0  0.57124  0.25331  0.03968  1.0000
  H   H5938     1.0  0.51500  0.25835  0.10274  1.0000
  C   C3366     1.0  0.64246  0.31214  0.99517  1.0000
  H   H5939     1.0  0.52111  0.30558  0.02375  1.0000
  H   H5940     1.0  0.85147  0.45143  0.01399  1.0000
  H   H5941     1.0  0.96796  0.42620  0.09441  1.0000
  H   H5942     1.0  0.53571  0.32128  0.00707  1.0000
  H   H5943     1.0  0.69083  0.28015  0.04723  1.0000
  H   H5944     1.0  0.83337  0.45233  0.13294  1.0000
  H   H5945     1.0  0.52695  0.25781  0.08536  1.0000
  N   N183      1.0  0.92464  0.45387  0.21493  1.0000
  C   C3367     1.0  0.70170  0.27938  0.06414  1.0000
  C   C3368     1.0  0.52429  0.25159  0.09656  1.0000
  C   C3369     1.0  0.84114  0.43183  0.03877  1.0000
  C   C3370     1.0  0.76808  0.32897  0.99073  1.0000
  H   H5946     1.0  0.58755  0.42536  0.99082  1.0000
  C   C3371     1.0  0.57697  0.27032  0.08570  1.0000
  H   H5947     1.0  0.93952  0.46107  0.19523  1.0000
  H   H5948     1.0  0.54840  0.33248  0.02560  1.0000
  S   S772      1.0  0.64607  0.26222  0.06424  1.0000
  H   H5949     1.0  0.72071  0.29642  0.09664  1.0000
  C   C3372     1.0  0.72594  0.29004  0.08828  1.0000
  H   H5950     1.0  0.80592  0.45276  0.17126  1.0000
  C   C3373     1.0  0.61328  0.25290  0.00330  1.0000
  H   H5951     1.0  0.70818  0.37187  0.99508  1.0000
  H   H5952     1.0  0.95287  0.44672  0.22184  1.0000
  N   N184      1.0  0.69217  0.25529  0.00950  1.0000
  C   C3374     1.0  0.53742  0.24745  0.10344  1.0000
  C   C3375     1.0  0.94386  0.44172  0.05135  1.0000
  C   C3376     1.0  0.57016  0.24664  0.09946  1.0000
  C   C3377     1.0  0.69615  0.32217  0.03101  1.0000
  C   C3378     1.0  0.72541  0.35753  0.00539  1.0000
  C   C3379     1.0  0.64049  0.35178  0.05620  1.0000
  H   H5953     1.0  0.56228  0.30356  0.99420  1.0000
  H   H5954     1.0  0.93532  0.46507  0.23280  1.0000
  H   H5955     1.0  0.54025  0.25751  0.10342  1.0000
  H   H5956     1.0  0.75038  0.36066  0.01455  1.0000
  C   C3380     1.0  0.62541  0.36686  0.09607  1.0000
  H   H5957     1.0  0.69198  0.32875  0.03921  1.0000
  H   H5958     1.0  0.72732  0.35404  0.01642  1.0000
  H   H5959     1.0  0.98604  0.47333  0.18094  1.0000
  H   H5960     1.0  0.76128  0.46151  0.19307  1.0000
  H   H5961     1.0  0.77921  0.33902  0.00614  1.0000
  H   H5962     1.0  0.70232  0.36448  0.01397  1.0000
  H   H5963     1.0  0.74451  0.26327  0.02583  1.0000
  H   H5964     1.0  0.55508  0.44497  0.01168  1.0000
  H   H5965     1.0  0.64048  0.36325  0.05467  1.0000
  H   H5966     1.0  0.85494  0.47994  0.12216  1.0000
  H   H5967     1.0  0.91590  0.47165  0.23564  1.0000
  H   H5968     1.0  0.94815  0.48944  0.16020  1.0000
  H   H5969     1.0  0.81775  0.46685  0.06285  1.0000
  C   C3381     1.0  0.56642  0.44146  0.00574  1.0000
  H   H5970     1.0  0.68436  0.43819  0.00693  1.0000
  C   C3382     1.0  0.91095  0.43484  0.21525  1.0000
  H   H5971     1.0  0.86817  0.40194  0.01512  1.0000
  H   H5972     1.0  0.78295  0.45317  0.21480  1.0000
  H   H5973     1.0  0.52969  0.33108  0.02863  1.0000
  C   C3383     1.0  0.99835  0.48925  0.12030  1.0000
  C   C3384     1.0  0.57510  0.45137  0.02184  1.0000
  C   C3385     1.0  0.70821  0.30243  0.04930  1.0000
  S   S773      1.0  0.99459  0.47800  0.11169  1.0000
  H   H5974     1.0  0.94596  0.42973  0.03533  1.0000
  C   C3386     1.0  0.91065  0.42781  0.99739  1.0000
  H   H5975     1.0  0.68632  0.25726  0.07528  1.0000
  H   H5976     1.0  0.98270  0.43636  0.07332  1.0000
  H   H5977     1.0  0.57088  0.43080  0.01221  1.0000
  H   H5978     1.0  0.65439  0.29029  0.00137  1.0000
  H   H5979     1.0  0.63016  0.48419  0.03770  1.0000
  C   C3387     1.0  0.96583  0.45565  0.20184  1.0000
  H   H5980     1.0  0.92035  0.41252  0.21366  1.0000
  H   H5981     1.0  0.61174  0.35453  0.08490  1.0000
  H   H5982     1.0  0.75919  0.44334  0.10394  1.0000
  H   H5983     1.0  0.65275  0.36017  0.00050  1.0000
  H   H5984     1.0  0.71736  0.30805  0.04475  1.0000
  H   H5985     1.0  0.91239  0.47586  0.21398  1.0000
  H   H5986     1.0  0.72885  0.25507  0.03207  1.0000
  H   H5987     1.0  0.65508  0.45654  0.02008  1.0000
  H   H5988     1.0  0.53784  0.30124  0.00005  1.0000
  H   H5989     1.0  0.62615  0.36170  0.00616  1.0000
  H   H5990     1.0  0.56390  0.45340  0.02860  1.0000
  C   C3388     1.0  0.73184  0.26168  0.99391  1.0000
  H   H5991     1.0  0.88923  0.39309  0.02693  1.0000
  H   H5992     1.0  0.83792  0.46760  0.04227  1.0000
  C   C3389     1.0  0.75743  0.48995  0.13112  1.0000
  H   H5993     1.0  0.72705  0.27847  0.09357  1.0000
  C   C3390     1.0  0.63533  0.25985  0.00242  1.0000
  C   C3391     1.0  0.75176  0.47892  0.12690  1.0000
  C   C3392     1.0  0.89444  0.45533  0.98820  1.0000
  H   H5994     1.0  0.93166  0.44011  0.23401  1.0000
  C   C3393     1.0  0.56971  0.28095  0.99497  1.0000
  C   C3394     1.0  0.76625  0.46963  0.19445  1.0000
  C   C3395     1.0  0.86603  0.42502  0.01379  1.0000
  H   H5995     1.0  0.93074  0.44493  0.03601  1.0000
  Fe  Fe387     1.0  0.85034  0.42007  0.19760  1.0000
  H   H5996     1.0  0.54086  0.40848  0.00521  1.0000
  C   C3396     1.0  0.63053  0.36353  0.08117  1.0000
  H   H5997     1.0  0.80311  0.43026  0.21405  1.0000
  H   H5998     1.0  0.80268  0.44817  0.07403  1.0000
  C   C3397     1.0  0.71117  0.36887  0.00564  1.0000
  C   C3398     1.0  0.71652  0.29421  0.07727  1.0000
  H   H5999     1.0  0.91273  0.44720  0.23652  1.0000
  Fe  Fe388     1.0  0.86698  0.40682  0.22177  1.0000
  H   H6000     1.0  0.66767  0.43609  0.03841  1.0000
  H   H6001     1.0  0.87511  0.47238  0.23089  1.0000
  H   H6002     1.0  0.87378  0.42670  0.00318  1.0000
  H   H6003     1.0  0.86866  0.43126  0.02007  1.0000
  C   C3399     1.0  0.51175  0.29413  0.01477  1.0000
  C   C3400     1.0  0.70810  0.25456  0.00805  1.0000
  H   H6004     1.0  0.64046  0.29663  0.01562  1.0000
  C   C3401     1.0  0.80499  0.44083  0.21374  1.0000
  H   H6005     1.0  0.60321  0.35412  0.06603  1.0000
  H   H6006     1.0  0.90943  0.46036  0.19277  1.0000
  C   C3402     1.0  0.81995  0.40580  0.18458  1.0000
  H   H6007     1.0  0.71676  0.27935  0.03599  1.0000
  H   H6008     1.0  0.66744  0.35025  0.03802  1.0000
  C   C3403     1.0  0.82742  0.41588  0.17469  1.0000
  S   S774      1.0  0.67336  0.48862  0.05035  1.0000
  C   C3404     1.0  0.75774  0.48445  0.18821  1.0000
  H   H6009     1.0  0.95309  0.40789  0.10439  1.0000
  C   C3405     1.0  0.76100  0.48412  0.14592  1.0000
  H   H6010     1.0  0.58224  0.25160  0.07723  1.0000
  C   C3406     1.0  0.56474  0.29368  0.00257  1.0000
  Fe  Fe389     1.0  0.87476  0.43271  0.19909  1.0000
  H   H6011     1.0  0.74530  0.24619  0.03849  1.0000
  H   H6012     1.0  0.59604  0.31825  0.07692  1.0000
  H   H6013     1.0  0.70621  0.32536  0.02395  1.0000
  C   C3407     1.0  0.67406  0.43993  0.01512  1.0000
  H   H6014     1.0  0.76851  0.32352  0.00203  1.0000
  N   N185      1.0  0.79239  0.45350  0.19239  1.0000
  H   H6015     1.0  0.87833  0.42178  0.13673  1.0000
  H   H6016     1.0  0.77651  0.45029  0.17421  1.0000
  H   H6017     1.0  0.64706  0.34109  0.98770  1.0000
  C   C3408     1.0  0.78268  0.43998  0.17955  1.0000
  H   H6018     1.0  0.60938  0.37747  0.06335  1.0000
  C   C3409     1.0  0.85179  0.49059  0.07355  1.0000
  H   H6019     1.0  0.80925  0.47470  0.17731  1.0000
  H   H6020     1.0  0.75084  0.48343  0.15432  1.0000
  H   H6021     1.0  0.67102  0.48672  0.00118  1.0000
  C   C3410     1.0  0.78263  0.46755  0.18686  1.0000
  H   H6022     1.0  0.53742  0.34317  0.01296  1.0000
  H   H6023     1.0  0.98040  0.41967  0.07226  1.0000
  H   H6024     1.0  0.77741  0.35779  0.00441  1.0000
  H   H6025     1.0  0.77933  0.41807  0.18794  1.0000
  H   H6026     1.0  0.62982  0.32926  0.05734  1.0000
  H   H6027     1.0  0.69262  0.28708  0.06947  1.0000
  H   H6028     1.0  0.81416  0.44141  0.18521  1.0000
  H   H6029     1.0  0.74524  0.33533  0.99793  1.0000
  C   C3411     1.0  0.79412  0.45492  0.06816  1.0000
  H   H6030     1.0  0.93654  0.42174  0.10572  1.0000
  H   H6031     1.0  0.70114  0.30777  0.05798  1.0000
  H   H6032     1.0  0.76278  0.43195  0.18950  1.0000
  C   C3412     1.0  0.68379  0.27729  0.02126  1.0000
  H   H6033     1.0  0.73381  0.26327  0.00372  1.0000
  H   H6034     1.0  0.67558  0.29768  0.02788  1.0000
  H   H6035     1.0  0.53617  0.44151  0.99846  1.0000
  H   H6036     1.0  0.77620  0.44053  0.20223  1.0000
  C   C3413     1.0  0.89709  0.45121  0.00204  1.0000
  N   N186      1.0  0.81130  0.48883  0.05173  1.0000
  H   H6037     1.0  0.77212  0.42771  0.17234  1.0000
  H   H6038     1.0  0.79396  0.43058  0.19652  1.0000
  C   C3414     1.0  0.60489  0.32326  0.06930  1.0000
  H   H6039     1.0  0.78636  0.47676  0.18779  1.0000
  H   H6040     1.0  0.66226  0.35098  0.02189  1.0000
  H   H6041     1.0  0.79178  0.47391  0.07543  1.0000
  C   C3415     1.0  0.77367  0.42874  0.18259  1.0000
  H   H6042     1.0  0.95551  0.41869  0.07815  1.0000
  C   C3416     1.0  0.84830  0.42379  0.00127  1.0000
  H   H6043     1.0  0.96302  0.48055  0.06613  1.0000
  H   H6044     1.0  0.59263  0.28148  0.98758  1.0000
  H   H6045     1.0  0.96298  0.42450  0.05265  1.0000
  H   H6046     1.0  0.68657  0.46425  0.99352  1.0000
  N   N187      1.0  0.96323  0.43795  0.06617  1.0000
  H   H6047     1.0  0.98926  0.44211  0.04489  1.0000
  C   C3417     1.0  0.54257  0.43060  0.00224  1.0000
  C   C3418     1.0  0.95389  0.42998  0.07906  1.0000
  C   C3419     1.0  0.95952  0.45352  0.06701  1.0000
  C   C3420     1.0  0.96766  0.46365  0.05445  1.0000
  C   C3421     1.0  0.97906  0.43125  0.06671  1.0000
  C   C3422     1.0  0.98324  0.48210  0.17175  1.0000
  H   H6048     1.0  0.93883  0.37685  0.22732  1.0000
  H   H6049     1.0  0.96822  0.48627  0.04693  1.0000
  H   H6050     1.0  0.61596  0.48248  0.02155  1.0000
  H   H6051     1.0  0.58704  0.26728  0.08990  1.0000
  H   H6052     1.0  0.79336  0.43976  0.23605  1.0000
  H   H6053     1.0  0.69500  0.27857  0.02002  1.0000
  H   H6054     1.0  0.74151  0.47467  0.09842  1.0000
  H   H6055     1.0  0.56893  0.46348  0.00229  1.0000
  H   H6056     1.0  0.58177  0.26108  0.04643  1.0000
  C   C3423     1.0  0.91919  0.48194  0.07118  1.0000
  H   H6057     1.0  0.94214  0.43479  0.07948  1.0000
  H   H6058     1.0  0.94763  0.45799  0.06819  1.0000
  H   H6059     1.0  0.96194  0.45458  0.07686  1.0000
  H   H6060     1.0  0.96635  0.46311  0.04396  1.0000
  C   C3424     1.0  0.73812  0.25681  0.03522  1.0000
  C   C3425     1.0  0.57127  0.26290  0.04329  1.0000
  H   H6061     1.0  0.93964  0.45305  0.05232  1.0000
  H   H6062     1.0  0.96662  0.45756  0.19015  1.0000
  C   C3426     1.0  0.99038  0.43138  0.05220  1.0000
  H   H6063     1.0  0.76382  0.49164  0.10055  1.0000
  C   C3427     1.0  0.96191  0.47927  0.05579  1.0000
  C   C3428     1.0  0.66765  0.38839  0.99522  1.0000
  H   H6064     1.0  0.51063  0.30280  0.00503  1.0000
  C   C3429     1.0  0.61825  0.25506  0.02507  1.0000
  H   H6065     1.0  0.91714  0.42465  0.19697  1.0000
  H   H6066     1.0  0.80155  0.48267  0.03016  1.0000
  H   H6067     1.0  0.51386  0.28355  0.01201  1.0000
  H   H6068     1.0  0.67139  0.27039  0.01098  1.0000
  C   C3430     1.0  0.92145  0.37835  0.21758  1.0000
  H   H6069     1.0  0.83606  0.45168  0.00794  1.0000
  H   H6070     1.0  0.64525  0.26308  0.99621  1.0000
  H   H6071     1.0  0.55422  0.32323  0.00315  1.0000
  H   H6072     1.0  0.75942  0.46895  0.10177  1.0000
  N   N188      1.0  0.80235  0.37452  0.07133  1.0000
  C   C3431     1.0  0.79017  0.38584  0.07746  1.0000
  C   C3432     1.0  0.80862  0.36318  0.08314  1.0000
  C   C3433     1.0  0.81427  0.38201  0.06176  1.0000
  C   C3434     1.0  0.79742  0.36759  0.06239  1.0000
  C   C3435     1.0  0.78339  0.36169  0.06946  1.0000
  C   C3436     1.0  0.78375  0.39877  0.06634  1.0000
  C   C3437     1.0  0.82860  0.37220  0.05530  1.0000
  C   C3438     1.0  0.79835  0.36031  0.09816  1.0000
  C   C3439     1.0  0.80583  0.34787  0.10853  1.0000
  C   C3440     1.0  0.77945  0.35535  0.05912  1.0000
  C   C3441     1.0  0.76912  0.40729  0.07318  1.0000
  C   C3442     1.0  0.83956  0.38115  0.04562  1.0000
  H   H6073     1.0  0.79408  0.39037  0.08437  1.0000
  H   H6074     1.0  0.78103  0.38109  0.08474  1.0000
  H   H6075     1.0  0.81340  0.35272  0.07985  1.0000
  H   H6076     1.0  0.81795  0.36604  0.08510  1.0000
  H   H6077     1.0  0.81722  0.38830  0.06780  1.0000
  H   H6078     1.0  0.81040  0.38993  0.05250  1.0000
  H   H6079     1.0  0.79584  0.37513  0.05206  1.0000
  H   H6080     1.0  0.80609  0.35836  0.05924  1.0000
  H   H6081     1.0  0.77389  0.37026  0.07259  1.0000
  H   H6082     1.0  0.78500  0.35297  0.07900  1.0000
  H   H6083     1.0  0.79131  0.40623  0.06171  1.0000
  H   H6084     1.0  0.78192  0.39528  0.05751  1.0000
  H   H6085     1.0  0.82651  0.36603  0.04868  1.0000
  H   H6086     1.0  0.83384  0.36447  0.06381  1.0000
  H   H6087     1.0  0.79515  0.36992  0.10288  1.0000
  H   H6088     1.0  0.78837  0.35764  0.09761  1.0000
  H   H6089     1.0  0.79824  0.34623  0.11919  1.0000
  H   H6090     1.0  0.80893  0.33777  0.10462  1.0000
  H   H6091     1.0  0.81572  0.35033  0.10981  1.0000
  H   H6092     1.0  0.77711  0.36375  0.04952  1.0000
  H   H6093     1.0  0.78842  0.34643  0.05577  1.0000
  H   H6094     1.0  0.77001  0.41057  0.08259  1.0000
  H   H6095     1.0  0.76542  0.41711  0.06529  1.0000
  H   H6096     1.0  0.76079  0.40069  0.07663  1.0000
  H   H6097     1.0  0.84998  0.37391  0.04169  1.0000
  H   H6098     1.0  0.83531  0.38825  0.03622  1.0000
  H   H6099     1.0  0.84184  0.38785  0.05159  1.0000
  N   N189      1.0  0.62524  0.33764  0.99269  1.0000
  C   C3443     1.0  0.60981  0.34480  0.99876  1.0000
  H   H6100     1.0  0.94936  0.41969  0.11639  1.0000
  C   C3444     1.0  0.62721  0.32180  0.99965  1.0000
  C   C3445     1.0  0.63653  0.34352  0.99554  1.0000
  H   H6101     1.0  0.86420  0.40652  0.03222  1.0000
  C   C3446     1.0  0.60568  0.34289  0.01533  1.0000
  C   C3447     1.0  0.68290  0.36548  0.99095  1.0000
  S   S775      1.0  0.83328  0.45160  0.23534  1.0000
  H   H6102     1.0  0.90148  0.44310  0.21210  1.0000
  H   H6103     1.0  0.91802  0.49184  0.06311  1.0000
  C   C3448     1.0  0.59213  0.35402  0.02014  1.0000
  C   C3449     1.0  0.64319  0.29679  0.00405  1.0000
  H   H6104     1.0  0.60191  0.34051  0.99587  1.0000
  H   H6105     1.0  0.60735  0.35645  0.99386  1.0000
  H   H6106     1.0  0.73159  0.45938  0.12173  1.0000
  H   H6107     1.0  0.74224  0.26517  0.05093  1.0000
  H   H6108     1.0  0.61898  0.31725  0.99766  1.0000
  H   H6109     1.0  0.62524  0.32012  0.01148  1.0000
  H   H6110     1.0  0.63911  0.33784  0.00619  1.0000
  C   C3450     1.0  0.67777  0.43487  0.02988  1.0000
  S   S776      1.0  0.61502  0.42650  0.99577  1.0000
  H   H6111     1.0  0.67017  0.24338  0.00677  1.0000
  H   H6112     1.0  0.60328  0.33211  0.02046  1.0000
  H   H6113     1.0  0.61464  0.34368  0.01958  1.0000
  C   C3451     1.0  0.82846  0.48557  0.20402  1.0000
  H   H6114     1.0  0.65643  0.48376  0.01656  1.0000
  C   C3452     1.0  0.67357  0.29214  0.02063  1.0000
  C   C3453     1.0  0.63264  0.35984  0.99550  1.0000
  H   H6115     1.0  0.72319  0.49131  0.10945  1.0000
  H   H6116     1.0  0.70532  0.27069  0.07310  1.0000
  H   H6117     1.0  0.85966  0.48830  0.06399  1.0000
  C   C3454     1.0  0.57290  0.25696  0.08462  1.0000
  H   H6118     1.0  0.85700  0.42492  0.99138  1.0000
  S   S777      1.0  0.69144  0.34797  0.99820  1.0000
  H   H6119     1.0  0.59459  0.36488  0.01659  1.0000
  H   H6120     1.0  0.58298  0.35398  0.01565  1.0000
  H   H6121     1.0  0.58872  0.35151  0.03201  1.0000
  H   H6122     1.0  0.60990  0.39911  0.99091  1.0000
  H   H6123     1.0  0.95027  0.48292  0.05514  1.0000
  H   H6124     1.0  0.57924  0.27450  0.02222  1.0000
  H   H6125     1.0  0.93784  0.46960  0.20904  1.0000
  N   N190      1.0  0.68721  0.41265  0.07603  1.0000
  C   C3455     1.0  0.68118  0.42406  0.08475  1.0000
  C   C3456     1.0  0.69500  0.39920  0.08484  1.0000
  C   C3457     1.0  0.69853  0.41803  0.06326  1.0000
  C   C3458     1.0  0.67569  0.40946  0.07071  1.0000
  C   C3459     1.0  0.66005  0.41098  0.08035  1.0000
  C   C3460     1.0  0.67543  0.43942  0.07634  1.0000
  C   C3461     1.0  0.70690  0.40747  0.05330  1.0000
  C   C3462     1.0  0.68576  0.39201  0.09900  1.0000
  C   C3463     1.0  0.69550  0.38029  0.10799  1.0000
  C   C3464     1.0  0.65026  0.40528  0.07478  1.0000
  C   C3465     1.0  0.66566  0.44914  0.08636  1.0000
  C   C3466     1.0  0.71658  0.41469  0.03984  1.0000
  H   H6126     1.0  0.68971  0.42487  0.08971  1.0000
  H   H6127     1.0  0.67225  0.42117  0.09394  1.0000
  H   H6128     1.0  0.69973  0.39063  0.07865  1.0000
  H   H6129     1.0  0.70438  0.40148  0.08742  1.0000
  H   H6130     1.0  0.70676  0.42119  0.06684  1.0000
  H   H6131     1.0  0.69335  0.42787  0.05625  1.0000
  H   H6132     1.0  0.67441  0.41670  0.06015  1.0000
  H   H6133     1.0  0.67923  0.39841  0.06860  1.0000
  H   H6134     1.0  0.65998  0.40513  0.09157  1.0000
  H   H6135     1.0  0.68472  0.44449  0.07001  1.0000
  H   H6136     1.0  0.66919  0.43909  0.06879  1.0000
  H   H6137     1.0  0.69913  0.40364  0.04988  1.0000
  H   H6138     1.0  0.71417  0.39808  0.05874  1.0000
  H   H6139     1.0  0.67925  0.39972  0.10576  1.0000
  H   H6140     1.0  0.67837  0.38679  0.09657  1.0000
  H   H6141     1.0  0.68864  0.37487  0.11780  1.0000
  H   H6142     1.0  0.70236  0.37205  0.10189  1.0000
  H   H6143     1.0  0.70274  0.38499  0.11129  1.0000
  H   H6144     1.0  0.63896  0.40719  0.08135  1.0000
  H   H6145     1.0  0.64997  0.41085  0.06348  1.0000
  H   H6146     1.0  0.65564  0.44511  0.09228  1.0000
  H   H6147     1.0  0.66233  0.46017  0.07998  1.0000
  H   H6148     1.0  0.72477  0.41848  0.04274  1.0000
  H   H6149     1.0  0.72243  0.40680  0.03302  1.0000
  H   H6150     1.0  0.70992  0.42391  0.03353  1.0000
  N   N191      1.0  0.85626  0.40020  0.12242  1.0000
  C   C3467     1.0  0.84393  0.39507  0.13399  1.0000
  C   C3468     1.0  0.84994  0.41309  0.11196  1.0000
  C   C3469     1.0  0.86384  0.38843  0.11427  1.0000
  C   C3470     1.0  0.84824  0.38031  0.14412  1.0000
  C   C3471     1.0  0.87641  0.39192  0.10119  1.0000
  C   C3472     1.0  0.84092  0.42652  0.11781  1.0000
  C   C3473     1.0  0.83398  0.43792  0.10630  1.0000
  C   C3474     1.0  0.83663  0.37826  0.15799  1.0000
  C   C3475     1.0  0.88480  0.37855  0.09534  1.0000
  H   H6151     1.0  0.83538  0.39413  0.12913  1.0000
  H   H6152     1.0  0.83825  0.40305  0.14068  1.0000
  H   H6153     1.0  0.85868  0.41697  0.10305  1.0000
  H   H6154     1.0  0.84283  0.40992  0.10702  1.0000
  H   H6155     1.0  0.85579  0.38532  0.11036  1.0000
  H   H6156     1.0  0.86873  0.37856  0.12144  1.0000
  H   H6157     1.0  0.84938  0.37153  0.13875  1.0000
  H   H6158     1.0  0.85877  0.37909  0.14691  1.0000
  H   H6159     1.0  0.87208  0.40000  0.09233  1.0000
  H   H6160     1.0  0.83204  0.42401  0.12716  1.0000
  H   H6161     1.0  0.84816  0.43139  0.12078  1.0000
  H   H6162     1.0  0.84258  0.44187  0.09729  1.0000
  H   H6163     1.0  0.82718  0.43357  0.10208  1.0000
  H   H6164     1.0  0.82683  0.44715  0.11084  1.0000
  H   H6165     1.0  0.83599  0.38607  0.16432  1.0000
  H   H6166     1.0  0.82578  0.37978  0.15566  1.0000
  H   H6167     1.0  0.83950  0.36725  0.16456  1.0000
  H   H6168     1.0  0.89300  0.38158  0.08541  1.0000
  H   H6169     1.0  0.89055  0.37047  0.10330  1.0000
  H   H6170     1.0  0.87728  0.37369  0.09265  1.0000
  N   N192      1.0  0.87736  0.46872  0.12210  1.0000
  C   C3476     1.0  0.88593  0.45336  0.12353  1.0000
  C   C3477     1.0  0.86251  0.46993  0.11947  1.0000
  C   C3478     1.0  0.88563  0.47767  0.10911  1.0000
  C   C3479     1.0  0.87591  0.47455  0.13495  1.0000
  C   C3480     1.0  0.86840  0.46630  0.14951  1.0000
  C   C3481     1.0  0.90089  0.45008  0.12754  1.0000
  H   H6171     1.0  0.54252  0.42910  0.01371  1.0000
  C   C3482     1.0  0.85484  0.45719  0.12724  1.0000
  C   C3483     1.0  0.83876  0.46133  0.12669  1.0000
  C   C3484     1.0  0.86975  0.47157  0.16190  1.0000
  C   C3485     1.0  0.90854  0.43433  0.12782  1.0000
  Fe  Fe390     1.0  0.62383  0.26111  0.07860  1.0000
  H   H6172     1.0  0.88767  0.44984  0.11337  1.0000
  H   H6173     1.0  0.87985  0.44592  0.13193  1.0000
  H   H6174     1.0  0.88955  0.41132  0.02615  1.0000
  H   H6175     1.0  0.86322  0.47108  0.10784  1.0000
  H   H6176     1.0  0.88808  0.47285  0.09962  1.0000
  H   H6177     1.0  0.89638  0.47774  0.11071  1.0000
  H   H6178     1.0  0.88679  0.47524  0.13575  1.0000
  H   H6179     1.0  0.86937  0.48578  0.13374  1.0000
  H   H6180     1.0  0.87312  0.45459  0.15140  1.0000
  H   H6181     1.0  0.85661  0.46833  0.14992  1.0000
  H   H6182     1.0  0.90819  0.45683  0.11984  1.0000
  H   H6183     1.0  0.89953  0.45196  0.13834  1.0000
  Fe  Fe391     1.0  0.84662  0.43599  0.22148  1.0000
  H   H6184     1.0  0.80578  0.45183  0.22944  1.0000
  H   H6185     1.0  0.86019  0.44808  0.12184  1.0000
  H   H6186     1.0  0.85540  0.45319  0.13862  1.0000
  H   H6187     1.0  0.70322  0.26344  0.05196  1.0000
  H   H6188     1.0  0.91402  0.38736  0.22230  1.0000
  H   H6189     1.0  0.83303  0.47089  0.13132  1.0000
  H   H6190     1.0  0.86421  0.46549  0.17217  1.0000
  H   H6191     1.0  0.88137  0.46970  0.16214  1.0000
  H   H6192     1.0  0.86465  0.48317  0.16094  1.0000
  H   H6193     1.0  0.90287  0.42721  0.13716  1.0000
  H   H6194     1.0  0.90882  0.43133  0.11782  1.0000
  H   H6195     1.0  0.91995  0.43256  0.12876  1.0000
  H   H6196     1.0  0.79298  0.43676  0.17191  1.0000
  H   H6197     1.0  0.74418  0.43595  0.11589  1.0000
  C   C3486     1.0  0.82896  0.42845  0.05184  1.0000
  C   C3487     1.0  0.55844  0.42833  0.99321  1.0000
  N   N193      1.0  0.74477  0.48418  0.11405  1.0000
  C   C3488     1.0  0.82985  0.46200  0.16929  1.0000
  H   H6198     1.0  0.67187  0.46181  0.01611  1.0000
  Fe  Fe392     1.0  0.94424  0.48739  0.10151  1.0000
  H   H6199     1.0  0.68597  0.27763  0.99894  1.0000
  H   H6200     1.0  0.82985  0.41665  0.05548  1.0000
  C   C3489     1.0  0.74347  0.45764  0.11699  1.0000
  H   H6201     1.0  0.86932  0.41840  0.15540  1.0000
  H   H6202     1.0  0.82446  0.42623  0.00631  1.0000
  H   H6203     1.0  0.58833  0.37659  0.05442  1.0000
  H   H6204     1.0  0.94838  0.48505  0.18589  1.0000
  N   N194      1.0  0.56655  0.43993  0.99106  1.0000
  C   C3490     1.0  0.93225  0.36957  0.22698  1.0000
  H   H6205     1.0  0.89406  0.48270  0.18334  1.0000
  H   H6206     1.0  0.74420  0.47400  0.13649  1.0000
  H   H6207     1.0  0.76161  0.47014  0.12500  1.0000
  H   H6208     1.0  0.84039  0.41510  0.02916  1.0000
  H   H6209     1.0  0.95198  0.44035  0.09656  1.0000
  N   N195      1.0  0.66393  0.46307  0.99747  1.0000
  S   S778      1.0  0.61249  0.26510  0.06081  1.0000
  H   H6210     1.0  0.65581  0.36636  0.02999  1.0000
  H   H6211     1.0  0.63610  0.35399  0.03500  1.0000
  H   H6212     1.0  0.82843  0.43187  0.02449  1.0000
  C   C3491     1.0  0.65842  0.35443  0.03223  1.0000
  C   C3492     1.0  0.83563  0.47833  0.03500  1.0000
  H   H6213     1.0  0.74936  0.45343  0.12582  1.0000
  H   H6214     1.0  0.83890  0.48893  0.21853  1.0000
  H   H6215     1.0  0.59981  0.33316  0.06238  1.0000
  C   C3493     1.0  0.85360  0.46888  0.98799  1.0000
  C   C3494     1.0  0.95284  0.44891  0.21031  1.0000
  H   H6216     1.0  0.80387  0.39327  0.18835  1.0000
  C   C3495     1.0  0.84263  0.47935  0.19445  1.0000
  C   C3496     1.0  0.64488  0.34871  0.04096  1.0000
  C   C3497     1.0  0.61412  0.32640  0.07764  1.0000
  C   C3498     1.0  0.82686  0.48972  0.04398  1.0000
  C   C3499     1.0  0.71551  0.26463  0.99469  1.0000
  H   H6217     1.0  0.79628  0.46366  0.20713  1.0000
  H   H6218     1.0  0.57425  0.29468  0.00582  1.0000
  H   H6219     1.0  0.58071  0.45954  0.02212  1.0000
  H   H6220     1.0  0.90140  0.46314  0.21884  1.0000
  H   H6221     1.0  0.88430  0.39616  0.10403  1.0000
  S   S779      1.0  0.58806  0.30408  0.05695  1.0000
  H   H6222     1.0  0.60464  0.28729  0.03615  1.0000
  H   H6223     1.0  0.85762  0.40115  0.15147  1.0000
  H   H6224     1.0  0.75873  0.48577  0.17657  1.0000
  H   H6225     1.0  0.78344  0.46916  0.17520  1.0000
  C   C3500     1.0  0.95993  0.43611  0.05294  1.0000
  N   N196      1.0  0.75336  0.35441  0.99456  1.0000
  H   H6226     1.0  0.76169  0.37832  0.99551  1.0000
  H   H6227     1.0  0.91481  0.37150  0.21645  1.0000
  C   C3501     1.0  0.67703  0.32453  0.06922  1.0000
  H   H6228     1.0  0.68175  0.33377  0.06363  1.0000
  C   C3502     1.0  0.79364  0.45347  0.20712  1.0000
  H   H6229     1.0  0.76919  0.33628  0.03254  1.0000
  C   C3503     1.0  0.52403  0.29493  0.02096  1.0000
  H   H6230     1.0  0.65424  0.39355  0.07546  1.0000
  H   H6231     1.0  0.64757  0.33701  0.04141  1.0000
  Fe  Fe393     1.0  0.60863  0.28825  0.06129  1.0000
  S   S780      1.0  0.60252  0.24837  0.99462  1.0000
  C   C3504     1.0  0.75629  0.35144  0.00935  1.0000
  C   C3505     1.0  0.81566  0.46371  0.18065  1.0000
  H   H6232     1.0  0.76768  0.35527  0.03051  1.0000
  H   H6233     1.0  0.87592  0.39372  0.13070  1.0000
  H   H6234     1.0  0.66196  0.39533  0.00259  1.0000
  Fe  Fe394     1.0  0.63409  0.26809  0.04655  1.0000
  C   C3506     1.0  0.84184  0.48181  0.08077  1.0000
  C   C3507     1.0  0.80710  0.45217  0.18218  1.0000
  H   H6235     1.0  0.76953  0.35097  0.06455  1.0000
  H   H6236     1.0  0.81244  0.46847  0.04687  1.0000
  H   H6237     1.0  0.85254  0.41890  0.14126  1.0000
  H   H6238     1.0  0.74601  0.48567  0.19362  1.0000
  C   C3508     1.0  0.67602  0.37490  0.00015  1.0000
  C   C3509     1.0  0.87374  0.41368  0.14577  1.0000
  H   H6239     1.0  0.73739  0.37415  0.99701  1.0000
  H   H6240     1.0  0.84030  0.44359  0.03621  1.0000
  C   C3510     1.0  0.86161  0.40940  0.14218  1.0000
  H   H6241     1.0  0.67157  0.44975  0.09410  1.0000
  H   H6242     1.0  0.85687  0.48223  0.03368  1.0000
  C   C3511     1.0  0.83141  0.48512  0.09288  1.0000
  S   S781      1.0  0.61820  0.28432  0.08035  1.0000
  C   C3512     1.0  0.66321  0.30744  0.06943  1.0000
  C   C3513     1.0  0.66937  0.31942  0.06247  1.0000
  Fe  Fe395     1.0  0.63964  0.28581  0.06455  1.0000
  S   S782      1.0  0.65462  0.30133  0.05955  1.0000
  H   H6243     1.0  0.66834  0.32468  0.05164  1.0000
  C   C3514     1.0  0.77245  0.34848  0.01040  1.0000
  H   H6244     1.0  0.73694  0.29231  0.08307  1.0000
  C   C3515     1.0  0.77367  0.34574  0.02592  1.0000
  C   C3516     1.0  0.78617  0.44086  0.19347  1.0000
  H   H6245     1.0  0.61167  0.31562  0.06248  1.0000
  H   H6246     1.0  0.79577  0.45143  0.05808  1.0000
  C   C3517     1.0  0.61361  0.35625  0.05860  1.0000
  H   H6247     1.0  0.71211  0.48245  0.03487  1.0000
  H   H6248     1.0  0.81626  0.44137  0.20757  1.0000
  H   H6249     1.0  0.76475  0.46878  0.20608  1.0000
  H   H6250     1.0  0.62776  0.37368  0.07334  1.0000
  H   H6251     1.0  0.59691  0.39122  0.04413  1.0000
  H   H6252     1.0  0.83475  0.47137  0.16727  1.0000
  H   H6253     1.0  0.94887  0.44787  0.02797  1.0000
  C   C3518     1.0  0.61152  0.37275  0.05395  1.0000
  S   S783      1.0  0.85164  0.44223  0.19769  1.0000
  H   H6254     1.0  0.61437  0.35208  0.04909  1.0000
  H   H6255     1.0  0.62119  0.37593  0.04599  1.0000
  H   H6256     1.0  0.60033  0.37552  0.03702  1.0000
  H   H6257     1.0  0.68840  0.30323  0.04292  1.0000
  H   H6258     1.0  0.63708  0.32641  0.07239  1.0000
  H   H6259     1.0  0.82453  0.47638  0.21194  1.0000
  C   C3519     1.0  0.59846  0.37935  0.04697  1.0000
  H   H6260     1.0  0.83770  0.45207  0.17293  1.0000
  H   H6261     1.0  0.62838  0.35706  0.10434  1.0000
  H   H6262     1.0  0.64259  0.35987  0.07911  1.0000
  H   H6263     1.0  0.66207  0.29103  0.02431  1.0000
  H   H6264     1.0  0.61825  0.31604  0.08471  1.0000
  H   H6265     1.0  0.66861  0.26067  0.99466  1.0000
  C   C3520     1.0  0.56973  0.27633  0.03123  1.0000
  H   H6266     1.0  0.82787  0.46151  0.15904  1.0000
  H   H6267     1.0  0.67778  0.26101  0.06043  1.0000
  C   C3521     1.0  0.62748  0.33246  0.06770  1.0000
  H   H6268     1.0  0.85078  0.47283  0.20089  1.0000
  H   H6269     1.0  0.72620  0.25779  0.05683  1.0000
  H   H6270     1.0  0.78336  0.45321  0.07500  1.0000
  N   N197      1.0  0.62626  0.34837  0.06556  1.0000
  C   C3522     1.0  0.62363  0.35164  0.08020  1.0000
  S   S784      1.0  0.84163  0.42128  0.17817  1.0000
  H   H6271     1.0  0.60695  0.33344  0.08486  1.0000
  H   H6272     1.0  0.62796  0.34189  0.08794  1.0000
  C   C3523     1.0  0.69092  0.25087  0.99666  1.0000
  H   H6273     1.0  0.58612  0.45046  0.00024  1.0000
  H   H6274     1.0  0.68007  0.27078  0.03202  1.0000
  H   H6275     1.0  0.81275  0.43269  0.23349  1.0000
  C   C3524     1.0  0.80971  0.47340  0.05622  1.0000
  H   H6276     1.0  0.88634  0.47780  0.20213  1.0000
  C   C3525     1.0  0.87030  0.40886  0.02093  1.0000
  H   H6277     1.0  0.63078  0.37518  0.09644  1.0000
  C   C3526     1.0  0.80412  0.44135  0.22912  1.0000
  C   C3527     1.0  0.85033  0.48174  0.02642  1.0000
  H   H6278     1.0  0.71209  0.37867  0.00823  1.0000
  H   H6279     1.0  0.82254  0.40124  0.19500  1.0000
  C   C3528     1.0  0.90996  0.46986  0.19599  1.0000
  S   S785      1.0  0.84294  0.41451  0.22175  1.0000
  H   H6280     1.0  0.61342  0.37104  0.09855  1.0000
  H   H6281     1.0  0.84729  0.48801  0.18632  1.0000
  C   C3529     1.0  0.91173  0.46580  0.21167  1.0000
  H   H6282     1.0  0.57048  0.28537  0.03523  1.0000
  H   H6283     1.0  0.97608  0.44829  0.20438  1.0000
  S   S786      1.0  0.70170  0.30963  0.99261  1.0000
  C   C3530     1.0  0.88656  0.40439  0.02091  1.0000
  H   H6284     1.0  0.92822  0.44256  0.19817  1.0000
  H   H6285     1.0  0.70459  0.30047  0.02894  1.0000
  H   H6286     1.0  0.91702  0.41721  0.00095  1.0000
  C   C3531     1.0  0.69911  0.30607  0.03782  1.0000
  H   H6287     1.0  0.73351  0.29044  0.05857  1.0000
  H   H6288     1.0  0.92745  0.38292  0.20674  1.0000
  H   H6289     1.0  0.77361  0.48853  0.98781  1.0000
  H   H6290     1.0  0.82971  0.47752  0.02742  1.0000
  H   H6291     1.0  0.96667  0.44145  0.04303  1.0000
  N   N198      1.0  0.71398  0.28674  0.05532  1.0000
  C   C3532     1.0  0.72333  0.27977  0.04320  1.0000
  H   H6292     1.0  0.93677  0.43500  0.05955  1.0000
  H   H6293     1.0  0.81810  0.43365  0.04932  1.0000
  C   C3533     1.0  0.85591  0.45253  0.99142  1.0000
  C   C3534     1.0  0.94236  0.44098  0.03675  1.0000
  H   H6294     1.0  0.82982  0.43261  0.06072  1.0000
  C   C3535     1.0  0.66588  0.45595  0.01255  1.0000
  H   H6295     1.0  0.90830  0.43122  0.22706  1.0000
  H   H6296     1.0  0.63551  0.29173  0.00189  1.0000
  H   H6297     1.0  0.67369  0.27418  0.07099  1.0000
  H   H6298     1.0  0.57904  0.27746  0.07490  1.0000
  C   C3536     1.0  0.84790  0.44678  0.00697  1.0000
  C   C3537     1.0  0.72846  0.48923  0.11860  1.0000
  C   C3538     1.0  0.73821  0.36370  0.99451  1.0000
  C   C3539     1.0  0.83975  0.42690  0.02591  1.0000
  N   N199      1.0  0.85049  0.43062  0.01200  1.0000
  H   H6299     1.0  0.71074  0.27606  0.99519  1.0000
  H   H6300     1.0  0.91922  0.47425  0.18850  1.0000
  H   H6301     1.0  0.96471  0.46602  0.20465  1.0000
  C   C3540     1.0  0.75383  0.34072  0.99052  1.0000
  H   H6302     1.0  0.70989  0.25722  0.01740  1.0000
  H   H6303     1.0  0.56103  0.28042  0.99016  1.0000
  C   C3541     1.0  0.74764  0.47171  0.10704  1.0000
  H   H6304     1.0  0.68338  0.42335  0.03155  1.0000
  H   H6305     1.0  0.67520  0.29891  0.00960  1.0000
  H   H6306     1.0  0.58122  0.44059  0.02643  1.0000
  H   H6307     1.0  0.78585  0.47696  0.05905  1.0000
  H   H6308     1.0  0.86152  0.45982  0.22243  1.0000
  H   H6309     1.0  0.83770  0.46370  0.11547  1.0000
  H   H6310     1.0  0.66285  0.44314  0.99332  1.0000
  S   S787      1.0  0.86979  0.42796  0.22299  1.0000
  H   H6311     1.0  0.76836  0.47330  0.14661  1.0000
  H   H6312     1.0  0.70275  0.49029  0.02035  1.0000
  H   H6313     1.0  0.74126  0.44925  0.09986  1.0000
  H   H6314     1.0  0.83064  0.44113  0.99320  1.0000
  Fe  Fe396     1.0  0.63735  0.41247  0.99583  1.0000
  C   C3542     1.0  0.65422  0.47781  0.99780  1.0000
  C   C3543     1.0  0.91282  0.42204  0.20873  1.0000
  C   C3544     1.0  0.94831  0.41907  0.10579  1.0000
  C   C3545     1.0  0.69502  0.27231  0.05624  1.0000
  C   C3546     1.0  0.79449  0.47080  0.06498  1.0000
  C   C3547     1.0  0.92509  0.44066  0.21009  1.0000
  H   H6315     1.0  0.93959  0.36097  0.22162  1.0000
  H   H6316     1.0  0.59906  0.24900  0.02417  1.0000
  C   C3548     1.0  0.89595  0.48116  0.19415  1.0000
  C   C3549     1.0  0.73256  0.26446  0.04767  1.0000
  C   C3550     1.0  0.68645  0.24476  0.02287  1.0000
  C   C3551     1.0  0.74728  0.44588  0.10859  1.0000
  C   C3552     1.0  0.65617  0.45422  0.99333  1.0000
  H   H6317     1.0  0.95465  0.43854  0.20727  1.0000
  H   H6318     1.0  0.64584  0.45307  0.00147  1.0000
  H   H6319     1.0  0.68505  0.44118  0.03082  1.0000
  H   H6320     1.0  0.85662  0.47317  0.02054  1.0000
  H   H6321     1.0  0.65121  0.31615  0.99684  1.0000
  H   H6322     1.0  0.82363  0.47842  0.09837  1.0000
  H   H6323     1.0  0.72366  0.34829  0.00242  1.0000
  H   H6324     1.0  0.64296  0.47685  0.00386  1.0000
  H   H6325     1.0  0.98895  0.42374  0.04671  1.0000
  C   C3553     1.0  0.83327  0.42930  0.99705  1.0000
  H   H6326     1.0  0.97476  0.47971  0.16793  1.0000
  H   H6327     1.0  0.84042  0.47245  0.18872  1.0000
  C   C3554     1.0  0.60091  0.39513  0.99041  1.0000
  H   H6328     1.0  0.57256  0.27052  0.00248  1.0000
  H   H6329     1.0  0.83359  0.48838  0.05174  1.0000
  H   H6330     1.0  0.89693  0.49162  0.19517  1.0000
  H   H6331     1.0  0.76657  0.49143  0.14796  1.0000
  H   H6332     1.0  0.85812  0.47231  0.99521  1.0000
  C   C3555     1.0  0.92342  0.45000  0.23090  1.0000
  H   H6333     1.0  0.84183  0.47402  0.98901  1.0000
  H   H6334     1.0  0.81285  0.48624  0.07365  1.0000
  H   H6335     1.0  0.89290  0.40758  0.23299  1.0000
  H   H6336     1.0  0.72931  0.49074  0.01266  1.0000
  H   H6337     1.0  0.52365  0.42112  0.00829  1.0000
  Fe  Fe397     1.0  0.65133  0.48428  0.05330  1.0000
  C   C3556     1.0  0.64637  0.36559  0.99213  1.0000
  H   H6338     1.0  0.82055  0.49121  0.19714  1.0000
  S   S788      1.0  0.59191  0.31390  0.99086  1.0000
  C   C3557     1.0  0.79872  0.48738  0.23227  1.0000
  C   C3558     1.0  0.85704  0.46306  0.23256  1.0000
  C   C3559     1.0  0.65910  0.48736  0.00469  1.0000
  H   H6339     1.0  0.94854  0.34215  0.23699  1.0000
  H   H6340     1.0  0.53394  0.42089  0.99022  1.0000
  H   H6341     1.0  0.56844  0.38142  0.98816  1.0000
  C   C3560     1.0  0.86468  0.47031  0.23726  1.0000
  H   H6342     1.0  0.62612  0.36657  0.98764  1.0000
  H   H6343     1.0  0.81968  0.48419  0.23718  1.0000
  C   C3561     1.0  0.67879  0.46348  0.98764  1.0000
  Fe  Fe398     1.0  0.91872  0.38270  0.29472  1.0000
  S   S789      1.0  0.91336  0.38643  0.31697  1.0000
  S   S790      1.0  0.91067  0.39906  0.27613  1.0000
  Fe  Fe399     1.0  0.94161  0.35549  0.30145  1.0000
  S   S791      1.0  0.93863  0.35659  0.32429  1.0000
  S   S792      1.0  0.95634  0.33819  0.29030  1.0000
  Fe  Fe400     1.0  0.91477  0.36260  0.32424  1.0000
  S   S793      1.0  0.89862  0.35467  0.34385  1.0000
  Fe  Fe401     1.0  0.93736  0.38021  0.31552  1.0000
  S   S794      1.0  0.94924  0.39366  0.32064  1.0000
  S   S795      1.0  0.91771  0.35945  0.30210  1.0000
  S   S796      1.0  0.94284  0.37848  0.29261  1.0000
  H   H6344     1.0  0.90223  0.33816  0.37177  1.0000
  H   H6345     1.0  0.90533  0.31201  0.38256  1.0000
  S   S797      1.0  0.94935  0.30244  0.40432  1.0000
  C   C3562     1.0  0.98933  0.38444  0.42449  1.0000
  C   C3563     1.0  0.98471  0.46772  0.34780  1.0000
  S   S798      1.0  0.96251  0.43378  0.36650  1.0000
  Fe  Fe402     1.0  0.98422  0.40938  0.39499  1.0000
  S   S799      1.0  0.96049  0.41995  0.40125  1.0000
  H   H6346     1.0  0.88887  0.45191  0.25324  1.0000
  Fe  Fe403     1.0  0.95813  0.41344  0.38232  1.0000
  S   S800      1.0  0.94065  0.40229  0.38313  1.0000
  Fe  Fe404     1.0  0.96689  0.43929  0.38498  1.0000
  S   S801      1.0  0.95956  0.46252  0.38627  1.0000
  S   S802      1.0  0.98129  0.40142  0.37743  1.0000
  N   N200      1.0  0.87936  0.25407  0.39752  1.0000
  H   H6347     1.0  0.97346  0.34935  0.30250  1.0000
  C   C3564     1.0  0.97005  0.48105  0.39414  1.0000
  S   S803      1.0  0.99077  0.42929  0.38034  1.0000
  Fe  Fe405     1.0  0.97288  0.33636  0.47032  1.0000
  H   H6348     1.0  0.97566  0.33081  0.36251  1.0000
  S   S804      1.0  0.96312  0.35989  0.46452  1.0000
  C   C3565     1.0  0.91966  0.39739  0.42409  1.0000
  H   H6349     1.0  0.84478  0.46258  0.30962  1.0000
  H   H6350     1.0  0.86431  0.38650  0.32464  1.0000
  H   H6351     1.0  0.84792  0.46474  0.29060  1.0000
  S   S805      1.0  0.98086  0.32197  0.45480  1.0000
  H   H6352     1.0  0.92485  0.46542  0.25790  1.0000
  H   H6353     1.0  0.84207  0.42091  0.24967  1.0000
  H   H6354     1.0  0.86755  0.24365  0.38944  1.0000
  H   H6355     1.0  0.83890  0.29347  0.39265  1.0000
  C   C3566     1.0  0.95184  0.38319  0.25475  1.0000
  H   H6356     1.0  0.96956  0.42995  0.33413  1.0000
  C   C3567     1.0  0.98368  0.37427  0.30740  1.0000
  H   H6357     1.0  0.83162  0.45912  0.30222  1.0000
  H   H6358     1.0  0.98352  0.40292  0.34777  1.0000
  C   C3568     1.0  0.94267  0.27736  0.33469  1.0000
  H   H6359     1.0  0.99843  0.28817  0.31478  1.0000
  Fe  Fe406     1.0  0.99875  0.31127  0.46673  1.0000
  H   H6360     1.0  0.85196  0.24756  0.41471  1.0000
  H   H6361     1.0  0.97396  0.45392  0.30707  1.0000
  C   C3569     1.0  0.99566  0.37047  0.43090  1.0000
  H   H6362     1.0  0.99997  0.32108  0.42331  1.0000
  C   C3570     1.0  0.94502  0.36110  0.25283  1.0000
  H   H6363     1.0  0.82738  0.46261  0.26029  1.0000
  H   H6364     1.0  0.89949  0.26284  0.40917  1.0000
  H   H6365     1.0  0.88221  0.37785  0.31622  1.0000
  C   C3571     1.0  0.87179  0.26795  0.38916  1.0000
  C   C3572     1.0  0.97604  0.33458  0.37186  1.0000
  H   H6366     1.0  0.99722  0.41906  0.28507  1.0000
  H   H6367     1.0  0.86228  0.40458  0.27874  1.0000
  N   N201      1.0  0.85988  0.42197  0.28891  1.0000
  C   C3573     1.0  0.84856  0.43518  0.29220  1.0000
  H   H6368     1.0  0.96029  0.33244  0.25741  1.0000
  C   C3574     1.0  0.97507  0.39078  0.43050  1.0000
  C   C3575     1.0  0.96710  0.38313  0.44280  1.0000
  C   C3576     1.0  0.97332  0.36910  0.44909  1.0000
  H   H6369     1.0  0.98158  0.32946  0.42180  1.0000
  H   H6370     1.0  0.99014  0.41474  0.30395  1.0000
  H   H6371     1.0  0.97024  0.40164  0.42579  1.0000
  H   H6372     1.0  0.95608  0.38811  0.44746  1.0000
  H   H6373     1.0  0.96720  0.43065  0.31666  1.0000
  H   H6374     1.0  0.95114  0.48501  0.35614  1.0000
  C   C3577     1.0  0.96716  0.46732  0.39770  1.0000
  C   C3578     1.0  0.97008  0.45780  0.41040  1.0000
  C   C3579     1.0  0.97570  0.46218  0.41960  1.0000
  H   H6375     1.0  0.90051  0.25943  0.38779  1.0000
  H   H6376     1.0  0.84877  0.26731  0.39798  1.0000
  C   C3580     1.0  0.94118  0.31778  0.34849  1.0000
  H   H6377     1.0  0.96763  0.44726  0.41332  1.0000
  S   S806      1.0  0.86901  0.48157  0.25787  1.0000
  H   H6378     1.0  0.88052  0.41696  0.27423  1.0000
  C   C3581     1.0  0.95103  0.29998  0.42194  1.0000
  C   C3582     1.0  0.94589  0.28898  0.43280  1.0000
  C   C3583     1.0  0.94703  0.28739  0.44691  1.0000
  C   C3584     1.0  0.95343  0.29667  0.45019  1.0000
  C   C3585     1.0  0.95862  0.30762  0.43927  1.0000
  C   C3586     1.0  0.95741  0.30928  0.42519  1.0000
  H   H6379     1.0  0.94093  0.28177  0.43036  1.0000
  H   H6380     1.0  0.94296  0.27892  0.45531  1.0000
  H   H6381     1.0  0.96337  0.31492  0.44170  1.0000
  H   H6382     1.0  0.96147  0.31771  0.41681  1.0000
  C   C3587     1.0  0.94635  0.39547  0.33828  1.0000
  C   C3588     1.0  0.95504  0.40296  0.34096  1.0000
  C   C3589     1.0  0.95307  0.40507  0.35470  1.0000
  C   C3590     1.0  0.94256  0.39955  0.36597  1.0000
  C   C3591     1.0  0.93387  0.39186  0.36342  1.0000
  C   C3592     1.0  0.93575  0.38983  0.34952  1.0000
  H   H6383     1.0  0.96334  0.40716  0.33235  1.0000
  H   H6384     1.0  0.95964  0.41107  0.35658  1.0000
  H   H6385     1.0  0.92567  0.38758  0.37212  1.0000
  H   H6386     1.0  0.92899  0.38401  0.34749  1.0000
  C   C3593     1.0  0.90141  0.39475  0.26569  1.0000
  C   C3594     1.0  0.89378  0.38369  0.27096  1.0000
  C   C3595     1.0  0.88583  0.38125  0.26242  1.0000
  H   H6387     1.0  0.91232  0.45477  0.25904  1.0000
  C   C3596     1.0  0.98774  0.24925  0.36377  1.0000
  H   H6388     1.0  0.94741  0.39360  0.25813  1.0000
  H   H6389     1.0  0.89382  0.37721  0.28167  1.0000
  H   H6390     1.0  0.87990  0.37273  0.26650  1.0000
  C   C3597     1.0  0.85172  0.44254  0.30248  1.0000
  H   H6391     1.0  0.91739  0.36140  0.27009  1.0000
  C   C3598     1.0  0.90218  0.33604  0.35089  1.0000
  C   C3599     1.0  0.90303  0.32646  0.34259  1.0000
  C   C3600     1.0  0.90417  0.31174  0.34886  1.0000
  C   C3601     1.0  0.90498  0.30651  0.36328  1.0000
  C   C3602     1.0  0.90468  0.31600  0.37142  1.0000
  C   C3603     1.0  0.90300  0.33078  0.36530  1.0000
  H   H6392     1.0  0.90220  0.33051  0.33152  1.0000
  H   H6393     1.0  0.90439  0.30442  0.34255  1.0000
  H   H6394     1.0  0.93431  0.25797  0.34053  1.0000
  H   H6395     1.0  0.87841  0.27626  0.38607  1.0000
  H   H6396     1.0  0.88155  0.42468  0.28765  1.0000
  H   H6397     1.0  0.86849  0.25763  0.41885  1.0000
  H   H6398     1.0  0.97948  0.44959  0.33701  1.0000
  H   H6399     1.0  0.84827  0.43676  0.31375  1.0000
  C   C3604     1.0  0.87444  0.42532  0.28042  1.0000
  H   H6400     1.0  0.97436  0.42869  0.28167  1.0000
  H   H6401     1.0  0.93233  0.34220  0.47067  1.0000
  H   H6402     1.0  0.86720  0.39023  0.29846  1.0000
  H   H6403     1.0  0.97576  0.27480  0.33933  1.0000
  C   C3605     1.0  0.99444  0.39763  0.34351  1.0000
  C   C3606     1.0  0.87965  0.25530  0.41217  1.0000
  H   H6404     1.0  0.94589  0.35312  0.44736  1.0000
  C   C3607     1.0  0.83781  0.46466  0.25385  1.0000
  H   H6405     1.0  0.97756  0.45500  0.42962  1.0000
  H   H6406     1.0  0.96075  0.30136  0.34961  1.0000
  H   H6407     1.0  0.96766  0.48852  0.38444  1.0000
  H   H6408     1.0  0.95504  0.44329  0.32692  1.0000
  H   H6409     1.0  0.96542  0.33367  0.37964  1.0000
  C   C3608     1.0  0.91303  0.34147  0.26959  1.0000
  H   H6410     1.0  0.99534  0.48230  0.35176  1.0000
  S   S807      1.0  0.95451  0.29452  0.46802  1.0000
  C   C3609     1.0  0.97356  0.41912  0.27851  1.0000
  C   C3610     1.0  0.84555  0.47156  0.25866  1.0000
  C   C3611     1.0  0.95059  0.32865  0.25762  1.0000
  H   H6411     1.0  0.98707  0.42805  0.43039  1.0000
  C   C3612     1.0  0.87471  0.38842  0.31711  1.0000
  C   C3613     1.0  0.97585  0.45719  0.32748  1.0000
  H   H6412     1.0  0.84686  0.44336  0.28229  1.0000
  Fe  Fe407     1.0  0.92994  0.25731  0.41170  1.0000
  C   C3614     1.0  0.93928  0.37611  0.25652  1.0000
  H   H6413     1.0  0.90641  0.34552  0.26135  1.0000
  H   H6414     1.0  0.93450  0.33315  0.36206  1.0000
  C   C3615     1.0  0.99307  0.32791  0.41575  1.0000
  H   H6415     1.0  0.84332  0.43353  0.26696  1.0000
  H   H6416     1.0  0.91894  0.33026  0.26912  1.0000
  H   H6417     1.0  0.97350  0.30803  0.36972  1.0000
  C   C3616     1.0  0.85422  0.41451  0.28104  1.0000
  H   H6418     1.0  0.95130  0.35447  0.26106  1.0000
  H   H6419     1.0  0.93304  0.33493  0.24613  1.0000
  C   C3617     1.0  0.88525  0.39008  0.24875  1.0000
  N   N202      1.0  0.98859  0.32532  0.37858  1.0000
  H   H6420     1.0  0.83359  0.41276  0.26747  1.0000
  Fe  Fe408     1.0  0.96832  0.30705  0.47193  1.0000
  S   S808      1.0  0.95295  0.26059  0.40642  1.0000
  C   C3618     1.0  0.88753  0.26662  0.41262  1.0000
  H   H6421     1.0  0.83770  0.43242  0.29717  1.0000
  H   H6422     1.0  0.90947  0.39467  0.43143  1.0000
  C   C3619     1.0  0.92412  0.36316  0.24223  1.0000
  H   H6423     1.0  0.84413  0.41102  0.28791  1.0000
  C   C3620     1.0  0.85100  0.42305  0.26629  1.0000
  H   H6424     1.0  0.97925  0.31556  0.28118  1.0000
  H   H6425     1.0  0.96305  0.37089  0.35732  1.0000
  C   C3621     1.0  0.89295  0.40103  0.24358  1.0000
  H   H6426     1.0  0.97628  0.33446  0.39683  1.0000
  H   H6427     1.0  0.86129  0.42479  0.25847  1.0000
  H   H6428     1.0  0.92256  0.40562  0.42769  1.0000
  H   H6429     1.0  0.96411  0.46202  0.33133  1.0000
  H   H6430     1.0  0.98407  0.37431  0.47937  1.0000
  H   H6431     1.0  0.89021  0.43407  0.25139  1.0000
  H   H6432     1.0  0.98542  0.35195  0.35622  1.0000
  H   H6433     1.0  0.94052  0.32922  0.45965  1.0000
  H   H6434     1.0  0.96252  0.31585  0.33427  1.0000
  H   H6435     1.0  0.98649  0.25681  0.38237  1.0000
  H   H6436     1.0  0.88273  0.39800  0.29514  1.0000
  H   H6437     1.0  0.93055  0.34623  0.27560  1.0000
  C   C3622     1.0  0.97915  0.47572  0.41572  1.0000
  H   H6438     1.0  0.93252  0.49146  0.35421  1.0000
  H   H6439     1.0  0.95293  0.35902  0.37109  1.0000
  C   C3623     1.0  0.99745  0.38314  0.34311  1.0000
  H   H6440     1.0  0.93318  0.37499  0.26783  1.0000
  H   H6441     1.0  0.98979  0.38770  0.45470  1.0000
  H   H6442     1.0  0.94561  0.25822  0.35183  1.0000
  H   H6443     1.0  0.95759  0.41350  0.27083  1.0000
  H   H6444     1.0  0.89062  0.27655  0.42804  1.0000
  H   H6445     1.0  0.86573  0.44311  0.26357  1.0000
  H   H6446     1.0  0.93364  0.31106  0.35574  1.0000
  N   N203      1.0  0.93918  0.35789  0.41999  1.0000
  C   C3624     1.0  0.95461  0.35883  0.41869  1.0000
  C   C3625     1.0  0.93436  0.34780  0.43399  1.0000
  C   C3626     1.0  0.93926  0.35126  0.40803  1.0000
  C   C3627     1.0  0.92873  0.37244  0.41870  1.0000
  C   C3628     1.0  0.96235  0.36601  0.40362  1.0000
  C   C3629     1.0  0.92489  0.34722  0.40864  1.0000
  C   C3630     1.0  0.97594  0.37029  0.40408  1.0000
  C   C3631     1.0  0.92542  0.34326  0.39472  1.0000
  H   H6447     1.0  0.96141  0.34788  0.42161  1.0000
  H   H6448     1.0  0.95526  0.36457  0.42648  1.0000
  H   H6449     1.0  0.92285  0.34717  0.43547  1.0000
  H   H6450     1.0  0.94098  0.33668  0.43379  1.0000
  H   H6451     1.0  0.94802  0.34130  0.40769  1.0000
  H   H6452     1.0  0.94183  0.35873  0.39745  1.0000
  H   H6453     1.0  0.92820  0.37742  0.40728  1.0000
  H   H6454     1.0  0.91742  0.37122  0.42423  1.0000
  H   H6455     1.0  0.94205  0.38760  0.41716  1.0000
  H   H6456     1.0  0.96572  0.35839  0.39648  1.0000
  H   H6457     1.0  0.95500  0.37570  0.39874  1.0000
  H   H6458     1.0  0.91539  0.35628  0.41037  1.0000
  H   H6459     1.0  0.92316  0.33769  0.41746  1.0000
  H   H6460     1.0  0.91779  0.40207  0.41307  1.0000
  H   H6461     1.0  0.97269  0.38052  0.40772  1.0000
  H   H6462     1.0  0.98221  0.36193  0.41143  1.0000
  H   H6463     1.0  0.98308  0.37193  0.39321  1.0000
  H   H6464     1.0  0.91524  0.33990  0.39563  1.0000
  H   H6465     1.0  0.92641  0.35262  0.38552  1.0000
  H   H6466     1.0  0.93478  0.33416  0.39261  1.0000
  H   H6467     1.0  0.86640  0.41664  0.30916  1.0000
  H   H6468     1.0  0.85103  0.41000  0.30995  1.0000
  C   C3632     1.0  0.92392  0.35106  0.26732  1.0000
  C   C3633     1.0  0.98042  0.34033  0.29813  1.0000
  H   H6469     1.0  0.95287  0.28096  0.34957  1.0000
  H   H6470     1.0  0.97266  0.30301  0.31587  1.0000
  H   H6471     1.0  0.87107  0.26645  0.37876  1.0000
  C   C3634     1.0  0.93210  0.38405  0.42421  1.0000
  H   H6472     1.0  0.87981  0.39434  0.32158  1.0000
  S   S809      1.0  0.91938  0.28097  0.40795  1.0000
  S   S810      1.0  0.94420  0.28464  0.37799  1.0000
  H   H6473     1.0  0.92659  0.36118  0.44989  1.0000
  H   H6474     1.0  0.90824  0.33711  0.29299  1.0000
  C   C3635     1.0  0.88875  0.44066  0.25921  1.0000
  C   C3636     1.0  0.85613  0.27453  0.39649  1.0000
  H   H6475     1.0  0.88405  0.27720  0.40562  1.0000
  C   C3637     1.0  0.98365  0.32128  0.28613  1.0000
  C   C3638     1.0  0.85017  0.28896  0.38724  1.0000
  C   C3639     1.0  0.88443  0.26884  0.42785  1.0000
  H   H6476     1.0  0.92116  0.33706  0.46220  1.0000
  C   C3640     1.0  0.89493  0.25063  0.38927  1.0000
  C   C3641     1.0  0.98983  0.38729  0.30664  1.0000
  H   H6477     1.0  0.95260  0.33261  0.35096  1.0000
  Fe  Fe409     1.0  0.94235  0.28412  0.40097  1.0000
  H   H6478     1.0  0.85578  0.27654  0.40697  1.0000
  C   C3642     1.0  0.84415  0.41465  0.26028  1.0000
  C   C3643     1.0  0.98608  0.47693  0.35707  1.0000
  H   H6479     1.0  0.96304  0.30665  0.25989  1.0000
  H   H6480     1.0  0.86351  0.44229  0.30046  1.0000
  C   C3644     1.0  0.97624  0.48512  0.40302  1.0000
  H   H6481     1.0  0.84990  0.28762  0.37663  1.0000
  H   H6482     1.0  0.89790  0.43656  0.26483  1.0000
  H   H6483     1.0  0.85704  0.29674  0.38560  1.0000
  H   H6484     1.0  0.87264  0.27325  0.43166  1.0000
  H   H6485     1.0  0.88788  0.25853  0.43530  1.0000
  C   C3645     1.0  0.93205  0.33921  0.46084  1.0000
  H   H6486     1.0  0.99268  0.30605  0.36176  1.0000
  H   H6487     1.0  0.98221  0.41762  0.26878  1.0000
  H   H6488     1.0  0.00122  0.45446  0.29885  1.0000
  Fe  Fe410     1.0  0.95292  0.26096  0.38377  1.0000
  H   H6489     1.0  0.84102  0.47485  0.26873  1.0000
  S   S811      1.0  0.90616  0.28813  0.37104  1.0000
  Fe  Fe411     1.0  0.92222  0.27939  0.38532  1.0000
  C   C3646     1.0  0.85901  0.47440  0.25045  1.0000
  C   C3647     1.0  0.94466  0.32593  0.35756  1.0000
  N   N204      1.0  0.95316  0.29955  0.33188  1.0000
  C   C3648     1.0  0.99703  0.41003  0.29466  1.0000
  C   C3649     1.0  0.97648  0.35071  0.36593  1.0000
  C   C3650     1.0  0.90106  0.40329  0.25195  1.0000
  H   H6490     1.0  0.96732  0.28730  0.31628  1.0000
  H   H6491     1.0  0.93395  0.38006  0.43522  1.0000
  H   H6492     1.0  0.97560  0.46226  0.35380  1.0000
  H   H6493     1.0  0.89477  0.25887  0.36646  1.0000
  C   C3651     1.0  0.95524  0.30842  0.34095  1.0000
  C   C3652     1.0  0.94348  0.30928  0.32196  1.0000
  C   C3653     1.0  0.94512  0.30510  0.30760  1.0000
  C   C3654     1.0  0.93212  0.31321  0.30082  1.0000
  H   H6494     1.0  0.93183  0.31051  0.32777  1.0000
  H   H6495     1.0  0.94562  0.32033  0.31866  1.0000
  H   H6496     1.0  0.93552  0.29205  0.34845  1.0000
  H   H6497     1.0  0.93378  0.28321  0.32898  1.0000
  H   H6498     1.0  0.93534  0.32588  0.34062  1.0000
  H   H6499     1.0  0.95516  0.30786  0.29995  1.0000
  H   H6500     1.0  0.94611  0.29353  0.30872  1.0000
  H   H6501     1.0  0.92189  0.31036  0.30796  1.0000
  H   H6502     1.0  0.93109  0.32497  0.29890  1.0000
  H   H6503     1.0  0.93370  0.31033  0.29044  1.0000
  C   C3655     1.0  0.98179  0.36471  0.32250  1.0000
  C   C3656     1.0  0.97951  0.28440  0.33204  1.0000
  C   C3657     1.0  0.97516  0.40579  0.29109  1.0000
  C   C3658     1.0  0.93713  0.26489  0.34588  1.0000
  C   C3659     1.0  0.96650  0.43727  0.32422  1.0000
  H   H6504     1.0  0.79026  0.48087  0.25529  1.0000
  N   N205      1.0  0.99051  0.39871  0.29289  1.0000
  C   C3660     1.0  0.87204  0.39684  0.30234  1.0000
  H   H6505     1.0  0.78546  0.47187  0.24448  1.0000
  C   C3661     1.0  0.99529  0.33609  0.29865  1.0000
  H   H6506     1.0  0.99003  0.31106  0.40839  1.0000
  H   H6507     1.0  0.95244  0.27269  0.32724  1.0000
  C   C3662     1.0  0.95871  0.42247  0.27473  1.0000
  H   H6508     1.0  0.97005  0.48308  0.33514  1.0000
  H   H6509     1.0  0.96850  0.40949  0.30098  1.0000
  H   H6510     1.0  0.96960  0.39803  0.28993  1.0000
  H   H6511     1.0  0.92054  0.24664  0.36882  1.0000
  H   H6512     1.0  0.94444  0.32636  0.26886  1.0000
  C   C3663     1.0  0.90236  0.34104  0.28416  1.0000
  C   C3664     1.0  0.86181  0.41182  0.30309  1.0000
  H   H6513     1.0  0.98879  0.37732  0.34722  1.0000
  C   C3665     1.0  0.95611  0.31444  0.25275  1.0000
  H   H6514     1.0  0.97652  0.35598  0.32306  1.0000
  C   C3666     1.0  0.98761  0.36271  0.44313  1.0000
  C   C3667     1.0  0.99701  0.24408  0.35193  1.0000
  H   H6515     1.0  0.97480  0.37105  0.33047  1.0000
  H   H6516     1.0  0.92723  0.26899  0.35358  1.0000
  S   S812      1.0  0.92015  0.24217  0.43155  1.0000
  H   H6517     1.0  0.97297  0.37751  0.30450  1.0000
  H   H6518     1.0  0.97642  0.30961  0.39229  1.0000
  S   S813      1.0  0.93096  0.25563  0.38956  1.0000
  C   C3668     1.0  0.98160  0.47697  0.33314  1.0000
  H   H6519     1.0  0.97836  0.35555  0.37378  1.0000
  C   C3669     1.0  0.87417  0.44022  0.26987  1.0000
  H   H6520     1.0  0.87192  0.44876  0.27586  1.0000
  C   C3670     1.0  0.94110  0.33999  0.24769  1.0000
  H   H6521     1.0  0.94978  0.42416  0.28427  1.0000
  H   H6522     1.0  0.95759  0.43240  0.26615  1.0000
  Fe  Fe412     1.0  0.98595  0.42218  0.36315  1.0000
  C   C3671     1.0  0.84343  0.45819  0.30112  1.0000
  H   H6523     1.0  0.99254  0.35975  0.32531  1.0000
  H   H6524     1.0  0.98333  0.39224  0.31588  1.0000
  H   H6525     1.0  0.94907  0.31830  0.36665  1.0000
  S   S814      1.0  0.87521  0.38715  0.23806  1.0000
  C   C3672     1.0  0.96224  0.35949  0.36167  1.0000
  C   C3673     1.0  0.98645  0.28735  0.37667  1.0000
  H   H6526     1.0  0.89511  0.33369  0.28561  1.0000
  C   C3674     1.0  0.97466  0.33300  0.29171  1.0000
  C   C3675     1.0  0.96802  0.29385  0.32329  1.0000
  C   C3676     1.0  0.94611  0.28759  0.34179  1.0000
  C   C3677     1.0  0.97685  0.44754  0.31733  1.0000
  H   H6527     1.0  0.96011  0.35553  0.35326  1.0000
  C   C3678     1.0  0.93505  0.35144  0.44785  1.0000
  C   C3679     1.0  0.99570  0.37456  0.47449  1.0000
  H   H6528     1.0  0.89544  0.35188  0.28484  1.0000
  H   H6529     1.0  0.97842  0.28445  0.38680  1.0000
  H   H6530     1.0  0.98804  0.47005  0.36754  1.0000
  C   C3680     1.0  0.93994  0.48979  0.36142  1.0000
  H   H6531     1.0  0.85161  0.40418  0.25887  1.0000
  H   H6532     1.0  0.91698  0.35700  0.24076  1.0000
  H   H6533     1.0  0.99905  0.29557  0.44908  1.0000
  H   H6534     1.0  0.94682  0.30982  0.25331  1.0000
  C   C3681     1.0  0.98460  0.30361  0.37187  1.0000
  H   H6535     1.0  0.88507  0.24476  0.41803  1.0000
  H   H6536     1.0  0.95781  0.38527  0.24338  1.0000
  C   C3682     1.0  0.79429  0.47609  0.24571  1.0000
  H   H6537     1.0  0.99133  0.36759  0.30007  1.0000
  H   H6538     1.0  0.96660  0.48239  0.31198  1.0000
  C   C3683     1.0  0.98787  0.33097  0.39143  1.0000
  C   C3684     1.0  0.98633  0.31015  0.38349  1.0000
  S   S815      1.0  0.98754  0.48063  0.42652  1.0000
  S   S816      1.0  0.99914  0.39374  0.40873  1.0000
  H   H6539     1.0  0.00082  0.38245  0.30890  1.0000
  H   H6540     1.0  0.98490  0.37958  0.27980  1.0000
  H   H6541     1.0  0.99261  0.34066  0.38800  1.0000
  H   H6542     1.0  0.98800  0.44074  0.31524  1.0000
  C   C3685     1.0  0.97875  0.47924  0.30904  1.0000
  H   H6543     1.0  0.98196  0.29054  0.33845  1.0000
  H   H6544     1.0  0.98620  0.39484  0.26541  1.0000
  S   S817      1.0  0.99209  0.32737  0.48048  1.0000
  H   H6545     1.0  0.95953  0.37622  0.26154  1.0000
  H   H6546     1.0  0.99245  0.35188  0.44803  1.0000
  C   C3686     1.0  0.99999  0.39259  0.28023  1.0000
  C   C3687     1.0  0.99360  0.25303  0.37308  1.0000
  H   H6547     1.0  0.93195  0.38351  0.24962  1.0000
  H   H6548     1.0  0.99533  0.30279  0.38836  1.0000
  H   H6549     1.0  0.90707  0.41174  0.24779  1.0000
  C   C3688     1.0  0.84357  0.46020  0.24089  1.0000
  N   N206      1.0  0.98447  0.46884  0.32154  1.0000
  H   H6550     1.0  0.98117  0.47415  0.29984  1.0000
  C   C3689     1.0  0.99758  0.42008  0.43068  1.0000
  H   H6551     1.0  0.91643  0.37224  0.24673  1.0000
  C   C3690     1.0  0.99506  0.32053  0.40361  1.0000
  C   C3691     1.0  0.00066  0.46245  0.31775  1.0000
  C   C3692     1.0  0.92333  0.45687  0.25365  1.0000
  N   N207      1.0  0.93356  0.35384  0.25251  1.0000
  C   C3693     1.0  0.99256  0.38611  0.27242  1.0000
  H   H6552     1.0  0.00054  0.36504  0.46972  1.0000
  H   H6553     1.0  0.97583  0.48514  0.35911  1.0000
  H   H6554     1.0  0.80370  0.46696  0.24741  1.0000
  H   H6555     1.0  0.93174  0.44698  0.25624  1.0000
  H   H6556     1.0  0.98829  0.48525  0.32959  1.0000
  H   H6557     1.0  0.95324  0.36195  0.24249  1.0000
  H   H6558     1.0  0.93657  0.48204  0.37151  1.0000
  C   C3694     1.0  0.99606  0.38793  0.46229  1.0000
  H   H6559     1.0  0.99619  0.49141  0.30287  1.0000
  H   H6560     1.0  0.98457  0.28318  0.36828  1.0000
  H   H6561     1.0  0.99765  0.28218  0.37833  1.0000
  H   H6562     1.0  0.99101  0.39784  0.46649  1.0000
  H   H6563     1.0  0.99562  0.40933  0.43172  1.0000
  S   S818      1.0  0.96894  0.25074  0.36641  1.0000
  H   H6564     1.0  0.99225  0.27226  0.31580  1.0000
  C   C3695     1.0  0.00260  0.32659  0.36746  1.0000
  C   C3696     1.0  0.99840  0.31702  0.28671  1.0000
  H   H6565     1.0  0.99626  0.33843  0.41159  1.0000
  H   H6566     1.0  0.96276  0.31603  0.24161  1.0000
  S   S819      1.0  0.98683  0.29530  0.48287  1.0000
  C   C3697     1.0  0.89706  0.24829  0.37399  1.0000
  H   H6567     1.0  0.99491  0.45940  0.34636  1.0000
  H   H6568     1.0  0.99767  0.28876  0.42762  1.0000
  S   S820      1.0  0.00184  0.42256  0.34181  1.0000
  H   H6569     1.0  0.00118  0.32665  0.35674  1.0000
  H   H6570     1.0  0.99973  0.34168  0.30365  1.0000
  S   S821      1.0  0.95878  0.32241  0.48658  1.0000
  H   H6571     1.0  0.99840  0.37264  0.25701  1.0000
  C   C3698     1.0  0.99386  0.27900  0.32215  1.0000
  H   H6572     1.0  0.00178  0.27230  0.32875  1.0000
  H   H6573     1.0  0.00141  0.41984  0.44023  1.0000
  H   H6574     1.0  0.00196  0.44650  0.41654  1.0000
  H   H6575     1.0  0.00302  0.24835  0.43568  1.0000
  C   C3699     1.0  0.92468  0.46193  0.23747  1.0000
  S   S822      1.0  0.97659  0.30871  0.51947  1.0000
  C   C3700     1.0  0.98382  0.24480  0.68594  1.0000
  H   H6576     1.0  0.97912  0.31942  0.54238  1.0000
  C   C3701     1.0  0.97958  0.35966  0.50859  1.0000
  C   C3702     1.0  0.99031  0.38275  0.58997  1.0000
  S   S823      1.0  0.96622  0.37116  0.68083  1.0000
  S   S824      1.0  0.98650  0.26600  0.59382  1.0000
  C   C3703     1.0  0.96186  0.29414  0.67738  1.0000
  C   C3704     1.0  0.94799  0.29151  0.68418  1.0000
  C   C3705     1.0  0.94153  0.28418  0.67825  1.0000
  C   C3706     1.0  0.94897  0.27925  0.66564  1.0000
  C   C3707     1.0  0.96907  0.28955  0.66458  1.0000
  H   H6577     1.0  0.94234  0.29492  0.69408  1.0000
  H   H6578     1.0  0.93081  0.28212  0.68357  1.0000
  C   C3708     1.0  0.95989  0.28330  0.56883  1.0000
  H   H6579     1.0  0.98914  0.41816  0.65575  1.0000
  C   C3709     1.0  0.93890  0.28347  0.53493  1.0000
  C   C3710     1.0  0.98362  0.37057  0.66964  1.0000
  H   H6580     1.0  0.95851  0.30373  0.55249  1.0000
  H   H6581     1.0  0.95188  0.31588  0.60785  1.0000
  C   C3711     1.0  0.95482  0.25323  0.57306  1.0000
  C   C3712     1.0  0.97805  0.32612  0.63920  1.0000
  S   S825      1.0  0.97129  0.30223  0.68463  1.0000
  H   H6582     1.0  0.96082  0.39311  0.65483  1.0000
  C   C3713     1.0  0.98142  0.30145  0.60856  1.0000
  C   C3714     1.0  0.98060  0.28789  0.60768  1.0000
  C   C3715     1.0  0.98608  0.28352  0.59469  1.0000
  H   H6583     1.0  0.99839  0.34212  0.50820  1.0000
  Fe  Fe413     1.0  0.97859  0.31226  0.49577  1.0000
  H   H6584     1.0  0.97794  0.30434  0.61880  1.0000
  H   H6585     1.0  0.97599  0.28076  0.61716  1.0000
  C   C3716     1.0  0.98979  0.38267  0.66514  1.0000
  Fe  Fe414     1.0  0.97498  0.25380  0.61460  1.0000
  H   H6586     1.0  0.96575  0.28525  0.53673  1.0000
  C   C3717     1.0  0.99015  0.40064  0.61193  1.0000
  H   H6587     1.0  0.94455  0.32751  0.67553  1.0000
  H   H6588     1.0  0.96005  0.28094  0.71622  1.0000
  H   H6589     1.0  0.97042  0.34093  0.51254  1.0000
  H   H6590     1.0  0.94717  0.26002  0.58032  1.0000
  H   H6591     1.0  0.97110  0.24998  0.71458  1.0000
  S   S826      1.0  0.95054  0.25708  0.62126  1.0000
  H   H6592     1.0  0.98017  0.31544  0.63666  1.0000
  H   H6593     1.0  0.95712  0.35754  0.51355  1.0000
  H   H6594     1.0  0.94120  0.27263  0.53266  1.0000
  H   H6595     1.0  0.96362  0.26621  0.73129  1.0000
  C   C3718     1.0  0.99135  0.31295  0.52274  1.0000
  H   H6596     1.0  0.97153  0.30070  0.56318  1.0000
  H   H6597     1.0  0.95705  0.31003  0.63903  1.0000
  H   H6598     1.0  0.93845  0.27570  0.55740  1.0000
  H   H6599     1.0  0.98353  0.39261  0.66819  1.0000
  Fe  Fe415     1.0  0.98108  0.32676  0.71701  1.0000
  S   S827      1.0  0.96461  0.34723  0.71870  1.0000
  C   C3719     1.0  0.96056  0.29940  0.56346  1.0000
  H   H6600     1.0  0.94123  0.29361  0.55015  1.0000
  S   S828      1.0  0.96477  0.31301  0.72278  1.0000
  H   H6601     1.0  0.99602  0.37276  0.51440  1.0000
  S   S829      1.0  0.94721  0.33798  0.69983  1.0000
  Fe  Fe416     1.0  0.96523  0.34946  0.69562  1.0000
  H   H6602     1.0  0.97557  0.25109  0.55877  1.0000
  C   C3720     1.0  0.96115  0.27701  0.54564  1.0000
  C   C3721     1.0  0.99832  0.40943  0.70120  1.0000
  H   H6603     1.0  0.98447  0.38336  0.63858  1.0000
  N   N208      1.0  0.98870  0.38515  0.61574  1.0000
  Fe  Fe417     1.0  0.95441  0.25562  0.64303  1.0000
  H   H6604     1.0  0.97166  0.28153  0.72704  1.0000
  H   H6605     1.0  0.99781  0.26511  0.66746  1.0000
  H   H6606     1.0  0.99980  0.32617  0.54668  1.0000
  H   H6607     1.0  0.96368  0.31985  0.65882  1.0000
  H   H6608     1.0  0.98648  0.34885  0.66796  1.0000
  C   C3722     1.0  0.97898  0.38253  0.63057  1.0000
  H   H6609     1.0  0.99336  0.42109  0.69900  1.0000
  H   H6610     1.0  0.99071  0.39399  0.58418  1.0000
  S   S830      1.0  0.98879  0.32764  0.59770  1.0000
  H   H6611     1.0  0.96966  0.26411  0.69926  1.0000
  H   H6612     1.0  0.96327  0.35510  0.62688  1.0000
  C   C3723     1.0  0.99029  0.32565  0.64613  1.0000
  H   H6613     1.0  0.93346  0.34398  0.66775  1.0000
  C   C3724     1.0  0.95253  0.32132  0.63387  1.0000
  H   H6614     1.0  0.98615  0.27578  0.70416  1.0000
  H   H6615     1.0  0.99848  0.48181  0.63518  1.0000
  S   S831      1.0  0.97860  0.25381  0.63584  1.0000
  H   H6616     1.0  0.95785  0.34690  0.61574  1.0000
  C   C3725     1.0  0.94380  0.34644  0.63761  1.0000
  C   C3726     1.0  0.98176  0.26709  0.71256  1.0000
  C   C3727     1.0  0.96895  0.38193  0.72173  1.0000
  C   C3728     1.0  0.99604  0.42409  0.67189  1.0000
  N   N209      1.0  0.98984  0.24787  0.69689  1.0000
  H   H6617     1.0  0.95066  0.31984  0.56956  1.0000
  H   H6618     1.0  0.98930  0.26557  0.53480  1.0000
  H   H6619     1.0  0.95810  0.38044  0.72180  1.0000
  N   N210      1.0  0.94945  0.33090  0.64420  1.0000
  H   H6620     1.0  0.96421  0.40416  0.62922  1.0000
  C   C3729     1.0  0.96798  0.35261  0.50767  1.0000
  H   H6621     1.0  0.94165  0.35324  0.64543  1.0000
  H   H6622     1.0  0.99759  0.25556  0.54975  1.0000
  H   H6623     1.0  0.96940  0.39329  0.71662  1.0000
  C   C3730     1.0  0.99292  0.49065  0.73580  1.0000
  H   H6624     1.0  0.98828  0.27535  0.56197  1.0000
  C   C3731     1.0  0.95536  0.39001  0.64817  1.0000
  H   H6625     1.0  0.95696  0.39082  0.62617  1.0000
  N   N211      1.0  0.96805  0.27387  0.55830  1.0000
  H   H6626     1.0  0.97544  0.25596  0.57468  1.0000
  H   H6627     1.0  0.97972  0.29171  0.65914  1.0000
  C   C3732     1.0  0.93769  0.32612  0.65683  1.0000
  H   H6628     1.0  0.96848  0.27865  0.64895  1.0000
  C   C3733     1.0  0.93511  0.33212  0.67035  1.0000
  H   H6629     1.0  0.98965  0.40417  0.70124  1.0000
  H   H6630     1.0  0.97115  0.39052  0.60467  1.0000
  H   H6631     1.0  0.94016  0.31417  0.66035  1.0000
  C   C3734     1.0  0.96925  0.25834  0.56614  1.0000
  C   C3735     1.0  0.99355  0.42688  0.65678  1.0000
  C   C3736     1.0  0.94956  0.30848  0.57350  1.0000
  H   H6632     1.0  0.99385  0.35086  0.71662  1.0000
  H   H6633     1.0  0.98613  0.42382  0.72410  1.0000
  C   C3737     1.0  0.00092  0.40514  0.71666  1.0000
  C   C3738     1.0  0.98149  0.38241  0.60555  1.0000
  H   H6634     1.0  0.93539  0.36430  0.72910  1.0000
  H   H6635     1.0  0.97922  0.35831  0.52013  1.0000
  H   H6636     1.0  0.98980  0.40413  0.62174  1.0000
  H   H6637     1.0  0.95480  0.37851  0.65235  1.0000
  H   H6638     1.0  0.97664  0.37133  0.50388  1.0000
  H   H6639     1.0  0.94827  0.28265  0.57257  1.0000
  C   C3739     1.0  0.94402  0.31153  0.61745  1.0000
  H   H6640     1.0  0.92041  0.33207  0.69123  1.0000
  H   H6641     1.0  0.91168  0.33323  0.67716  1.0000
  C   C3740     1.0  0.99503  0.35265  0.50101  1.0000
  H   H6642     1.0  0.98314  0.36524  0.58669  1.0000
  C   C3741     1.0  0.96360  0.39268  0.63253  1.0000
  H   H6643     1.0  0.96107  0.32428  0.62430  1.0000
  H   H6644     1.0  0.97705  0.37145  0.63386  1.0000
  H   H6645     1.0  0.97824  0.37189  0.60990  1.0000
  S   S832      1.0  0.94070  0.26992  0.65850  1.0000
  H   H6646     1.0  0.94908  0.30036  0.62232  1.0000
  C   C3742     1.0  0.94572  0.36817  0.61706  1.0000
  H   H6647     1.0  0.98530  0.42351  0.67937  1.0000
  H   H6648     1.0  0.92693  0.28783  0.53682  1.0000
  H   H6649     1.0  0.92701  0.32909  0.65369  1.0000
  C   C3743     1.0  0.99150  0.35787  0.66535  1.0000
  C   C3744     1.0  0.98961  0.31805  0.53499  1.0000
  H   H6650     1.0  0.99569  0.28995  0.57225  1.0000
  H   H6651     1.0  0.96220  0.33863  0.65388  1.0000
  S   S833      1.0  0.00047  0.31987  0.72715  1.0000
  H   H6652     1.0  0.93434  0.31119  0.61396  1.0000
  H   H6653     1.0  0.93300  0.34787  0.63521  1.0000
  H   H6654     1.0  0.98073  0.40789  0.60754  1.0000
  C   C3745     1.0  0.93935  0.32104  0.62832  1.0000
  C   C3746     1.0  0.98300  0.37682  0.58190  1.0000
  Fe  Fe418     1.0  0.96518  0.31800  0.69920  1.0000
  H   H6655     1.0  0.93431  0.33196  0.62296  1.0000
  C   C3747     1.0  0.96275  0.28206  0.65881  1.0000
  C   C3748     1.0  0.98337  0.27643  0.55283  1.0000
  H   H6656     1.0  0.98901  0.37784  0.57055  1.0000
  S   S834      1.0  0.98319  0.32990  0.69358  1.0000
  H   H6657     1.0  0.93826  0.30806  0.57385  1.0000
  C   C3749     1.0  0.99173  0.29306  0.58242  1.0000
  C   C3750     1.0  0.98731  0.31089  0.59637  1.0000
  C   C3751     1.0  0.99422  0.26646  0.54317  1.0000
  H   H6658     1.0  0.98317  0.28762  0.54644  1.0000
  H   H6659     1.0  0.98871  0.33591  0.64929  1.0000
  C   C3752     1.0  0.94435  0.28261  0.54814  1.0000
  C   C3753     1.0  0.92167  0.32817  0.68145  1.0000
  H   H6660     1.0  0.97885  0.33426  0.62900  1.0000
  H   H6661     1.0  0.94407  0.39663  0.64916  1.0000
  C   C3754     1.0  0.97757  0.25696  0.70580  1.0000
  H   H6662     1.0  0.99010  0.26132  0.71887  1.0000
  H   H6663     1.0  0.94423  0.29071  0.52542  1.0000
  H   H6664     1.0  0.92279  0.31633  0.68454  1.0000
  H   H6665     1.0  0.95315  0.37311  0.60744  1.0000
  C   C3755     1.0  0.99231  0.30673  0.58325  1.0000
  C   C3756     1.0  0.96295  0.32916  0.64961  1.0000
  H   H6666     1.0  0.95166  0.30457  0.58448  1.0000
  H   H6667     1.0  0.94167  0.37540  0.62470  1.0000
  H   H6668     1.0  0.93098  0.31655  0.63723  1.0000
  Fe  Fe419     1.0  0.94823  0.33396  0.72300  1.0000
  C   C3757     1.0  0.95384  0.35344  0.62398  1.0000
  H   H6669     1.0  0.93634  0.36707  0.61359  1.0000
  H   H6670     1.0  0.96402  0.26731  0.54106  1.0000
  C   C3758     1.0  0.98777  0.41192  0.72703  1.0000
  H   H6671     1.0  0.97752  0.37497  0.71515  1.0000
  H   H6672     1.0  0.96420  0.27934  0.57876  1.0000
  H   H6673     1.0  0.97158  0.38289  0.58210  1.0000
  H   H6674     1.0  0.99402  0.34991  0.49139  1.0000
  H   H6675     1.0  0.98811  0.27530  0.68086  1.0000
  H   H6676     1.0  0.94954  0.25321  0.56459  1.0000
  H   H6677     1.0  0.99460  0.28620  0.63571  1.0000
  H   H6678     1.0  0.83175  0.25430  0.62337  1.0000
  C   C3759     1.0  0.96842  0.27433  0.72239  1.0000
  H   H6679     1.0  0.99958  0.43338  0.67269  1.0000
  H   H6680     1.0  0.99064  0.31671  0.65579  1.0000
  H   H6681     1.0  0.98235  0.37949  0.73634  1.0000
  C   C3760     1.0  0.00128  0.32192  0.53739  1.0000
  H   H6682     1.0  0.96748  0.35414  0.49633  1.0000
  H   H6683     1.0  0.99437  0.42618  0.59148  1.0000
  C   C3761     1.0  0.00225  0.25526  0.68888  1.0000
  H   H6684     1.0  0.99671  0.38404  0.49087  1.0000
  H   H6685     1.0  0.96605  0.49012  0.73179  1.0000
  H   H6686     1.0  0.99941  0.35610  0.61180  1.0000
  H   H6687     1.0  0.97854  0.25501  0.67941  1.0000
  H   H6688     1.0  0.99659  0.31407  0.57370  1.0000
  H   H6689     1.0  0.99675  0.35529  0.63061  1.0000
  H   H6690     1.0  0.00155  0.37623  0.58944  1.0000
  H   H6691     1.0  0.00093  0.32383  0.63845  1.0000
  H   H6692     1.0  0.95903  0.24627  0.67617  1.0000
  H   H6693     1.0  0.97773  0.40890  0.72692  1.0000
  H   H6694     1.0  0.99889  0.49044  0.72454  1.0000
  H   H6695     1.0  0.98560  0.43723  0.65455  1.0000
  C   C3762     1.0  0.99861  0.26849  0.67687  1.0000
  H   H6696     1.0  0.00150  0.42485  0.60685  1.0000
  H   H6697     1.0  0.00246  0.40142  0.67426  1.0000
  C   C3763     1.0  0.83072  0.24293  0.62626  1.0000
  H   H6698     1.0  0.00269  0.39332  0.72068  1.0000
  H   H6699     1.0  0.82271  0.24209  0.62074  1.0000
  C   C3764     1.0  0.97126  0.37832  0.73700  1.0000
  H   H6700     1.0  0.99111  0.35658  0.77833  1.0000
  H   H6701     1.0  0.89502  0.47565  0.91218  1.0000
  Fe  Fe420     1.0  0.61247  0.26198  0.94065  1.0000
  Fe  Fe421     1.0  0.72303  0.32707  0.95604  1.0000
  S   S835      1.0  0.69842  0.33294  0.96231  1.0000
  S   S836      1.0  0.73602  0.33848  0.93537  1.0000
  H   H6702     1.0  0.67296  0.38696  0.96042  1.0000
  H   H6703     1.0  0.92084  0.36634  0.84663  1.0000
  Fe  Fe422     1.0  0.69971  0.30908  0.97079  1.0000
  S   S837      1.0  0.68088  0.29861  0.97274  1.0000
  H   H6704     1.0  0.91366  0.45394  0.81947  1.0000
  S   S838      1.0  0.72417  0.30313  0.96275  1.0000
  S   S839      1.0  0.60093  0.27718  0.92395  1.0000
  S   S840      1.0  0.55908  0.36644  0.95520  1.0000
  S   S841      1.0  0.57555  0.34185  0.92789  1.0000
  H   H6705     1.0  0.88219  0.35774  0.88453  1.0000
  Fe  Fe423     1.0  0.82532  0.39021  0.90529  1.0000
  S   S842      1.0  0.80227  0.39997  0.91501  1.0000
  S   S843      1.0  0.84605  0.39602  0.90458  1.0000
  Fe  Fe424     1.0  0.81656  0.37304  0.88987  1.0000
  S   S844      1.0  0.79269  0.38127  0.89785  1.0000
  S   S845      1.0  0.82378  0.35690  0.87603  1.0000
  Fe  Fe425     1.0  0.79824  0.40272  0.89329  1.0000
  S   S846      1.0  0.78435  0.42202  0.88175  1.0000
  Fe  Fe426     1.0  0.79827  0.37779  0.91896  1.0000
  S   S847      1.0  0.78412  0.36783  0.93952  1.0000
  S   S848      1.0  0.82152  0.39484  0.88318  1.0000
  S   S849      1.0  0.82192  0.36771  0.91139  1.0000
  Fe  Fe427     1.0  0.89134  0.37585  0.81777  1.0000
  S   S850      1.0  0.88662  0.38803  0.79635  1.0000
  S   S851      1.0  0.88318  0.35572  0.82936  1.0000
  Fe  Fe428     1.0  0.90860  0.39629  0.81840  1.0000
  S   S852      1.0  0.90521  0.41053  0.79726  1.0000
  S   S853      1.0  0.91965  0.40048  0.83320  1.0000
  Fe  Fe429     1.0  0.88225  0.40765  0.80507  1.0000
  Fe  Fe430     1.0  0.61399  0.24851  0.97153  1.0000
  Fe  Fe431     1.0  0.90995  0.38984  0.79015  1.0000
  S   S854      1.0  0.92405  0.38928  0.76802  1.0000
  S   S855      1.0  0.88500  0.39530  0.82696  1.0000
  S   S856      1.0  0.91530  0.37576  0.81079  1.0000
  C   C3765     1.0  0.78039  0.32359  0.91795  1.0000
  H   H6706     1.0  0.91273  0.35174  0.85861  1.0000
  C   C3766     1.0  0.81719  0.42527  0.79152  1.0000
  H   H6707     1.0  0.87993  0.43919  0.77433  1.0000
  H   H6708     1.0  0.89144  0.44407  0.85737  1.0000
  H   H6709     1.0  0.65327  0.36393  0.98154  1.0000
  H   H6710     1.0  0.87685  0.45916  0.85263  1.0000
  H   H6711     1.0  0.63804  0.34030  0.91999  1.0000
  H   H6712     1.0  0.88885  0.36954  0.86301  1.0000
  C   C3767     1.0  0.62213  0.29396  0.97534  1.0000
  C   C3768     1.0  0.62778  0.30534  0.96276  1.0000
  Fe  Fe432     1.0  0.87450  0.41707  0.95248  1.0000
  S   S857      1.0  0.87200  0.43533  0.93354  1.0000
  S   S858      1.0  0.85857  0.40255  0.96050  1.0000
  Fe  Fe433     1.0  0.90057  0.42489  0.95640  1.0000
  S   S859      1.0  0.90076  0.44353  0.93740  1.0000
  Fe  Fe434     1.0  0.87659  0.44842  0.94592  1.0000
  S   S860      1.0  0.86371  0.47090  0.94603  1.0000
  Fe  Fe435     1.0  0.89623  0.42877  0.92657  1.0000
  S   S861      1.0  0.90368  0.42900  0.90305  1.0000
  S   S862      1.0  0.87670  0.43088  0.96565  1.0000
  S   S863      1.0  0.89857  0.40942  0.94472  1.0000
  S   S864      1.0  0.63348  0.24765  0.93229  1.0000
  S   S865      1.0  0.98823  0.44872  0.85336  1.0000
  Fe  Fe436     1.0  0.98231  0.43129  0.82587  1.0000
  S   S866      1.0  0.96372  0.44079  0.84200  1.0000
  S   S867      1.0  0.97894  0.42148  0.80955  1.0000
  Fe  Fe437     1.0  0.97536  0.45864  0.83647  1.0000
  H   H6713     1.0  0.98405  0.42493  0.95576  1.0000
  Fe  Fe438     1.0  0.97829  0.42979  0.85748  1.0000
  S   S868      1.0  0.97171  0.41772  0.88023  1.0000
  C   C3769     1.0  0.98812  0.43131  0.94497  1.0000
  C   C3770     1.0  0.98909  0.27751  0.74961  1.0000
  C   C3771     1.0  0.92256  0.42451  0.89689  1.0000
  C   C3772     1.0  0.92842  0.42610  0.88216  1.0000
  C   C3773     1.0  0.94356  0.42350  0.87696  1.0000
  C   C3774     1.0  0.95284  0.41921  0.88648  1.0000
  C   C3775     1.0  0.94694  0.41664  0.90125  1.0000
  C   C3776     1.0  0.93179  0.41952  0.90648  1.0000
  H   H6714     1.0  0.92128  0.42954  0.87474  1.0000
  H   H6715     1.0  0.94802  0.42478  0.86561  1.0000
  H   H6716     1.0  0.95414  0.41278  0.90860  1.0000
  H   H6717     1.0  0.92722  0.41791  0.91787  1.0000
  C   C3777     1.0  0.95466  0.47383  0.81342  1.0000
  H   H6718     1.0  0.53422  0.37353  0.94091  1.0000
  H   H6719     1.0  0.91608  0.36162  0.78126  1.0000
  H   H6720     1.0  0.96503  0.46627  0.81243  1.0000
  H   H6721     1.0  0.85249  0.48127  0.89743  1.0000
  C   C3778     1.0  0.93656  0.40541  0.82636  1.0000
  C   C3779     1.0  0.94300  0.40841  0.83573  1.0000
  C   C3780     1.0  0.95620  0.41293  0.83064  1.0000
  C   C3781     1.0  0.96299  0.41466  0.81612  1.0000
  C   C3782     1.0  0.95682  0.41119  0.80679  1.0000
  C   C3783     1.0  0.94356  0.40661  0.81188  1.0000
  H   H6722     1.0  0.93773  0.40731  0.84697  1.0000
  H   H6723     1.0  0.96117  0.41493  0.83804  1.0000
  H   H6724     1.0  0.96224  0.41220  0.79563  1.0000
  H   H6725     1.0  0.93868  0.40418  0.80464  1.0000
  C   C3784     1.0  0.92454  0.37471  0.76099  1.0000
  C   C3785     1.0  0.92030  0.36223  0.76989  1.0000
  C   C3786     1.0  0.92171  0.35042  0.76408  1.0000
  H   H6726     1.0  0.51771  0.34178  0.94921  1.0000
  H   H6727     1.0  0.75405  0.38536  0.97991  1.0000
  H   H6728     1.0  0.92506  0.48281  0.87602  1.0000
  H   H6729     1.0  0.95364  0.34728  0.76740  1.0000
  H   H6730     1.0  0.85966  0.35237  0.90137  1.0000
  H   H6731     1.0  0.98544  0.27540  0.76146  1.0000
  H   H6732     1.0  0.61785  0.24341  0.88338  1.0000
  C   C3787     1.0  0.85964  0.44232  0.80086  1.0000
  C   C3788     1.0  0.86932  0.44756  0.80503  1.0000
  C   C3789     1.0  0.86707  0.46245  0.80400  1.0000
  H   H6733     1.0  0.69645  0.46357  0.95998  1.0000
  H   H6734     1.0  0.87841  0.44014  0.80909  1.0000
  H   H6735     1.0  0.85876  0.36515  0.81399  1.0000
  C   C3790     1.0  0.84516  0.47088  0.94977  1.0000
  C   C3791     1.0  0.84051  0.45797  0.95577  1.0000
  C   C3792     1.0  0.82579  0.45779  0.95800  1.0000
  H   H6736     1.0  0.96893  0.44635  0.88675  1.0000
  H   H6737     1.0  0.95787  0.36261  0.74509  1.0000
  C   C3793     1.0  0.85020  0.39529  0.92077  1.0000
  C   C3794     1.0  0.84094  0.39142  0.93408  1.0000
  C   C3795     1.0  0.84386  0.39294  0.94655  1.0000
  C   C3796     1.0  0.85593  0.39842  0.94559  1.0000
  C   C3797     1.0  0.86553  0.40145  0.93238  1.0000
  C   C3798     1.0  0.86271  0.39977  0.92007  1.0000
  H   H6738     1.0  0.83128  0.38785  0.93468  1.0000
  H   H6739     1.0  0.83648  0.39048  0.95680  1.0000
  H   H6740     1.0  0.87504  0.40532  0.93159  1.0000
  H   H6741     1.0  0.86997  0.40249  0.90988  1.0000
  C   C3799     1.0  0.84047  0.35701  0.86338  1.0000
  C   C3800     1.0  0.84920  0.36659  0.86194  1.0000
  C   C3801     1.0  0.86225  0.36657  0.85131  1.0000
  C   C3802     1.0  0.86672  0.35673  0.84241  1.0000
  C   C3803     1.0  0.85809  0.34703  0.84413  1.0000
  C   C3804     1.0  0.84497  0.34729  0.85442  1.0000
  H   H6742     1.0  0.84597  0.37391  0.86903  1.0000
  H   H6743     1.0  0.86898  0.37392  0.85020  1.0000
  H   H6744     1.0  0.86154  0.33934  0.83737  1.0000
  H   H6745     1.0  0.83835  0.33982  0.85551  1.0000
  C   C3805     1.0  0.77629  0.43605  0.89086  1.0000
  C   C3806     1.0  0.76364  0.44574  0.88753  1.0000
  C   C3807     1.0  0.75675  0.45682  0.89487  1.0000
  C   C3808     1.0  0.76272  0.45857  0.90528  1.0000
  C   C3809     1.0  0.77545  0.44894  0.90858  1.0000
  C   C3810     1.0  0.78218  0.43764  0.90143  1.0000
  H   H6746     1.0  0.75904  0.44458  0.87936  1.0000
  H   H6747     1.0  0.74687  0.46418  0.89235  1.0000
  H   H6748     1.0  0.77986  0.44994  0.91692  1.0000
  H   H6749     1.0  0.79196  0.43026  0.90405  1.0000
  H   H6750     1.0  0.89322  0.36417  0.89996  1.0000
  C   C3811     1.0  0.59499  0.29518  0.92523  1.0000
  C   C3812     1.0  0.59369  0.29935  0.93791  1.0000
  C   C3813     1.0  0.58808  0.31383  0.93874  1.0000
  C   C3814     1.0  0.58393  0.32405  0.92686  1.0000
  C   C3815     1.0  0.58587  0.31994  0.91407  1.0000
  C   C3816     1.0  0.59123  0.30552  0.91330  1.0000
  H   H6751     1.0  0.59653  0.29138  0.94717  1.0000
  H   H6752     1.0  0.58672  0.31699  0.94864  1.0000
  H   H6753     1.0  0.58295  0.32789  0.90482  1.0000
  H   H6754     1.0  0.59238  0.30233  0.90345  1.0000
  C   C3817     1.0  0.84074  0.40350  0.84473  1.0000
  H   H6755     1.0  0.64664  0.32291  0.94384  1.0000
  H   H6756     1.0  0.87415  0.34895  0.91055  1.0000
  H   H6757     1.0  0.85025  0.36437  0.80053  1.0000
  H   H6758     1.0  0.94869  0.46843  0.79673  1.0000
  H   H6759     1.0  0.90400  0.44018  0.80748  1.0000
  H   H6760     1.0  0.79468  0.33273  0.93242  1.0000
  H   H6761     1.0  0.77613  0.33134  0.92507  1.0000
  S   S869      1.0  0.62119  0.26787  0.95616  1.0000
  H   H6762     1.0  0.87446  0.46654  0.80726  1.0000
  C   C3818     1.0  0.77070  0.35987  0.93816  1.0000
  C   C3819     1.0  0.76602  0.34895  0.94944  1.0000
  C   C3820     1.0  0.75521  0.34251  0.94882  1.0000
  C   C3821     1.0  0.74895  0.34698  0.93687  1.0000
  C   C3822     1.0  0.75368  0.35792  0.92553  1.0000
  C   C3823     1.0  0.76452  0.36432  0.92619  1.0000
  H   H6763     1.0  0.77109  0.34522  0.95851  1.0000
  H   H6764     1.0  0.75211  0.33374  0.95735  1.0000
  H   H6765     1.0  0.74894  0.36143  0.91622  1.0000
  H   H6766     1.0  0.76811  0.37264  0.91740  1.0000
  C   C3824     1.0  0.67691  0.28736  0.96392  1.0000
  C   C3825     1.0  0.66413  0.28204  0.96997  1.0000
  C   C3826     1.0  0.66032  0.27311  0.96357  1.0000
  C   C3827     1.0  0.66891  0.26972  0.95073  1.0000
  H   H6767     1.0  0.94280  0.45183  0.87726  1.0000
  H   H6768     1.0  0.91374  0.47000  0.95834  1.0000
  H   H6769     1.0  0.83721  0.46918  0.82548  1.0000
  H   H6770     1.0  0.65081  0.26861  0.96863  1.0000
  C   C3828     1.0  0.58404  0.42989  0.96951  1.0000
  H   H6771     1.0  0.96271  0.41043  0.92903  1.0000
  Fe  Fe439     1.0  0.57193  0.34543  0.94986  1.0000
  C   C3829     1.0  0.78779  0.34366  0.89908  1.0000
  C   C3830     1.0  0.77494  0.34716  0.89154  1.0000
  C   C3831     1.0  0.77165  0.36304  0.88410  1.0000
  H   H6772     1.0  0.79707  0.34769  0.89103  1.0000
  H   H6773     1.0  0.78424  0.35044  0.90707  1.0000
  H   H6774     1.0  0.83231  0.38676  0.80407  1.0000
  H   H6775     1.0  0.80107  0.34722  0.91868  1.0000
  H   H6776     1.0  0.76484  0.34492  0.89940  1.0000
  H   H6777     1.0  0.77743  0.34082  0.88328  1.0000
  H   H6778     1.0  0.78134  0.36583  0.87585  1.0000
  H   H6779     1.0  0.76246  0.36529  0.87877  1.0000
  H   H6780     1.0  0.76850  0.36993  0.89200  1.0000
  H   H6781     1.0  0.93190  0.45340  0.92595  1.0000
  N   N212      1.0  0.00281  0.49167  0.74451  1.0000
  C   C3832     1.0  0.63140  0.30035  0.94848  1.0000
  H   H6782     1.0  0.77297  0.29469  0.94640  1.0000
  H   H6783     1.0  0.77266  0.48409  0.88022  1.0000
  H   H6784     1.0  0.62705  0.36568  0.94515  1.0000
  H   H6785     1.0  0.68353  0.45314  0.98409  1.0000
  H   H6786     1.0  0.79779  0.47617  0.86774  1.0000
  H   H6787     1.0  0.69562  0.28776  0.94631  1.0000
  H   H6788     1.0  0.96878  0.31039  0.76053  1.0000
  H   H6789     1.0  0.77664  0.30754  0.98643  1.0000
  H   H6790     1.0  0.92242  0.43081  0.80180  1.0000
  C   C3833     1.0  0.96567  0.34424  0.76664  1.0000
  H   H6791     1.0  0.66486  0.24341  0.98369  1.0000
  H   H6792     1.0  0.90897  0.46323  0.79436  1.0000
  H   H6793     1.0  0.98385  0.43799  0.92396  1.0000
  C   C3834     1.0  0.80875  0.30536  0.89631  1.0000
  H   H6794     1.0  0.78631  0.40518  0.94379  1.0000
  H   H6795     1.0  0.95007  0.41441  0.77504  1.0000
  C   C3835     1.0  0.99048  0.49155  0.78576  1.0000
  C   C3836     1.0  0.90175  0.49071  0.85681  1.0000
  H   H6796     1.0  0.89335  0.45968  0.78172  1.0000
  H   H6797     1.0  0.97975  0.42108  0.93376  1.0000
  N   N213      1.0  0.63801  0.31019  0.93515  1.0000
  C   C3837     1.0  0.64337  0.30205  0.92329  1.0000
  C   C3838     1.0  0.62623  0.32339  0.93199  1.0000
  C   C3839     1.0  0.63031  0.33490  0.91840  1.0000
  C   C3840     1.0  0.63165  0.29711  0.91930  1.0000
  C   C3841     1.0  0.61682  0.34649  0.91539  1.0000
  C   C3842     1.0  0.63852  0.28869  0.90748  1.0000
  H   H6798     1.0  0.64884  0.30847  0.91323  1.0000
  H   H6799     1.0  0.61638  0.32032  0.93137  1.0000
  H   H6800     1.0  0.61919  0.31537  0.96263  1.0000
  H   H6801     1.0  0.63520  0.33022  0.90881  1.0000
  H   H6802     1.0  0.62614  0.28987  0.92856  1.0000
  H   H6803     1.0  0.62334  0.30647  0.91536  1.0000
  H   H6804     1.0  0.98027  0.48773  0.78793  1.0000
  H   H6805     1.0  0.61144  0.35163  0.92467  1.0000
  H   H6806     1.0  0.62001  0.35492  0.90586  1.0000
  H   H6807     1.0  0.62988  0.28531  0.90483  1.0000
  H   H6808     1.0  0.64399  0.29543  0.89765  1.0000
  H   H6809     1.0  0.64655  0.27886  0.91115  1.0000
  N   N214      1.0  0.83298  0.44631  0.91118  1.0000
  C   C3843     1.0  0.83365  0.46196  0.90672  1.0000
  C   C3844     1.0  0.82309  0.44368  0.90343  1.0000
  C   C3845     1.0  0.82619  0.44330  0.92707  1.0000
  C   C3846     1.0  0.84781  0.43639  0.90847  1.0000
  C   C3847     1.0  0.85949  0.44225  0.89558  1.0000
  C   C3848     1.0  0.84140  0.46692  0.91545  1.0000
  C   C3849     1.0  0.82181  0.42862  0.93353  1.0000
  C   C3850     1.0  0.82817  0.44579  0.88695  1.0000
  C   C3851     1.0  0.81656  0.44395  0.88051  1.0000
  C   C3852     1.0  0.87249  0.43024  0.89196  1.0000
  C   C3853     1.0  0.84482  0.48166  0.90798  1.0000
  C   C3854     1.0  0.81864  0.42515  0.94988  1.0000
  H   H6810     1.0  0.82245  0.46873  0.90796  1.0000
  H   H6811     1.0  0.83871  0.46508  0.89520  1.0000
  H   H6812     1.0  0.82173  0.43239  0.90716  1.0000
  H   H6813     1.0  0.81200  0.45055  0.90591  1.0000
  H   H6814     1.0  0.81622  0.45173  0.92966  1.0000
  H   H6815     1.0  0.83382  0.44383  0.93324  1.0000
  H   H6816     1.0  0.85269  0.43316  0.91800  1.0000
  H   H6817     1.0  0.84670  0.42608  0.90702  1.0000
  H   H6818     1.0  0.86361  0.45028  0.89819  1.0000
  H   H6819     1.0  0.85526  0.44747  0.88576  1.0000
  H   H6820     1.0  0.83407  0.46791  0.92600  1.0000
  H   H6821     1.0  0.85160  0.45918  0.91744  1.0000
  H   H6822     1.0  0.83066  0.41999  0.92964  1.0000
  H   H6823     1.0  0.81174  0.42875  0.93042  1.0000
  H   H6824     1.0  0.83038  0.45661  0.88182  1.0000
  H   H6825     1.0  0.83815  0.43753  0.88414  1.0000
  H   H6826     1.0  0.80626  0.45201  0.88289  1.0000
  H   H6827     1.0  0.82039  0.44545  0.86872  1.0000
  H   H6828     1.0  0.81440  0.43297  0.88487  1.0000
  H   H6829     1.0  0.87705  0.42457  0.90156  1.0000
  H   H6830     1.0  0.86903  0.42252  0.88821  1.0000
  H   H6831     1.0  0.88112  0.43475  0.88342  1.0000
  H   H6832     1.0  0.83463  0.48975  0.90642  1.0000
  H   H6833     1.0  0.51494  0.32803  0.91754  1.0000
  C   C3855     1.0  0.92988  0.37542  0.74627  1.0000
  H   H6834     1.0  0.82862  0.42412  0.95363  1.0000
  H   H6835     1.0  0.80981  0.43370  0.95414  1.0000
  H   H6836     1.0  0.81510  0.41478  0.95416  1.0000
  N   N215      1.0  0.53290  0.32768  0.93596  1.0000
  H   H6837     1.0  0.89902  0.47847  0.76213  1.0000
  C   C3856     1.0  0.54271  0.32028  0.94647  1.0000
  S   S870      1.0  0.56108  0.33182  0.96972  1.0000
  C   C3857     1.0  0.54174  0.32926  0.92076  1.0000
  C   C3858     1.0  0.54941  0.31515  0.91559  1.0000
  H   H6838     1.0  0.55203  0.48408  0.97656  1.0000
  C   C3859     1.0  0.53574  0.35222  0.93812  1.0000
  C   C3860     1.0  0.54487  0.30370  0.95176  1.0000
  C   C3861     1.0  0.55538  0.29781  0.96184  1.0000
  C   C3862     1.0  0.55579  0.31822  0.89945  1.0000
  H   H6839     1.0  0.84828  0.44809  0.95852  1.0000
  C   C3863     1.0  0.94684  0.39985  0.94460  1.0000
  C   C3864     1.0  0.93135  0.36360  0.74049  1.0000
  H   H6840     1.0  0.52556  0.30852  0.93724  1.0000
  H   H6841     1.0  0.55369  0.32287  0.94203  1.0000
  H   H6842     1.0  0.53841  0.32450  0.95639  1.0000
  C   C3865     1.0  0.59974  0.42867  0.96079  1.0000
  C   C3866     1.0  0.99393  0.34802  0.77227  1.0000
  H   H6843     1.0  0.53494  0.33637  0.91316  1.0000
  H   H6844     1.0  0.55062  0.33483  0.91930  1.0000
  H   H6845     1.0  0.54189  0.30795  0.91770  1.0000
  H   H6846     1.0  0.55858  0.30941  0.92096  1.0000
  C   C3867     1.0  0.97417  0.45044  0.89286  1.0000
  H   H6847     1.0  0.92414  0.42893  0.77970  1.0000
  H   H6848     1.0  0.54266  0.35479  0.92723  1.0000
  H   H6849     1.0  0.54296  0.34703  0.94578  1.0000
  H   H6850     1.0  0.53438  0.30073  0.95795  1.0000
  H   H6851     1.0  0.54916  0.29817  0.94275  1.0000
  H   H6852     1.0  0.55686  0.28594  0.96527  1.0000
  H   H6853     1.0  0.56616  0.30032  0.95633  1.0000
  H   H6854     1.0  0.55105  0.30250  0.97147  1.0000
  H   H6855     1.0  0.56215  0.30803  0.89621  1.0000
  H   H6856     1.0  0.54693  0.32294  0.89348  1.0000
  H   H6857     1.0  0.56317  0.32576  0.89647  1.0000
  H   H6858     1.0  0.84237  0.47791  0.83612  1.0000
  Fe  Fe440     1.0  0.76905  0.48382  0.91756  1.0000
  H   H6859     1.0  0.92808  0.43856  0.76186  1.0000
  H   H6860     1.0  0.68311  0.32543  0.92053  1.0000
  Fe  Fe441     1.0  0.54952  0.35280  0.97602  1.0000
  H   H6861     1.0  0.51900  0.34875  0.93048  1.0000
  C   C3868     1.0  0.68576  0.28375  0.95116  1.0000
  H   H6862     1.0  0.96471  0.31529  0.77756  1.0000
  C   C3869     1.0  0.84075  0.39061  0.82073  1.0000
  Fe  Fe442     1.0  0.72572  0.30573  0.98395  1.0000
  H   H6863     1.0  0.96737  0.43013  0.91478  1.0000
  H   H6864     1.0  0.97129  0.37708  0.76565  1.0000
  N   N216      1.0  0.97201  0.35744  0.75982  1.0000
  C   C3870     1.0  0.82038  0.48338  0.94798  1.0000
  C   C3871     1.0  0.87545  0.36575  0.89091  1.0000
  H   H6865     1.0  0.60886  0.34179  0.91318  1.0000
  C   C3872     1.0  0.97884  0.43214  0.93465  1.0000
  H   H6866     1.0  0.71616  0.37904  0.95114  1.0000
  S   S871      1.0  0.60307  0.24420  0.95670  1.0000
  H   H6867     1.0  0.65610  0.30461  0.94560  1.0000
  C   C3873     1.0  0.83196  0.41070  0.83290  1.0000
  N   N217      1.0  0.82731  0.40057  0.82720  1.0000
  C   C3874     1.0  0.88285  0.44865  0.76599  1.0000
  H   H6868     1.0  0.90431  0.48132  0.77667  1.0000
  C   C3875     1.0  0.93187  0.48467  0.80586  1.0000
  C   C3876     1.0  0.84772  0.45188  0.79588  1.0000
  H   H6869     1.0  0.85582  0.45277  0.83767  1.0000
  H   H6870     1.0  0.80928  0.40459  0.85548  1.0000
  H   H6871     1.0  0.91676  0.43476  0.82662  1.0000
  H   H6872     1.0  0.79350  0.30607  0.93151  1.0000
  N   N218      1.0  0.91681  0.45206  0.77701  1.0000
  S   S872      1.0  0.99612  0.41887  0.84178  1.0000
  H   H6873     1.0  0.80101  0.32595  0.88393  1.0000
  H   H6874     1.0  0.62097  0.29877  0.94747  1.0000
  H   H6875     1.0  0.82225  0.44779  0.96247  1.0000
  H   H6876     1.0  0.82679  0.33455  0.92022  1.0000
  C   C3877     1.0  0.79678  0.31941  0.89466  1.0000
  C   C3878     1.0  0.96442  0.36908  0.76813  1.0000
  C   C3879     1.0  0.81850  0.40936  0.81622  1.0000
  H   H6877     1.0  0.83901  0.44665  0.84407  1.0000
  H   H6878     1.0  0.81551  0.33887  0.93683  1.0000
  H   H6879     1.0  0.96925  0.45738  0.91262  1.0000
  H   H6880     1.0  0.83621  0.47388  0.79099  1.0000
  N   N219      1.0  0.90154  0.47725  0.86857  1.0000
  C   C3880     1.0  0.77726  0.38272  0.97557  1.0000
  H   H6881     1.0  0.76182  0.36344  0.97226  1.0000
  C   C3881     1.0  0.89253  0.46872  0.86565  1.0000
  C   C3882     1.0  0.91678  0.46816  0.86858  1.0000
  C   C3883     1.0  0.92555  0.47123  0.87772  1.0000
  C   C3884     1.0  0.89004  0.46893  0.89543  1.0000
  C   C3885     1.0  0.89738  0.46490  0.85072  1.0000
  H   H6882     1.0  0.71448  0.26304  0.98451  1.0000
  H   H6883     1.0  0.78475  0.30025  0.92107  1.0000
  C   C3886     1.0  0.94160  0.46366  0.87429  1.0000
  C   C3887     1.0  0.88558  0.47352  0.90969  1.0000
  C   C3888     1.0  0.88877  0.45459  0.84991  1.0000
  H   H6884     1.0  0.92807  0.45677  0.79039  1.0000
  Fe  Fe443     1.0  0.78996  0.48325  0.93534  1.0000
  H   H6885     1.0  0.93044  0.46747  0.76670  1.0000
  H   H6886     1.0  0.78051  0.41721  0.95582  1.0000
  H   H6887     1.0  0.88088  0.47463  0.86691  1.0000
  H   H6888     1.0  0.89265  0.45829  0.87364  1.0000
  H   H6889     1.0  0.91655  0.45655  0.87261  1.0000
  H   H6890     1.0  0.92342  0.46900  0.85738  1.0000
  H   H6891     1.0  0.98333  0.28853  0.74512  1.0000
  S   S873      1.0  0.52536  0.35803  0.98549  1.0000
  H   H6892     1.0  0.88070  0.46539  0.89434  1.0000
  H   H6893     1.0  0.89943  0.45963  0.89584  1.0000
  H   H6894     1.0  0.90916  0.45976  0.84834  1.0000
  H   H6895     1.0  0.89527  0.47470  0.84222  1.0000
  H   H6896     1.0  0.78255  0.42447  0.93684  1.0000
  H   H6897     1.0  0.97633  0.35569  0.73782  1.0000
  H   H6898     1.0  0.85912  0.37887  0.79759  1.0000
  H   H6899     1.0  0.61938  0.35009  0.95028  1.0000
  H   H6900     1.0  0.85167  0.39744  0.84020  1.0000
  H   H6901     1.0  0.65286  0.48393  0.98694  1.0000
  H   H6902     1.0  0.90750  0.48802  0.84625  1.0000
  H   H6903     1.0  0.97733  0.46055  0.88613  1.0000
  C   C3889     1.0  0.65241  0.45973  0.97839  1.0000
  H   H6904     1.0  0.67810  0.48628  0.97720  1.0000
  H   H6905     1.0  0.53306  0.32868  0.98217  1.0000
  H   H6906     1.0  0.89165  0.45278  0.83888  1.0000
  H   H6907     1.0  0.60098  0.42434  0.95129  1.0000
  H   H6908     1.0  0.66255  0.45868  0.96990  1.0000
  H   H6909     1.0  0.62241  0.32899  0.94099  1.0000
  C   C3890     1.0  0.95825  0.43956  0.91617  1.0000
  H   H6910     1.0  0.83905  0.41701  0.82420  1.0000
  C   C3891     1.0  0.83808  0.38059  0.81274  1.0000
  H   H6911     1.0  0.95000  0.35925  0.78735  1.0000
  H   H6912     1.0  0.81312  0.40249  0.81323  1.0000
  N   N220      1.0  0.74532  0.41406  0.93301  1.0000
  C   C3892     1.0  0.74249  0.39969  0.94203  1.0000
  C   C3893     1.0  0.76060  0.41464  0.93282  1.0000
  C   C3894     1.0  0.73415  0.42581  0.93941  1.0000
  C   C3895     1.0  0.74406  0.41612  0.91780  1.0000
  C   C3896     1.0  0.75362  0.40414  0.90993  1.0000
  C   C3897     1.0  0.72812  0.39610  0.94181  1.0000
  C   C3898     1.0  0.73632  0.44136  0.93239  1.0000
  C   C3899     1.0  0.76321  0.41549  0.94717  1.0000
  C   C3900     1.0  0.77093  0.30602  0.94032  1.0000
  C   C3901     1.0  0.75118  0.40718  0.89479  1.0000
  C   C3902     1.0  0.72612  0.38171  0.95198  1.0000
  C   C3903     1.0  0.72495  0.45215  0.94036  1.0000
  H   H6913     1.0  0.74213  0.39897  0.95344  1.0000
  H   H6914     1.0  0.75169  0.39077  0.93892  1.0000
  H   H6915     1.0  0.76853  0.40497  0.92965  1.0000
  H   H6916     1.0  0.76401  0.42389  0.92446  1.0000
  H   H6917     1.0  0.73353  0.42376  0.95110  1.0000
  H   H6918     1.0  0.72307  0.42583  0.93857  1.0000
  H   H6919     1.0  0.73252  0.41746  0.91733  1.0000
  H   H6920     1.0  0.74727  0.42625  0.91110  1.0000
  H   H6921     1.0  0.75091  0.39363  0.91564  1.0000
  H   H6922     1.0  0.76536  0.40333  0.90899  1.0000
  H   H6923     1.0  0.71847  0.40437  0.94527  1.0000
  H   H6924     1.0  0.72811  0.39534  0.93093  1.0000
  H   H6925     1.0  0.73509  0.44450  0.92113  1.0000
  H   H6926     1.0  0.74721  0.44253  0.93244  1.0000
  H   H6927     1.0  0.75646  0.42544  0.95062  1.0000
  H   H6928     1.0  0.76055  0.40616  0.95579  1.0000
  H   H6929     1.0  0.63247  0.45169  0.98440  1.0000
  H   H6930     1.0  0.55787  0.42696  0.98270  1.0000
  C   C3904     1.0  0.95947  0.36436  0.78466  1.0000
  H   H6931     1.0  0.75860  0.39874  0.88921  1.0000
  H   H6932     1.0  0.73975  0.40715  0.89517  1.0000
  H   H6933     1.0  0.75355  0.41775  0.88851  1.0000
  S   S874      1.0  0.65379  0.40848  0.97573  1.0000
  H   H6934     1.0  0.63007  0.28357  0.97596  1.0000
  H   H6935     1.0  0.72483  0.38227  0.96324  1.0000
  H   H6936     1.0  0.72665  0.46318  0.93505  1.0000
  H   H6937     1.0  0.71378  0.45179  0.94018  1.0000
  H   H6938     1.0  0.72601  0.44987  0.95163  1.0000
  C   C3905     1.0  0.67611  0.24274  0.98452  1.0000
  H   H6939     1.0  0.94770  0.46663  0.88043  1.0000
  H   H6940     1.0  0.88098  0.44795  0.75576  1.0000
  H   H6941     1.0  0.90539  0.43825  0.76159  1.0000
  H   H6942     1.0  0.99276  0.36379  0.75278  1.0000
  H   H6943     1.0  0.94651  0.46693  0.86272  1.0000
  H   H6944     1.0  0.98449  0.48761  0.76224  1.0000
  C   C3906     1.0  0.95366  0.42440  0.76849  1.0000
  H   H6945     1.0  0.98966  0.40808  0.73808  1.0000
  H   H6946     1.0  0.87663  0.48329  0.90952  1.0000
  C   C3907     1.0  0.82013  0.47346  0.84459  1.0000
  S   S875      1.0  0.92982  0.33582  0.74242  1.0000
  H   H6947     1.0  0.96495  0.42353  0.76934  1.0000
  C   C3908     1.0  0.62712  0.33906  0.97682  1.0000
  C   C3909     1.0  0.51401  0.32473  0.97875  1.0000
  S   S876      1.0  0.81512  0.48609  0.88315  1.0000
  Fe  Fe444     1.0  0.79832  0.49197  0.90262  1.0000
  H   H6948     1.0  0.77799  0.33330  0.98554  1.0000
  H   H6949     1.0  0.95450  0.38919  0.94532  1.0000
  H   H6950     1.0  0.99960  0.42602  0.94092  1.0000
  H   H6951     1.0  0.81082  0.31566  0.91614  1.0000
  H   H6952     1.0  0.88162  0.46475  0.91833  1.0000
  H   H6953     1.0  0.93298  0.38511  0.73932  1.0000
  H   H6954     1.0  0.84100  0.42613  0.97521  1.0000
  C   C3910     1.0  0.89886  0.44866  0.76418  1.0000
  H   H6955     1.0  0.83048  0.42639  0.80467  1.0000
  H   H6956     1.0  0.97106  0.33477  0.74765  1.0000
  C   C3911     1.0  0.95055  0.48251  0.82336  1.0000
  H   H6957     1.0  0.77211  0.32124  0.97122  1.0000
  H   H6958     1.0  0.57667  0.43742  0.96271  1.0000
  H   H6959     1.0  0.99558  0.48641  0.79510  1.0000
  S   S877      1.0  0.91473  0.41981  0.97211  1.0000
  C   C3912     1.0  0.55893  0.45379  0.98261  1.0000
  H   H6960     1.0  0.93958  0.42687  0.95015  1.0000
  H   H6961     1.0  0.68770  0.36280  0.96929  1.0000
  C   C3913     1.0  0.98831  0.35403  0.75830  1.0000
  C   C3914     1.0  0.52555  0.34255  0.93858  1.0000
  C   C3915     1.0  0.84438  0.45518  0.84383  1.0000
  H   H6962     1.0  0.60259  0.43938  0.95704  1.0000
  S   S878      1.0  0.96219  0.48113  0.83430  1.0000
  N   N221      1.0  0.81116  0.48791  0.83863  1.0000
  H   H6963     1.0  0.98795  0.44226  0.94584  1.0000
  C   C3916     1.0  0.78356  0.30826  0.92736  1.0000
  H   H6964     1.0  0.94541  0.38522  0.78736  1.0000
  H   H6965     1.0  0.94008  0.40089  0.93695  1.0000
  C   C3917     1.0  0.93042  0.45446  0.94771  1.0000
  C   C3918     1.0  0.92031  0.46934  0.94736  1.0000
  H   H6966     1.0  0.63749  0.30716  0.96496  1.0000
  C   C3919     1.0  0.92767  0.43889  0.77303  1.0000
  C   C3920     1.0  0.95542  0.41173  0.93951  1.0000
  C   C3921     1.0  0.79124  0.48616  0.86233  1.0000
  C   C3922     1.0  0.83638  0.46980  0.83658  1.0000
  H   H6967     1.0  0.98933  0.33870  0.77908  1.0000
  H   H6968     1.0  0.96320  0.45129  0.93889  1.0000
  H   H6969     1.0  0.58149  0.41911  0.97210  1.0000
  H   H6970     1.0  0.94431  0.43621  0.78511  1.0000
  H   H6971     1.0  0.61883  0.33444  0.97499  1.0000
  C   C3923     1.0  0.94356  0.43751  0.77390  1.0000
  H   H6972     1.0  0.76047  0.30846  0.93690  1.0000
  C   C3924     1.0  0.93962  0.45292  0.93252  1.0000
  H   H6973     1.0  0.94407  0.46278  0.92777  1.0000
  H   H6974     1.0  0.79936  0.29319  0.88751  1.0000
  H   H6975     1.0  0.96370  0.38259  0.78977  1.0000
  H   H6976     1.0  0.98423  0.44241  0.89500  1.0000
  H   H6977     1.0  0.96697  0.33982  0.77783  1.0000
  C   C3925     1.0  0.68172  0.27504  0.94455  1.0000
  H   H6978     1.0  0.67817  0.31577  0.93878  1.0000
  H   H6979     1.0  0.93962  0.40033  0.95536  1.0000
  H   H6980     1.0  0.96815  0.35655  0.78962  1.0000
  C   C3926     1.0  0.82690  0.41787  0.80228  1.0000
  N   N222      1.0  0.95180  0.43964  0.93181  1.0000
  S   S879      1.0  0.75369  0.47241  0.91450  1.0000
  C   C3927     1.0  0.91556  0.44112  0.80421  1.0000
  C   C3928     1.0  0.84306  0.41464  0.85122  1.0000
  C   C3929     1.0  0.94503  0.42675  0.93879  1.0000
  C   C3930     1.0  0.00102  0.48758  0.77215  1.0000
  C   C3931     1.0  0.96392  0.31937  0.76617  1.0000
  C   C3932     1.0  0.81791  0.39163  0.83901  1.0000
  C   C3933     1.0  0.80512  0.40006  0.84886  1.0000
  C   C3934     1.0  0.79523  0.39030  0.85908  1.0000
  H   H6981     1.0  0.81308  0.38559  0.83438  1.0000
  H   H6982     1.0  0.82458  0.38312  0.84599  1.0000
  H   H6983     1.0  0.83508  0.39600  0.85348  1.0000
  H   H6984     1.0  0.79824  0.40901  0.84258  1.0000
  H   H6985     1.0  0.78647  0.39651  0.86626  1.0000
  H   H6986     1.0  0.79010  0.38605  0.85302  1.0000
  H   H6987     1.0  0.80158  0.38119  0.86577  1.0000
  N   N223      1.0  0.89335  0.38313  0.88260  1.0000
  C   C3935     1.0  0.88234  0.39506  0.87572  1.0000
  C   C3936     1.0  0.88538  0.37313  0.89473  1.0000
  C   C3937     1.0  0.90129  0.38993  0.88903  1.0000
  C   C3938     1.0  0.90447  0.37496  0.87206  1.0000
  C   C3939     1.0  0.89919  0.37319  0.85950  1.0000
  C   C3940     1.0  0.88850  0.40782  0.86507  1.0000
  C   C3941     1.0  0.91165  0.37945  0.89852  1.0000
  C   C3942     1.0  0.91053  0.36250  0.85138  1.0000
  C   C3943     1.0  0.87767  0.41763  0.85615  1.0000
  C   C3944     1.0  0.92070  0.38746  0.90241  1.0000
  H   H6988     1.0  0.87347  0.39955  0.88411  1.0000
  H   H6989     1.0  0.87670  0.39097  0.87002  1.0000
  H   H6990     1.0  0.87856  0.37902  0.90319  1.0000
  H   H6991     1.0  0.89338  0.39736  0.89562  1.0000
  H   H6992     1.0  0.90811  0.39672  0.88041  1.0000
  H   H6993     1.0  0.91387  0.38028  0.86684  1.0000
  H   H6994     1.0  0.90931  0.36407  0.87780  1.0000
  H   H6995     1.0  0.89739  0.38362  0.85177  1.0000
  H   H6996     1.0  0.89105  0.41447  0.87090  1.0000
  H   H6997     1.0  0.89873  0.40389  0.85775  1.0000
  H   H6998     1.0  0.91925  0.37112  0.89292  1.0000
  H   H6999     1.0  0.90530  0.37410  0.90876  1.0000
  H   H7000     1.0  0.86746  0.37358  0.88498  1.0000
  H   H7001     1.0  0.90633  0.36142  0.84259  1.0000
  H   H7002     1.0  0.87512  0.41153  0.84976  1.0000
  H   H7003     1.0  0.86745  0.42229  0.86316  1.0000
  H   H7004     1.0  0.88254  0.42650  0.84858  1.0000
  H   H7005     1.0  0.91347  0.39563  0.90843  1.0000
  H   H7006     1.0  0.92795  0.37977  0.90928  1.0000
  H   H7007     1.0  0.92761  0.39288  0.89262  1.0000
  H   H7008     1.0  0.84642  0.38338  0.82920  1.0000
  H   H7009     1.0  0.85961  0.36484  0.91141  1.0000
  H   H7010     1.0  0.99377  0.34634  0.75118  1.0000
  H   H7011     1.0  0.80746  0.43285  0.79617  1.0000
  H   H7012     1.0  0.65189  0.29228  0.92624  1.0000
  C   C3945     1.0  0.52101  0.31973  0.93855  1.0000
  H   H7013     1.0  0.82239  0.41887  0.83685  1.0000
  H   H7014     1.0  0.73559  0.37294  0.94921  1.0000
  H   H7015     1.0  0.81864  0.28684  0.88672  1.0000
  C   C3946     1.0  0.85511  0.47197  0.79888  1.0000
  H   H7016     1.0  0.83154  0.37297  0.82033  1.0000
  H   H7017     1.0  0.83661  0.41084  0.79692  1.0000
  C   C3947     1.0  0.58320  0.28270  0.98292  1.0000
  H   H7018     1.0  0.78683  0.37571  0.97981  1.0000
  H   H7019     1.0  0.95000  0.43833  0.91114  1.0000
  S   S880      1.0  0.86176  0.42400  0.80158  1.0000
  S   S881      1.0  0.99275  0.45032  0.81885  1.0000
  S   S882      1.0  0.66394  0.25882  0.94232  1.0000
  C   C3948     1.0  0.84547  0.46660  0.79491  1.0000
  H   H7020     1.0  0.98373  0.32707  0.75924  1.0000
  H   H7021     1.0  0.95423  0.46191  0.90411  1.0000
  H   H7022     1.0  0.95064  0.37369  0.80342  1.0000
  C   C3949     1.0  0.89956  0.44560  0.97913  1.0000
  H   H7023     1.0  0.96215  0.40990  0.94741  1.0000
  C   C3950     1.0  0.52681  0.36647  0.94197  1.0000
  H   H7024     1.0  0.84888  0.40906  0.86002  1.0000
  C   C3951     1.0  0.65066  0.31389  0.93817  1.0000
  C   C3952     1.0  0.60122  0.39093  0.97804  1.0000
  C   C3953     1.0  0.50960  0.32644  0.92909  1.0000
  C   C3954     1.0  0.86672  0.35748  0.90442  1.0000
  H   H7025     1.0  0.81220  0.30303  0.87441  1.0000
  S   S883      1.0  0.59061  0.34464  0.95875  1.0000
  H   H7026     1.0  0.76990  0.31305  0.94761  1.0000
  H   H7027     1.0  0.93630  0.42719  0.93343  1.0000
  C   C3955     1.0  0.96368  0.45326  0.90688  1.0000
  H   H7028     1.0  0.63881  0.28952  0.94988  1.0000
  H   H7029     1.0  0.95225  0.32321  0.76558  1.0000
  S   S884      1.0  0.79192  0.47231  0.91800  1.0000
  C   C3956     1.0  0.81581  0.47040  0.95374  1.0000
  H   H7030     1.0  0.92116  0.46724  0.88930  1.0000
  C   C3957     1.0  0.67401  0.38367  0.97145  1.0000
  H   H7031     1.0  0.80676  0.29841  0.90717  1.0000
  H   H7032     1.0  0.91853  0.34075  0.77102  1.0000
  H   H7033     1.0  0.65949  0.32540  0.91614  1.0000
  H   H7034     1.0  0.61047  0.39164  0.96905  1.0000
  Fe  Fe445     1.0  0.57702  0.36461  0.96581  1.0000
  H   H7035     1.0  0.90024  0.48702  0.88599  1.0000
  S   S885      1.0  0.79790  0.46955  0.95493  1.0000
  S   S886      1.0  0.58971  0.38149  0.96146  1.0000
  C   C3958     1.0  0.79533  0.48800  0.84580  1.0000
  C   C3959     1.0  0.85245  0.37173  0.80582  1.0000
  H   H7036     1.0  0.89729  0.44885  0.96854  1.0000
  H   H7037     1.0  0.66814  0.33385  0.93293  1.0000
  C   C3960     1.0  0.96278  0.43999  0.93967  1.0000
  H   H7038     1.0  0.51925  0.37213  0.93469  1.0000
  H   H7039     1.0  0.63889  0.34804  0.94734  1.0000
  H   H7040     1.0  0.84976  0.42172  0.84293  1.0000
  C   C3961     1.0  0.91758  0.45396  0.79124  1.0000
  H   H7041     1.0  0.82025  0.47257  0.85593  1.0000
  H   H7042     1.0  0.81364  0.41719  0.78832  1.0000
  H   H7043     1.0  0.80937  0.41748  0.82085  1.0000
  H   H7044     1.0  0.84891  0.39677  0.81338  1.0000
  H   H7045     1.0  0.95411  0.37516  0.76470  1.0000
  H   H7046     1.0  0.98607  0.26955  0.74574  1.0000
  H   H7047     1.0  0.78687  0.31671  0.89366  1.0000
  H   H7048     1.0  0.61173  0.29247  0.97427  1.0000
  H   H7049     1.0  0.92671  0.47784  0.94355  1.0000
  H   H7050     1.0  0.81987  0.32066  0.93460  1.0000
  C   C3962     1.0  0.67379  0.32350  0.92970  1.0000
  H   H7051     1.0  0.68855  0.27238  0.93464  1.0000
  H   H7052     1.0  0.88337  0.48941  0.88158  1.0000
  H   H7053     1.0  0.82343  0.43146  0.78178  1.0000
  H   H7054     1.0  0.91270  0.47129  0.94027  1.0000
  C   C3963     1.0  0.80363  0.33548  0.92319  1.0000
  H   H7055     1.0  0.92333  0.44658  0.95203  1.0000
  H   H7056     1.0  0.81480  0.33069  0.90244  1.0000
  C   C3964     1.0  0.95454  0.37729  0.79167  1.0000
  H   H7057     1.0  0.66973  0.30753  0.92159  1.0000
  C   C3965     1.0  0.80604  0.32696  0.91155  1.0000
  H   H7058     1.0  0.84027  0.44794  0.79255  1.0000
  H   H7059     1.0  0.93746  0.45275  0.95528  1.0000
  C   C3966     1.0  0.81733  0.33214  0.92903  1.0000
  S   S887      1.0  0.88073  0.48995  0.81816  1.0000
  H   H7060     1.0  0.93152  0.44264  0.81483  1.0000
  C   C3967     1.0  0.66335  0.31749  0.92532  1.0000
  H   H7061     1.0  0.77094  0.32413  0.91359  1.0000
  C   C3968     1.0  0.91960  0.44330  0.81705  1.0000
  H   H7062     1.0  0.81956  0.30803  0.89420  1.0000
  C   C3969     1.0  0.97205  0.33151  0.75896  1.0000
  C   C3970     1.0  0.80975  0.29661  0.88556  1.0000
  H   H7063     1.0  0.95920  0.43553  0.95135  1.0000
  C   C3971     1.0  0.94540  0.47504  0.80454  1.0000
  N   N224      1.0  0.79280  0.32806  0.90605  1.0000
  H   H7064     1.0  0.84013  0.47737  0.86239  1.0000
  C   C3972     1.0  0.77913  0.41559  0.94575  1.0000
  H   H7065     1.0  0.75780  0.48702  0.98299  1.0000
  C   C3973     1.0  0.56847  0.46462  0.97315  1.0000
  H   H7066     1.0  0.51925  0.31397  0.97727  1.0000
  H   H7067     1.0  0.83244  0.42121  0.85577  1.0000
  H   H7068     1.0  0.57556  0.46654  0.97896  1.0000
  C   C3974     1.0  0.66632  0.39266  0.98098  1.0000
  S   S888      1.0  0.72628  0.32897  0.97667  1.0000
  H   H7069     1.0  0.77310  0.47587  0.86615  1.0000
  H   H7070     1.0  0.98912  0.48037  0.74024  1.0000
  C   C3975     1.0  0.51526  0.34708  0.98316  1.0000
  C   C3976     1.0  0.83504  0.48366  0.94619  1.0000
  C   C3977     1.0  0.92746  0.35098  0.74940  1.0000
  H   H7071     1.0  0.60746  0.42124  0.96732  1.0000
  H   H7072     1.0  0.65716  0.28467  0.97978  1.0000
  H   H7073     1.0  0.84990  0.48506  0.91476  1.0000
  H   H7074     1.0  0.89919  0.44090  0.78644  1.0000
  H   H7075     1.0  0.96324  0.38649  0.74254  1.0000
  H   H7076     1.0  0.64494  0.31150  0.98381  1.0000
  H   H7077     1.0  0.81027  0.49192  0.79521  1.0000
  Fe  Fe446     1.0  0.64184  0.25236  0.94900  1.0000
  C   C3978     1.0  0.90844  0.47916  0.76580  1.0000
  S   S889      1.0  0.85107  0.49053  0.79796  1.0000
  C   C3979     1.0  0.62804  0.35445  0.95156  1.0000
  H   H7078     1.0  0.63538  0.35884  0.96764  1.0000
  H   H7079     1.0  0.58586  0.27427  0.97670  1.0000
  H   H7080     1.0  0.68189  0.24835  0.97407  1.0000
  H   H7081     1.0  0.92302  0.46298  0.75474  1.0000
  H   H7082     1.0  0.64877  0.43926  0.97772  1.0000
  H   H7083     1.0  0.51490  0.31873  0.94990  1.0000
  H   H7084     1.0  0.87562  0.45864  0.76906  1.0000
  C   C3980     1.0  0.64304  0.45075  0.97644  1.0000
  C   C3981     1.0  0.96916  0.36290  0.74489  1.0000
  H   H7085     1.0  0.58862  0.44293  0.98114  1.0000
  C   C3982     1.0  0.77525  0.48532  0.86841  1.0000
  H   H7086     1.0  0.86002  0.48919  0.84705  1.0000
  H   H7087     1.0  0.84453  0.45513  0.85492  1.0000
  C   C3983     1.0  0.90167  0.45046  0.77805  1.0000
  H   H7088     1.0  0.79201  0.47932  0.84325  1.0000
  H   H7089     1.0  0.81509  0.46465  0.84471  1.0000
  C   C3984     1.0  0.84090  0.48736  0.86404  1.0000
  H   H7090     1.0  0.67132  0.47733  0.96811  1.0000
  H   H7091     1.0  0.64620  0.47102  0.97677  1.0000
  S   S890      1.0  0.92070  0.48640  0.79435  1.0000
  H   H7092     1.0  0.58142  0.29339  0.97549  1.0000
  C   C3985     1.0  0.68227  0.36999  0.97647  1.0000
  C   C3986     1.0  0.55901  0.47912  0.96754  1.0000
  H   H7093     1.0  0.75122  0.34327  0.97979  1.0000
  C   C3987     1.0  0.89383  0.48145  0.88269  1.0000
  C   C3988     1.0  0.62632  0.35441  0.96728  1.0000
  C   C3989     1.0  0.58951  0.38598  0.97722  1.0000
  H   H7094     1.0  0.55365  0.45155  0.97518  1.0000
  H   H7095     1.0  0.57567  0.46051  0.96371  1.0000
  H   H7096     1.0  0.90171  0.45740  0.75490  1.0000
  H   H7097     1.0  0.61576  0.36165  0.97067  1.0000
  Fe  Fe447     1.0  0.57850  0.33329  0.97933  1.0000
  H   H7098     1.0  0.77908  0.38248  0.96412  1.0000
  H   H7099     1.0  0.64076  0.45462  0.96555  1.0000
  C   C3990     1.0  0.76389  0.36229  0.98300  1.0000
  C   C3991     1.0  0.92039  0.46508  0.76567  1.0000
  C   C3992     1.0  0.76866  0.31748  0.98297  1.0000
  H   H7100     1.0  0.95374  0.42540  0.75710  1.0000
  C   C3993     1.0  0.52189  0.33310  0.98141  1.0000
  H   H7101     1.0  0.94772  0.44714  0.76727  1.0000
  H   H7102     1.0  0.63794  0.33284  0.97229  1.0000
  H   H7103     1.0  0.73688  0.26920  0.98449  1.0000
  H   H7104     1.0  0.81529  0.47894  0.82002  1.0000
  H   H7105     1.0  0.69509  0.48270  0.95450  1.0000
  H   H7106     1.0  0.52044  0.36459  0.95322  1.0000
  H   H7107     1.0  0.77634  0.39388  0.97631  1.0000
  C   C3994     1.0  0.83297  0.42266  0.98510  1.0000
  H   H7108     1.0  0.62969  0.25727  0.98413  1.0000
  H   H7109     1.0  0.73589  0.36628  0.98364  1.0000
  C   C3995     1.0  0.67969  0.47596  0.97412  1.0000
  Fe  Fe448     1.0  0.70207  0.33284  0.98352  1.0000
  C   C3996     1.0  0.81357  0.48956  0.82263  1.0000
  C   C3997     1.0  0.58209  0.43474  0.98355  1.0000
  H   H7110     1.0  0.70342  0.47249  0.96932  1.0000
  H   H7111     1.0  0.62033  0.29730  0.98549  1.0000
  H   H7112     1.0  0.88831  0.46602  0.98454  1.0000
  H   H7113     1.0  0.69401  0.25878  0.98659  1.0000
  C   C3998     1.0  0.76331  0.37769  0.98422  1.0000
  C   C3999     1.0  0.69461  0.47348  0.96389  1.0000
  S   S891      1.0  0.56628  0.35312  0.98734  1.0000
  H   H7114     1.0  0.85940  0.47264  0.97680  1.0000
  H   H7115     1.0  0.91867  0.49039  0.74477  1.0000
  H   H7116     1.0  0.56610  0.48652  0.96051  1.0000
  H   H7117     1.0  0.50482  0.30616  0.92939  1.0000
  H   H7118     1.0  0.77527  0.35603  0.98237  1.0000
  H   H7119     1.0  0.55199  0.47782  0.96119  1.0000
  H   H7120     1.0  0.82196  0.42624  0.98266  1.0000
  C   C4000     1.0  0.90783  0.43188  0.98363  1.0000
  H   H7121     1.0  0.75787  0.31479  0.98532  1.0000
  H   H7122     1.0  0.85184  0.44973  0.98348  1.0000
  S   S892      1.0  0.71535  0.60386  0.99481  1.0000
  H   H7123     1.0  0.51070  0.57802  0.04735  1.0000
  C   C4001     1.0  0.56074  0.53690  0.07338  1.0000
  H   H7124     1.0  0.58104  0.59469  0.02924  1.0000
  H   H7125     1.0  0.51350  0.65552  0.05202  1.0000
  C   C4002     1.0  0.96922  0.53464  0.15266  1.0000
  C   C4003     1.0  0.53907  0.64471  0.01312  1.0000
  H   H7126     1.0  0.84069  0.52641  0.23429  1.0000
  C   C4004     1.0  0.53737  0.69990  0.10998  1.0000
  C   C4005     1.0  0.58873  0.64941  0.01248  1.0000
  H   H7127     1.0  0.55396  0.57138  0.04003  1.0000
  Fe  Fe449     1.0  0.71719  0.54956  0.11456  1.0000
  S   S893      1.0  0.69941  0.54570  0.10691  1.0000
  S   S894      1.0  0.72524  0.53490  0.13388  1.0000
  Fe  Fe450     1.0  0.72446  0.57254  0.08827  1.0000
  S   S895      1.0  0.70740  0.57077  0.07838  1.0000
  S   S896      1.0  0.74025  0.58694  0.07737  1.0000
  Fe  Fe451     1.0  0.69294  0.56980  0.10037  1.0000
  S   S897      1.0  0.66916  0.58093  0.10109  1.0000
  Fe  Fe452     1.0  0.71512  0.54707  0.08558  1.0000
  S   S898      1.0  0.71983  0.53315  0.06988  1.0000
  S   S899      1.0  0.70949  0.57364  0.10985  1.0000
  S   S900      1.0  0.73335  0.54892  0.09370  1.0000
  Fe  Fe453     1.0  0.61485  0.69191  0.10869  1.0000
  S   S901      1.0  0.61670  0.67124  0.12510  1.0000
  S   S902      1.0  0.61673  0.71369  0.10989  1.0000
  Fe  Fe454     1.0  0.61114  0.67821  0.08679  1.0000
  S   S903      1.0  0.61256  0.65620  0.10118  1.0000
  S   S904      1.0  0.60542  0.68434  0.06527  1.0000
  Fe  Fe455     1.0  0.59830  0.66775  0.11818  1.0000
  S   S905      1.0  0.58071  0.65841  0.13522  1.0000
  Fe  Fe456     1.0  0.63092  0.66080  0.10713  1.0000
  S   S906      1.0  0.65097  0.64398  0.11219  1.0000
  S   S907      1.0  0.59506  0.68945  0.10335  1.0000
  S   S908      1.0  0.63085  0.68195  0.09109  1.0000
  C   C4006     1.0  0.52587  0.68421  0.13132  1.0000
  S   S909      1.0  0.65581  0.52106  0.05563  1.0000
  H   H7128     1.0  0.52840  0.72300  0.10340  1.0000
  S   S910      1.0  0.68990  0.57830  0.01514  1.0000
  H   H7129     1.0  0.76034  0.51089  0.99567  1.0000
  Fe  Fe457     1.0  0.66444  0.51003  0.03722  1.0000
  Fe  Fe458     1.0  0.63523  0.51399  0.05819  1.0000
  S   S911      1.0  0.61229  0.52678  0.06352  1.0000
  S   S912      1.0  0.83994  0.52115  0.09670  1.0000
  H   H7130     1.0  0.92278  0.53777  0.17857  1.0000
  Fe  Fe459     1.0  0.56070  0.62327  0.06583  1.0000
  S   S913      1.0  0.54176  0.61777  0.08340  1.0000
  Fe  Fe460     1.0  0.58245  0.59841  0.07909  1.0000
  S   S914      1.0  0.56525  0.59060  0.09762  1.0000
  S   S915      1.0  0.60612  0.58733  0.07576  1.0000
  Fe  Fe461     1.0  0.55200  0.59513  0.08116  1.0000
  S   S916      1.0  0.53839  0.58069  0.08018  1.0000
  Fe  Fe462     1.0  0.55679  0.61399  0.09802  1.0000
  S   S917      1.0  0.54850  0.62009  0.11941  1.0000
  S   S918      1.0  0.57005  0.60083  0.06256  1.0000
  S   S919      1.0  0.57500  0.62152  0.08058  1.0000
  Fe  Fe463     1.0  0.80033  0.53264  0.13983  1.0000
  S   S920      1.0  0.82338  0.53595  0.13229  1.0000
  S   S921      1.0  0.78075  0.55110  0.14031  1.0000
  H   H7131     1.0  0.58681  0.56870  0.03695  1.0000
  C   C4007     1.0  0.54790  0.69092  0.13169  1.0000
  Fe  Fe464     1.0  0.82833  0.51679  0.15004  1.0000
  H   H7132     1.0  0.51562  0.65252  0.02039  1.0000
  H   H7133     1.0  0.67612  0.54118  0.08676  1.0000
  H   H7134     1.0  0.99208  0.52458  0.12082  1.0000
  C   C4008     1.0  0.66810  0.54803  0.08032  1.0000
  H   H7135     1.0  0.66637  0.58296  0.06252  1.0000
  H   H7136     1.0  0.57638  0.68718  0.13548  1.0000
  H   H7137     1.0  0.70712  0.51959  0.01307  1.0000
  H   H7138     1.0  0.58887  0.54626  0.04947  1.0000
  S   S922      1.0  0.86092  0.53858  0.20600  1.0000
  S   S923      1.0  0.89827  0.53094  0.21981  1.0000
  H   H7139     1.0  0.60478  0.59987  0.03122  1.0000
  H   H7140     1.0  0.51983  0.56985  0.06986  1.0000
  C   C4009     1.0  0.91683  0.51037  0.18538  1.0000
  H   H7141     1.0  0.54665  0.63400  0.01379  1.0000
  N   N225      1.0  0.72820  0.52143  0.99933  1.0000
  C   C4010     1.0  0.80462  0.51526  0.07665  1.0000
  H   H7142     1.0  0.90812  0.51631  0.19233  1.0000
  H   H7143     1.0  0.86826  0.53673  0.09813  1.0000
  H   H7144     1.0  0.72673  0.50091  0.02598  1.0000
  C   C4011     1.0  0.84988  0.51949  0.17431  1.0000
  C   C4012     1.0  0.86098  0.51177  0.18166  1.0000
  C   C4013     1.0  0.86428  0.51740  0.19151  1.0000
  C   C4014     1.0  0.85658  0.53089  0.19411  1.0000
  C   C4015     1.0  0.84546  0.53865  0.18676  1.0000
  C   C4016     1.0  0.84217  0.53303  0.17682  1.0000
  H   H7145     1.0  0.50591  0.62890  0.08591  1.0000
  H   H7146     1.0  0.87299  0.51138  0.19684  1.0000
  H   H7147     1.0  0.83949  0.54914  0.18864  1.0000
  H   H7148     1.0  0.83371  0.53917  0.17112  1.0000
  C   C4017     1.0  0.60674  0.53372  0.02819  1.0000
  C   C4018     1.0  0.74040  0.58660  0.03682  1.0000
  N   N226      1.0  0.96849  0.52374  0.16673  1.0000
  H   H7149     1.0  0.73644  0.58078  0.03161  1.0000
  C   C4019     1.0  0.63977  0.67107  0.02673  1.0000
  H   H7150     1.0  0.80539  0.50712  0.08681  1.0000
  H   H7151     1.0  0.75218  0.52237  0.08402  1.0000
  C   C4020     1.0  0.54582  0.71643  0.08625  1.0000
  H   H7152     1.0  0.65447  0.66215  0.04099  1.0000
  H   H7153     1.0  0.80205  0.50951  0.03955  1.0000
  C   C4021     1.0  0.53590  0.59830  0.05397  1.0000
  H   H7154     1.0  0.94767  0.53592  0.14872  1.0000
  C   C4022     1.0  0.89585  0.53876  0.12416  1.0000
  H   H7155     1.0  0.53418  0.61185  0.03324  1.0000
  H   H7156     1.0  0.54273  0.60415  0.05577  1.0000
  C   C4023     1.0  0.70636  0.50626  0.12978  1.0000
  C   C4024     1.0  0.61080  0.54370  0.06655  1.0000
  C   C4025     1.0  0.62278  0.55014  0.06222  1.0000
  C   C4026     1.0  0.62141  0.56345  0.06526  1.0000
  C   C4027     1.0  0.60792  0.57057  0.07218  1.0000
  C   C4028     1.0  0.59584  0.56432  0.07611  1.0000
  C   C4029     1.0  0.59735  0.55082  0.07347  1.0000
  H   H7157     1.0  0.63307  0.54494  0.05648  1.0000
  H   H7158     1.0  0.63077  0.56828  0.06209  1.0000
  H   H7159     1.0  0.58539  0.56974  0.08144  1.0000
  H   H7160     1.0  0.58812  0.54578  0.07700  1.0000
  H   H7161     1.0  0.57039  0.61791  0.03482  1.0000
  C   C4030     1.0  0.55759  0.63103  0.12322  1.0000
  C   C4031     1.0  0.55527  0.63198  0.13744  1.0000
  C   C4032     1.0  0.56242  0.64043  0.14097  1.0000
  C   C4033     1.0  0.57183  0.64813  0.13027  1.0000
  C   C4034     1.0  0.57389  0.64755  0.11597  1.0000
  C   C4035     1.0  0.56681  0.63894  0.11245  1.0000
  H   H7162     1.0  0.54798  0.62607  0.14578  1.0000
  H   H7163     1.0  0.56066  0.64100  0.15202  1.0000
  H   H7164     1.0  0.58086  0.65378  0.10762  1.0000
  H   H7165     1.0  0.56832  0.63861  0.10140  1.0000
  C   C4036     1.0  0.61899  0.67935  0.05062  1.0000
  C   C4037     1.0  0.63312  0.67186  0.05201  1.0000
  C   C4038     1.0  0.61545  0.68303  0.03721  1.0000
  H   H7166     1.0  0.63596  0.66919  0.06231  1.0000
  H   H7167     1.0  0.60462  0.68903  0.03603  1.0000
  H   H7168     1.0  0.68284  0.52956  0.03708  1.0000
  C   C4039     1.0  0.73996  0.53951  0.13704  1.0000
  C   C4040     1.0  0.75144  0.52864  0.14158  1.0000
  C   C4041     1.0  0.76392  0.53211  0.14281  1.0000
  C   C4042     1.0  0.76470  0.54650  0.14009  1.0000
  C   C4043     1.0  0.75278  0.55738  0.13652  1.0000
  C   C4044     1.0  0.74058  0.55390  0.13466  1.0000
  H   H7169     1.0  0.75090  0.51751  0.14369  1.0000
  H   H7170     1.0  0.77293  0.52364  0.14584  1.0000
  H   H7171     1.0  0.75315  0.56852  0.13476  1.0000
  H   H7172     1.0  0.73166  0.56236  0.13139  1.0000
  H   H7173     1.0  0.99694  0.53767  0.18226  1.0000
  C   C4045     1.0  0.69295  0.50973  0.06827  1.0000
  C   C4046     1.0  0.70366  0.51782  0.06434  1.0000
  C   C4047     1.0  0.70753  0.52190  0.07484  1.0000
  C   C4048     1.0  0.70126  0.51728  0.08928  1.0000
  C   C4049     1.0  0.69079  0.50894  0.09326  1.0000
  H   H7174     1.0  0.56071  0.54565  0.09115  1.0000
  H   H7175     1.0  0.70847  0.52142  0.05316  1.0000
  H   H7176     1.0  0.70452  0.52019  0.09733  1.0000
  H   H7177     1.0  0.52327  0.65532  0.14246  1.0000
  C   C4050     1.0  0.66351  0.59819  0.10487  1.0000
  C   C4051     1.0  0.65209  0.60823  0.09927  1.0000
  C   C4052     1.0  0.64788  0.62226  0.10169  1.0000
  C   C4053     1.0  0.65494  0.62624  0.10985  1.0000
  C   C4054     1.0  0.66596  0.61600  0.11589  1.0000
  C   C4055     1.0  0.67027  0.60204  0.11337  1.0000
  H   H7178     1.0  0.64683  0.60531  0.09266  1.0000
  H   H7179     1.0  0.63953  0.63016  0.09686  1.0000
  H   H7180     1.0  0.67145  0.61900  0.12225  1.0000
  H   H7181     1.0  0.67895  0.59433  0.11788  1.0000
  C   C4056     1.0  0.75032  0.60175  0.05054  1.0000
  C   C4057     1.0  0.74375  0.59033  0.05863  1.0000
  C   C4058     1.0  0.73925  0.58242  0.05171  1.0000
  H   H7182     1.0  0.75395  0.60779  0.05582  1.0000
  H   H7183     1.0  0.73455  0.57332  0.05784  1.0000
  H   H7184     1.0  0.90487  0.49507  0.15647  1.0000
  H   H7185     1.0  0.89767  0.50092  0.09180  1.0000
  H   H7186     1.0  0.50880  0.59141  0.12519  1.0000
  C   C4059     1.0  0.60757  0.72201  0.12442  1.0000
  C   C4060     1.0  0.60144  0.71438  0.13785  1.0000
  C   C4061     1.0  0.59470  0.72147  0.14923  1.0000
  H   H7187     1.0  0.64603  0.57372  0.13751  1.0000
  H   H7188     1.0  0.77474  0.52180  0.11610  1.0000
  H   H7189     1.0  0.60219  0.70298  0.13955  1.0000
  H   H7190     1.0  0.59017  0.71551  0.15966  1.0000
  H   H7191     1.0  0.63221  0.61897  0.13694  1.0000
  C   C4062     1.0  0.65602  0.59109  0.06199  1.0000
  H   H7192     1.0  0.86166  0.54487  0.14577  1.0000
  H   H7193     1.0  0.65134  0.58345  0.04623  1.0000
  H   H7194     1.0  0.65720  0.60113  0.06390  1.0000
  H   H7195     1.0  0.59730  0.63160  0.09943  1.0000
  H   H7196     1.0  0.50797  0.61166  0.10438  1.0000
  H   H7197     1.0  0.55028  0.71235  0.13147  1.0000
  C   C4063     1.0  0.86474  0.54515  0.11710  1.0000
  H   H7198     1.0  0.67562  0.52621  0.12280  1.0000
  H   H7199     1.0  0.63332  0.59899  0.12763  1.0000
  H   H7200     1.0  0.61211  0.62116  0.02703  1.0000
  H   H7201     1.0  0.53894  0.71295  0.08129  1.0000
  C   C4064     1.0  0.59410  0.63592  0.00907  1.0000
  C   C4065     1.0  0.51058  0.72058  0.15315  1.0000
  H   H7202     1.0  0.61144  0.57326  0.03695  1.0000
  C   C4066     1.0  0.60915  0.72242  0.07303  1.0000
  H   H7203     1.0  0.65489  0.50963  0.00601  1.0000
  H   H7204     1.0  0.96689  0.50618  0.15889  1.0000
  C   C4067     1.0  0.50728  0.58995  0.11511  1.0000
  Fe  Fe465     1.0  0.66278  0.49914  0.06897  1.0000
  S   S924      1.0  0.84659  0.51179  0.16183  1.0000
  H   H7205     1.0  0.52381  0.63701  0.03225  1.0000
  C   C4068     1.0  0.97453  0.50897  0.16355  1.0000
  H   H7206     1.0  0.60389  0.71306  0.07732  1.0000
  H   H7207     1.0  0.51579  0.61739  0.07416  1.0000
  H   H7208     1.0  0.57481  0.61356  0.00060  1.0000
  H   H7209     1.0  0.66659  0.63207  0.01175  1.0000
  H   H7210     1.0  0.61234  0.64175  0.13438  1.0000
  C   C4069     1.0  0.72091  0.53520  0.99048  1.0000
  N   N227      1.0  0.70017  0.61899  0.05908  1.0000
  C   C4070     1.0  0.70023  0.61041  0.07422  1.0000
  C   C4071     1.0  0.70318  0.60878  0.04939  1.0000
  C   C4072     1.0  0.71277  0.62644  0.05447  1.0000
  C   C4073     1.0  0.68618  0.63010  0.05774  1.0000
  C   C4074     1.0  0.67202  0.62627  0.06817  1.0000
  C   C4075     1.0  0.69882  0.61922  0.08541  1.0000
  C   C4076     1.0  0.71592  0.63476  0.03865  1.0000
  C   C4077     1.0  0.69160  0.60001  0.05182  1.0000
  C   C4078     1.0  0.69724  0.58876  0.04264  1.0000
  C   C4079     1.0  0.65843  0.63641  0.06358  1.0000
  C   C4080     1.0  0.71306  0.61686  0.09007  1.0000
  C   C4081     1.0  0.72691  0.64400  0.03604  1.0000
  H   H7211     1.0  0.71026  0.60168  0.07438  1.0000
  H   H7212     1.0  0.69133  0.60446  0.07844  1.0000
  H   H7213     1.0  0.70428  0.61461  0.03800  1.0000
  H   H7214     1.0  0.71378  0.60112  0.05013  1.0000
  H   H7215     1.0  0.72300  0.61851  0.05634  1.0000
  H   H7216     1.0  0.71101  0.63433  0.06110  1.0000
  H   H7217     1.0  0.68677  0.64049  0.05950  1.0000
  H   H7218     1.0  0.68463  0.63270  0.04657  1.0000
  H   H7219     1.0  0.67172  0.62726  0.07905  1.0000
  H   H7220     1.0  0.67124  0.61518  0.06901  1.0000
  H   H7221     1.0  0.69450  0.63088  0.08173  1.0000
  H   H7222     1.0  0.69078  0.61567  0.09516  1.0000
  H   H7223     1.0  0.70575  0.64189  0.03578  1.0000
  H   H7224     1.0  0.72075  0.62720  0.03134  1.0000
  H   H7225     1.0  0.68863  0.59429  0.06311  1.0000
  H   H7226     1.0  0.68162  0.60723  0.04857  1.0000
  H   H7227     1.0  0.69995  0.59401  0.03110  1.0000
  H   H7228     1.0  0.70713  0.58100  0.04561  1.0000
  H   H7229     1.0  0.68880  0.58264  0.04430  1.0000
  H   H7230     1.0  0.65832  0.63611  0.05256  1.0000
  H   H7231     1.0  0.64850  0.63311  0.07091  1.0000
  H   H7232     1.0  0.65802  0.64754  0.06409  1.0000
  H   H7233     1.0  0.71643  0.60544  0.09551  1.0000
  H   H7234     1.0  0.72198  0.61970  0.08083  1.0000
  H   H7235     1.0  0.71139  0.62363  0.09779  1.0000
  H   H7236     1.0  0.72236  0.65248  0.04234  1.0000
  H   H7237     1.0  0.73718  0.63725  0.03909  1.0000
  H   H7238     1.0  0.72952  0.64925  0.02450  1.0000
  H   H7239     1.0  0.53595  0.64638  0.99197  1.0000
  H   H7240     1.0  0.89403  0.52152  0.15112  1.0000
  H   H7241     1.0  0.51308  0.69845  0.15341  1.0000
  H   H7242     1.0  0.58579  0.53555  0.02436  1.0000
  C   C4082     1.0  0.75176  0.49572  0.10320  1.0000
  H   H7243     1.0  0.55530  0.68203  0.12671  1.0000
  H   H7244     1.0  0.58470  0.61002  0.13387  1.0000
  H   H7245     1.0  0.94448  0.54797  0.16836  1.0000
  C   C4083     1.0  0.59781  0.73649  0.07384  1.0000
  C   C4084     1.0  0.55815  0.54213  0.04258  1.0000
  H   H7246     1.0  0.63416  0.59105  0.15339  1.0000
  H   H7247     1.0  0.51260  0.66398  0.12894  1.0000
  S   S925      1.0  0.73232  0.57128  0.00845  1.0000
  H   H7248     1.0  0.90405  0.50780  0.13127  1.0000
  C   C4085     1.0  0.51775  0.58366  0.04916  1.0000
  H   H7249     1.0  0.99894  0.51483  0.16603  1.0000
  C   C4086     1.0  0.55631  0.66796  0.99477  1.0000
  H   H7250     1.0  0.56250  0.59493  0.02961  1.0000
  C   C4087     1.0  0.52384  0.64221  0.02084  1.0000
  H   H7251     1.0  0.70272  0.51648  0.13353  1.0000
  C   C4088     1.0  0.70848  0.49260  0.02732  1.0000
  C   C4089     1.0  0.52399  0.70896  0.13201  1.0000
  C   C4090     1.0  0.74663  0.50149  0.08887  1.0000
  H   H7252     1.0  0.74990  0.50523  0.10769  1.0000
  H   H7253     1.0  0.54646  0.72769  0.08079  1.0000
  C   C4091     1.0  0.80768  0.49442  0.06524  1.0000
  H   H7254     1.0  0.80996  0.51673  0.05399  1.0000
  H   H7255     1.0  0.52880  0.65029  0.12542  1.0000
  H   H7256     1.0  0.57186  0.57660  0.04961  1.0000
  S   S926      1.0  0.95455  0.50080  0.10879  1.0000
  H   H7257     1.0  0.75613  0.61503  0.02954  1.0000
  H   H7258     1.0  0.64726  0.58692  0.07067  1.0000
  C   C4092     1.0  0.57516  0.57422  0.03879  1.0000
  H   H7259     1.0  0.94655  0.52089  0.16995  1.0000
  H   H7260     1.0  0.61789  0.59161  0.13105  1.0000
  H   H7261     1.0  0.56991  0.73870  0.13625  1.0000
  H   H7262     1.0  0.87657  0.51828  0.15333  1.0000
  H   H7263     1.0  0.64443  0.51264  0.10495  1.0000
  C   C4093     1.0  0.68645  0.50540  0.08273  1.0000
  C   C4094     1.0  0.55713  0.70212  0.12896  1.0000
  C   C4095     1.0  0.56850  0.69698  0.13817  1.0000
  H   H7264     1.0  0.53424  0.67360  0.11289  1.0000
  C   C4096     1.0  0.90570  0.54407  0.13027  1.0000
  H   H7265     1.0  0.97566  0.51985  0.18641  1.0000
  C   C4097     1.0  0.91995  0.54593  0.11939  1.0000
  H   H7266     1.0  0.85871  0.50966  0.07271  1.0000
  H   H7267     1.0  0.90268  0.52987  0.11889  1.0000
  H   H7268     1.0  0.52181  0.54359  0.04325  1.0000
  H   H7269     1.0  0.90006  0.55470  0.13285  1.0000
  C   C4098     1.0  0.73460  0.52551  0.00935  1.0000
  N   N228      1.0  0.81786  0.50372  0.22058  1.0000
  H   H7270     1.0  0.91776  0.55375  0.10940  1.0000
  H   H7271     1.0  0.92666  0.54997  0.12402  1.0000
  H   H7272     1.0  0.72633  0.51226  0.11712  1.0000
  C   C4099     1.0  0.60774  0.62371  0.09734  1.0000
  H   H7273     1.0  0.88625  0.50433  0.13400  1.0000
  C   C4100     1.0  0.62266  0.64044  0.15123  1.0000
  N   N229      1.0  0.78262  0.56238  0.09215  1.0000
  C   C4101     1.0  0.78251  0.54685  0.09940  1.0000
  C   C4102     1.0  0.79661  0.56552  0.09279  1.0000
  C   C4103     1.0  0.77024  0.57157  0.10086  1.0000
  C   C4104     1.0  0.78055  0.56627  0.07697  1.0000
  C   C4105     1.0  0.78708  0.55454  0.06803  1.0000
  C   C4106     1.0  0.76790  0.54239  0.10191  1.0000
  C   C4107     1.0  0.76891  0.58808  0.09598  1.0000
  C   C4108     1.0  0.81107  0.55688  0.08518  1.0000
  C   C4109     1.0  0.82416  0.55958  0.08867  1.0000
  C   C4110     1.0  0.78561  0.56070  0.05250  1.0000
  C   C4111     1.0  0.76946  0.52613  0.10681  1.0000
  C   C4112     1.0  0.75494  0.59607  0.10450  1.0000
  H   H7274     1.0  0.78514  0.54440  0.11012  1.0000
  H   H7275     1.0  0.79109  0.53946  0.09338  1.0000
  H   H7276     1.0  0.79693  0.57696  0.08779  1.0000
  H   H7277     1.0  0.79708  0.56386  0.10422  1.0000
  H   H7278     1.0  0.77112  0.56843  0.11226  1.0000
  H   H7279     1.0  0.75955  0.56982  0.10073  1.0000
  H   H7280     1.0  0.76873  0.56942  0.07690  1.0000
  H   H7281     1.0  0.78490  0.57599  0.07084  1.0000
  H   H7282     1.0  0.78119  0.54567  0.07235  1.0000
  H   H7283     1.0  0.79871  0.54980  0.06799  1.0000
  H   H7284     1.0  0.75973  0.54715  0.11045  1.0000
  H   H7285     1.0  0.76349  0.54621  0.09212  1.0000
  H   H7286     1.0  0.76866  0.59190  0.08445  1.0000
  H   H7287     1.0  0.77812  0.59118  0.09787  1.0000
  H   H7288     1.0  0.81178  0.54514  0.08845  1.0000
  H   H7289     1.0  0.81231  0.56046  0.07340  1.0000
  H   H7290     1.0  0.82390  0.55561  0.10031  1.0000
  H   H7291     1.0  0.83441  0.55368  0.08271  1.0000
  H   H7292     1.0  0.82423  0.57121  0.08553  1.0000
  H   H7293     1.0  0.76659  0.50871  0.07664  1.0000
  H   H7294     1.0  0.77395  0.56519  0.05202  1.0000
  H   H7295     1.0  0.84436  0.50218  0.23015  1.0000
  Fe  Fe466     1.0  0.71146  0.58158  0.00100  1.0000
  H   H7296     1.0  0.71179  0.54137  0.99738  1.0000
  H   H7297     1.0  0.95400  0.54503  0.12250  1.0000
  H   H7298     1.0  0.75418  0.60784  0.10079  1.0000
  H   H7299     1.0  0.74517  0.59363  0.10295  1.0000
  H   H7300     1.0  0.75495  0.59296  0.11611  1.0000
  C   C4113     1.0  0.63848  0.60587  0.04616  1.0000
  C   C4114     1.0  0.61787  0.61950  0.03564  1.0000
  C   C4115     1.0  0.62049  0.63458  0.03460  1.0000
  C   C4116     1.0  0.61528  0.63904  0.04901  1.0000
  H   H7301     1.0  0.62002  0.59092  0.04744  1.0000
  H   H7302     1.0  0.64176  0.61594  0.04537  1.0000
  H   H7303     1.0  0.63042  0.60415  0.05661  1.0000
  H   H7304     1.0  0.60976  0.61646  0.04574  1.0000
  H   H7305     1.0  0.61419  0.64277  0.02710  1.0000
  H   H7306     1.0  0.63200  0.63543  0.03007  1.0000
  H   H7307     1.0  0.60336  0.63973  0.05301  1.0000
  H   H7308     1.0  0.62105  0.63132  0.05714  1.0000
  H   H7309     1.0  0.61738  0.64981  0.04766  1.0000
  Fe  Fe467     1.0  0.82654  0.51988  0.11917  1.0000
  C   C4117     1.0  0.80665  0.51245  0.21193  1.0000
  H   H7310     1.0  0.56048  0.53050  0.04784  1.0000
  H   H7311     1.0  0.67805  0.54568  0.99355  1.0000
  C   C4118     1.0  0.99372  0.52540  0.16882  1.0000
  H   H7312     1.0  0.92630  0.53545  0.11679  1.0000
  H   H7313     1.0  0.55024  0.55837  0.06370  1.0000
  N   N230      1.0  0.56684  0.55008  0.04669  1.0000
  H   H7314     1.0  0.56768  0.64012  0.00110  1.0000
  C   C4119     1.0  0.52167  0.59562  0.03887  1.0000
  H   H7315     1.0  0.68605  0.55308  0.06265  1.0000
  C   C4120     1.0  0.91692  0.51314  0.17080  1.0000
  H   H7316     1.0  0.57742  0.58679  0.01680  1.0000
  C   C4121     1.0  0.89689  0.49377  0.15122  1.0000
  C   C4122     1.0  0.53924  0.71542  0.10226  1.0000
  H   H7317     1.0  0.68580  0.50552  0.10444  1.0000
  H   H7318     1.0  0.59063  0.55237  0.02206  1.0000
  H   H7319     1.0  0.54396  0.66578  0.12701  1.0000
  H   H7320     1.0  0.62938  0.56725  0.14229  1.0000
  H   H7321     1.0  0.68183  0.61671  0.01017  1.0000
  C   C4123     1.0  0.53091  0.60276  0.04124  1.0000
  H   H7322     1.0  0.63548  0.58454  0.03502  1.0000
  H   H7323     1.0  0.88052  0.52488  0.11823  1.0000
  C   C4124     1.0  0.63742  0.55791  0.09744  1.0000
  C   C4125     1.0  0.62718  0.58689  0.14922  1.0000
  C   C4126     1.0  0.86842  0.55964  0.16187  1.0000
  H   H7324     1.0  0.92788  0.53081  0.19577  1.0000
  H   H7325     1.0  0.99554  0.53395  0.15898  1.0000
  H   H7326     1.0  0.56057  0.69507  0.99362  1.0000
  H   H7327     1.0  0.54633  0.67662  0.99633  1.0000
  H   H7328     1.0  0.87696  0.49960  0.11305  1.0000
  C   C4127     1.0  0.89365  0.50677  0.13915  1.0000
  C   C4128     1.0  0.51971  0.70672  0.14857  1.0000
  N   N231      1.0  0.61316  0.61185  0.13720  1.0000
  H   H7329     1.0  0.55701  0.70958  0.08455  1.0000
  H   H7330     1.0  0.80192  0.50541  0.20850  1.0000
  C   C4129     1.0  0.81236  0.50859  0.06369  1.0000
  H   H7331     1.0  0.73477  0.52551  0.03791  1.0000
  H   H7332     1.0  0.70120  0.50751  0.12084  1.0000
  H   H7333     1.0  0.56880  0.59571  0.15180  1.0000
  C   C4130     1.0  0.62295  0.59741  0.13553  1.0000
  C   C4131     1.0  0.64110  0.61123  0.01956  1.0000
  H   H7334     1.0  0.70507  0.65094  0.01216  1.0000
  C   C4132     1.0  0.68027  0.54718  0.00299  1.0000
  S   S927      1.0  0.88660  0.50246  0.22010  1.0000
  C   C4133     1.0  0.59076  0.54144  0.02896  1.0000
  N   N232      1.0  0.63126  0.60743  0.03414  1.0000
  H   H7335     1.0  0.53679  0.54729  0.05735  1.0000
  N   N233      1.0  0.53401  0.69624  0.12620  1.0000
  C   C4134     1.0  0.72299  0.50274  0.12504  1.0000
  H   H7336     1.0  0.79733  0.51865  0.21873  1.0000
  H   H7337     1.0  0.79099  0.50029  0.01082  1.0000
  H   H7338     1.0  0.66865  0.55758  0.05775  1.0000
  C   C4135     1.0  0.64353  0.66783  0.04001  1.0000
  H   H7339     1.0  0.70259  0.49761  0.13877  1.0000
  C   C4136     1.0  0.68897  0.64320  0.99265  1.0000
  H   H7340     1.0  0.52080  0.63496  0.01602  1.0000
  C   C4137     1.0  0.62618  0.59383  0.03628  1.0000
  H   H7341     1.0  0.80977  0.52397  0.07641  1.0000
  H   H7342     1.0  0.90829  0.52125  0.16661  1.0000
  H   H7343     1.0  0.95645  0.55681  0.13206  1.0000
  C   C4138     1.0  0.53377  0.53917  0.04093  1.0000
  H   H7344     1.0  0.61618  0.51759  0.09474  1.0000
  H   H7345     1.0  0.53061  0.66277  0.99759  1.0000
  S   S928      1.0  0.83313  0.50094  0.13618  1.0000
  C   C4139     1.0  0.53198  0.58641  0.06429  1.0000
  H   H7346     1.0  0.58494  0.72686  0.09376  1.0000
  C   C4140     1.0  0.68788  0.63655  0.00887  1.0000
  H   H7347     1.0  0.57242  0.72675  0.11601  1.0000
  C   C4141     1.0  0.75463  0.51307  0.07901  1.0000
  H   H7348     1.0  0.64819  0.61803  0.01992  1.0000
  H   H7349     1.0  0.62454  0.63336  0.16166  1.0000
  H   H7350     1.0  0.75844  0.52372  0.11025  1.0000
  H   H7351     1.0  0.52438  0.68017  0.14313  1.0000
  C   C4142     1.0  0.61601  0.59447  0.02662  1.0000
  H   H7352     1.0  0.53848  0.55920  0.03988  1.0000
  H   H7353     1.0  0.71717  0.63710  0.99605  1.0000
  H   H7354     1.0  0.61744  0.72121  0.07916  1.0000
  H   H7355     1.0  0.63452  0.61796  0.01158  1.0000
  H   H7356     1.0  0.98624  0.49775  0.18094  1.0000
  H   H7357     1.0  0.51467  0.68827  0.12919  1.0000
  C   C4143     1.0  0.62582  0.67898  0.02531  1.0000
  H   H7358     1.0  0.61947  0.60059  0.01553  1.0000
  H   H7359     1.0  0.89279  0.54765  0.11518  1.0000
  H   H7360     1.0  0.74082  0.54082  0.02512  1.0000
  C   C4144     1.0  0.83114  0.49691  0.09806  1.0000
  C   C4145     1.0  0.82280  0.51404  0.22583  1.0000
  H   H7361     1.0  0.82324  0.49917  0.10761  1.0000
  C   C4146     1.0  0.63688  0.51894  0.09784  1.0000
  C   C4147     1.0  0.75147  0.60589  0.03570  1.0000
  H   H7362     1.0  0.75096  0.51694  0.06874  1.0000
  H   H7363     1.0  0.60012  0.60512  0.15836  1.0000
  C   C4148     1.0  0.55418  0.53969  0.08845  1.0000
  C   C4149     1.0  0.56050  0.73801  0.13261  1.0000
  C   C4150     1.0  0.58253  0.54194  0.04466  1.0000
  H   H7364     1.0  0.58331  0.53055  0.05064  1.0000
  C   C4151     1.0  0.65118  0.59857  0.01282  1.0000
  S   S929      1.0  0.92892  0.49797  0.20873  1.0000
  H   H7365     1.0  0.88085  0.51266  0.08787  1.0000
  S   S930      1.0  0.64152  0.49293  0.07309  1.0000
  H   H7366     1.0  0.90857  0.53645  0.14003  1.0000
  S   S931      1.0  0.67634  0.51984  0.01542  1.0000
  C   C4152     1.0  0.65242  0.59384  0.04735  1.0000
  H   H7367     1.0  0.65857  0.59151  0.01976  1.0000
  H   H7368     1.0  0.77590  0.52070  0.09801  1.0000
  C   C4153     1.0  0.94450  0.53950  0.17835  1.0000
  H   H7369     1.0  0.60799  0.58030  0.01915  1.0000
  H   H7370     1.0  0.57978  0.59210  0.16474  1.0000
  C   C4154     1.0  0.67575  0.54951  0.06456  1.0000
  H   H7371     1.0  0.60263  0.63528  0.15225  1.0000
  H   H7372     1.0  0.64476  0.59190  0.01108  1.0000
  H   H7373     1.0  0.57245  0.68135  0.00399  1.0000
  H   H7374     1.0  0.92308  0.54989  0.18882  1.0000
  C   C4155     1.0  0.69945  0.67302  0.01345  1.0000
  S   S932      1.0  0.55684  0.64226  0.04766  1.0000
  C   C4156     1.0  0.57572  0.62659  0.02879  1.0000
  C   C4157     1.0  0.74621  0.59855  0.02885  1.0000
  C   C4158     1.0  0.88659  0.50125  0.09072  1.0000
  C   C4159     1.0  0.73121  0.53603  0.03081  1.0000
  H   H7375     1.0  0.66180  0.59717  0.03896  1.0000
  H   H7376     1.0  0.57476  0.70536  0.13610  1.0000
  H   H7377     1.0  0.70027  0.68379  0.00645  1.0000
  C   C4160     1.0  0.66041  0.60402  0.99813  1.0000
  N   N234      1.0  0.88247  0.53431  0.13450  1.0000
  H   H7378     1.0  0.61668  0.62949  0.09195  1.0000
  H   H7379     1.0  0.54733  0.69222  0.10573  1.0000
  C   C4161     1.0  0.66650  0.53441  0.12730  1.0000
  H   H7380     1.0  0.86527  0.52533  0.13310  1.0000
  H   H7381     1.0  0.79180  0.56932  0.04733  1.0000
  H   H7382     1.0  0.52586  0.63997  0.05965  1.0000
  H   H7383     1.0  0.60693  0.61762  0.08992  1.0000
  C   C4162     1.0  0.59865  0.61049  0.14731  1.0000
  H   H7384     1.0  0.66720  0.61087  0.99888  1.0000
  Fe  Fe468     1.0  0.80944  0.50065  0.14304  1.0000
  H   H7385     1.0  0.55848  0.66315  0.00566  1.0000
  C   C4163     1.0  0.57084  0.63990  0.03260  1.0000
  C   C4164     1.0  0.67974  0.53623  0.01544  1.0000
  H   H7386     1.0  0.62535  0.55418  0.12000  1.0000
  C   C4165     1.0  0.95298  0.52454  0.17526  1.0000
  S   S933      1.0  0.64321  0.50485  0.03858  1.0000
  C   C4166     1.0  0.57057  0.68637  0.99303  1.0000
  H   H7387     1.0  0.87328  0.55674  0.13504  1.0000
  H   H7388     1.0  0.55476  0.73771  0.11358  1.0000
  H   H7389     1.0  0.76186  0.49308  0.18982  1.0000
  H   H7390     1.0  0.65907  0.52895  0.13653  1.0000
  C   C4167     1.0  0.53943  0.65288  0.99729  1.0000
  H   H7391     1.0  0.56970  0.61015  0.15887  1.0000
  H   H7392     1.0  0.61678  0.65128  0.15313  1.0000
  H   H7393     1.0  0.50773  0.59588  0.08738  1.0000
  C   C4168     1.0  0.61354  0.63462  0.14493  1.0000
  H   H7394     1.0  0.62193  0.61286  0.15447  1.0000
  C   C4169     1.0  0.95933  0.53424  0.14312  1.0000
  H   H7395     1.0  0.80398  0.53850  0.18020  1.0000
  H   H7396     1.0  0.98480  0.50876  0.15513  1.0000
  S   S934      1.0  0.51500  0.60234  0.02313  1.0000
  H   H7397     1.0  0.63333  0.64131  0.14371  1.0000
  H   H7398     1.0  0.71261  0.50944  0.99989  1.0000
  C   C4170     1.0  0.92818  0.50558  0.16168  1.0000
  C   C4171     1.0  0.56534  0.56509  0.03740  1.0000
  C   C4172     1.0  0.58912  0.60293  0.14317  1.0000
  H   H7399     1.0  0.56731  0.56482  0.02593  1.0000
  C   C4173     1.0  0.57388  0.58854  0.02790  1.0000
  H   H7400     1.0  0.98057  0.53306  0.14604  1.0000
  C   C4174     1.0  0.65493  0.54094  0.08379  1.0000
  H   H7401     1.0  0.88866  0.54539  0.15544  1.0000
  H   H7402     1.0  0.71894  0.54513  0.01453  1.0000
  H   H7403     1.0  0.81637  0.53122  0.20027  1.0000
  H   H7404     1.0  0.96678  0.54573  0.15439  1.0000
  H   H7405     1.0  0.59125  0.61430  0.01413  1.0000
  H   H7406     1.0  0.62306  0.68228  0.01500  1.0000
  C   C4175     1.0  0.68271  0.53815  0.02760  1.0000
  H   H7407     1.0  0.60259  0.60666  0.11520  1.0000
  H   H7408     1.0  0.51697  0.72910  0.14923  1.0000
  H   H7409     1.0  0.82066  0.51722  0.19050  1.0000
  S   S935      1.0  0.65242  0.66492  0.01206  1.0000
  C   C4176     1.0  0.58735  0.62461  0.01703  1.0000
  H   H7410     1.0  0.61018  0.57889  0.11877  1.0000
  C   C4177     1.0  0.81206  0.52311  0.19802  1.0000
  C   C4178     1.0  0.79968  0.53132  0.19037  1.0000
  H   H7411     1.0  0.57426  0.71628  0.99766  1.0000
  H   H7412     1.0  0.53758  0.53980  0.02921  1.0000
  C   C4179     1.0  0.57716  0.65140  0.02428  1.0000
  H   H7413     1.0  0.57331  0.66175  0.02715  1.0000
  C   C4180     1.0  0.68611  0.55103  0.02731  1.0000
  S   S936      1.0  0.80495  0.51463  0.15869  1.0000
  H   H7414     1.0  0.54211  0.65085  0.01912  1.0000
  H   H7415     1.0  0.68891  0.55237  0.03649  1.0000
  C   C4181     1.0  0.00160  0.52710  0.17925  1.0000
  C   C4182     1.0  0.87344  0.53161  0.12590  1.0000
  H   H7416     1.0  0.61848  0.58403  0.10007  1.0000
  H   H7417     1.0  0.87406  0.53672  0.16497  1.0000
  H   H7418     1.0  0.79102  0.53802  0.19716  1.0000
  H   H7419     1.0  0.72345  0.54330  0.03759  1.0000
  C   C4183     1.0  0.57608  0.60006  0.15544  1.0000
  H   H7420     1.0  0.59521  0.59245  0.14056  1.0000
  H   H7421     1.0  0.59339  0.65834  0.00605  1.0000
  H   H7422     1.0  0.56163  0.54245  0.03089  1.0000
  H   H7423     1.0  0.62948  0.57906  0.11321  1.0000
  C   C4184     1.0  0.62028  0.57676  0.11044  1.0000
  H   H7424     1.0  0.53592  0.52774  0.04674  1.0000
  H   H7425     1.0  0.79487  0.52377  0.18774  1.0000
  H   H7426     1.0  0.85653  0.56085  0.16315  1.0000
  H   H7427     1.0  0.79297  0.51981  0.07636  1.0000
  H   H7428     1.0  0.63926  0.56508  0.15577  1.0000
  H   H7429     1.0  0.59039  0.73741  0.06691  1.0000
  H   H7430     1.0  0.63409  0.56333  0.08710  1.0000
  H   H7431     1.0  0.79000  0.55207  0.04638  1.0000
  H   H7432     1.0  0.62589  0.54086  0.09037  1.0000
  H   H7433     1.0  0.54279  0.54608  0.08922  1.0000
  C   C4185     1.0  0.52291  0.57905  0.06187  1.0000
  H   H7434     1.0  0.60091  0.62967  0.12387  1.0000
  C   C4186     1.0  0.65130  0.53472  0.11035  1.0000
  C   C4187     1.0  0.68638  0.56205  0.01499  1.0000
  C   C4188     1.0  0.68349  0.56014  0.00280  1.0000
  H   H7435     1.0  0.63924  0.50419  0.00494  1.0000
  H   H7436     1.0  0.57188  0.53011  0.07335  1.0000
  H   H7437     1.0  0.62647  0.57352  0.02141  1.0000
  H   H7438     1.0  0.52839  0.69852  0.10603  1.0000
  C   C4189     1.0  0.92828  0.50042  0.19080  1.0000
  Fe  Fe469     1.0  0.90712  0.50721  0.22158  1.0000
  H   H7439     1.0  0.68960  0.50701  0.06011  1.0000
  H   H7440     1.0  0.56169  0.73898  0.09010  1.0000
  H   H7441     1.0  0.56814  0.55662  0.06513  1.0000
  H   H7442     1.0  0.54554  0.68596  0.14335  1.0000
  H   H7443     1.0  0.64973  0.55217  0.12066  1.0000
  H   H7444     1.0  0.51277  0.65127  0.07099  1.0000
  S   S937      1.0  0.60933  0.63279  0.99515  1.0000
  C   C4190     1.0  0.67726  0.62652  0.01460  1.0000
  H   H7445     1.0  0.69851  0.63015  0.01123  1.0000
  C   C4191     1.0  0.58933  0.73679  0.08952  1.0000
  S   S938      1.0  0.67243  0.49612  0.08773  1.0000
  H   H7446     1.0  0.64542  0.56373  0.09774  1.0000
  C   C4192     1.0  0.56127  0.55125  0.06212  1.0000
  H   H7447     1.0  0.61414  0.55923  0.10704  1.0000
  C   C4193     1.0  0.62377  0.56112  0.10944  1.0000
  H   H7448     1.0  0.61245  0.53964  0.03200  1.0000
  C   C4194     1.0  0.72367  0.53420  0.02016  1.0000
  H   H7449     1.0  0.68366  0.64521  0.01495  1.0000
  H   H7450     1.0  0.61230  0.53311  0.01694  1.0000
  H   H7451     1.0  0.71470  0.52876  0.02648  1.0000
  H   H7452     1.0  0.70549  0.67096  0.02197  1.0000
  H   H7453     1.0  0.61736  0.58498  0.15771  1.0000
  C   C4195     1.0  0.84083  0.50590  0.09070  1.0000
  C   C4196     1.0  0.70590  0.66138  0.00475  1.0000
  C   C4197     1.0  0.72160  0.49892  0.01836  1.0000
  H   H7454     1.0  0.95268  0.51691  0.18588  1.0000
  C   C4198     1.0  0.62370  0.51206  0.10211  1.0000
  C   C4199     1.0  0.88653  0.52053  0.14516  1.0000
  H   H7455     1.0  0.61773  0.51256  0.11328  1.0000
  C   C4200     1.0  0.54137  0.54789  0.04573  1.0000
  H   H7456     1.0  0.62407  0.53527  0.10920  1.0000
  H   H7457     1.0  0.61483  0.72235  0.06170  1.0000
  H   H7458     1.0  0.87047  0.55890  0.17249  1.0000
  H   H7459     1.0  0.60763  0.52259  0.03486  1.0000
  H   H7460     1.0  0.67112  0.54121  0.13120  1.0000
  H   H7461     1.0  0.66600  0.54930  0.10709  1.0000
  H   H7462     1.0  0.66503  0.55894  0.08243  1.0000
  C   C4201     1.0  0.65826  0.54381  0.11580  1.0000
  C   C4202     1.0  0.87699  0.54606  0.15649  1.0000
  C   C4203     1.0  0.63212  0.53495  0.09882  1.0000
  N   N235      1.0  0.64415  0.54220  0.09780  1.0000
  H   H7463     1.0  0.87138  0.55319  0.11105  1.0000
  H   H7464     1.0  0.52863  0.71868  0.12788  1.0000
  C   C4204     1.0  0.85908  0.54105  0.10638  1.0000
  H   H7465     1.0  0.67838  0.53909  0.06138  1.0000
  H   H7466     1.0  0.65988  0.52515  0.10777  1.0000
  C   C4205     1.0  0.65121  0.50309  0.00093  1.0000
  C   C4206     1.0  0.63599  0.57236  0.14595  1.0000
  H   H7467     1.0  0.55410  0.52931  0.09640  1.0000
  H   H7468     1.0  0.96253  0.52377  0.13990  1.0000
  H   H7469     1.0  0.65984  0.52948  0.08340  1.0000
  H   H7470     1.0  0.64237  0.51801  0.08668  1.0000
  C   C4207     1.0  0.61084  0.61331  0.11122  1.0000
  H   H7471     1.0  0.64330  0.53031  0.11984  1.0000
  H   H7472     1.0  0.64917  0.54542  0.07478  1.0000
  H   H7473     1.0  0.59169  0.62132  0.14816  1.0000
  H   H7474     1.0  0.85202  0.55063  0.10093  1.0000
  C   C4208     1.0  0.61106  0.62113  0.12267  1.0000
  C   C4209     1.0  0.99662  0.51316  0.12319  1.0000
  C   C4210     1.0  0.92860  0.53942  0.18584  1.0000
  H   H7475     1.0  0.62000  0.62699  0.11764  1.0000
  C   C4211     1.0  0.87325  0.54595  0.14236  1.0000
  S   S939      1.0  0.92837  0.50997  0.14334  1.0000
  H   H7476     1.0  0.82426  0.50643  0.06300  1.0000
  H   H7477     1.0  0.74075  0.51594  0.01572  1.0000
  Fe  Fe470     1.0  0.73700  0.59331  0.00039  1.0000
  C   C4212     1.0  0.97717  0.52680  0.17541  1.0000
  H   H7478     1.0  0.85514  0.55043  0.12433  1.0000
  H   H7479     1.0  0.56309  0.70406  0.11758  1.0000
  Fe  Fe471     1.0  0.87712  0.52574  0.22005  1.0000
  C   C4213     1.0  0.71681  0.51280  0.00741  1.0000
  H   H7480     1.0  0.85259  0.53277  0.11202  1.0000
  H   H7481     1.0  0.78929  0.49884  0.04884  1.0000
  H   H7482     1.0  0.87188  0.56928  0.15430  1.0000
  H   H7483     1.0  0.82860  0.52133  0.21675  1.0000
  H   H7484     1.0  0.67543  0.62321  0.02644  1.0000
  C   C4214     1.0  0.74006  0.51336  0.98911  1.0000
  C   C4215     1.0  0.62089  0.61896  0.14348  1.0000
  S   S940      1.0  0.80315  0.51845  0.12495  1.0000
  H   H7485     1.0  0.54629  0.71916  0.10665  1.0000
  C   C4216     1.0  0.96059  0.54603  0.12944  1.0000
  C   C4217     1.0  0.80074  0.49822  0.04260  1.0000
  S   S941      1.0  0.74644  0.60509  0.01051  1.0000
  H   H7486     1.0  0.56320  0.69472  0.14974  1.0000
  H   H7487     1.0  0.97209  0.54507  0.12336  1.0000
  H   H7488     1.0  0.62164  0.60622  0.10821  1.0000
  H   H7489     1.0  0.62741  0.50058  0.10148  1.0000
  H   H7490     1.0  0.70070  0.50027  0.03367  1.0000
  H   H7491     1.0  0.74280  0.53197  0.00304  1.0000
  H   H7492     1.0  0.97303  0.53799  0.17697  1.0000
  H   H7493     1.0  0.55661  0.72834  0.13947  1.0000
  H   H7494     1.0  0.55397  0.53077  0.07133  1.0000
  H   H7495     1.0  0.50737  0.71862  0.16502  1.0000
  H   H7496     1.0  0.86714  0.50135  0.17971  1.0000
  H   H7497     1.0  0.72709  0.50089  0.13480  1.0000
  H   H7498     1.0  0.68363  0.56870  0.99327  1.0000
  H   H7499     1.0  0.94937  0.54256  0.18553  1.0000
  H   H7500     1.0  0.68620  0.66822  0.99644  1.0000
  H   H7501     1.0  0.50570  0.63344  0.05416  1.0000
  H   H7502     1.0  0.83731  0.50340  0.20360  1.0000
  C   C4218     1.0  0.78966  0.50328  0.02111  1.0000
  C   C4219     1.0  0.51459  0.64660  0.06157  1.0000
  C   C4220     1.0  0.85116  0.50274  0.07842  1.0000
  Fe  Fe472     1.0  0.64140  0.66501  0.99499  1.0000
  C   C4221     1.0  0.61547  0.57943  0.02603  1.0000
  S   S942      1.0  0.61721  0.66924  0.99722  1.0000
  H   H7503     1.0  0.52951  0.70343  0.15318  1.0000
  C   C4222     1.0  0.53304  0.67080  0.12468  1.0000
  H   H7504     1.0  0.59740  0.73538  0.09595  1.0000
  H   H7505     1.0  0.51815  0.58547  0.10886  1.0000
  C   C4223     1.0  0.75381  0.50391  0.99457  1.0000
  H   H7506     1.0  0.65332  0.61027  0.99051  1.0000
  H   H7507     1.0  0.66779  0.59474  0.99380  1.0000
  H   H7508     1.0  0.98362  0.50824  0.11170  1.0000
  C   C4224     1.0  0.99184  0.50392  0.11803  1.0000
  H   H7509     1.0  0.51371  0.71217  0.12805  1.0000
  C   C4225     1.0  0.60668  0.73676  0.12238  1.0000
  C   C4226     1.0  0.52381  0.65946  0.13080  1.0000
  H   H7510     1.0  0.73475  0.50630  0.09079  1.0000
  H   H7511     1.0  0.67790  0.64990  0.99190  1.0000
  H   H7512     1.0  0.74962  0.50039  0.13121  1.0000
  H   H7513     1.0  0.82724  0.50061  0.03699  1.0000
  H   H7514     1.0  0.75096  0.49660  0.00508  1.0000
  H   H7515     1.0  0.78979  0.51486  0.01877  1.0000
  H   H7516     1.0  0.77892  0.50155  0.02801  1.0000
  C   C4227     1.0  0.59364  0.73629  0.14708  1.0000
  C   C4228     1.0  0.56483  0.73726  0.11682  1.0000
  C   C4229     1.0  0.83114  0.49572  0.21174  1.0000
  H   H7517     1.0  0.71768  0.66126  0.00048  1.0000
  H   H7518     1.0  0.68780  0.67299  0.01864  1.0000
  H   H7519     1.0  0.81315  0.52113  0.23136  1.0000
  H   H7520     1.0  0.78886  0.49613  0.23111  1.0000
  C   C4230     1.0  0.69811  0.66428  0.99234  1.0000
  H   H7521     1.0  0.88755  0.49604  0.08190  1.0000
  C   C4231     1.0  0.50499  0.62468  0.07712  1.0000
  H   H7522     1.0  0.74900  0.49288  0.08298  1.0000
  H   H7523     1.0  0.81241  0.49597  0.02086  1.0000
  C   C4232     1.0  0.80204  0.49405  0.02841  1.0000
  C   C4233     1.0  0.93938  0.49522  0.16720  1.0000
  C   C4234     1.0  0.97770  0.49643  0.17643  1.0000
  H   H7524     1.0  0.96779  0.49573  0.18510  1.0000
  H   H7525     1.0  0.79574  0.49614  0.06995  1.0000
  H   H7526     1.0  0.57613  0.73466  0.99299  1.0000
  Fe  Fe473     1.0  0.94112  0.49332  0.13057  1.0000
  H   H7527     1.0  0.86688  0.49489  0.10319  1.0000
  H   H7528     1.0  0.00076  0.51835  0.18905  1.0000
  H   H7529     1.0  0.74271  0.63849  0.99108  1.0000
  C   C4235     1.0  0.81111  0.49349  0.23359  1.0000
  C   C4236     1.0  0.57633  0.72550  0.98858  1.0000
  H   H7530     1.0  0.65369  0.50738  0.98916  1.0000
  C   C4237     1.0  0.56619  0.64382  0.98994  1.0000
  H   H7531     1.0  0.50313  0.60741  0.06310  1.0000
  S   S943      1.0  0.93401  0.49432  0.08242  1.0000
  C   C4238     1.0  0.87794  0.49373  0.10476  1.0000
  C   C4239     1.0  0.83347  0.50702  0.23608  1.0000
  H   H7532     1.0  0.55438  0.62775  0.98990  1.0000
  N   N236      1.0  0.55372  0.65676  0.98877  1.0000
  H   H7533     1.0  0.76755  0.49216  0.12327  1.0000
  C   C4240     1.0  0.57685  0.61761  0.98881  1.0000
  C   C4241     1.0  0.93953  0.49278  0.18173  1.0000
  H   H7534     1.0  0.79896  0.49220  0.11974  1.0000
  H   H7535     1.0  0.88676  0.49237  0.15942  1.0000
  H   H7536     1.0  0.84879  0.49214  0.01850  1.0000
  S   S944      1.0  0.64627  0.64453  0.98748  1.0000
  Fe  Fe474     1.0  0.62235  0.64988  0.98793  1.0000
  C   C4242     1.0  0.50354  0.63747  0.06404  1.0000
  H   H7537     1.0  0.51570  0.63472  0.98750  1.0000
  H   H7538     1.0  0.91215  0.59806  0.40470  1.0000
  Fe  Fe475     1.0  0.91784  0.73967  0.43458  1.0000
  H   H7539     1.0  0.92843  0.56017  0.34138  1.0000
  H   H7540     1.0  0.98920  0.71025  0.44198  1.0000
  H   H7541     1.0  0.92233  0.50196  0.38349  1.0000
  H   H7542     1.0  0.99814  0.53927  0.46791  1.0000
  C   C4243     1.0  0.97980  0.66069  0.31880  1.0000
  C   C4244     1.0  0.92450  0.65923  0.43327  1.0000
  Fe  Fe476     1.0  0.95266  0.66515  0.38229  1.0000
  S   S945      1.0  0.93947  0.65022  0.38140  1.0000
  S   S946      1.0  0.94746  0.68948  0.37870  1.0000
  Fe  Fe477     1.0  0.97926  0.64101  0.38627  1.0000
  S   S947      1.0  0.96845  0.62399  0.38617  1.0000
  H   H7543     1.0  0.92951  0.66117  0.42164  1.0000
  Fe  Fe478     1.0  0.95977  0.63935  0.36763  1.0000
  S   S948      1.0  0.96421  0.63171  0.34683  1.0000
  Fe  Fe479     1.0  0.94920  0.63581  0.39988  1.0000
  S   S949      1.0  0.93546  0.62402  0.41910  1.0000
  S   S950      1.0  0.97211  0.65570  0.36684  1.0000
  S   S951      1.0  0.96079  0.65141  0.40174  1.0000
  Fe  Fe480     1.0  0.96448  0.54353  0.31357  1.0000
  S   S952      1.0  0.97438  0.54624  0.29012  1.0000
  S   S953      1.0  0.96847  0.52246  0.32937  1.0000
  Fe  Fe481     1.0  0.95121  0.57542  0.31168  1.0000
  S   S954      1.0  0.95961  0.58082  0.28771  1.0000
  S   S955      1.0  0.93770  0.59094  0.32614  1.0000
  Fe  Fe482     1.0  0.95275  0.56096  0.28733  1.0000
  S   S956      1.0  0.94463  0.55996  0.26830  1.0000
  Fe  Fe483     1.0  0.98041  0.56558  0.29225  1.0000
  H   H7544     1.0  0.98298  0.74087  0.44578  1.0000
  S   S957      1.0  0.94240  0.55692  0.31092  1.0000
  S   S958      1.0  0.97249  0.56151  0.31601  1.0000
  S   S959      1.0  0.97545  0.52315  0.41914  1.0000
  H   H7545     1.0  0.94841  0.50203  0.37043  1.0000
  S   S960      1.0  0.96931  0.54422  0.38238  1.0000
  H   H7546     1.0  0.95922  0.68073  0.45366  1.0000
  H   H7547     1.0  0.98140  0.65079  0.31494  1.0000
  C   C4245     1.0  0.83561  0.51813  0.24273  1.0000
  H   H7548     1.0  0.00046  0.63898  0.32849  1.0000
  H   H7549     1.0  0.92658  0.51440  0.40541  1.0000
  H   H7550     1.0  0.89418  0.52090  0.37731  1.0000
  H   H7551     1.0  0.91597  0.57334  0.35070  1.0000
  H   H7552     1.0  0.97804  0.57055  0.44955  1.0000
  C   C4246     1.0  0.96800  0.52766  0.34485  1.0000
  C   C4247     1.0  0.96007  0.54129  0.34682  1.0000
  C   C4248     1.0  0.96061  0.54625  0.35837  1.0000
  C   C4249     1.0  0.96897  0.53753  0.36813  1.0000
  C   C4250     1.0  0.97661  0.52369  0.36645  1.0000
  C   C4251     1.0  0.97608  0.51874  0.35479  1.0000
  H   H7553     1.0  0.95353  0.54809  0.33936  1.0000
  H   H7554     1.0  0.95470  0.55697  0.35961  1.0000
  H   H7555     1.0  0.98286  0.51681  0.37409  1.0000
  H   H7556     1.0  0.98219  0.50823  0.35324  1.0000
  C   C4252     1.0  0.93172  0.55103  0.26708  1.0000
  C   C4253     1.0  0.92039  0.54745  0.27866  1.0000
  C   C4254     1.0  0.90916  0.54242  0.27662  1.0000
  C   C4255     1.0  0.90934  0.54044  0.26313  1.0000
  C   C4256     1.0  0.99704  0.68787  0.44176  1.0000
  C   C4257     1.0  0.93195  0.54895  0.25362  1.0000
  H   H7557     1.0  0.92001  0.54899  0.28907  1.0000
  H   H7558     1.0  0.90263  0.62393  0.40290  1.0000
  H   H7559     1.0  0.95537  0.63475  0.48699  1.0000
  C   C4258     1.0  0.94144  0.61862  0.43525  1.0000
  C   C4259     1.0  0.93154  0.61441  0.44793  1.0000
  H   H7560     1.0  0.00003  0.71917  0.38083  1.0000
  H   H7561     1.0  0.95309  0.64304  0.46079  1.0000
  H   H7562     1.0  0.96416  0.57118  0.38983  1.0000
  H   H7563     1.0  0.94209  0.65853  0.46676  1.0000
  C   C4260     1.0  0.95268  0.67879  0.44722  1.0000
  C   C4261     1.0  0.97943  0.64386  0.43829  1.0000
  H   H7564     1.0  0.94164  0.53965  0.42739  1.0000
  H   H7565     1.0  0.88882  0.60875  0.27792  1.0000
  C   C4262     1.0  0.95670  0.61989  0.34191  1.0000
  C   C4263     1.0  0.94243  0.61796  0.34801  1.0000
  C   C4264     1.0  0.93683  0.60893  0.34323  1.0000
  C   C4265     1.0  0.94540  0.60167  0.33237  1.0000
  C   C4266     1.0  0.95968  0.60351  0.32642  1.0000
  C   C4267     1.0  0.96522  0.61265  0.33105  1.0000
  H   H7566     1.0  0.93566  0.62360  0.35622  1.0000
  H   H7567     1.0  0.92574  0.60770  0.34785  1.0000
  H   H7568     1.0  0.96636  0.59812  0.31801  1.0000
  H   H7569     1.0  0.97620  0.61416  0.32617  1.0000
  C   C4268     1.0  0.92273  0.71233  0.41550  1.0000
  C   C4269     1.0  0.91995  0.69927  0.41535  1.0000
  C   C4270     1.0  0.92774  0.69201  0.40432  1.0000
  C   C4271     1.0  0.93807  0.69796  0.39311  1.0000
  C   C4272     1.0  0.94052  0.71126  0.39300  1.0000
  H   H7570     1.0  0.82506  0.52343  0.24879  1.0000
  H   H7571     1.0  0.91172  0.69474  0.42381  1.0000
  H   H7572     1.0  0.92538  0.68208  0.40416  1.0000
  H   H7573     1.0  0.94816  0.71610  0.38409  1.0000
  H   H7574     1.0  0.91413  0.57510  0.28686  1.0000
  Fe  Fe484     1.0  0.98500  0.53077  0.39599  1.0000
  H   H7575     1.0  0.93335  0.58782  0.27406  1.0000
  C   C4273     1.0  0.92017  0.60494  0.40196  1.0000
  C   C4274     1.0  0.93609  0.57487  0.40697  1.0000
  H   H7576     1.0  0.97015  0.57891  0.35743  1.0000
  H   H7577     1.0  0.90018  0.54018  0.28553  1.0000
  H   H7578     1.0  0.98485  0.51178  0.28557  1.0000
  H   H7579     1.0  0.93639  0.59043  0.24882  1.0000
  H   H7580     1.0  0.97430  0.64565  0.46761  1.0000
  H   H7581     1.0  0.97596  0.63619  0.44831  1.0000
  C   C4275     1.0  0.90793  0.58631  0.28728  1.0000
  H   H7582     1.0  0.89622  0.58580  0.29095  1.0000
  S   S961      1.0  0.99446  0.61025  0.46279  1.0000
  C   C4276     1.0  0.96330  0.59117  0.37395  1.0000
  H   H7583     1.0  0.99143  0.67179  0.32556  1.0000
  H   H7584     1.0  0.97938  0.66257  0.44561  1.0000
  C   C4277     1.0  0.97189  0.58733  0.41964  1.0000
  Fe  Fe485     1.0  0.88077  0.49900  0.24389  1.0000
  S   S962      1.0  0.00264  0.64074  0.47403  1.0000
  H   H7585     1.0  0.97587  0.64176  0.42958  1.0000
  H   H7586     1.0  0.99810  0.61358  0.41555  1.0000
  N   N237      1.0  0.94463  0.58607  0.39799  1.0000
  H   H7587     1.0  0.94114  0.68154  0.45314  1.0000
  C   C4278     1.0  0.88771  0.63478  0.26063  1.0000
  H   H7588     1.0  0.95911  0.51447  0.39433  1.0000
  H   H7589     1.0  0.99405  0.55234  0.35760  1.0000
  H   H7590     1.0  0.94810  0.56288  0.42373  1.0000
  H   H7591     1.0  0.82946  0.49853  0.24504  1.0000
  C   C4279     1.0  0.99964  0.64840  0.33272  1.0000
  Fe  Fe486     1.0  0.99227  0.50279  0.41744  1.0000
  H   H7592     1.0  0.91043  0.59537  0.25101  1.0000
  S   S963      1.0  0.93310  0.73995  0.47915  1.0000
  H   H7593     1.0  0.89347  0.53991  0.37225  1.0000
  C   C4280     1.0  0.94866  0.66045  0.43703  1.0000
  H   H7594     1.0  0.97087  0.61358  0.44934  1.0000
  C   C4281     1.0  0.96716  0.58241  0.40885  1.0000
  H   H7595     1.0  0.00204  0.66285  0.31128  1.0000
  H   H7596     1.0  0.93258  0.53560  0.38565  1.0000
  H   H7597     1.0  0.90728  0.53697  0.39149  1.0000
  H   H7598     1.0  0.99859  0.53735  0.34038  1.0000
  C   C4282     1.0  0.93409  0.59892  0.39144  1.0000
  C   C4283     1.0  0.95331  0.65409  0.46115  1.0000
  H   H7599     1.0  0.93898  0.70762  0.44151  1.0000
  H   H7600     1.0  0.99083  0.64760  0.34254  1.0000
  H   H7601     1.0  0.92778  0.60735  0.47087  1.0000
  H   H7602     1.0  0.95443  0.55579  0.40771  1.0000
  H   H7603     1.0  0.95121  0.64875  0.43724  1.0000
  H   H7604     1.0  0.93128  0.54720  0.41365  1.0000
  H   H7605     1.0  0.97525  0.58428  0.39858  1.0000
  H   H7606     1.0  0.88032  0.52327  0.40198  1.0000
  S   S964      1.0  0.95397  0.60529  0.47874  1.0000
  C   C4284     1.0  0.93310  0.71830  0.40430  1.0000
  H   H7607     1.0  0.90721  0.60174  0.29999  1.0000
  H   H7608     1.0  0.90741  0.51843  0.39639  1.0000
  C   C4285     1.0  0.95452  0.69003  0.43278  1.0000
  H   H7609     1.0  0.93046  0.57208  0.40018  1.0000
  H   H7610     1.0  0.92057  0.61452  0.44761  1.0000
  H   H7611     1.0  0.92012  0.62765  0.39314  1.0000
  C   C4286     1.0  0.93517  0.54972  0.42189  1.0000
  H   H7612     1.0  0.94440  0.59078  0.41799  1.0000
  H   H7613     1.0  0.00018  0.64170  0.44355  1.0000
  H   H7614     1.0  0.95143  0.71313  0.42494  1.0000
  S   S965      1.0  0.98455  0.54563  0.43855  1.0000
  H   H7615     1.0  0.95242  0.60225  0.40270  1.0000
  H   H7616     1.0  0.96339  0.62161  0.42596  1.0000
  H   H7617     1.0  0.92834  0.55370  0.36737  1.0000
  H   H7618     1.0  0.92559  0.64748  0.43752  1.0000
  C   C4287     1.0  0.91283  0.62016  0.39531  1.0000
  C   C4288     1.0  0.93181  0.66523  0.44125  1.0000
  H   H7619     1.0  0.90240  0.61569  0.28034  1.0000
  H   H7620     1.0  0.93363  0.53395  0.35524  1.0000
  C   C4289     1.0  0.95565  0.61845  0.43575  1.0000
  H   H7621     1.0  0.91011  0.62040  0.38516  1.0000
  H   H7622     1.0  0.93965  0.60800  0.38585  1.0000
  C   C4290     1.0  0.99505  0.73346  0.41879  1.0000
  S   S966      1.0  0.91269  0.72087  0.42972  1.0000
  H   H7623     1.0  0.98713  0.49500  0.28073  1.0000
  C   C4291     1.0  0.93563  0.61034  0.46110  1.0000
  H   H7624     1.0  0.96804  0.57068  0.41245  1.0000
  C   C4292     1.0  0.98773  0.72781  0.39994  1.0000
  H   H7625     1.0  0.91064  0.56957  0.31406  1.0000
  C   C4293     1.0  0.96351  0.65252  0.47115  1.0000
  H   H7626     1.0  0.97549  0.66605  0.42850  1.0000
  C   C4294     1.0  0.97513  0.58383  0.36303  1.0000
  C   C4295     1.0  0.95042  0.70523  0.43536  1.0000
  H   H7627     1.0  0.97343  0.72972  0.43165  1.0000
  H   H7628     1.0  0.97862  0.50069  0.31108  1.0000
  H   H7629     1.0  0.94747  0.68953  0.42606  1.0000
  H   H7630     1.0  0.99738  0.63118  0.30195  1.0000
  H   H7631     1.0  0.93042  0.59634  0.38302  1.0000
  H   H7632     1.0  0.93522  0.72843  0.40423  1.0000
  H   H7633     1.0  0.95623  0.59475  0.25666  1.0000
  H   H7634     1.0  0.92708  0.60642  0.27356  1.0000
  S   S967      1.0  0.93861  0.74067  0.43922  1.0000
  H   H7635     1.0  0.90904  0.56093  0.34564  1.0000
  C   C4296     1.0  0.96284  0.55410  0.47997  1.0000
  C   C4297     1.0  0.90003  0.62156  0.25875  1.0000
  H   H7636     1.0  0.97612  0.67015  0.31054  1.0000
  H   H7637     1.0  0.80622  0.49883  0.24283  1.0000
  H   H7638     1.0  0.95020  0.57529  0.38048  1.0000
  H   H7639     1.0  0.91515  0.53480  0.35665  1.0000
  H   H7640     1.0  0.00090  0.69909  0.41409  1.0000
  H   H7641     1.0  0.96428  0.58564  0.43029  1.0000
  H   H7642     1.0  0.92564  0.55385  0.42995  1.0000
  H   H7643     1.0  0.94260  0.51150  0.35407  1.0000
  N   N238      1.0  0.95693  0.66323  0.44623  1.0000
  H   H7644     1.0  0.87068  0.53469  0.38850  1.0000
  H   H7645     1.0  0.95775  0.70651  0.44140  1.0000
  H   H7646     1.0  0.99919  0.68495  0.45268  1.0000
  H   H7647     1.0  0.97226  0.59889  0.41589  1.0000
  N   N239      1.0  0.99771  0.72215  0.41036  1.0000
  H   H7648     1.0  0.84290  0.51267  0.25031  1.0000
  H   H7649     1.0  0.92269  0.60519  0.41202  1.0000
  S   S968      1.0  0.89403  0.53572  0.26081  1.0000
  C   C4298     1.0  0.87012  0.73922  0.38240  1.0000
  Fe  Fe487     1.0  0.97688  0.60261  0.48075  1.0000
  C   C4299     1.0  0.94874  0.51532  0.40251  1.0000
  H   H7650     1.0  0.95542  0.59901  0.36799  1.0000
  H   H7651     1.0  0.98319  0.57539  0.36841  1.0000
  H   H7652     1.0  0.91271  0.66441  0.43479  1.0000
  H   H7653     1.0  0.87976  0.54239  0.39690  1.0000
  C   C4300     1.0  0.95157  0.59085  0.40709  1.0000
  H   H7654     1.0  0.98082  0.59187  0.35492  1.0000
  H   H7655     1.0  0.92750  0.66141  0.45284  1.0000
  C   C4301     1.0  0.95558  0.58014  0.38585  1.0000
  C   C4302     1.0  0.00274  0.58564  0.31607  1.0000
  C   C4303     1.0  0.94470  0.56076  0.41495  1.0000
  H   H7656     1.0  0.92739  0.57914  0.41560  1.0000
  H   H7657     1.0  0.92843  0.67712  0.43863  1.0000
  H   H7658     1.0  0.98298  0.70769  0.42120  1.0000
  H   H7659     1.0  0.95224  0.66575  0.42560  1.0000
  C   C4304     1.0  0.97301  0.65963  0.43964  1.0000
  H   H7660     1.0  0.98293  0.58098  0.42078  1.0000
  H   H7661     1.0  0.96594  0.68843  0.42657  1.0000
  H   H7662     1.0  0.90909  0.55454  0.37165  1.0000
  C   C4305     1.0  0.95987  0.61400  0.44900  1.0000
  H   H7663     1.0  0.96821  0.59719  0.37843  1.0000
  C   C4306     1.0  0.94975  0.61015  0.46173  1.0000
  H   H7664     1.0  0.94508  0.52406  0.37498  1.0000
  N   N240      1.0  0.92248  0.52467  0.37646  1.0000
  C   C4307     1.0  0.92455  0.51014  0.37335  1.0000
  C   C4308     1.0  0.90811  0.52765  0.38698  1.0000
  C   C4309     1.0  0.92275  0.53584  0.36257  1.0000
  C   C4310     1.0  0.93451  0.52501  0.38293  1.0000
  C   C4311     1.0  0.93662  0.51347  0.39681  1.0000
  C   C4312     1.0  0.93974  0.50406  0.36452  1.0000
  C   C4313     1.0  0.91943  0.55171  0.36388  1.0000
  C   C4314     1.0  0.89423  0.53029  0.38119  1.0000
  C   C4315     1.0  0.88044  0.53281  0.39290  1.0000
  H   H7665     1.0  0.99460  0.59128  0.32367  1.0000
  S   S969      1.0  0.87018  0.52210  0.24408  1.0000
  C   C4316     1.0  0.91813  0.56211  0.34951  1.0000
  H   H7666     1.0  0.91643  0.51048  0.36733  1.0000
  H   H7667     1.0  0.94057  0.55181  0.24455  1.0000
  H   H7668     1.0  0.97872  0.71657  0.37388  1.0000
  H   H7669     1.0  0.99990  0.60649  0.35311  1.0000
  S   S970      1.0  0.90236  0.50128  0.24561  1.0000
  H   H7670     1.0  0.98716  0.58455  0.30519  1.0000
  H   H7671     1.0  0.00035  0.62976  0.43290  1.0000
  H   H7672     1.0  0.97108  0.66048  0.32876  1.0000
  C   C4317     1.0  0.92099  0.54346  0.25170  1.0000
  H   H7673     1.0  0.96931  0.50398  0.28932  1.0000
  H   H7674     1.0  0.91037  0.62534  0.25499  1.0000
  H   H7675     1.0  0.99446  0.59643  0.42632  1.0000
  C   C4318     1.0  0.99394  0.66180  0.32163  1.0000
  H   H7676     1.0  0.91689  0.57867  0.26163  1.0000
  H   H7677     1.0  0.89239  0.57600  0.27496  1.0000
  C   C4319     1.0  0.89349  0.58494  0.26535  1.0000
  H   H7678     1.0  0.99010  0.70702  0.39454  1.0000
  H   H7679     1.0  0.99316  0.58221  0.45668  1.0000
  H   H7680     1.0  0.97613  0.72895  0.40586  1.0000
  C   C4320     1.0  0.90013  0.61033  0.27309  1.0000
  C   C4321     1.0  0.90651  0.58118  0.31403  1.0000
  H   H7681     1.0  0.90095  0.57079  0.25029  1.0000
  H   H7682     1.0  0.89441  0.58358  0.31685  1.0000
  H   H7683     1.0  0.99210  0.62463  0.35478  1.0000
  Fe  Fe488     1.0  0.99967  0.61819  0.47924  1.0000
  H   H7684     1.0  0.93961  0.50246  0.39486  1.0000
  Fe  Fe489     1.0  0.99290  0.53142  0.42272  1.0000
  H   H7685     1.0  0.98330  0.55930  0.47758  1.0000
  C   C4322     1.0  0.99573  0.55728  0.34596  1.0000
  H   H7686     1.0  0.00130  0.56625  0.34360  1.0000
  C   C4323     1.0  0.89182  0.57987  0.25291  1.0000
  H   H7687     1.0  0.87886  0.73494  0.44871  1.0000
  H   H7688     1.0  0.89838  0.61724  0.25038  1.0000
  H   H7689     1.0  0.92121  0.54216  0.24123  1.0000
  H   H7690     1.0  0.91041  0.58361  0.32232  1.0000
  H   H7691     1.0  0.98824  0.66152  0.39721  1.0000
  H   H7692     1.0  0.00012  0.64837  0.42471  1.0000
  H   H7693     1.0  0.95032  0.50683  0.41228  1.0000
  H   H7694     1.0  0.99822  0.67945  0.40233  1.0000
  H   H7695     1.0  0.88439  0.59427  0.26718  1.0000
  H   H7696     1.0  0.92402  0.58862  0.29769  1.0000
  C   C4324     1.0  0.98973  0.56664  0.44751  1.0000
  C   C4325     1.0  0.99760  0.70361  0.43497  1.0000
  C   C4326     1.0  0.91201  0.59038  0.29939  1.0000
  C   C4327     1.0  0.99848  0.58169  0.30574  1.0000
  H   H7697     1.0  0.94600  0.52595  0.40526  1.0000
  Fe  Fe490     1.0  0.89234  0.52485  0.24401  1.0000
  C   C4328     1.0  0.98978  0.71847  0.38909  1.0000
  C   C4329     1.0  0.99989  0.66020  0.39545  1.0000
  C   C4330     1.0  0.99462  0.70794  0.41966  1.0000
  H   H7698     1.0  0.98491  0.56171  0.34314  1.0000
  H   H7699     1.0  0.96520  0.66304  0.47125  1.0000
  C   C4331     1.0  0.99604  0.64081  0.43462  1.0000
  H   H7700     1.0  0.92786  0.60916  0.24607  1.0000
  H   H7701     1.0  0.98612  0.68607  0.44260  1.0000
  H   H7702     1.0  0.98309  0.53153  0.47105  1.0000
  H   H7703     1.0  0.94771  0.61372  0.25457  1.0000
  H   H7704     1.0  0.86284  0.74082  0.43146  1.0000
  H   H7705     1.0  0.00100  0.66032  0.35246  1.0000
  C   C4332     1.0  0.95418  0.56966  0.47790  1.0000
  C   C4333     1.0  0.98119  0.50148  0.28889  1.0000
  H   H7706     1.0  0.96112  0.57701  0.47050  1.0000
  H   H7707     1.0  0.88891  0.63984  0.26873  1.0000
  H   H7708     1.0  0.85988  0.74108  0.45654  1.0000
  C   C4334     1.0  0.99180  0.53178  0.47604  1.0000
  H   H7709     1.0  0.99631  0.61486  0.29823  1.0000
  C   C4335     1.0  0.97645  0.55242  0.48586  1.0000
  C   C4336     1.0  0.90852  0.58884  0.26211  1.0000
  H   H7710     1.0  0.87693  0.63179  0.26403  1.0000
  H   H7711     1.0  0.87937  0.72982  0.38377  1.0000
  H   H7712     1.0  0.88169  0.73796  0.40438  1.0000
  H   H7713     1.0  0.96610  0.55121  0.46938  1.0000
  H   H7714     1.0  0.94479  0.57079  0.47321  1.0000
  S   S971      1.0  0.00045  0.50978  0.39385  1.0000
  S   S972      1.0  0.00275  0.63478  0.38775  1.0000
  C   C4337     1.0  0.92633  0.59775  0.26894  1.0000
  C   C4338     1.0  0.00244  0.60341  0.42269  1.0000
  N   N241      1.0  0.91072  0.59605  0.27256  1.0000
  H   H7715     1.0  0.88148  0.57610  0.25590  1.0000
  S   S973      1.0  0.00140  0.54046  0.39949  1.0000
  C   C4339     1.0  0.00179  0.61580  0.35581  1.0000
  C   C4340     1.0  0.99611  0.55487  0.44110  1.0000
  H   H7716     1.0  0.00286  0.61285  0.36712  1.0000
  H   H7717     1.0  0.99479  0.50837  0.48350  1.0000
  H   H7718     1.0  0.85984  0.73620  0.38923  1.0000
  H   H7719     1.0  0.95447  0.60565  0.23920  1.0000
  H   H7720     1.0  0.96670  0.72333  0.38904  1.0000
  C   C4341     1.0  0.94906  0.60385  0.25075  1.0000
  C   C4342     1.0  0.98431  0.49343  0.30358  1.0000
  H   H7721     1.0  0.97852  0.49565  0.40013  1.0000
  H   H7722     1.0  0.00153  0.72971  0.42714  1.0000
  C   C4343     1.0  0.93428  0.60033  0.25287  1.0000
  C   C4344     1.0  0.97889  0.73880  0.42611  1.0000
  H   H7723     1.0  0.88804  0.64282  0.25028  1.0000
  C   C4345     1.0  0.99830  0.57320  0.45162  1.0000
  C   C4346     1.0  0.97730  0.72366  0.38125  1.0000
  H   H7724     1.0  0.89158  0.58877  0.24323  1.0000
  H   H7725     1.0  0.97710  0.73484  0.37488  1.0000
  H   H7726     1.0  0.98890  0.73882  0.39366  1.0000
  C   C4347     1.0  0.00157  0.51641  0.47774  1.0000
  H   H7727     1.0  0.00139  0.51431  0.45659  1.0000
  C   C4348     1.0  0.95721  0.64542  0.48654  1.0000
  H   H7728     1.0  0.95536  0.54731  0.48733  1.0000
  S   S974      1.0  0.96891  0.53480  0.70435  1.0000
  H   H7729     1.0  0.93641  0.68981  0.56482  1.0000
  H   H7730     1.0  0.98888  0.71230  0.61518  1.0000
  Fe  Fe491     1.0  0.97104  0.64304  0.63932  1.0000
  S   S975      1.0  0.96227  0.66684  0.63280  1.0000
  S   S976      1.0  0.95856  0.62884  0.65772  1.0000
  C   C4349     1.0  0.89837  0.58740  0.73076  1.0000
  H   H7731     1.0  0.99895  0.52538  0.70773  1.0000
  C   C4350     1.0  0.99062  0.73042  0.62147  1.0000
  Fe  Fe492     1.0  0.98491  0.66872  0.63152  1.0000
  H   H7732     1.0  0.98627  0.58389  0.59052  1.0000
  Fe  Fe493     1.0  0.97094  0.66385  0.61023  1.0000
  S   S977      1.0  0.96188  0.67576  0.59063  1.0000
  H   H7733     1.0  0.92702  0.57517  0.72702  1.0000
  S   S978      1.0  0.97742  0.63979  0.61677  1.0000
  H   H7734     1.0  0.99340  0.71923  0.58618  1.0000
  H   H7735     1.0  0.95123  0.72120  0.52210  1.0000
  C   C4351     1.0  0.97353  0.56788  0.67115  1.0000
  S   S979      1.0  0.99302  0.66731  0.60861  1.0000
  H   H7736     1.0  0.89632  0.69672  0.54616  1.0000
  C   C4352     1.0  0.94713  0.72355  0.53297  1.0000
  C   C4353     1.0  0.93330  0.61581  0.72966  1.0000
  H   H7737     1.0  0.93995  0.73448  0.53215  1.0000
  C   C4354     1.0  0.93111  0.60485  0.72283  1.0000
  H   H7738     1.0  0.95434  0.69698  0.61830  1.0000
  H   H7739     1.0  0.93288  0.58537  0.70970  1.0000
  H   H7740     1.0  0.94400  0.66430  0.57566  1.0000
  H   H7741     1.0  0.91964  0.72315  0.53472  1.0000
  H   H7742     1.0  0.90827  0.60806  0.67742  1.0000
  Fe  Fe494     1.0  0.99679  0.59113  0.50208  1.0000
  H   H7743     1.0  0.97712  0.55336  0.64254  1.0000
  H   H7744     1.0  0.99224  0.54408  0.50493  1.0000
  H   H7745     1.0  0.99669  0.62748  0.55392  1.0000
  H   H7746     1.0  0.99051  0.60692  0.57323  1.0000
  H   H7747     1.0  0.99897  0.70180  0.65282  1.0000
  C   C4355     1.0  0.99882  0.60020  0.57938  1.0000
  H   H7748     1.0  0.99643  0.60383  0.58954  1.0000
  H   H7749     1.0  0.99096  0.62480  0.53114  1.0000
  H   H7750     1.0  0.94217  0.72042  0.60835  1.0000
  H   H7751     1.0  0.88138  0.70151  0.59202  1.0000
  Fe  Fe495     1.0  0.98256  0.57216  0.71923  1.0000
  H   H7752     1.0  0.93541  0.71497  0.55381  1.0000
  H   H7753     1.0  0.93870  0.59456  0.72614  1.0000
  H   H7754     1.0  0.90052  0.59656  0.70296  1.0000
  C   C4356     1.0  0.90391  0.70382  0.53961  1.0000
  C   C4357     1.0  0.91043  0.61651  0.68133  1.0000
  H   H7755     1.0  0.99652  0.72354  0.62989  1.0000
  H   H7756     1.0  0.94632  0.72886  0.61970  1.0000
  C   C4358     1.0  0.97593  0.52747  0.49998  1.0000
  H   H7757     1.0  0.96516  0.74025  0.61187  1.0000
  C   C4359     1.0  0.98685  0.71278  0.58430  1.0000
  H   H7758     1.0  0.94994  0.57300  0.48831  1.0000
  C   C4360     1.0  0.94669  0.68999  0.59308  1.0000
  C   C4361     1.0  0.94516  0.70223  0.58195  1.0000
  C   C4362     1.0  0.93315  0.71378  0.58366  1.0000
  C   C4363     1.0  0.92242  0.71299  0.59634  1.0000
  C   C4364     1.0  0.92395  0.70074  0.60747  1.0000
  C   C4365     1.0  0.93612  0.68929  0.60589  1.0000
  H   H7759     1.0  0.95342  0.70288  0.57209  1.0000
  H   H7760     1.0  0.93231  0.72336  0.57526  1.0000
  H   H7761     1.0  0.91569  0.70010  0.61733  1.0000
  H   H7762     1.0  0.93722  0.67986  0.61451  1.0000
  C   C4366     1.0  0.92017  0.57075  0.71019  1.0000
  C   C4367     1.0  0.91649  0.60993  0.69485  1.0000
  H   H7763     1.0  0.93757  0.55296  0.71690  1.0000
  H   H7764     1.0  0.90021  0.62474  0.68343  1.0000
  H   H7765     1.0  0.97375  0.71873  0.62888  1.0000
  H   H7766     1.0  0.88845  0.70862  0.51865  1.0000
  H   H7767     1.0  0.91676  0.57631  0.69995  1.0000
  N   N242      1.0  0.96426  0.72385  0.60195  1.0000
  H   H7768     1.0  0.96369  0.57418  0.67722  1.0000
  C   C4368     1.0  0.98453  0.52401  0.68105  1.0000
  H   H7769     1.0  0.99540  0.66311  0.67784  1.0000
  H   H7770     1.0  0.00088  0.58703  0.62025  1.0000
  H   H7771     1.0  0.97420  0.52651  0.67799  1.0000
  C   C4369     1.0  0.98373  0.60082  0.69177  1.0000
  C   C4370     1.0  0.96853  0.60322  0.69468  1.0000
  C   C4371     1.0  0.96090  0.61175  0.68412  1.0000
  C   C4372     1.0  0.96844  0.61789  0.67061  1.0000
  C   C4373     1.0  0.98367  0.61531  0.66769  1.0000
  C   C4374     1.0  0.99125  0.60709  0.67835  1.0000
  H   H7772     1.0  0.96263  0.59889  0.70519  1.0000
  H   H7773     1.0  0.94914  0.61378  0.68644  1.0000
  H   H7774     1.0  0.98964  0.61940  0.65716  1.0000
  H   H7775     1.0  0.94673  0.65229  0.49094  1.0000
  H   H7776     1.0  0.90767  0.61366  0.72705  1.0000
  S   S980      1.0  0.96145  0.56991  0.71661  1.0000
  C   C4375     1.0  0.90532  0.60289  0.70727  1.0000
  C   C4376     1.0  0.93974  0.66742  0.56575  1.0000
  H   H7777     1.0  0.90310  0.72066  0.55712  1.0000
  H   H7778     1.0  0.97410  0.57241  0.65952  1.0000
  H   H7779     1.0  0.00129  0.60942  0.52381  1.0000
  H   H7780     1.0  0.98787  0.54284  0.62169  1.0000
  C   C4377     1.0  0.92327  0.58147  0.71703  1.0000
  H   H7781     1.0  0.96849  0.52529  0.49462  1.0000
  H   H7782     1.0  0.99881  0.73366  0.61163  1.0000
  C   C4378     1.0  0.95300  0.70555  0.62397  1.0000
  H   H7783     1.0  0.00018  0.56135  0.65638  1.0000
  H   H7784     1.0  0.99699  0.50893  0.63013  1.0000
  H   H7785     1.0  0.95876  0.54296  0.51114  1.0000
  C   C4379     1.0  0.99705  0.53775  0.49646  1.0000
  C   C4380     1.0  0.89696  0.69848  0.51925  1.0000
  H   H7786     1.0  0.93452  0.60837  0.71112  1.0000
  H   H7787     1.0  0.92679  0.60213  0.69195  1.0000
  S   S981      1.0  0.99370  0.54893  0.72004  1.0000
  C   C4381     1.0  0.95891  0.73412  0.58917  1.0000
  C   C4382     1.0  0.89098  0.70587  0.58528  1.0000
  H   H7788     1.0  0.88520  0.73728  0.51110  1.0000
  H   H7789     1.0  0.88149  0.60769  0.73083  1.0000
  H   H7790     1.0  0.95657  0.72349  0.53708  1.0000
  C   C4383     1.0  0.97369  0.71046  0.59707  1.0000
  H   H7791     1.0  0.97761  0.64697  0.66954  1.0000
  S   S982      1.0  0.90717  0.72721  0.59868  1.0000
  S   S983      1.0  0.98784  0.68629  0.63984  1.0000
  C   C4384     1.0  0.89558  0.74000  0.50945  1.0000
  Fe  Fe496     1.0  0.99879  0.64355  0.61699  1.0000
  H   H7792     1.0  0.98761  0.58033  0.67243  1.0000
  H   H7793     1.0  0.91882  0.61886  0.69784  1.0000
  C   C4385     1.0  0.93377  0.55903  0.70693  1.0000
  H   H7794     1.0  0.91156  0.56526  0.71755  1.0000
  H   H7795     1.0  0.94270  0.56376  0.69910  1.0000
  H   H7796     1.0  0.89617  0.61191  0.71007  1.0000
  N   N243      1.0  0.98531  0.53732  0.48958  1.0000
  C   C4386     1.0  0.93970  0.70467  0.63642  1.0000
  H   H7797     1.0  0.94918  0.66726  0.55643  1.0000
  H   H7798     1.0  0.98674  0.52891  0.63778  1.0000
  H   H7799     1.0  0.97246  0.55654  0.67385  1.0000
  S   S984      1.0  0.99357  0.58972  0.70457  1.0000
  H   H7800     1.0  0.91855  0.62179  0.67275  1.0000
  H   H7801     1.0  0.92634  0.62654  0.72633  1.0000
  C   C4387     1.0  0.92581  0.71192  0.53763  1.0000
  H   H7802     1.0  0.93220  0.68445  0.54193  1.0000
  C   C4388     1.0  0.98905  0.54882  0.64015  1.0000
  S   S985      1.0  0.98104  0.61202  0.49674  1.0000
  H   H7803     1.0  0.93357  0.65943  0.56620  1.0000
  C   C4389     1.0  0.99848  0.52352  0.69777  1.0000
  H   H7804     1.0  0.88821  0.71770  0.58424  1.0000
  C   C4390     1.0  0.89498  0.70228  0.57055  1.0000
  C   C4391     1.0  0.98510  0.52689  0.69378  1.0000
  H   H7805     1.0  0.99532  0.52619  0.60835  1.0000
  H   H7806     1.0  0.92115  0.68218  0.57463  1.0000
  H   H7807     1.0  0.89756  0.69043  0.57201  1.0000
  H   H7808     1.0  0.99891  0.61258  0.62014  1.0000
  C   C4392     1.0  0.93890  0.71228  0.54317  1.0000
  H   H7809     1.0  0.93126  0.55135  0.70226  1.0000
  H   H7810     1.0  0.95046  0.51995  0.51820  1.0000
  C   C4393     1.0  0.99698  0.69851  0.58177  1.0000
  H   H7811     1.0  0.97288  0.55754  0.49523  1.0000
  N   N244      1.0  0.91075  0.59381  0.72045  1.0000
  H   H7812     1.0  0.99055  0.54614  0.58661  1.0000
  H   H7813     1.0  0.96266  0.70314  0.62850  1.0000
  H   H7814     1.0  0.91555  0.70841  0.56696  1.0000
  C   C4394     1.0  0.90780  0.70897  0.56049  1.0000
  H   H7815     1.0  0.90020  0.70105  0.59078  1.0000
  C   C4395     1.0  0.97265  0.73127  0.60712  1.0000
  H   H7816     1.0  0.99246  0.54382  0.65045  1.0000
  H   H7817     1.0  0.96697  0.70511  0.59380  1.0000
  H   H7818     1.0  0.91584  0.67987  0.55302  1.0000
  H   H7819     1.0  0.90117  0.69628  0.50833  1.0000
  C   C4396     1.0  0.92329  0.68717  0.55120  1.0000
  H   H7820     1.0  0.93087  0.70831  0.52743  1.0000
  C   C4397     1.0  0.91513  0.60283  0.72780  1.0000
  S   S986      1.0  0.99065  0.58094  0.48794  1.0000
  C   C4398     1.0  0.99709  0.58469  0.58329  1.0000
  H   H7821     1.0  0.93839  0.71257  0.64289  1.0000
  C   C4399     1.0  0.92989  0.68245  0.56472  1.0000
  C   C4400     1.0  0.91968  0.74177  0.49479  1.0000
  H   H7822     1.0  0.99781  0.58113  0.57350  1.0000
  N   N245      1.0  0.91545  0.70272  0.54747  1.0000
  H   H7823     1.0  0.94489  0.61672  0.72615  1.0000
  H   H7824     1.0  0.00243  0.66322  0.57235  1.0000
  H   H7825     1.0  0.97351  0.65323  0.68585  1.0000
  H   H7826     1.0  0.94116  0.69374  0.64348  1.0000
  H   H7827     1.0  0.98284  0.51676  0.50362  1.0000
  H   H7828     1.0  0.91776  0.68969  0.52505  1.0000
  C   C4401     1.0  0.99734  0.51822  0.67208  1.0000
  Fe  Fe497     1.0  0.97201  0.54655  0.71901  1.0000
  H   H7829     1.0  0.97794  0.70230  0.60597  1.0000
  H   H7830     1.0  0.95150  0.52572  0.53339  1.0000
  H   H7831     1.0  0.92965  0.70679  0.63240  1.0000
  H   H7832     1.0  0.89701  0.71494  0.53802  1.0000
  C   C4402     1.0  0.90946  0.69994  0.52468  1.0000
  H   H7833     1.0  0.88516  0.70670  0.56588  1.0000
  C   C4403     1.0  0.97892  0.65525  0.67430  1.0000
  H   H7834     1.0  0.97335  0.66594  0.66890  1.0000
  C   C4404     1.0  0.95102  0.72037  0.61337  1.0000
  C   C4405     1.0  0.99504  0.65503  0.67232  1.0000
  H   H7835     1.0  0.94673  0.70172  0.54376  1.0000
  C   C4406     1.0  0.95803  0.52170  0.52367  1.0000
  C   C4407     1.0  0.96966  0.50036  0.72649  1.0000
  H   H7836     1.0  0.89347  0.58236  0.72516  1.0000
  H   H7837     1.0  0.97379  0.53437  0.51978  1.0000
  H   H7838     1.0  0.98545  0.56494  0.68703  1.0000
  S   S987      1.0  0.99300  0.64529  0.63984  1.0000
  C   C4408     1.0  0.98708  0.56885  0.67521  1.0000
  C   C4409     1.0  0.99250  0.53756  0.63129  1.0000
  C   C4410     1.0  0.98133  0.72196  0.61858  1.0000
  H   H7839     1.0  0.91432  0.70861  0.51666  1.0000
  H   H7840     1.0  0.98298  0.71833  0.57427  1.0000
  C   C4411     1.0  0.96670  0.53271  0.51374  1.0000
  H   H7841     1.0  0.95981  0.50924  0.72614  1.0000
  H   H7842     1.0  0.89202  0.68948  0.52642  1.0000
  H   H7843     1.0  0.99756  0.62695  0.57690  1.0000
  H   H7844     1.0  0.99759  0.63753  0.69022  1.0000
  H   H7845     1.0  0.98366  0.74012  0.62531  1.0000
  C   C4412     1.0  0.90614  0.73856  0.49677  1.0000
  H   H7846     1.0  0.95413  0.72851  0.58399  1.0000
  H   H7847     1.0  0.97570  0.50000  0.71530  1.0000
  H   H7848     1.0  0.00087  0.54810  0.67258  1.0000
  H   H7849     1.0  0.99686  0.51616  0.66217  1.0000
  S   S988      1.0  0.99681  0.58069  0.52528  1.0000
  H   H7850     1.0  0.99078  0.69127  0.58055  1.0000
  H   H7851     1.0  0.96549  0.51130  0.52707  1.0000
  H   H7852     1.0  0.99470  0.55773  0.63418  1.0000
  H   H7853     1.0  0.00147  0.63207  0.67395  1.0000
  C   C4413     1.0  0.97920  0.50307  0.73478  1.0000
  C   C4414     1.0  0.00116  0.55958  0.66759  1.0000
  H   H7854     1.0  0.99966  0.60382  0.54976  1.0000
  H   H7855     1.0  0.98236  0.51345  0.72915  1.0000
  H   H7856     1.0  0.96812  0.73791  0.58085  1.0000
  H   H7857     1.0  0.98038  0.73645  0.59794  1.0000
  H   H7858     1.0  0.99957  0.65832  0.66069  1.0000
  H   H7859     1.0  0.96500  0.64389  0.49333  1.0000
  H   H7860     1.0  0.98899  0.65268  0.57615  1.0000
  H   H7861     1.0  0.90388  0.73483  0.48860  1.0000
  H   H7862     1.0  0.00298  0.60538  0.67611  1.0000
  C   C4415     1.0  0.00042  0.65218  0.57631  1.0000
  H   H7863     1.0  0.00180  0.52681  0.50217  1.0000
  H   H7864     1.0  0.00246  0.69321  0.59084  1.0000
  H   H7865     1.0  0.00179  0.64823  0.58752  1.0000
  C   C4416     1.0  0.00198  0.61775  0.52887  1.0000
  C   C4417     1.0  0.00257  0.54451  0.58274  1.0000
  N   N246      1.0  0.63558  0.68472  0.91562  1.0000
  C   C4418     1.0  0.96186  0.51850  0.83158  1.0000
  C   C4419     1.0  0.61482  0.65378  0.93540  1.0000
  Fe  Fe498     1.0  0.72609  0.59868  0.97337  1.0000
  S   S989      1.0  0.74817  0.58994  0.97832  1.0000
  S   S990      1.0  0.72552  0.61467  0.95254  1.0000
  C   C4420     1.0  0.56502  0.63083  0.98493  1.0000
  H   H7866     1.0  0.95828  0.52194  0.79072  1.0000
  H   H7867     1.0  0.91966  0.52823  0.80945  1.0000
  C   C4421     1.0  0.79059  0.57325  0.95178  1.0000
  H   H7868     1.0  0.69059  0.66968  0.94432  1.0000
  H   H7869     1.0  0.79732  0.50895  0.79377  1.0000
  Fe  Fe499     1.0  0.64827  0.65880  0.96551  1.0000
  S   S991      1.0  0.64529  0.67897  0.97286  1.0000
  S   S992      1.0  0.66445  0.65504  0.94523  1.0000
  H   H7870     1.0  0.80070  0.58328  0.92213  1.0000
  C   C4422     1.0  0.77708  0.57683  0.94517  1.0000
  H   H7871     1.0  0.89192  0.55952  0.82171  1.0000
  Fe  Fe500     1.0  0.62150  0.68135  0.97437  1.0000
  S   S993      1.0  0.60767  0.70262  0.96564  1.0000
  H   H7872     1.0  0.57791  0.73590  0.95930  1.0000
  H   H7873     1.0  0.76791  0.58346  0.91283  1.0000
  S   S994      1.0  0.62485  0.66225  0.96525  1.0000
  C   C4423     1.0  0.69918  0.65802  0.96990  1.0000
  H   H7874     1.0  0.80121  0.53976  0.90291  1.0000
  C   C4424     1.0  0.90674  0.54805  0.76551  1.0000
  H   H7875     1.0  0.98815  0.50484  0.75901  1.0000
  S   S995      1.0  0.56909  0.72316  0.88660  1.0000
  H   H7876     1.0  0.66598  0.66840  0.91256  1.0000
  H   H7877     1.0  0.60945  0.67336  0.92019  1.0000
  S   S996      1.0  0.53932  0.71756  0.91141  1.0000
  H   H7878     1.0  0.95834  0.51019  0.81559  1.0000
  Fe  Fe501     1.0  0.56290  0.71566  0.91051  1.0000
  S   S997      1.0  0.57447  0.69536  0.92328  1.0000
  Fe  Fe502     1.0  0.54507  0.72680  0.88783  1.0000
  S   S998      1.0  0.53785  0.71996  0.87177  1.0000
  H   H7879     1.0  0.63823  0.71191  0.94665  1.0000
  H   H7880     1.0  0.65064  0.69791  0.91337  1.0000
  H   H7881     1.0  0.58000  0.69120  0.98663  1.0000
  H   H7882     1.0  0.94665  0.51583  0.76125  1.0000
  C   C4425     1.0  0.62829  0.67402  0.92742  1.0000
  H   H7883     1.0  0.79760  0.56490  0.90476  1.0000
  C   C4426     1.0  0.73993  0.59247  0.92449  1.0000
  H   H7884     1.0  0.95312  0.51421  0.84019  1.0000
  H   H7885     1.0  0.76683  0.50160  0.97324  1.0000
  C   C4427     1.0  0.65838  0.66494  0.90850  1.0000
  H   H7886     1.0  0.90538  0.50188  0.75566  1.0000
  Fe  Fe503     1.0  0.77467  0.51135  0.92006  1.0000
  H   H7887     1.0  0.70394  0.54631  0.96136  1.0000
  S   S999      1.0  0.76288  0.53385  0.92214  1.0000
  C   C4428     1.0  0.89409  0.55596  0.77298  1.0000
  H   H7888     1.0  0.94325  0.51391  0.80010  1.0000
  C   C4429     1.0  0.71424  0.53340  0.97884  1.0000
  C   C4430     1.0  0.89801  0.55060  0.81624  1.0000
  C   C4431     1.0  0.50894  0.73347  0.87969  1.0000
  H   H7889     1.0  0.89551  0.54042  0.82348  1.0000
  H   H7890     1.0  0.75208  0.64380  0.97271  1.0000
  H   H7891     1.0  0.62596  0.66094  0.91388  1.0000
  H   H7892     1.0  0.56766  0.68078  0.97503  1.0000
  Fe  Fe504     1.0  0.87844  0.52799  0.79276  1.0000
  S   S1000     1.0  0.89305  0.51980  0.80822  1.0000
  S   S1001     1.0  0.79846  0.50207  0.92013  1.0000
  H   H7893     1.0  0.82558  0.52393  0.83951  1.0000
  H   H7894     1.0  0.96004  0.57095  0.78803  1.0000
  C   C4432     1.0  0.81356  0.52505  0.84296  1.0000
  Fe  Fe505     1.0  0.87411  0.51155  0.82388  1.0000
  H   H7895     1.0  0.79696  0.50982  0.81827  1.0000
  H   H7896     1.0  0.94373  0.53657  0.77170  1.0000
  H   H7897     1.0  0.96205  0.51380  0.76874  1.0000
  S   S1002     1.0  0.85892  0.52149  0.80894  1.0000
  S   S1003     1.0  0.88493  0.50807  0.78423  1.0000
  H   H7898     1.0  0.90663  0.53776  0.76392  1.0000
  H   H7899     1.0  0.62878  0.69660  0.88686  1.0000
  Fe  Fe506     1.0  0.74165  0.56875  0.98573  1.0000
  H   H7900     1.0  0.72730  0.65954  0.97737  1.0000
  S   S1004     1.0  0.96354  0.54132  0.74273  1.0000
  C   C4433     1.0  0.95864  0.52081  0.81688  1.0000
  H   H7901     1.0  0.96470  0.54293  0.77825  1.0000
  H   H7902     1.0  0.86417  0.59810  0.75262  1.0000
  H   H7903     1.0  0.78807  0.49814  0.84156  1.0000
  H   H7904     1.0  0.74434  0.62811  0.97822  1.0000
  H   H7905     1.0  0.99738  0.49674  0.81591  1.0000
  C   C4434     1.0  0.64610  0.67782  0.90386  1.0000
  C   C4435     1.0  0.72849  0.64857  0.97596  1.0000
  S   S1005     1.0  0.86709  0.51565  0.84622  1.0000
  N   N247      1.0  0.78021  0.57638  0.92955  1.0000
  H   H7906     1.0  0.96282  0.52872  0.83332  1.0000
  H   H7907     1.0  0.93560  0.52617  0.82398  1.0000
  H   H7908     1.0  0.84400  0.52306  0.87008  1.0000
  H   H7909     1.0  0.79406  0.53459  0.92185  1.0000
  H   H7910     1.0  0.91593  0.56088  0.80657  1.0000
  C   C4436     1.0  0.91928  0.56728  0.76139  1.0000
  C   C4437     1.0  0.90676  0.57492  0.76915  1.0000
  C   C4438     1.0  0.89418  0.56937  0.77477  1.0000
  H   H7911     1.0  0.80481  0.60807  0.91607  1.0000
  C   C4439     1.0  0.95019  0.51409  0.77136  1.0000
  C   C4440     1.0  0.63538  0.69893  0.93390  1.0000
  H   H7912     1.0  0.90666  0.58534  0.77058  1.0000
  H   H7913     1.0  0.88441  0.57556  0.78041  1.0000
  C   C4441     1.0  0.96311  0.56446  0.77979  1.0000
  C   C4442     1.0  0.91435  0.55003  0.81279  1.0000
  C   C4443     1.0  0.85323  0.50700  0.85740  1.0000
  H   H7914     1.0  0.78116  0.60404  0.93220  1.0000
  H   H7915     1.0  0.89435  0.52131  0.84956  1.0000
  S   S1006     1.0  0.99380  0.53029  0.76168  1.0000
  C   C4444     1.0  0.51947  0.72533  0.87059  1.0000
  Fe  Fe507     1.0  0.89816  0.49923  0.80099  1.0000
  C   C4445     1.0  0.90918  0.50196  0.85818  1.0000
  S   S1007     1.0  0.72025  0.57719  0.97895  1.0000
  C   C4446     1.0  0.66751  0.65823  0.89587  1.0000
  H   H7916     1.0  0.57968  0.66711  0.98508  1.0000
  H   H7917     1.0  0.64032  0.67384  0.89821  1.0000
  C   C4447     1.0  0.61956  0.69612  0.89639  1.0000
  H   H7918     1.0  0.62583  0.70708  0.93075  1.0000
  H   H7919     1.0  0.52349  0.71510  0.85308  1.0000
  H   H7920     1.0  0.93839  0.55458  0.78343  1.0000
  H   H7921     1.0  0.93988  0.55816  0.79926  1.0000
  H   H7922     1.0  0.62451  0.64569  0.93843  1.0000
  H   H7923     1.0  0.74285  0.59838  0.91320  1.0000
  C   C4448     1.0  0.78860  0.56134  0.92817  1.0000
  C   C4449     1.0  0.75253  0.58930  0.93191  1.0000
  C   C4450     1.0  0.94165  0.52629  0.77896  1.0000
  H   H7924     1.0  0.70172  0.67372  0.98439  1.0000
  Fe  Fe508     1.0  0.98438  0.54574  0.74371  1.0000
  C   C4451     1.0  0.59779  0.70089  0.95429  1.0000
  C   C4452     1.0  0.59386  0.71253  0.94332  1.0000
  C   C4453     1.0  0.58656  0.71100  0.93378  1.0000
  C   C4454     1.0  0.58308  0.69785  0.93529  1.0000
  C   C4455     1.0  0.58687  0.68630  0.94636  1.0000
  C   C4456     1.0  0.59417  0.68783  0.95587  1.0000
  H   H7925     1.0  0.59693  0.72256  0.94189  1.0000
  H   H7926     1.0  0.58415  0.71979  0.92495  1.0000
  H   H7927     1.0  0.58419  0.67612  0.94756  1.0000
  H   H7928     1.0  0.59689  0.67892  0.96449  1.0000
  C   C4457     1.0  0.81637  0.49930  0.84188  1.0000
  S   S1008     1.0  0.87756  0.55021  0.77883  1.0000
  S   S1009     1.0  0.77528  0.50298  0.90111  1.0000
  H   H7929     1.0  0.67630  0.64920  0.89947  1.0000
  H   H7930     1.0  0.81548  0.50794  0.79536  1.0000
  H   H7931     1.0  0.92994  0.52622  0.78090  1.0000
  N   N248      1.0  0.93959  0.53603  0.80120  1.0000
  C   C4458     1.0  0.78625  0.57568  0.96701  1.0000
  H   H7932     1.0  0.81090  0.54084  0.91536  1.0000
  H   H7933     1.0  0.60821  0.64836  0.93212  1.0000
  H   H7934     1.0  0.76262  0.56908  0.92654  1.0000
  H   H7935     1.0  0.87634  0.58067  0.75426  1.0000
  H   H7936     1.0  0.65143  0.68604  0.89552  1.0000
  H   H7937     1.0  0.73708  0.58234  0.92472  1.0000
  C   C4459     1.0  0.75887  0.54405  0.96506  1.0000
  C   C4460     1.0  0.74922  0.55217  0.95631  1.0000
  C   C4461     1.0  0.75004  0.54850  0.94348  1.0000
  C   C4462     1.0  0.76068  0.53685  0.93922  1.0000
  C   C4463     1.0  0.77006  0.52841  0.94819  1.0000
  C   C4464     1.0  0.76921  0.53207  0.96106  1.0000
  H   H7938     1.0  0.74128  0.56144  0.95926  1.0000
  H   H7939     1.0  0.74266  0.55495  0.93664  1.0000
  H   H7940     1.0  0.77827  0.51934  0.94500  1.0000
  H   H7941     1.0  0.77670  0.52572  0.96782  1.0000
  C   C4465     1.0  0.70814  0.62484  0.95061  1.0000
  C   C4466     1.0  0.70671  0.63467  0.93768  1.0000
  C   C4467     1.0  0.69312  0.64352  0.93602  1.0000
  C   C4468     1.0  0.68095  0.64283  0.94741  1.0000
  C   C4469     1.0  0.68228  0.63283  0.96033  1.0000
  C   C4470     1.0  0.69587  0.62370  0.96188  1.0000
  H   H7942     1.0  0.71616  0.63552  0.92894  1.0000
  H   H7943     1.0  0.69213  0.65119  0.92602  1.0000
  H   H7944     1.0  0.67286  0.63205  0.96907  1.0000
  H   H7945     1.0  0.69689  0.61592  0.97181  1.0000
  C   C4471     1.0  0.78950  0.58675  0.92010  1.0000
  H   H7946     1.0  0.92887  0.54798  0.75330  1.0000
  C   C4472     1.0  0.78355  0.60269  0.92106  1.0000
  H   H7947     1.0  0.96647  0.54490  0.79513  1.0000
  H   H7948     1.0  0.79957  0.55915  0.93048  1.0000
  H   H7949     1.0  0.62038  0.67949  0.93571  1.0000
  C   C4473     1.0  0.96032  0.54938  0.78658  1.0000
  H   H7950     1.0  0.77354  0.60714  0.91676  1.0000
  C   C4474     1.0  0.64429  0.69067  0.92199  1.0000
  C   C4475     1.0  0.56470  0.72963  0.97979  1.0000
  C   C4476     1.0  0.79991  0.54230  0.91341  1.0000
  C   C4477     1.0  0.92318  0.53853  0.80395  1.0000
  C   C4478     1.0  0.62431  0.69718  0.90959  1.0000
  H   H7951     1.0  0.79666  0.51671  0.84058  1.0000
  C   C4479     1.0  0.91931  0.55383  0.75951  1.0000
  H   H7952     1.0  0.60393  0.70770  0.88313  1.0000
  C   C4480     1.0  0.55295  0.66230  0.97324  1.0000
  C   C4481     1.0  0.54153  0.67645  0.96978  1.0000
  H   H7953     1.0  0.80825  0.53639  0.83900  1.0000
  H   H7954     1.0  0.67918  0.67464  0.97504  1.0000
  H   H7955     1.0  0.65441  0.69895  0.94105  1.0000
  H   H7956     1.0  0.61598  0.68602  0.89823  1.0000
  C   C4482     1.0  0.54246  0.68142  0.95365  1.0000
  H   H7957     1.0  0.97489  0.56371  0.77479  1.0000
  C   C4483     1.0  0.93706  0.49219  0.82464  1.0000
  H   H7958     1.0  0.63148  0.69124  0.94379  1.0000
  C   C4484     1.0  0.87280  0.59072  0.74654  1.0000
  C   C4485     1.0  0.79126  0.55774  0.91332  1.0000
  H   H7959     1.0  0.74874  0.58404  0.94329  1.0000
  H   H7960     1.0  0.97231  0.51052  0.83226  1.0000
  C   C4486     1.0  0.76615  0.57926  0.92465  1.0000
  H   H7961     1.0  0.56385  0.66371  0.96642  1.0000
  C   C4487     1.0  0.60703  0.70866  0.89265  1.0000
  H   H7962     1.0  0.81265  0.49319  0.94489  1.0000
  H   H7963     1.0  0.57668  0.64668  0.98348  1.0000
  H   H7964     1.0  0.74438  0.52101  0.97929  1.0000
  C   C4488     1.0  0.50460  0.69024  0.88771  1.0000
  C   C4489     1.0  0.94382  0.53159  0.81561  1.0000
  H   H7965     1.0  0.50519  0.68925  0.87673  1.0000
  H   H7966     1.0  0.75473  0.59967  0.93175  1.0000
  C   C4490     1.0  0.61952  0.66589  0.92302  1.0000
  C   C4491     1.0  0.64474  0.70669  0.93765  1.0000
  C   C4492     1.0  0.55184  0.73822  0.95266  1.0000
  H   H7967     1.0  0.70723  0.66486  0.96421  1.0000
  H   H7968     1.0  0.55332  0.68382  0.94802  1.0000
  H   H7969     1.0  0.54068  0.67305  0.94935  1.0000
  H   H7970     1.0  0.53403  0.69137  0.95135  1.0000
  C   C4493     1.0  0.94386  0.54995  0.79262  1.0000
  H   H7971     1.0  0.91252  0.52347  0.84748  1.0000
  S   S1010     1.0  0.93431  0.57539  0.75389  1.0000
  C   C4494     1.0  0.84315  0.51306  0.86842  1.0000
  H   H7972     1.0  0.51145  0.65379  0.98674  1.0000
  Fe  Fe509     1.0  0.86699  0.50053  0.80194  1.0000
  H   H7973     1.0  0.54916  0.71003  0.95611  1.0000
  H   H7974     1.0  0.77852  0.56891  0.97398  1.0000
  H   H7975     1.0  0.76795  0.49528  0.86380  1.0000
  H   H7976     1.0  0.67264  0.66629  0.88716  1.0000
  C   C4495     1.0  0.83154  0.50656  0.87685  1.0000
  C   C4496     1.0  0.94618  0.52408  0.79320  1.0000
  N   N249      1.0  0.70047  0.65194  0.98530  1.0000
  C   C4497     1.0  0.80117  0.49933  0.81519  1.0000
  Fe  Fe510     1.0  0.95515  0.56495  0.74062  1.0000
  H   H7977     1.0  0.56644  0.63343  0.97310  1.0000
  H   H7978     1.0  0.79608  0.57270  0.97157  1.0000
  H   H7979     1.0  0.91942  0.54225  0.79370  1.0000
  H   H7980     1.0  0.55015  0.65422  0.96930  1.0000
  H   H7981     1.0  0.71593  0.63268  0.98059  1.0000
  H   H7982     1.0  0.60809  0.65808  0.94490  1.0000
  H   H7983     1.0  0.77055  0.58747  0.94711  1.0000
  H   H7984     1.0  0.71880  0.55264  0.96287  1.0000
  C   C4498     1.0  0.90610  0.51603  0.84713  1.0000
  H   H7985     1.0  0.79843  0.58007  0.94541  1.0000
  H   H7986     1.0  0.79620  0.56178  0.95245  1.0000
  H   H7987     1.0  0.61426  0.69919  0.91807  1.0000
  C   C4499     1.0  0.68521  0.67648  0.95228  1.0000
  C   C4500     1.0  0.74275  0.63915  0.97976  1.0000
  H   H7988     1.0  0.89038  0.49619  0.85587  1.0000
  H   H7989     1.0  0.91711  0.50040  0.81720  1.0000
  H   H7990     1.0  0.78084  0.55875  0.91040  1.0000
  H   H7991     1.0  0.96795  0.52431  0.80869  1.0000
  H   H7992     1.0  0.95670  0.57003  0.77146  1.0000
  H   H7993     1.0  0.79718  0.61114  0.90062  1.0000
  C   C4501     1.0  0.70932  0.54786  0.96906  1.0000
  H   H7994     1.0  0.79189  0.49391  0.81814  1.0000
  H   H7995     1.0  0.61029  0.71910  0.89013  1.0000
  H   H7996     1.0  0.79107  0.58665  0.90865  1.0000
  H   H7997     1.0  0.65242  0.68193  0.92703  1.0000
  H   H7998     1.0  0.89413  0.55251  0.80627  1.0000
  H   H7999     1.0  0.91766  0.54787  0.82308  1.0000
  H   H8000     1.0  0.72941  0.64930  0.96442  1.0000
  H   H8001     1.0  0.70200  0.64923  0.96405  1.0000
  H   H8002     1.0  0.53636  0.72249  0.94594  1.0000
  H   H8003     1.0  0.52983  0.71307  0.96394  1.0000
  C   C4502     1.0  0.51539  0.72142  0.86012  1.0000
  H   H8004     1.0  0.82340  0.51159  0.88489  1.0000
  C   C4503     1.0  0.80867  0.51508  0.83693  1.0000
  H   H8005     1.0  0.67413  0.68197  0.95050  1.0000
  H   H8006     1.0  0.54062  0.73736  0.84203  1.0000
  H   H8007     1.0  0.56160  0.72985  0.94944  1.0000
  H   H8008     1.0  0.79282  0.49547  0.86532  1.0000
  H   H8009     1.0  0.78112  0.58717  0.96704  1.0000
  H   H8010     1.0  0.73014  0.59922  0.93011  1.0000
  C   C4504     1.0  0.68407  0.66732  0.96754  1.0000
  H   H8011     1.0  0.59733  0.70858  0.90168  1.0000
  H   H8012     1.0  0.93401  0.49894  0.83225  1.0000
  H   H8013     1.0  0.54324  0.68525  0.97347  1.0000
  H   H8014     1.0  0.58735  0.72231  0.98190  1.0000
  C   C4505     1.0  0.53876  0.71826  0.95680  1.0000
  H   H8015     1.0  0.53032  0.67483  0.97497  1.0000
  H   H8016     1.0  0.90528  0.50472  0.86881  1.0000
  H   H8017     1.0  0.67649  0.66024  0.96918  1.0000
  H   H8018     1.0  0.81171  0.51841  0.82508  1.0000
  C   C4506     1.0  0.83029  0.49381  0.87447  1.0000
  H   H8019     1.0  0.92116  0.49785  0.85614  1.0000
  H   H8020     1.0  0.77010  0.56914  0.95174  1.0000
  H   H8021     1.0  0.78998  0.62319  0.91272  1.0000
  H   H8022     1.0  0.66065  0.65394  0.89165  1.0000
  H   H8023     1.0  0.72214  0.52639  0.97190  1.0000
  H   H8024     1.0  0.94815  0.50359  0.77824  1.0000
  H   H8025     1.0  0.97232  0.50422  0.74549  1.0000
  C   C4507     1.0  0.85217  0.49404  0.85536  1.0000
  H   H8026     1.0  0.94366  0.54121  0.81932  1.0000
  S   S1011     1.0  0.97552  0.56917  0.74307  1.0000
  H   H8027     1.0  0.58783  0.62018  0.98483  1.0000
  C   C4508     1.0  0.79461  0.61177  0.91205  1.0000
  C   C4509     1.0  0.80641  0.50218  0.79889  1.0000
  H   H8028     1.0  0.78287  0.55328  0.93629  1.0000
  H   H8029     1.0  0.90907  0.51409  0.83615  1.0000
  H   H8030     1.0  0.62833  0.70735  0.90609  1.0000
  C   C4510     1.0  0.56920  0.67516  0.98596  1.0000
  H   H8031     1.0  0.81046  0.52249  0.85487  1.0000
  H   H8032     1.0  0.69150  0.68476  0.95056  1.0000
  H   H8033     1.0  0.63640  0.66605  0.93320  1.0000
  H   H8034     1.0  0.70145  0.55546  0.97537  1.0000
  H   H8035     1.0  0.65383  0.65636  0.91693  1.0000
  H   H8036     1.0  0.82813  0.49876  0.83688  1.0000
  C   C4511     1.0  0.50711  0.64477  0.98636  1.0000
  H   H8037     1.0  0.64836  0.71511  0.92831  1.0000
  S   S1012     1.0  0.75835  0.54882  0.98088  1.0000
  H   H8038     1.0  0.81558  0.49727  0.85353  1.0000
  H   H8039     1.0  0.57667  0.60894  0.98392  1.0000
  H   H8040     1.0  0.56466  0.71980  0.97659  1.0000
  H   H8041     1.0  0.51345  0.68186  0.89203  1.0000
  C   C4512     1.0  0.71529  0.64196  0.98509  1.0000
  S   S1013     1.0  0.76625  0.49315  0.93642  1.0000
  H   H8042     1.0  0.88917  0.60121  0.74644  1.0000
  H   H8043     1.0  0.93065  0.61230  0.74153  1.0000
  H   H8044     1.0  0.70451  0.52866  0.98396  1.0000
  H   H8045     1.0  0.50432  0.64685  0.97579  1.0000
  H   H8046     1.0  0.54172  0.72581  0.97366  1.0000
  C   C4513     1.0  0.92758  0.49307  0.81608  1.0000
  H   H8047     1.0  0.83863  0.49365  0.94156  1.0000
  H   H8048     1.0  0.72879  0.54232  0.98513  1.0000
  C   C4514     1.0  0.76356  0.49473  0.98399  1.0000
  S   S1014     1.0  0.55946  0.73737  0.91485  1.0000
  H   H8049     1.0  0.51207  0.73634  0.88789  1.0000
  H   H8050     1.0  0.98771  0.50338  0.78470  1.0000
  C   C4515     1.0  0.91431  0.49208  0.75586  1.0000
  H   H8051     1.0  0.92303  0.49391  0.75979  1.0000
  C   C4516     1.0  0.53979  0.73045  0.96275  1.0000
  H   H8052     1.0  0.69059  0.63440  0.98711  1.0000
  H   H8053     1.0  0.50646  0.70092  0.88715  1.0000
  C   C4517     1.0  0.99356  0.49336  0.75921  1.0000
  Fe  Fe511     1.0  0.53646  0.74001  0.91366  1.0000
  H   H8054     1.0  0.73550  0.50649  0.98519  1.0000
  H   H8055     1.0  0.52900  0.73806  0.96366  1.0000
  H   H8056     1.0  0.82376  0.49347  0.81706  1.0000
  H   H8057     1.0  0.55412  0.73305  0.98698  1.0000
  C   C4518     1.0  0.88561  0.59789  0.73846  1.0000
  C   C4519     1.0  0.56816  0.74143  0.96619  1.0000
  H   H8058     1.0  0.86807  0.58812  0.73895  1.0000
  H   H8059     1.0  0.91387  0.59790  0.73948  1.0000
  H   H8060     1.0  0.90253  0.57855  0.73935  1.0000
  H   H8061     1.0  0.00088  0.51471  0.73751  1.0000
  S   S1015     1.0  0.57516  0.80005  0.10452  1.0000
  Fe  Fe512     1.0  0.56913  0.85686  0.21759  1.0000
  S   S1016     1.0  0.58079  0.83648  0.20942  1.0000
  N   N250      1.0  0.56944  0.95670  0.18034  1.0000
  S   S1017     1.0  0.55978  0.91049  0.19398  1.0000
  S   S1018     1.0  0.58052  0.87400  0.21710  1.0000
  H   H8062     1.0  0.59431  0.81474  0.23122  1.0000
  C   C4520     1.0  0.57170  0.97711  0.11741  1.0000
  Fe  Fe513     1.0  0.51975  0.91550  0.13939  1.0000
  H   H8063     1.0  0.52976  0.87962  0.09877  1.0000
  S   S1019     1.0  0.54248  0.90288  0.14060  1.0000
  C   C4521     1.0  0.51889  0.88454  0.09711  1.0000
  C   C4522     1.0  0.61926  0.85175  0.20765  1.0000
  H   H8064     1.0  0.57231  0.76290  0.19544  1.0000
  H   H8065     1.0  0.50530  0.78003  0.09165  1.0000
  C   C4523     1.0  0.54485  0.80043  0.21595  1.0000
  H   H8066     1.0  0.59875  0.75534  0.13180  1.0000
  S   S1020     1.0  0.51356  0.93220  0.12033  1.0000
  H   H8067     1.0  0.56082  0.87985  0.01992  1.0000
  H   H8068     1.0  0.54245  0.98058  0.08280  1.0000
  C   C4524     1.0  0.50676  0.85520  0.17904  1.0000
  C   C4525     1.0  0.55149  0.80213  0.22737  1.0000
  H   H8069     1.0  0.60660  0.84215  0.07834  1.0000
  C   C4526     1.0  0.51042  0.85992  0.23380  1.0000
  H   H8070     1.0  0.58062  0.80568  0.17846  1.0000
  H   H8071     1.0  0.52975  0.76853  0.08307  1.0000
  C   C4527     1.0  0.51667  0.97123  0.09317  1.0000
  H   H8072     1.0  0.53483  0.74968  0.09075  1.0000
  H   H8073     1.0  0.53468  0.84271  0.02343  1.0000
  H   H8074     1.0  0.54926  0.84957  0.09334  1.0000
  H   H8075     1.0  0.51558  0.90099  0.10867  1.0000
  C   C4528     1.0  0.51910  0.77531  0.22021  1.0000
  H   H8076     1.0  0.54219  0.75686  0.07197  1.0000
  H   H8077     1.0  0.57339  0.85384  0.06102  1.0000
  H   H8078     1.0  0.52089  0.81832  0.13410  1.0000
  Fe  Fe514     1.0  0.51043  0.85245  0.07516  1.0000
  H   H8079     1.0  0.56897  0.91421  0.01842  1.0000
  C   C4529     1.0  0.54308  0.77589  0.20421  1.0000
  H   H8080     1.0  0.56713  0.82599  0.13776  1.0000
  C   C4530     1.0  0.55115  0.98398  0.10431  1.0000
  C   C4531     1.0  0.57575  0.94637  0.19250  1.0000
  S   S1021     1.0  0.52284  0.84066  0.05777  1.0000
  H   H8081     1.0  0.54430  0.91049  0.02244  1.0000
  C   C4532     1.0  0.53288  0.97816  0.14643  1.0000
  H   H8082     1.0  0.56465  0.86046  0.03878  1.0000
  H   H8083     1.0  0.58489  0.76485  0.07220  1.0000
  H   H8084     1.0  0.54286  0.80576  0.23635  1.0000
  C   C4533     1.0  0.52292  0.96140  0.14044  1.0000
  C   C4534     1.0  0.53427  0.96454  0.14414  1.0000
  H   H8085     1.0  0.52679  0.90026  0.03988  1.0000
  C   C4535     1.0  0.59093  0.98734  0.17070  1.0000
  H   H8086     1.0  0.52416  0.95098  0.13834  1.0000
  H   H8087     1.0  0.54420  0.95646  0.14500  1.0000
  C   C4536     1.0  0.55567  0.90861  0.17867  1.0000
  C   C4537     1.0  0.56033  0.89539  0.17463  1.0000
  C   C4538     1.0  0.55662  0.89380  0.16267  1.0000
  C   C4539     1.0  0.54792  0.90533  0.15492  1.0000
  C   C4540     1.0  0.54351  0.91864  0.15878  1.0000
  C   C4541     1.0  0.54750  0.92031  0.17057  1.0000
  H   H8088     1.0  0.56694  0.88640  0.18064  1.0000
  H   H8089     1.0  0.56025  0.88355  0.15961  1.0000
  H   H8090     1.0  0.53720  0.92770  0.15257  1.0000
  H   H8091     1.0  0.54404  0.93061  0.17350  1.0000
  C   C4542     1.0  0.57280  0.83078  0.19866  1.0000
  C   C4543     1.0  0.55876  0.83757  0.19652  1.0000
  C   C4544     1.0  0.55274  0.83307  0.18775  1.0000
  C   C4545     1.0  0.56059  0.82164  0.18108  1.0000
  H   H8092     1.0  0.57504  0.85093  0.08761  1.0000
  C   C4546     1.0  0.56150  0.80002  0.09630  1.0000
  C   C4547     1.0  0.56267  0.80577  0.08159  1.0000
  C   C4548     1.0  0.55166  0.80595  0.07504  1.0000
  C   C4549     1.0  0.53957  0.80024  0.08318  1.0000
  C   C4550     1.0  0.53837  0.79455  0.09785  1.0000
  C   C4551     1.0  0.54927  0.79454  0.10440  1.0000
  H   H8093     1.0  0.57199  0.81020  0.07529  1.0000
  H   H8094     1.0  0.55252  0.81046  0.06370  1.0000
  H   H8095     1.0  0.52892  0.79031  0.10420  1.0000
  S   S1022     1.0  0.55247  0.81692  0.16979  1.0000
  H   H8096     1.0  0.56826  0.87379  0.11909  1.0000
  C   C4552     1.0  0.60167  0.77826  0.07838  1.0000
  H   H8097     1.0  0.55853  0.77036  0.21829  1.0000
  H   H8098     1.0  0.51678  0.93390  0.17739  1.0000
  S   S1023     1.0  0.52304  0.86374  0.08256  1.0000
  C   C4553     1.0  0.57975  0.84785  0.09724  1.0000
  H   H8099     1.0  0.51903  0.94094  0.19103  1.0000
  N   N251      1.0  0.53870  0.88072  0.03263  1.0000
  S   S1024     1.0  0.54821  0.80402  0.14037  1.0000
  H   H8100     1.0  0.54485  0.97741  0.11368  1.0000
  C   C4554     1.0  0.55343  0.88985  0.10761  1.0000
  N   N252      1.0  0.57730  0.74989  0.09161  1.0000
  H   H8101     1.0  0.54974  0.78289  0.19569  1.0000
  H   H8102     1.0  0.54125  0.82118  0.11122  1.0000
  H   H8103     1.0  0.50437  0.76338  0.08842  1.0000
  H   H8104     1.0  0.55846  0.79174  0.23162  1.0000
  H   H8105     1.0  0.55857  0.97634  0.09768  1.0000
  H   H8106     1.0  0.51290  0.83714  0.19623  1.0000
  N   N253      1.0  0.52974  0.78481  0.21215  1.0000
  C   C4555     1.0  0.51675  0.83544  0.23073  1.0000
  C   C4556     1.0  0.51998  0.98854  0.14539  1.0000
  H   H8107     1.0  0.57875  0.83521  0.15145  1.0000
  H   H8108     1.0  0.57321  0.74812  0.21081  1.0000
  H   H8109     1.0  0.53981  0.76964  0.19845  1.0000
  H   H8110     1.0  0.53213  0.84665  0.23188  1.0000
  H   H8111     1.0  0.51945  0.95983  0.20369  1.0000
  Fe  Fe515     1.0  0.51250  0.82269  0.07168  1.0000
  C   C4557     1.0  0.56072  0.98958  0.11063  1.0000
  H   H8112     1.0  0.51697  0.76992  0.21285  1.0000
  Fe  Fe516     1.0  0.56849  0.79197  0.12826  1.0000
  H   H8113     1.0  0.59138  0.81371  0.19389  1.0000
  H   H8114     1.0  0.53671  0.83045  0.09417  1.0000
  C   C4558     1.0  0.51963  0.88253  0.18927  1.0000
  H   H8115     1.0  0.56792  0.90652  0.00449  1.0000
  H   H8116     1.0  0.55836  0.81021  0.22254  1.0000
  C   C4559     1.0  0.57766  0.93550  0.15003  1.0000
  C   C4560     1.0  0.51455  0.77147  0.14352  1.0000
  N   N254      1.0  0.51031  0.85381  0.15270  1.0000
  C   C4561     1.0  0.52466  0.76665  0.13188  1.0000
  C   C4562     1.0  0.61573  0.84811  0.22403  1.0000
  C   C4563     1.0  0.52171  0.86260  0.14882  1.0000
  C   C4564     1.0  0.51531  0.84282  0.14357  1.0000
  H   H8117     1.0  0.55610  0.84900  0.06457  1.0000
  C   C4565     1.0  0.53676  0.85419  0.15213  1.0000
  C   C4566     1.0  0.59948  0.74394  0.13355  1.0000
  C   C4567     1.0  0.50730  0.75503  0.12880  1.0000
  C   C4568     1.0  0.54582  0.86439  0.15221  1.0000
  C   C4569     1.0  0.58251  0.76357  0.08403  1.0000
  H   H8118     1.0  0.54897  0.83916  0.12189  1.0000
  Fe  Fe517     1.0  0.57278  0.76785  0.15374  1.0000
  H   H8119     1.0  0.51706  0.83642  0.17002  1.0000
  C   C4570     1.0  0.56583  0.75588  0.20412  1.0000
  H   H8120     1.0  0.51491  0.80535  0.20675  1.0000
  H   H8121     1.0  0.52546  0.83512  0.14608  1.0000
  H   H8122     1.0  0.55287  0.83935  0.01267  1.0000
  H   H8123     1.0  0.54283  0.84777  0.14399  1.0000
  H   H8124     1.0  0.53584  0.84663  0.16267  1.0000
  C   C4571     1.0  0.55345  0.76485  0.21337  1.0000
  H   H8125     1.0  0.63176  0.81948  0.22542  1.0000
  H   H8126     1.0  0.58970  0.96222  0.16685  1.0000
  C   C4572     1.0  0.51007  0.97182  0.13926  1.0000
  H   H8127     1.0  0.59300  0.78822  0.07855  1.0000
  S   S1025     1.0  0.54744  0.98202  0.15043  1.0000
  H   H8128     1.0  0.54007  0.87080  0.16047  1.0000
  H   H8129     1.0  0.50948  0.96457  0.10138  1.0000
  H   H8130     1.0  0.54790  0.87181  0.14159  1.0000
  Fe  Fe518     1.0  0.54213  0.78273  0.14937  1.0000
  H   H8131     1.0  0.51102  0.88422  0.18334  1.0000
  H   H8132     1.0  0.55095  0.85013  0.03297  1.0000
  H   H8133     1.0  0.51992  0.91028  0.18636  1.0000
  H   H8134     1.0  0.62609  0.84321  0.22768  1.0000
  H   H8135     1.0  0.50532  0.92503  0.23066  1.0000
  H   H8136     1.0  0.52890  0.75455  0.11571  1.0000
  H   H8137     1.0  0.55398  0.77198  0.07978  1.0000
  H   H8138     1.0  0.55641  0.85812  0.15486  1.0000
  H   H8139     1.0  0.55247  0.84627  0.20165  1.0000
  H   H8140     1.0  0.62510  0.84195  0.20346  1.0000
  H   H8141     1.0  0.60912  0.85647  0.20356  1.0000
  C   C4573     1.0  0.50379  0.84660  0.19446  1.0000
  H   H8142     1.0  0.54188  0.83848  0.18621  1.0000
  H   H8143     1.0  0.64556  0.79453  0.22943  1.0000
  C   C4574     1.0  0.52328  0.79720  0.20137  1.0000
  H   H8144     1.0  0.52460  0.97273  0.18750  1.0000
  H   H8145     1.0  0.52389  0.76641  0.22832  1.0000
  C   C4575     1.0  0.53394  0.98750  0.08955  1.0000
  H   H8146     1.0  0.54356  0.88918  0.11643  1.0000
  N   N255      1.0  0.50468  0.91725  0.20481  1.0000
  C   C4576     1.0  0.59101  0.83344  0.09697  1.0000
  H   H8147     1.0  0.58619  0.85598  0.09562  1.0000
  H   H8148     1.0  0.55017  0.89280  0.09718  1.0000
  C   C4577     1.0  0.51629  0.79312  0.19133  1.0000
  H   H8149     1.0  0.52947  0.88575  0.18162  1.0000
  H   H8150     1.0  0.55815  0.89853  0.10825  1.0000
  Fe  Fe519     1.0  0.56082  0.88945  0.21018  1.0000
  C   C4578     1.0  0.50809  0.84606  0.16827  1.0000
  H   H8151     1.0  0.50791  0.86053  0.99533  1.0000
  C   C4579     1.0  0.57449  0.81456  0.18347  1.0000
  H   H8152     1.0  0.58412  0.84967  0.12069  1.0000
  H   H8153     1.0  0.59816  0.83177  0.10443  1.0000
  C   C4580     1.0  0.51410  0.89121  0.20091  1.0000
  C   C4581     1.0  0.55254  0.83851  0.09941  1.0000
  H   H8154     1.0  0.53937  0.85449  0.00613  1.0000
  H   H8155     1.0  0.54792  0.79059  0.11580  1.0000
  H   H8156     1.0  0.52280  0.88891  0.20676  1.0000
  C   C4582     1.0  0.55142  0.76184  0.08705  1.0000
  H   H8157     1.0  0.61091  0.85835  0.22768  1.0000
  H   H8158     1.0  0.57416  0.87690  0.09992  1.0000
  Fe  Fe520     1.0  0.53947  0.87246  0.23154  1.0000
  H   H8159     1.0  0.53700  0.86487  0.05261  1.0000
  C   C4583     1.0  0.56739  0.94858  0.17051  1.0000
  C   C4584     1.0  0.59659  0.92772  0.20167  1.0000
  C   C4585     1.0  0.56467  0.87559  0.10901  1.0000
  H   H8160     1.0  0.53512  0.76957  0.12831  1.0000
  H   H8161     1.0  0.56882  0.74992  0.07380  1.0000
  C   C4586     1.0  0.58084  0.97747  0.18032  1.0000
  C   C4587     1.0  0.57984  0.94625  0.15715  1.0000
  H   H8162     1.0  0.57821  0.92474  0.15743  1.0000
  C   C4588     1.0  0.51389  0.92754  0.22092  1.0000
  C   C4589     1.0  0.53358  0.79072  0.22261  1.0000
  C   C4590     1.0  0.51120  0.88719  0.04472  1.0000
  H   H8163     1.0  0.52706  0.91817  0.20271  1.0000
  H   H8164     1.0  0.53181  0.80312  0.19447  1.0000
  H   H8165     1.0  0.56523  0.93788  0.17667  1.0000
  H   H8166     1.0  0.55754  0.95421  0.16608  1.0000
  H   H8167     1.0  0.53923  0.88128  0.05416  1.0000
  H   H8168     1.0  0.56485  0.76007  0.10932  1.0000
  H   H8169     1.0  0.52794  0.97350  0.20421  1.0000
  H   H8170     1.0  0.61080  0.77960  0.08207  1.0000
  H   H8171     1.0  0.52373  0.79750  0.22815  1.0000
  S   S1026     1.0  0.54824  0.89058  0.23245  1.0000
  H   H8172     1.0  0.60501  0.75577  0.08774  1.0000
  H   H8173     1.0  0.54731  0.89139  0.01100  1.0000
  C   C4591     1.0  0.56157  0.85818  0.06137  1.0000
  S   S1027     1.0  0.58491  0.74523  0.16125  1.0000
  H   H8174     1.0  0.57997  0.95660  0.14911  1.0000
  H   H8175     1.0  0.59070  0.94218  0.15983  1.0000
  H   H8176     1.0  0.50882  0.80223  0.17162  1.0000
  H   H8177     1.0  0.53718  0.92697  0.21697  1.0000
  C   C4592     1.0  0.50936  0.82398  0.13464  1.0000
  H   H8178     1.0  0.56421  0.82647  0.11548  1.0000
  C   C4593     1.0  0.55028  0.88770  0.02166  1.0000
  S   S1028     1.0  0.50658  0.92866  0.15540  1.0000
  H   H8179     1.0  0.59737  0.93453  0.20842  1.0000
  C   C4594     1.0  0.53531  0.87003  0.02658  1.0000
  H   H8180     1.0  0.52313  0.78362  0.18716  1.0000
  H   H8181     1.0  0.52222  0.89848  0.02448  1.0000
  C   C4595     1.0  0.52090  0.84737  0.23191  1.0000
  H   H8182     1.0  0.55299  0.89911  0.03654  1.0000
  H   H8183     1.0  0.56122  0.83255  0.09195  1.0000
  H   H8184     1.0  0.57965  0.97169  0.10911  1.0000
  C   C4596     1.0  0.54340  0.84794  0.01585  1.0000
  C   C4597     1.0  0.56507  0.74943  0.08549  1.0000
  H   H8185     1.0  0.54754  0.75738  0.22202  1.0000
  H   H8186     1.0  0.56532  0.87602  0.04390  1.0000
  C   C4598     1.0  0.62693  0.81165  0.23462  1.0000
  C   C4599     1.0  0.52110  0.75828  0.12466  1.0000
  C   C4600     1.0  0.52739  0.92710  0.22593  1.0000
  H   H8187     1.0  0.55399  0.79617  0.20771  1.0000
  H   H8188     1.0  0.62633  0.85968  0.20357  1.0000
  C   C4601     1.0  0.53925  0.83183  0.10382  1.0000
  H   H8189     1.0  0.59409  0.83420  0.07428  1.0000
  H   H8190     1.0  0.52033  0.90582  0.21803  1.0000
  C   C4602     1.0  0.55835  0.83780  0.11261  1.0000
  H   H8191     1.0  0.51842  0.84800  0.13203  1.0000
  S   S1029     1.0  0.56171  0.77097  0.13605  1.0000
  H   H8192     1.0  0.58738  0.81698  0.15006  1.0000
  S   S1030     1.0  0.55248  0.77779  0.16801  1.0000
  H   H8193     1.0  0.52966  0.83900  0.10915  1.0000
  H   H8194     1.0  0.61992  0.80725  0.23079  1.0000
  H   H8195     1.0  0.51081  0.78754  0.01918  1.0000
  S   S1031     1.0  0.51861  0.78199  0.15280  1.0000
  H   H8196     1.0  0.57679  0.89543  0.01881  1.0000
  H   H8197     1.0  0.60888  0.82288  0.08231  1.0000
  C   C4603     1.0  0.50417  0.78275  0.22836  1.0000
  S   S1032     1.0  0.52587  0.80029  0.07508  1.0000
  Fe  Fe521     1.0  0.55997  0.79851  0.15817  1.0000
  S   S1033     1.0  0.58125  0.78828  0.14501  1.0000
  C   C4604     1.0  0.60072  0.83325  0.08202  1.0000
  S   S1034     1.0  0.55075  0.87247  0.20868  1.0000
  H   H8198     1.0  0.58563  0.82432  0.10010  1.0000
  C   C4605     1.0  0.51709  0.91668  0.21125  1.0000
  H   H8199     1.0  0.57373  0.97468  0.16286  1.0000
  C   C4606     1.0  0.51004  0.90751  0.19435  1.0000
  C   C4607     1.0  0.51276  0.87876  0.08952  1.0000
  H   H8200     1.0  0.52261  0.87092  0.19428  1.0000
  H   H8201     1.0  0.59613  0.83133  0.13903  1.0000
  C   C4608     1.0  0.54273  0.95617  0.19441  1.0000
  H   H8202     1.0  0.53005  0.96894  0.10756  1.0000
  C   C4609     1.0  0.58057  0.81913  0.19222  1.0000
  C   C4610     1.0  0.58544  0.82828  0.14387  1.0000
  C   C4611     1.0  0.55802  0.86314  0.10892  1.0000
  H   H8203     1.0  0.56638  0.85128  0.13167  1.0000
  H   H8204     1.0  0.58169  0.74886  0.11194  1.0000
  H   H8205     1.0  0.56144  0.74973  0.19920  1.0000
  H   H8206     1.0  0.51012  0.93870  0.21524  1.0000
  H   H8207     1.0  0.55437  0.86635  0.09869  1.0000
  C   C4612     1.0  0.57406  0.84537  0.12365  1.0000
  C   C4613     1.0  0.59115  0.93703  0.18833  1.0000
  N   N256      1.0  0.56779  0.84823  0.11060  1.0000
  H   H8208     1.0  0.52651  0.86504  0.03426  1.0000
  H   H8209     1.0  0.60758  0.92098  0.19842  1.0000
  H   H8210     1.0  0.58425  0.82210  0.12536  1.0000
  C   C4614     1.0  0.57747  0.82960  0.13226  1.0000
  H   H8211     1.0  0.51368  0.87942  0.05460  1.0000
  H   H8212     1.0  0.60187  0.98098  0.16661  1.0000
  H   H8213     1.0  0.54790  0.86327  0.11757  1.0000
  C   C4615     1.0  0.54794  0.85723  0.02298  1.0000
  H   H8214     1.0  0.52563  0.93667  0.23036  1.0000
  H   H8215     1.0  0.57371  0.77308  0.08628  1.0000
  H   H8216     1.0  0.50464  0.88722  0.20846  1.0000
  H   H8217     1.0  0.58913  0.92045  0.20809  1.0000
  C   C4616     1.0  0.55938  0.86728  0.04667  1.0000
  C   C4617     1.0  0.50856  0.98535  0.14183  1.0000
  H   H8218     1.0  0.51762  0.87186  0.15417  1.0000
  C   C4618     1.0  0.53884  0.75894  0.08293  1.0000
  H   H8219     1.0  0.50672  0.88200  0.03893  1.0000
  C   C4619     1.0  0.51089  0.89662  0.10269  1.0000
  C   C4620     1.0  0.59588  0.76530  0.08830  1.0000
  H   H8220     1.0  0.60576  0.77668  0.06724  1.0000
  C   C4621     1.0  0.55304  0.90090  0.02504  1.0000
  H   H8221     1.0  0.52380  0.86766  0.13718  1.0000
  H   H8222     1.0  0.52457  0.80788  0.17189  1.0000
  C   C4622     1.0  0.52387  0.97793  0.10062  1.0000
  H   H8223     1.0  0.55700  0.86483  0.06955  1.0000
  H   H8224     1.0  0.55551  0.97015  0.19491  1.0000
  H   H8225     1.0  0.60704  0.83077  0.22292  1.0000
  C   C4623     1.0  0.51088  0.93993  0.18585  1.0000
  H   H8226     1.0  0.57584  0.95213  0.20054  1.0000
  H   H8227     1.0  0.60369  0.74537  0.06926  1.0000
  H   H8228     1.0  0.59086  0.92959  0.18201  1.0000
  H   H8229     1.0  0.64200  0.96437  0.23103  1.0000
  C   C4624     1.0  0.57865  0.96754  0.17192  1.0000
  H   H8230     1.0  0.53096  0.87562  0.01677  1.0000
  H   H8231     1.0  0.56605  0.96913  0.12567  1.0000
  H   H8232     1.0  0.55762  0.86089  0.01555  1.0000
  H   H8233     1.0  0.57777  0.98124  0.12267  1.0000
  C   C4625     1.0  0.56759  0.90444  0.01611  1.0000
  H   H8234     1.0  0.50460  0.78141  0.06639  1.0000
  H   H8235     1.0  0.61156  0.74268  0.11209  1.0000
  H   H8236     1.0  0.51275  0.96051  0.17137  1.0000
  C   C4626     1.0  0.52501  0.89233  0.03494  1.0000
  H   H8237     1.0  0.53936  0.81127  0.21075  1.0000
  H   H8238     1.0  0.52503  0.96421  0.08650  1.0000
  H   H8239     1.0  0.50677  0.81513  0.18202  1.0000
  H   H8240     1.0  0.56695  0.93913  0.14695  1.0000
  C   C4627     1.0  0.60477  0.83807  0.23025  1.0000
  C   C4628     1.0  0.57227  0.74970  0.10742  1.0000
  H   H8241     1.0  0.55042  0.97392  0.17833  1.0000
  C   C4629     1.0  0.54292  0.87363  0.04688  1.0000
  H   H8242     1.0  0.50802  0.83043  0.12383  1.0000
  C   C4630     1.0  0.51398  0.80542  0.17845  1.0000
  H   H8243     1.0  0.51696  0.85880  0.17733  1.0000
  H   H8244     1.0  0.54192  0.94915  0.18793  1.0000
  H   H8245     1.0  0.58637  0.93448  0.14022  1.0000
  H   H8246     1.0  0.54511  0.94931  0.20474  1.0000
  H   H8247     1.0  0.50985  0.97970  0.08637  1.0000
  C   C4631     1.0  0.55467  0.96497  0.18674  1.0000
  C   C4632     1.0  0.50424  0.83356  0.14546  1.0000
  H   H8248     1.0  0.52939  0.91743  0.23458  1.0000
  H   H8249     1.0  0.56864  0.93862  0.19845  1.0000
  H   H8250     1.0  0.59275  0.76703  0.09940  1.0000
  H   H8251     1.0  0.57036  0.98458  0.18428  1.0000
  H   H8252     1.0  0.55151  0.74742  0.13432  1.0000
  H   H8253     1.0  0.59379  0.84487  0.22924  1.0000
  H   H8254     1.0  0.52481  0.82564  0.22968  1.0000
  H   H8255     1.0  0.54755  0.76353  0.09811  1.0000
  H   H8256     1.0  0.58578  0.97109  0.18953  1.0000
  H   H8257     1.0  0.59916  0.94372  0.18212  1.0000
  H   H8258     1.0  0.50551  0.79059  0.19715  1.0000
  H   H8259     1.0  0.53738  0.78186  0.23134  1.0000
  H   H8260     1.0  0.51500  0.98433  0.10750  1.0000
  C   C4633     1.0  0.52778  0.96620  0.19765  1.0000
  H   H8261     1.0  0.50363  0.87722  0.12902  1.0000
  S   S1035     1.0  0.50440  0.85818  0.02545  1.0000
  C   C4634     1.0  0.50403  0.95508  0.17859  1.0000
  H   H8262     1.0  0.70910  0.89576  0.28852  1.0000
  S   S1036     1.0  0.87459  0.92407  0.42239  1.0000
  S   S1037     1.0  0.89229  0.93621  0.44692  1.0000
  S   S1038     1.0  0.98465  0.83945  0.45114  1.0000
  S   S1039     1.0  0.95847  0.87788  0.45120  1.0000
  Fe  Fe522     1.0  0.97075  0.82577  0.44926  1.0000
  S   S1040     1.0  0.97868  0.81670  0.42943  1.0000
  H   H8263     1.0  0.69782  0.92170  0.28253  1.0000
  H   H8264     1.0  0.50579  0.95098  0.41943  1.0000
  H   H8265     1.0  0.72519  0.92521  0.41745  1.0000
  H   H8266     1.0  0.76517  0.87245  0.44635  1.0000
  H   H8267     1.0  0.79395  0.90642  0.37800  1.0000
  H   H8268     1.0  0.59034  0.81728  0.26215  1.0000
  Fe  Fe523     1.0  0.71025  0.93334  0.37536  1.0000
  S   S1041     1.0  0.68936  0.93242  0.37090  1.0000
  S   S1042     1.0  0.71852  0.95398  0.36668  1.0000
  Fe  Fe524     1.0  0.71545  0.90209  0.39189  1.0000
  S   S1043     1.0  0.69474  0.89855  0.38910  1.0000
  S   S1044     1.0  0.72904  0.88608  0.40692  1.0000
  Fe  Fe525     1.0  0.70098  0.91076  0.36640  1.0000
  S   S1045     1.0  0.69948  0.90553  0.34622  1.0000
  Fe  Fe526     1.0  0.68464  0.92045  0.39379  1.0000
  S   S1046     1.0  0.66292  0.92640  0.40848  1.0000
  S   S1047     1.0  0.72262  0.91262  0.36875  1.0000
  S   S1048     1.0  0.70461  0.92294  0.39863  1.0000
  H   H8269     1.0  0.73272  0.91634  0.43295  1.0000
  Fe  Fe527     1.0  0.64130  0.90445  0.30847  1.0000
  S   S1049     1.0  0.65350  0.90244  0.28608  1.0000
  S   S1050     1.0  0.64872  0.89182  0.32895  1.0000
  Fe  Fe528     1.0  0.61781  0.92865  0.29771  1.0000
  S   S1051     1.0  0.62804  0.92904  0.27456  1.0000
  S   S1052     1.0  0.59886  0.94573  0.30466  1.0000
  Fe  Fe529     1.0  0.63152  0.90494  0.28134  1.0000
  S   S1053     1.0  0.62947  0.89233  0.26623  1.0000
  Fe  Fe530     1.0  0.64878  0.92653  0.28121  1.0000
  S   S1054     1.0  0.66592  0.93870  0.26761  1.0000
  S   S1055     1.0  0.61970  0.90474  0.30430  1.0000
  S   S1056     1.0  0.63818  0.92828  0.30374  1.0000
  C   C4635     1.0  0.86607  0.74968  0.43366  1.0000
  C   C4636     1.0  0.79566  0.97012  0.45928  1.0000
  S   S1057     1.0  0.57567  0.96701  0.37977  1.0000
  H   H8270     1.0  0.99893  0.74314  0.41164  1.0000
  Fe  Fe531     1.0  0.53418  0.97073  0.38674  1.0000
  S   S1058     1.0  0.54823  0.95227  0.39904  1.0000
  H   H8271     1.0  0.79062  0.96166  0.46728  1.0000
  Fe  Fe532     1.0  0.55891  0.96906  0.39997  1.0000
  S   S1059     1.0  0.56751  0.96602  0.41942  1.0000
  Fe  Fe533     1.0  0.56378  0.95188  0.37785  1.0000
  S   S1060     1.0  0.57754  0.93170  0.37138  1.0000
  H   H8272     1.0  0.86646  0.97279  0.47704  1.0000
  S   S1061     1.0  0.54880  0.96877  0.36526  1.0000
  H   H8273     1.0  0.65988  0.95698  0.33664  1.0000
  C   C4637     1.0  0.72130  0.88943  0.45214  1.0000
  H   H8274     1.0  0.50949  0.94023  0.33152  1.0000
  H   H8275     1.0  0.87591  0.78845  0.40856  1.0000
  H   H8276     1.0  0.56842  0.81665  0.24343  1.0000
  H   H8277     1.0  0.74402  0.92784  0.37143  1.0000
  H   H8278     1.0  0.52619  0.83118  0.27564  1.0000
  C   C4638     1.0  0.83725  0.90960  0.43766  1.0000
  H   H8279     1.0  0.59064  0.85444  0.27825  1.0000
  C   C4639     1.0  0.72745  0.95894  0.40212  1.0000
  Fe  Fe534     1.0  0.81929  0.88419  0.42493  1.0000
  S   S1062     1.0  0.79929  0.87558  0.42972  1.0000
  S   S1063     1.0  0.81620  0.90695  0.42634  1.0000
  Fe  Fe535     1.0  0.83986  0.85641  0.41837  1.0000
  S   S1064     1.0  0.82143  0.84554  0.42207  1.0000
  S   S1065     1.0  0.86377  0.84597  0.41276  1.0000
  Fe  Fe536     1.0  0.81018  0.86675  0.41009  1.0000
  S   S1066     1.0  0.79825  0.87131  0.39235  1.0000
  Fe  Fe537     1.0  0.81232  0.85552  0.44125  1.0000
  S   S1067     1.0  0.82963  0.87665  0.40456  1.0000
  S   S1068     1.0  0.83141  0.86502  0.43830  1.0000
  H   H8280     1.0  0.85387  0.80640  0.41550  1.0000
  H   H8281     1.0  0.73372  0.90630  0.42016  1.0000
  S   S1069     1.0  0.95105  0.77427  0.41345  1.0000
  C   C4640     1.0  0.86805  0.82817  0.42254  1.0000
  C   C4641     1.0  0.85790  0.82279  0.43442  1.0000
  C   C4642     1.0  0.86133  0.80853  0.44204  1.0000
  C   C4643     1.0  0.87488  0.79956  0.43784  1.0000
  C   C4644     1.0  0.88513  0.80496  0.42608  1.0000
  C   C4645     1.0  0.88171  0.81928  0.41845  1.0000
  H   H8282     1.0  0.84739  0.82960  0.43772  1.0000
  H   H8283     1.0  0.85344  0.80442  0.45116  1.0000
  H   H8284     1.0  0.89562  0.79811  0.42279  1.0000
  H   H8285     1.0  0.88959  0.82341  0.40926  1.0000
  H   H8286     1.0  0.89444  0.77132  0.40211  1.0000
  H   H8287     1.0  0.52282  0.91143  0.39107  1.0000
  H   H8288     1.0  0.77792  0.86696  0.45723  1.0000
  C   C4646     1.0  0.69972  0.87599  0.32116  1.0000
  H   H8289     1.0  0.76913  0.96335  0.42427  1.0000
  H   H8290     1.0  0.51210  0.89989  0.39020  1.0000
  H   H8291     1.0  0.64446  0.98256  0.24282  1.0000
  H   H8292     1.0  0.88835  0.74400  0.42260  1.0000
  H   H8293     1.0  0.72128  0.85753  0.26592  1.0000
  H   H8294     1.0  0.86341  0.76121  0.38428  1.0000
  C   C4647     1.0  0.61379  0.88496  0.25140  1.0000
  H   H8295     1.0  0.65586  0.85701  0.30505  1.0000
  H   H8296     1.0  0.76133  0.96968  0.36991  1.0000
  C   C4648     1.0  0.60046  0.84559  0.27873  1.0000
  H   H8297     1.0  0.69944  0.96899  0.33550  1.0000
  H   H8298     1.0  0.50387  0.90205  0.31542  1.0000
  Fe  Fe538     1.0  0.56718  0.87397  0.23955  1.0000
  H   H8299     1.0  0.69761  0.85505  0.33613  1.0000
  H   H8300     1.0  0.53073  0.94869  0.37849  1.0000
  H   H8301     1.0  0.91514  0.76326  0.37428  1.0000
  C   C4649     1.0  0.59531  0.94236  0.32336  1.0000
  C   C4650     1.0  0.58742  0.95338  0.33045  1.0000
  C   C4651     1.0  0.58288  0.95027  0.34540  1.0000
  C   C4652     1.0  0.58589  0.93610  0.35322  1.0000
  C   C4653     1.0  0.59464  0.92525  0.34623  1.0000
  C   C4654     1.0  0.59942  0.92841  0.33130  1.0000
  H   H8302     1.0  0.58458  0.96428  0.32441  1.0000
  H   H8303     1.0  0.57680  0.95883  0.35077  1.0000
  H   H8304     1.0  0.59723  0.91431  0.35227  1.0000
  H   H8305     1.0  0.60574  0.91990  0.32595  1.0000
  C   C4655     1.0  0.69387  0.99113  0.40462  1.0000
  H   H8306     1.0  0.58845  0.97629  0.48672  1.0000
  C   C4656     1.0  0.57344  0.98111  0.41930  1.0000
  C   C4657     1.0  0.67952  0.97108  0.28313  1.0000
  C   C4658     1.0  0.66790  0.96486  0.29180  1.0000
  C   C4659     1.0  0.66368  0.95462  0.28740  1.0000
  C   C4660     1.0  0.67101  0.95075  0.27428  1.0000
  Fe  Fe539     1.0  0.92453  0.74778  0.45904  1.0000
  H   H8307     1.0  0.66223  0.96791  0.30187  1.0000
  H   H8308     1.0  0.65466  0.94994  0.29403  1.0000
  C   C4661     1.0  0.66124  0.94381  0.41043  1.0000
  C   C4662     1.0  0.67122  0.95194  0.40148  1.0000
  C   C4663     1.0  0.66987  0.96593  0.40267  1.0000
  C   C4664     1.0  0.65856  0.97194  0.41283  1.0000
  C   C4665     1.0  0.64864  0.96379  0.42200  1.0000
  C   C4666     1.0  0.64995  0.94972  0.42076  1.0000
  H   H8309     1.0  0.67996  0.94755  0.39349  1.0000
  H   H8310     1.0  0.67763  0.97207  0.39562  1.0000
  H   H8311     1.0  0.63997  0.96831  0.42994  1.0000
  H   H8312     1.0  0.64223  0.94342  0.42773  1.0000
  C   C4667     1.0  0.74826  0.88214  0.40253  1.0000
  C   C4668     1.0  0.75616  0.88469  0.38834  1.0000
  C   C4669     1.0  0.77151  0.88125  0.38534  1.0000
  C   C4670     1.0  0.77902  0.87553  0.39649  1.0000
  C   C4671     1.0  0.77110  0.87315  0.41067  1.0000
  C   C4672     1.0  0.75579  0.87629  0.41365  1.0000
  H   H8313     1.0  0.75045  0.88907  0.37970  1.0000
  H   H8314     1.0  0.77760  0.88298  0.37434  1.0000
  H   H8315     1.0  0.77678  0.86849  0.41930  1.0000
  H   H8316     1.0  0.74972  0.87404  0.42459  1.0000
  C   C4673     1.0  0.68270  0.90470  0.34347  1.0000
  C   C4674     1.0  0.67865  0.91223  0.33048  1.0000
  C   C4675     1.0  0.66722  0.90934  0.32658  1.0000
  C   C4676     1.0  0.66029  0.89832  0.33524  1.0000
  C   C4677     1.0  0.66387  0.89127  0.34852  1.0000
  C   C4678     1.0  0.67489  0.89459  0.35272  1.0000
  H   H8317     1.0  0.68471  0.91990  0.32311  1.0000
  H   H8318     1.0  0.66445  0.91498  0.31641  1.0000
  H   H8319     1.0  0.65852  0.88279  0.35534  1.0000
  H   H8320     1.0  0.67804  0.88858  0.36266  1.0000
  C   C4679     1.0  0.63945  0.79933  0.23881  1.0000
  H   H8321     1.0  0.67985  0.94883  0.31753  1.0000
  H   H8322     1.0  0.51194  0.92170  0.44087  1.0000
  C   C4680     1.0  0.72249  0.96140  0.37891  1.0000
  C   C4681     1.0  0.72263  0.95375  0.39298  1.0000
  Fe  Fe540     1.0  0.98214  0.82735  0.47401  1.0000
  C   C4682     1.0  0.84207  0.95553  0.41026  1.0000
  H   H8323     1.0  0.58959  0.83118  0.27581  1.0000
  H   H8324     1.0  0.71928  0.94367  0.39673  1.0000
  H   H8325     1.0  0.72785  0.95275  0.41287  1.0000
  C   C4683     1.0  0.58865  0.88217  0.26012  1.0000
  C   C4684     1.0  0.58820  0.88639  0.27261  1.0000
  C   C4685     1.0  0.60039  0.89004  0.27442  1.0000
  C   C4686     1.0  0.61334  0.88918  0.26389  1.0000
  H   H8326     1.0  0.67813  0.86641  0.29403  1.0000
  C   C4687     1.0  0.80550  0.91774  0.47037  1.0000
  H   H8327     1.0  0.92550  0.83548  0.41189  1.0000
  N   N257      1.0  0.69551  0.87389  0.30855  1.0000
  C   C4688     1.0  0.51267  0.94228  0.42597  1.0000
  H   H8328     1.0  0.71848  0.96376  0.43576  1.0000
  H   H8329     1.0  0.86296  0.74610  0.40858  1.0000
  H   H8330     1.0  0.75837  0.91442  0.35266  1.0000
  H   H8331     1.0  0.62964  0.95265  0.24075  1.0000
  H   H8332     1.0  0.70837  0.88228  0.31752  1.0000
  H   H8333     1.0  0.81296  0.96500  0.41901  1.0000
  C   C4689     1.0  0.56734  0.94364  0.45810  1.0000
  C   C4690     1.0  0.77534  0.94899  0.37703  1.0000
  H   H8334     1.0  0.50517  0.84593  0.28992  1.0000
  C   C4691     1.0  0.88373  0.98258  0.46280  1.0000
  H   H8335     1.0  0.57743  0.79850  0.24195  1.0000
  C   C4692     1.0  0.97041  0.80485  0.42584  1.0000
  C   C4693     1.0  0.95908  0.79899  0.43577  1.0000
  C   C4694     1.0  0.95303  0.78946  0.43223  1.0000
  C   C4695     1.0  0.95822  0.78591  0.41874  1.0000
  C   C4696     1.0  0.96954  0.79178  0.40895  1.0000
  C   C4697     1.0  0.97561  0.80114  0.41249  1.0000
  H   H8336     1.0  0.95508  0.80174  0.44615  1.0000
  H   H8337     1.0  0.94442  0.78489  0.43993  1.0000
  H   H8338     1.0  0.98435  0.80561  0.40478  1.0000
  Fe  Fe541     1.0  0.93322  0.76413  0.42895  1.0000
  C   C4698     1.0  0.94131  0.88595  0.46026  1.0000
  C   C4699     1.0  0.93480  0.90008  0.45450  1.0000
  H   H8339     1.0  0.67759  0.86655  0.32499  1.0000
  H   H8340     1.0  0.94035  0.90589  0.44448  1.0000
  H   H8341     1.0  0.91615  0.91748  0.45695  1.0000
  C   C4700     1.0  0.85900  0.91808  0.42351  1.0000
  C   C4701     1.0  0.85530  0.91795  0.41099  1.0000
  C   C4702     1.0  0.84232  0.91409  0.41180  1.0000
  C   C4703     1.0  0.83318  0.91016  0.42516  1.0000
  H   H8342     1.0  0.97280  0.74596  0.41795  1.0000
  C   C4704     1.0  0.85004  0.91369  0.43682  1.0000
  H   H8343     1.0  0.86225  0.92125  0.40066  1.0000
  H   H8344     1.0  0.83922  0.91442  0.40211  1.0000
  C   C4705     1.0  0.51991  0.94834  0.37822  1.0000
  S   S1070     1.0  0.91366  0.76263  0.42232  1.0000
  H   H8345     1.0  0.74294  0.90241  0.32409  1.0000
  H   H8346     1.0  0.86319  0.88632  0.48407  1.0000
  H   H8347     1.0  0.67038  0.93954  0.34360  1.0000
  C   C4706     1.0  0.59164  0.99109  0.42299  1.0000
  H   H8348     1.0  0.75018  0.91773  0.32259  1.0000
  H   H8349     1.0  0.62261  0.96165  0.30664  1.0000
  H   H8350     1.0  0.52216  0.89464  0.40408  1.0000
  H   H8351     1.0  0.79000  0.93597  0.43667  1.0000
  H   H8352     1.0  0.61624  0.81030  0.25707  1.0000
  C   C4707     1.0  0.64038  0.97643  0.25374  1.0000
  N   N258      1.0  0.87728  0.75979  0.40702  1.0000
  C   C4708     1.0  0.57187  0.98451  0.46430  1.0000
  H   H8353     1.0  0.88914  0.77070  0.38690  1.0000
  H   H8354     1.0  0.68936  0.91137  0.27635  1.0000
  H   H8355     1.0  0.71445  0.88288  0.46094  1.0000
  C   C4709     1.0  0.51796  0.94911  0.43493  1.0000
  H   H8356     1.0  0.85374  0.95410  0.41024  1.0000
  C   C4710     1.0  0.83064  0.79820  0.48657  1.0000
  H   H8357     1.0  0.62625  0.82397  0.24937  1.0000
  H   H8358     1.0  0.51681  0.91152  0.42035  1.0000
  S   S1071     1.0  0.90413  0.74489  0.45548  1.0000
  H   H8359     1.0  0.70294  0.87514  0.27831  1.0000
  H   H8360     1.0  0.79811  0.91472  0.48092  1.0000
  C   C4711     1.0  0.70558  0.86208  0.33168  1.0000
  H   H8361     1.0  0.91414  0.93002  0.47557  1.0000
  H   H8362     1.0  0.73497  0.87514  0.47464  1.0000
  H   H8363     1.0  0.52249  0.93742  0.41865  1.0000
  C   C4712     1.0  0.67307  0.86656  0.30540  1.0000
  C   C4713     1.0  0.60017  0.83445  0.27099  1.0000
  C   C4714     1.0  0.60646  0.95407  0.46744  1.0000
  C   C4715     1.0  0.88718  0.98860  0.48735  1.0000
  H   H8364     1.0  0.51079  0.93516  0.31513  1.0000
  H   H8365     1.0  0.62677  0.96135  0.45769  1.0000
  C   C4716     1.0  0.59602  0.96858  0.46293  1.0000
  Fe  Fe542     1.0  0.88386  0.92474  0.46936  1.0000
  H   H8366     1.0  0.64712  0.80331  0.24229  1.0000
  H   H8367     1.0  0.00097  0.84740  0.47305  1.0000
  N   N259      1.0  0.62123  0.94572  0.38211  1.0000
  C   C4717     1.0  0.61735  0.94637  0.36829  1.0000
  C   C4718     1.0  0.60901  0.94172  0.39460  1.0000
  C   C4719     1.0  0.62210  0.96071  0.38202  1.0000
  C   C4720     1.0  0.63567  0.93559  0.38389  1.0000
  C   C4721     1.0  0.63981  0.92182  0.37787  1.0000
  C   C4722     1.0  0.62762  0.95267  0.35435  1.0000
  C   C4723     1.0  0.62562  0.96254  0.39557  1.0000
  C   C4724     1.0  0.60442  0.92758  0.39609  1.0000
  C   C4725     1.0  0.59025  0.92659  0.40742  1.0000
  C   C4726     1.0  0.65312  0.91138  0.38281  1.0000
  C   C4727     1.0  0.62566  0.94898  0.34122  1.0000
  C   C4728     1.0  0.92054  0.88522  0.48050  1.0000
  H   H8368     1.0  0.60612  0.95295  0.36803  1.0000
  H   H8369     1.0  0.61697  0.93559  0.36748  1.0000
  H   H8370     1.0  0.61189  0.94051  0.40493  1.0000
  H   H8371     1.0  0.59909  0.95058  0.39429  1.0000
  H   H8372     1.0  0.61168  0.96844  0.38037  1.0000
  H   H8373     1.0  0.63076  0.96449  0.37291  1.0000
  H   H8374     1.0  0.64484  0.94119  0.37858  1.0000
  H   H8375     1.0  0.63614  0.93225  0.39542  1.0000
  H   H8376     1.0  0.64260  0.92455  0.36598  1.0000
  H   H8377     1.0  0.63085  0.91607  0.38121  1.0000
  H   H8378     1.0  0.62509  0.96455  0.35254  1.0000
  H   H8379     1.0  0.63921  0.94865  0.35503  1.0000
  H   H8380     1.0  0.63639  0.95567  0.39708  1.0000
  H   H8381     1.0  0.61727  0.95974  0.40537  1.0000
  H   H8382     1.0  0.60243  0.92670  0.38603  1.0000
  H   H8383     1.0  0.61290  0.91823  0.39969  1.0000
  H   H8384     1.0  0.59149  0.92717  0.41796  1.0000
  H   H8385     1.0  0.58119  0.93548  0.40414  1.0000
  H   H8386     1.0  0.58733  0.91625  0.40857  1.0000
  H   H8387     1.0  0.66276  0.91636  0.37873  1.0000
  H   H8388     1.0  0.65100  0.90823  0.39470  1.0000
  H   H8389     1.0  0.65563  0.90151  0.37866  1.0000
  H   H8390     1.0  0.62836  0.93716  0.34225  1.0000
  H   H8391     1.0  0.61425  0.95338  0.33991  1.0000
  H   H8392     1.0  0.63305  0.95378  0.33147  1.0000
  H   H8393     1.0  0.81833  0.95918  0.45330  1.0000
  H   H8394     1.0  0.79591  0.89044  0.47448  1.0000
  H   H8395     1.0  0.78942  0.93612  0.46362  1.0000
  N   N260      1.0  0.88786  0.87484  0.42520  1.0000
  C   C4729     1.0  0.89885  0.88422  0.42065  1.0000
  C   C4730     1.0  0.87854  0.87921  0.41428  1.0000
  C   C4731     1.0  0.87797  0.87794  0.43917  1.0000
  C   C4732     1.0  0.89483  0.85894  0.42742  1.0000
  C   C4733     1.0  0.91012  0.85450  0.41774  1.0000
  C   C4734     1.0  0.90723  0.88308  0.43217  1.0000
  C   C4735     1.0  0.86412  0.87162  0.44450  1.0000
  C   C4736     1.0  0.88635  0.87766  0.39882  1.0000
  C   C4737     1.0  0.87577  0.88419  0.38878  1.0000
  C   C4738     1.0  0.91493  0.83820  0.41949  1.0000
  C   C4739     1.0  0.92070  0.88955  0.42565  1.0000
  C   C4740     1.0  0.85653  0.87317  0.45979  1.0000
  H   H8396     1.0  0.89333  0.89575  0.41764  1.0000
  H   H8397     1.0  0.90695  0.88208  0.41077  1.0000
  H   H8398     1.0  0.87018  0.87262  0.41747  1.0000
  H   H8399     1.0  0.87243  0.89055  0.41385  1.0000
  H   H8400     1.0  0.87425  0.88978  0.43833  1.0000
  H   H8401     1.0  0.88403  0.87385  0.44793  1.0000
  H   H8402     1.0  0.89625  0.85446  0.43863  1.0000
  H   H8403     1.0  0.88742  0.85292  0.42612  1.0000
  H   H8404     1.0  0.91848  0.85806  0.42061  1.0000
  H   H8405     1.0  0.91039  0.85931  0.40627  1.0000
  H   H8406     1.0  0.90007  0.88912  0.44037  1.0000
  H   H8407     1.0  0.91074  0.87176  0.43773  1.0000
  H   H8408     1.0  0.86678  0.86008  0.44418  1.0000
  H   H8409     1.0  0.85615  0.87766  0.43772  1.0000
  H   H8410     1.0  0.89558  0.88316  0.39450  1.0000
  H   H8411     1.0  0.89026  0.86611  0.39852  1.0000
  H   H8412     1.0  0.62964  0.97894  0.40355  1.0000
  H   H8413     1.0  0.87154  0.89587  0.38842  1.0000
  C   C4741     1.0  0.71066  0.96813  0.32872  1.0000
  H   H8414     1.0  0.81681  0.91498  0.47199  1.0000
  H   H8415     1.0  0.70012  0.90298  0.30429  1.0000
  H   H8416     1.0  0.91754  0.90107  0.42041  1.0000
  H   H8417     1.0  0.92624  0.88876  0.43423  1.0000
  H   H8418     1.0  0.92854  0.88362  0.41768  1.0000
  H   H8419     1.0  0.86350  0.86656  0.46739  1.0000
  H   H8420     1.0  0.85402  0.88461  0.46043  1.0000
  H   H8421     1.0  0.84608  0.86958  0.46294  1.0000
  C   C4742     1.0  0.85314  0.79801  0.41053  1.0000
  H   H8422     1.0  0.85398  0.80262  0.39888  1.0000
  H   H8423     1.0  0.85420  0.76977  0.41128  1.0000
  C   C4743     1.0  0.74897  0.92047  0.41329  1.0000
  C   C4744     1.0  0.51570  0.90392  0.39762  1.0000
  H   H8424     1.0  0.88334  0.76155  0.42566  1.0000
  H   H8425     1.0  0.76861  0.89393  0.43888  1.0000
  C   C4745     1.0  0.90455  0.75163  0.39489  1.0000
  C   C4746     1.0  0.50376  0.97710  0.34896  1.0000
  C   C4747     1.0  0.87640  0.76797  0.48416  1.0000
  H   H8426     1.0  0.72277  0.92820  0.46354  1.0000
  C   C4748     1.0  0.82353  0.79640  0.46460  1.0000
  H   H8427     1.0  0.75330  0.94235  0.36269  1.0000
  H   H8428     1.0  0.81125  0.81111  0.47800  1.0000
  C   C4749     1.0  0.51811  0.93816  0.37203  1.0000
  H   H8429     1.0  0.92077  0.76465  0.38956  1.0000
  H   H8430     1.0  0.65522  0.98200  0.26921  1.0000
  H   H8431     1.0  0.60911  0.82502  0.27329  1.0000
  C   C4750     1.0  0.76302  0.85300  0.46263  1.0000
  H   H8432     1.0  0.84237  0.79515  0.41543  1.0000
  C   C4751     1.0  0.86488  0.77286  0.40625  1.0000
  H   H8433     1.0  0.88149  0.88276  0.37779  1.0000
  H   H8434     1.0  0.86646  0.87875  0.39243  1.0000
  H   H8435     1.0  0.74385  0.88950  0.44266  1.0000
  H   H8436     1.0  0.74172  0.92795  0.39349  1.0000
  C   C4752     1.0  0.70771  0.86485  0.28495  1.0000
  C   C4753     1.0  0.91392  0.89924  0.47457  1.0000
  H   H8437     1.0  0.62042  0.95454  0.44601  1.0000
  S   S1072     1.0  0.89693  0.90749  0.48380  1.0000
  Fe  Fe543     1.0  0.90123  0.76793  0.44346  1.0000
  S   S1073     1.0  0.92043  0.77135  0.44906  1.0000
  H   H8438     1.0  0.69124  0.98731  0.39643  1.0000
  Fe  Fe544     1.0  0.87321  0.93181  0.44198  1.0000
  C   C4754     1.0  0.70803  0.96089  0.44244  1.0000
  C   C4755     1.0  0.61814  0.97340  0.30550  1.0000
  H   H8439     1.0  0.86428  0.78102  0.42484  1.0000
  H   H8440     1.0  0.50477  0.86060  0.27446  1.0000
  C   C4756     1.0  0.80884  0.96396  0.44810  1.0000
  H   H8441     1.0  0.68021  0.91829  0.29228  1.0000
  N   N261      1.0  0.63421  0.98617  0.26426  1.0000
  H   H8442     1.0  0.80563  0.91712  0.39778  1.0000
  H   H8443     1.0  0.65829  0.85527  0.32273  1.0000
  C   C4757     1.0  0.70913  0.86670  0.29935  1.0000
  H   H8444     1.0  0.96590  0.75158  0.44160  1.0000
  H   H8445     1.0  0.57349  0.80341  0.25895  1.0000
  S   S1074     1.0  0.65730  0.98967  0.41358  1.0000
  H   H8446     1.0  0.52528  0.94084  0.44137  1.0000
  C   C4758     1.0  0.82289  0.80639  0.47404  1.0000
  H   H8447     1.0  0.75747  0.91204  0.41806  1.0000
  H   H8448     1.0  0.71853  0.95428  0.46070  1.0000
  C   C4759     1.0  0.57319  0.95684  0.45663  1.0000
  C   C4760     1.0  0.80035  0.85508  0.47522  1.0000
  H   H8449     1.0  0.65502  0.96903  0.44830  1.0000
  H   H8450     1.0  0.71988  0.96148  0.28537  1.0000
  H   H8451     1.0  0.80833  0.97135  0.47352  1.0000
  H   H8452     1.0  0.59978  0.80128  0.24627  1.0000
  H   H8453     1.0  0.61037  0.85011  0.27393  1.0000
  H   H8454     1.0  0.69605  0.97158  0.26359  1.0000
  H   H8455     1.0  0.51203  0.92793  0.40790  1.0000
  H   H8456     1.0  0.57247  0.98473  0.45294  1.0000
  C   C4761     1.0  0.77183  0.95192  0.42999  1.0000
  C   C4762     1.0  0.91707  0.93901  0.47791  1.0000
  C   C4763     1.0  0.84516  0.99100  0.41875  1.0000
  H   H8457     1.0  0.71320  0.93063  0.44974  1.0000
  S   S1075     1.0  0.73698  0.97868  0.40942  1.0000
  H   H8458     1.0  0.74904  0.93087  0.41523  1.0000
  H   H8459     1.0  0.76851  0.91091  0.37418  1.0000
  H   H8460     1.0  0.76815  0.84685  0.47182  1.0000
  C   C4764     1.0  0.86950  0.74437  0.44853  1.0000
  N   N262      1.0  0.58048  0.97042  0.47140  1.0000
  H   H8461     1.0  0.85470  0.98202  0.42050  1.0000
  H   H8462     1.0  0.76967  0.94521  0.42394  1.0000
  C   C4765     1.0  0.62970  0.96838  0.25201  1.0000
  C   C4766     1.0  0.74106  0.88278  0.46630  1.0000
  H   H8463     1.0  0.71801  0.87251  0.29708  1.0000
  H   H8464     1.0  0.62061  0.97607  0.24750  1.0000
  H   H8465     1.0  0.75171  0.91002  0.39621  1.0000
  N   N263      1.0  0.55366  0.92252  0.33341  1.0000
  C   C4767     1.0  0.56093  0.90957  0.32693  1.0000
  C   C4768     1.0  0.53736  0.92477  0.33549  1.0000
  C   C4769     1.0  0.55921  0.93533  0.32344  1.0000
  C   C4770     1.0  0.55714  0.92037  0.34776  1.0000
  C   C4771     1.0  0.55330  0.90686  0.35909  1.0000
  C   C4772     1.0  0.57764  0.90430  0.32578  1.0000
  C   C4773     1.0  0.55204  0.94994  0.32785  1.0000
  C   C4774     1.0  0.53138  0.92999  0.32163  1.0000
  C   C4775     1.0  0.55748  0.90572  0.37307  1.0000
  C   C4776     1.0  0.58358  0.89106  0.31924  1.0000
  C   C4777     1.0  0.55570  0.96251  0.31554  1.0000
  H   H8466     1.0  0.55926  0.91185  0.31586  1.0000
  H   H8467     1.0  0.55573  0.90035  0.33294  1.0000
  H   H8468     1.0  0.53375  0.91459  0.34134  1.0000
  H   H8469     1.0  0.53143  0.93241  0.34256  1.0000
  H   H8470     1.0  0.55834  0.93634  0.31230  1.0000
  H   H8471     1.0  0.57106  0.93380  0.32264  1.0000
  H   H8472     1.0  0.56884  0.92005  0.34648  1.0000
  H   H8473     1.0  0.55129  0.92979  0.35261  1.0000
  H   H8474     1.0  0.55920  0.89687  0.35529  1.0000
  H   H8475     1.0  0.54143  0.90731  0.36163  1.0000
  H   H8476     1.0  0.58353  0.91271  0.31882  1.0000
  H   H8477     1.0  0.58039  0.90127  0.33644  1.0000
  H   H8478     1.0  0.55604  0.95037  0.33706  1.0000
  H   H8479     1.0  0.54005  0.95165  0.33102  1.0000
  H   H8480     1.0  0.53383  0.94053  0.31544  1.0000
  H   H8481     1.0  0.53617  0.92211  0.31468  1.0000
  H   H8482     1.0  0.55428  0.89621  0.38114  1.0000
  H   H8483     1.0  0.56945  0.90444  0.37127  1.0000
  H   H8484     1.0  0.55184  0.91547  0.37743  1.0000
  H   H8485     1.0  0.58167  0.89363  0.30824  1.0000
  H   H8486     1.0  0.59551  0.88742  0.31857  1.0000
  H   H8487     1.0  0.57831  0.88210  0.32597  1.0000
  H   H8488     1.0  0.55057  0.96339  0.30665  1.0000
  H   H8489     1.0  0.55156  0.97268  0.31938  1.0000
  H   H8490     1.0  0.56766  0.96109  0.31140  1.0000
  H   H8491     1.0  0.73637  0.91221  0.33811  1.0000
  H   H8492     1.0  0.56712  0.94273  0.44732  1.0000
  H   H8493     1.0  0.67243  0.95560  0.34735  1.0000
  S   S1076     1.0  0.87835  0.78159  0.44736  1.0000
  H   H8494     1.0  0.81153  0.93040  0.44280  1.0000
  H   H8495     1.0  0.81696  0.94595  0.42114  1.0000
  H   H8496     1.0  0.75722  0.89977  0.46924  1.0000
  C   C4778     1.0  0.69660  0.98485  0.43032  1.0000
  C   C4779     1.0  0.70869  0.86564  0.34431  1.0000
  C   C4780     1.0  0.69097  0.91360  0.28604  1.0000
  N   N264      1.0  0.71072  0.94820  0.31671  1.0000
  C   C4781     1.0  0.70928  0.94620  0.30279  1.0000
  C   C4782     1.0  0.69778  0.94447  0.32830  1.0000
  C   C4783     1.0  0.71143  0.96360  0.31483  1.0000
  C   C4784     1.0  0.72438  0.93849  0.32117  1.0000
  C   C4785     1.0  0.72823  0.92299  0.31873  1.0000
  C   C4786     1.0  0.72178  0.94965  0.28967  1.0000
  H   H8497     1.0  0.65786  0.95810  0.46563  1.0000
  C   C4787     1.0  0.68256  0.95292  0.32552  1.0000
  C   C4788     1.0  0.67062  0.95109  0.33916  1.0000
  C   C4789     1.0  0.74019  0.91330  0.32635  1.0000
  H   H8498     1.0  0.70039  0.97425  0.46504  1.0000
  H   H8499     1.0  0.52563  0.84600  0.26014  1.0000
  H   H8500     1.0  0.69919  0.95338  0.29973  1.0000
  H   H8501     1.0  0.70777  0.93517  0.30406  1.0000
  H   H8502     1.0  0.69778  0.93301  0.32996  1.0000
  H   H8503     1.0  0.69865  0.94553  0.33882  1.0000
  H   H8504     1.0  0.70266  0.97117  0.30970  1.0000
  H   H8505     1.0  0.72170  0.96580  0.30717  1.0000
  H   H8506     1.0  0.73409  0.94321  0.31559  1.0000
  H   H8507     1.0  0.72352  0.93754  0.33278  1.0000
  H   H8508     1.0  0.73225  0.92303  0.30716  1.0000
  H   H8509     1.0  0.71862  0.91809  0.32265  1.0000
  H   H8510     1.0  0.52989  0.84792  0.27579  1.0000
  H   H8511     1.0  0.73260  0.94609  0.29245  1.0000
  H   H8512     1.0  0.83828  0.96643  0.40392  1.0000
  C   C4790     1.0  0.58713  0.97927  0.42207  1.0000
  H   H8513     1.0  0.68215  0.96453  0.32137  1.0000
  C   C4791     1.0  0.50409  0.93068  0.43558  1.0000
  H   H8514     1.0  0.65000  0.96817  0.25683  1.0000
  H   H8515     1.0  0.76402  0.84992  0.44153  1.0000
  H   H8516     1.0  0.82819  0.81524  0.46711  1.0000
  H   H8517     1.0  0.98257  0.75704  0.43160  1.0000
  H   H8518     1.0  0.81712  0.78812  0.47071  1.0000
  H   H8519     1.0  0.86440  0.77797  0.39487  1.0000
  C   C4792     1.0  0.79320  0.91460  0.38398  1.0000
  C   C4793     1.0  0.89107  0.76411  0.39752  1.0000
  H   H8520     1.0  0.97362  0.78914  0.39853  1.0000
  Fe  Fe545     1.0  0.96333  0.85389  0.45873  1.0000
  C   C4794     1.0  0.68698  0.96691  0.27027  1.0000
  C   C4795     1.0  0.68266  0.95693  0.26581  1.0000
  H   H8521     1.0  0.67306  0.98132  0.44867  1.0000
  H   H8522     1.0  0.73024  0.93641  0.44529  1.0000
  H   H8523     1.0  0.91263  0.96259  0.46961  1.0000
  S   S1077     1.0  0.86602  0.91884  0.46397  1.0000
  S   S1078     1.0  0.86943  0.94460  0.47629  1.0000
  C   C4796     1.0  0.80102  0.93383  0.46413  1.0000
  H   H8524     1.0  0.78490  0.94529  0.38205  1.0000
  H   H8525     1.0  0.68838  0.95402  0.25569  1.0000
  H   H8526     1.0  0.59991  0.89314  0.28412  1.0000
  H   H8527     1.0  0.67955  0.96959  0.46355  1.0000
  H   H8528     1.0  0.58426  0.95543  0.44960  1.0000
  H   H8529     1.0  0.90049  0.95357  0.46663  1.0000
  C   C4797     1.0  0.69837  0.89987  0.29517  1.0000
  C   C4798     1.0  0.76340  0.89196  0.46241  1.0000
  H   H8530     1.0  0.80487  0.91142  0.46309  1.0000
  H   H8531     1.0  0.82207  0.93591  0.45113  1.0000
  H   H8532     1.0  0.60039  0.84052  0.29019  1.0000
  H   H8533     1.0  0.71168  0.94563  0.27472  1.0000
  H   H8534     1.0  0.52417  0.95721  0.42772  1.0000
  C   C4799     1.0  0.60148  0.88165  0.24943  1.0000
  N   N265      1.0  0.75700  0.87878  0.46687  1.0000
  H   H8535     1.0  0.67849  0.97669  0.35550  1.0000
  C   C4800     1.0  0.50418  0.93720  0.37199  1.0000
  H   H8536     1.0  0.72600  0.98095  0.36353  1.0000
  H   H8537     1.0  0.59429  0.96873  0.42340  1.0000
  H   H8538     1.0  0.78714  0.97764  0.45375  1.0000
  H   H8539     1.0  0.89867  0.81351  0.44352  1.0000
  C   C4801     1.0  0.59167  0.81119  0.24302  1.0000
  H   H8540     1.0  0.65897  0.94974  0.45139  1.0000
  H   H8541     1.0  0.58124  0.83120  0.24998  1.0000
  C   C4802     1.0  0.68881  0.88850  0.30058  1.0000
  H   H8542     1.0  0.91664  0.96201  0.44412  1.0000
  C   C4803     1.0  0.75828  0.87175  0.48216  1.0000
  H   H8543     1.0  0.71909  0.88939  0.44181  1.0000
  H   H8544     1.0  0.83861  0.89759  0.47989  1.0000
  H   H8545     1.0  0.84238  0.79444  0.48177  1.0000
  H   H8546     1.0  0.67124  0.84416  0.31103  1.0000
  H   H8547     1.0  0.81161  0.97367  0.43996  1.0000
  C   C4804     1.0  0.86549  0.78485  0.41309  1.0000
  Fe  Fe546     1.0  0.85241  0.93992  0.46847  1.0000
  H   H8548     1.0  0.55606  0.94465  0.46477  1.0000
  H   H8549     1.0  0.71817  0.90068  0.45350  1.0000
  H   H8550     1.0  0.56594  0.96626  0.45122  1.0000
  H   H8551     1.0  0.83037  0.90626  0.44800  1.0000
  N   N266      1.0  0.69661  0.97436  0.44461  1.0000
  C   C4805     1.0  0.76707  0.92267  0.37303  1.0000
  C   C4806     1.0  0.68440  0.86451  0.31440  1.0000
  H   H8552     1.0  0.92711  0.74825  0.38317  1.0000
  S   S1079     1.0  0.80399  0.84360  0.46354  1.0000
  C   C4807     1.0  0.92104  0.90663  0.46153  1.0000
  H   H8553     1.0  0.90777  0.74551  0.40506  1.0000
  H   H8554     1.0  0.89754  0.82826  0.45137  1.0000
  H   H8555     1.0  0.70153  0.94891  0.46474  1.0000
  H   H8556     1.0  0.80218  0.93948  0.47170  1.0000
  H   H8557     1.0  0.67850  0.89309  0.30751  1.0000
  H   H8558     1.0  0.81592  0.90613  0.38510  1.0000
  H   H8559     1.0  0.63388  0.96592  0.27994  1.0000
  C   C4808     1.0  0.57345  0.95867  0.47151  1.0000
  S   S1080     1.0  0.85829  0.95264  0.44611  1.0000
  Fe  Fe547     1.0  0.94992  0.82944  0.47764  1.0000
  H   H8560     1.0  0.83496  0.79098  0.46060  1.0000
  H   H8561     1.0  0.60661  0.97588  0.30462  1.0000
  C   C4809     1.0  0.79138  0.95705  0.43881  1.0000
  C   C4810     1.0  0.79628  0.87913  0.47886  1.0000
  H   H8562     1.0  0.87214  0.75303  0.45168  1.0000
  C   C4811     1.0  0.81091  0.93813  0.44923  1.0000
  H   H8563     1.0  0.91655  0.83298  0.43050  1.0000
  C   C4812     1.0  0.76383  0.90073  0.44685  1.0000
  H   H8564     1.0  0.66682  0.98285  0.48224  1.0000
  H   H8565     1.0  0.85283  0.91349  0.44652  1.0000
  C   C4813     1.0  0.67771  0.95854  0.44881  1.0000
  H   H8566     1.0  0.68493  0.97832  0.37002  1.0000
  H   H8567     1.0  0.91609  0.77592  0.48309  1.0000
  C   C4814     1.0  0.87472  0.97840  0.47612  1.0000
  H   H8568     1.0  0.76775  0.92898  0.34367  1.0000
  H   H8569     1.0  0.80498  0.98748  0.45974  1.0000
  H   H8570     1.0  0.61634  0.97689  0.27867  1.0000
  H   H8571     1.0  0.57886  0.94805  0.47712  1.0000
  H   H8572     1.0  0.52754  0.93078  0.36758  1.0000
  H   H8573     1.0  0.93258  0.95252  0.45121  1.0000
  C   C4815     1.0  0.91765  0.75737  0.38486  1.0000
  H   H8574     1.0  0.72983  0.86673  0.27331  1.0000
  C   C4816     1.0  0.62763  0.97733  0.27850  1.0000
  C   C4817     1.0  0.78786  0.94742  0.43095  1.0000
  C   C4818     1.0  0.87950  0.75386  0.42213  1.0000
  H   H8575     1.0  0.80353  0.87371  0.45826  1.0000
  H   H8576     1.0  0.70116  0.96977  0.41619  1.0000
  H   H8577     1.0  0.68236  0.97762  0.42203  1.0000
  H   H8578     1.0  0.89873  0.84826  0.47582  1.0000
  H   H8579     1.0  0.78133  0.84419  0.44685  1.0000
  H   H8580     1.0  0.69020  0.88240  0.32751  1.0000
  H   H8581     1.0  0.90676  0.83385  0.41720  1.0000
  H   H8582     1.0  0.84865  0.98904  0.46133  1.0000
  H   H8583     1.0  0.72612  0.98213  0.31947  1.0000
  C   C4819     1.0  0.66138  0.95893  0.45388  1.0000
  H   H8584     1.0  0.68086  0.95807  0.43738  1.0000
  C   C4820     1.0  0.73425  0.91687  0.42141  1.0000
  H   H8585     1.0  0.70096  0.85691  0.28696  1.0000
  H   H8586     1.0  0.52673  0.96788  0.34802  1.0000
  H   H8587     1.0  0.76130  0.94368  0.39742  1.0000
  H   H8588     1.0  0.61841  0.97638  0.31531  1.0000
  C   C4821     1.0  0.73043  0.98040  0.38374  1.0000
  H   H8589     1.0  0.92883  0.79571  0.47631  1.0000
  H   H8590     1.0  0.77978  0.97040  0.36886  1.0000
  H   H8591     1.0  0.52194  0.97387  0.33075  1.0000
  C   C4822     1.0  0.71457  0.98273  0.32529  1.0000
  C   C4823     1.0  0.51482  0.93185  0.32517  1.0000
  H   H8592     1.0  0.71596  0.85591  0.32625  1.0000
  C   C4824     1.0  0.66412  0.85498  0.31147  1.0000
  N   N267      1.0  0.89830  0.79404  0.48711  1.0000
  C   C4825     1.0  0.89162  0.82040  0.45100  1.0000
  H   H8593     1.0  0.68348  0.94829  0.45471  1.0000
  H   H8594     1.0  0.71336  0.85569  0.30524  1.0000
  H   H8595     1.0  0.76717  0.96817  0.38603  1.0000
  H   H8596     1.0  0.77860  0.94681  0.36615  1.0000
  H   H8597     1.0  0.83694  0.98683  0.41634  1.0000
  C   C4826     1.0  0.72631  0.97483  0.37433  1.0000
  C   C4827     1.0  0.68150  0.97154  0.45168  1.0000
  H   H8598     1.0  0.87886  0.75991  0.47756  1.0000
  S   S1081     1.0  0.96984  0.81252  0.47162  1.0000
  S   S1082     1.0  0.88281  0.97726  0.44777  1.0000
  C   C4828     1.0  0.75159  0.92095  0.39707  1.0000
  C   C4829     1.0  0.87266  0.75200  0.38627  1.0000
  C   C4830     1.0  0.76293  0.94160  0.38666  1.0000
  H   H8599     1.0  0.64766  0.98229  0.47079  1.0000
  H   H8600     1.0  0.78445  0.90668  0.44398  1.0000
  H   H8601     1.0  0.75271  0.94758  0.38308  1.0000
  S   S1083     1.0  0.99992  0.81752  0.48638  1.0000
  H   H8602     1.0  0.73587  0.89345  0.46905  1.0000
  H   H8603     1.0  0.73071  0.94599  0.26814  1.0000
  H   H8604     1.0  0.73992  0.87208  0.45026  1.0000
  H   H8605     1.0  0.76993  0.86732  0.48268  1.0000
  C   C4831     1.0  0.77793  0.91711  0.39418  1.0000
  C   C4832     1.0  0.91192  0.95276  0.46693  1.0000
  S   S1084     1.0  0.94959  0.84135  0.45495  1.0000
  C   C4833     1.0  0.83313  0.95364  0.42567  1.0000
  H   H8606     1.0  0.77632  0.90601  0.39964  1.0000
  C   C4834     1.0  0.72238  0.94252  0.27775  1.0000
  C   C4835     1.0  0.75454  0.93052  0.36507  1.0000
  C   C4836     1.0  0.70115  0.98111  0.45401  1.0000
  N   N268      1.0  0.80678  0.95335  0.44092  1.0000
  N   N269      1.0  0.76515  0.92575  0.38752  1.0000
  H   H8607     1.0  0.77855  0.92197  0.40272  1.0000
  H   H8608     1.0  0.71829  0.96028  0.33505  1.0000
  H   H8609     1.0  0.61089  0.84634  0.25116  1.0000
  H   H8610     1.0  0.69845  0.87087  0.35084  1.0000
  H   H8611     1.0  0.90719  0.79454  0.46448  1.0000
  C   C4837     1.0  0.90107  0.80204  0.47165  1.0000
  H   H8612     1.0  0.72788  0.84850  0.28201  1.0000
  C   C4838     1.0  0.72262  0.85904  0.27606  1.0000
  H   H8613     1.0  0.83800  0.94306  0.43176  1.0000
  H   H8614     1.0  0.76460  0.95047  0.44086  1.0000
  C   C4839     1.0  0.75752  0.92616  0.35082  1.0000
  C   C4840     1.0  0.62143  0.95308  0.45718  1.0000
  H   H8615     1.0  0.93897  0.86756  0.47770  1.0000
  H   H8616     1.0  0.60203  0.87843  0.23978  1.0000
  H   H8617     1.0  0.78882  0.96837  0.43266  1.0000
  H   H8618     1.0  0.88169  0.82642  0.44690  1.0000
  H   H8619     1.0  0.88276  0.75477  0.37885  1.0000
  C   C4841     1.0  0.77059  0.96530  0.37539  1.0000
  H   H8620     1.0  0.92916  0.93664  0.47530  1.0000
  S   S1085     1.0  0.82894  0.94171  0.47961  1.0000
  H   H8621     1.0  0.68996  0.85294  0.31651  1.0000
  C   C4842     1.0  0.73746  0.88313  0.45200  1.0000
  C   C4843     1.0  0.62610  0.97809  0.39425  1.0000
  C   C4844     1.0  0.93408  0.87847  0.47321  1.0000
  H   H8622     1.0  0.68538  0.88775  0.29119  1.0000
  H   H8623     1.0  0.59644  0.97050  0.45129  1.0000
  C   C4845     1.0  0.76614  0.86830  0.45766  1.0000
  H   H8624     1.0  0.78332  0.95671  0.44918  1.0000
  H   H8625     1.0  0.90835  0.80947  0.46994  1.0000
  H   H8626     1.0  0.75115  0.85335  0.46615  1.0000
  H   H8627     1.0  0.51171  0.92158  0.33145  1.0000
  H   H8628     1.0  0.62852  0.94235  0.46028  1.0000
  C   C4846     1.0  0.73125  0.97234  0.39758  1.0000
  C   C4847     1.0  0.52315  0.84305  0.27203  1.0000
  H   H8629     1.0  0.88060  0.81873  0.47290  1.0000
  H   H8630     1.0  0.77716  0.92539  0.36557  1.0000
  C   C4848     1.0  0.77302  0.91197  0.44311  1.0000
  H   H8631     1.0  0.76843  0.91958  0.45038  1.0000
  H   H8632     1.0  0.77470  0.88886  0.46411  1.0000
  H   H8633     1.0  0.80315  0.89908  0.40068  1.0000
  H   H8634     1.0  0.85661  0.75894  0.43410  1.0000
  C   C4849     1.0  0.87370  0.74837  0.40219  1.0000
  H   H8635     1.0  0.76772  0.83355  0.45478  1.0000
  H   H8636     1.0  0.57839  0.88670  0.28101  1.0000
  C   C4850     1.0  0.69338  0.97968  0.41856  1.0000
  H   H8637     1.0  0.60100  0.97694  0.46384  1.0000
  H   H8638     1.0  0.57446  0.93370  0.46298  1.0000
  C   C4851     1.0  0.80057  0.86962  0.46967  1.0000
  C   C4852     1.0  0.80519  0.90890  0.39243  1.0000
  C   C4853     1.0  0.71158  0.95021  0.45636  1.0000
  S   S1086     1.0  0.96216  0.84312  0.48184  1.0000
  H   H8639     1.0  0.74835  0.93195  0.34543  1.0000
  H   H8640     1.0  0.71355  0.85562  0.35128  1.0000
  H   H8641     1.0  0.88048  0.80435  0.46537  1.0000
  C   C4854     1.0  0.92113  0.95240  0.45181  1.0000
  C   C4855     1.0  0.89380  0.99069  0.46159  1.0000
  H   H8642     1.0  0.75071  0.99008  0.34967  1.0000
  H   H8643     1.0  0.79553  0.92444  0.37605  1.0000
  S   S1087     1.0  0.57341  0.87640  0.25903  1.0000
  C   C4856     1.0  0.71998  0.93545  0.45350  1.0000
  C   C4857     1.0  0.81689  0.95462  0.42622  1.0000
  H   H8644     1.0  0.84119  0.94739  0.40506  1.0000
  H   H8645     1.0  0.83438  0.96207  0.43020  1.0000
  C   C4858     1.0  0.64499  0.98254  0.48196  1.0000
  H   H8646     1.0  0.60223  0.94484  0.46745  1.0000
  H   H8647     1.0  0.90241  0.74400  0.38992  1.0000
  H   H8648     1.0  0.70503  0.95499  0.43618  1.0000
  H   H8649     1.0  0.56009  0.98578  0.46972  1.0000
  Fe  Fe548     1.0  0.87655  0.95580  0.45345  1.0000
  H   H8650     1.0  0.92094  0.94265  0.44858  1.0000
  H   H8651     1.0  0.71643  0.87293  0.34052  1.0000
  H   H8652     1.0  0.75262  0.90656  0.44572  1.0000
  H   H8653     1.0  0.77321  0.91812  0.43191  1.0000
  H   H8654     1.0  0.66529  0.87704  0.30576  1.0000
  H   H8655     1.0  0.79446  0.94834  0.41981  1.0000
  C   C4859     1.0  0.76942  0.84470  0.45068  1.0000
  C   C4860     1.0  0.88734  0.81125  0.46597  1.0000
  H   H8656     1.0  0.89143  0.78018  0.46927  1.0000
  H   H8657     1.0  0.72532  0.93064  0.28129  1.0000
  S   S1088     1.0  0.51016  0.97156  0.39058  1.0000
  H   H8658     1.0  0.81880  0.80276  0.45523  1.0000
  C   C4861     1.0  0.51976  0.97640  0.34141  1.0000
  H   H8659     1.0  0.71281  0.98188  0.44983  1.0000
  C   C4862     1.0  0.50745  0.91914  0.41607  1.0000
  C   C4863     1.0  0.68033  0.98447  0.36054  1.0000
  C   C4864     1.0  0.97760  0.74757  0.43694  1.0000
  C   C4865     1.0  0.50699  0.84871  0.27807  1.0000
  H   H8660     1.0  0.60824  0.95309  0.47819  1.0000
  S   S1089     1.0  0.61931  0.99118  0.44042  1.0000
  S   S1090     1.0  0.68572  0.98360  0.28800  1.0000
  C   C4866     1.0  0.57682  0.80722  0.24716  1.0000
  C   C4867     1.0  0.50779  0.95802  0.38394  1.0000
  H   H8661     1.0  0.63519  0.79080  0.24760  1.0000
  C   C4868     1.0  0.62718  0.98179  0.29237  1.0000
  H   H8662     1.0  0.71305  0.98612  0.33541  1.0000
  C   C4869     1.0  0.59148  0.82281  0.25068  1.0000
  C   C4870     1.0  0.61841  0.81895  0.24734  1.0000
  S   S1091     1.0  0.61666  0.98451  0.48142  1.0000
  S   S1092     1.0  0.55720  0.85561  0.24067  1.0000
  C   C4871     1.0  0.80021  0.97855  0.46733  1.0000
  H   H8663     1.0  0.59181  0.84917  0.25297  1.0000
  H   H8664     1.0  0.63837  0.97940  0.29415  1.0000
  C   C4872     1.0  0.88947  0.77484  0.48073  1.0000
  H   H8665     1.0  0.62502  0.96177  0.26238  1.0000
  N   N270      1.0  0.60439  0.82986  0.24554  1.0000
  H   H8666     1.0  0.83518  0.98837  0.44106  1.0000
  C   C4873     1.0  0.57968  0.97126  0.48656  1.0000
  H   H8667     1.0  0.89556  0.86763  0.47142  1.0000
  H   H8668     1.0  0.85783  0.83809  0.46563  1.0000
  C   C4874     1.0  0.60177  0.84064  0.25459  1.0000
  Fe  Fe549     1.0  0.55964  0.98413  0.36881  1.0000
  C   C4875     1.0  0.84658  0.82220  0.48102  1.0000
  H   H8669     1.0  0.63388  0.98192  0.38431  1.0000
  H   H8670     1.0  0.64646  0.95002  0.24604  1.0000
  H   H8671     1.0  0.94160  0.77071  0.48624  1.0000
  H   H8672     1.0  0.84443  0.84484  0.48020  1.0000
  H   H8673     1.0  0.82168  0.98867  0.48730  1.0000
  H   H8674     1.0  0.52272  0.98678  0.34006  1.0000
  H   H8675     1.0  0.61507  0.98510  0.39426  1.0000
  H   H8676     1.0  0.65789  0.98831  0.37144  1.0000
  H   H8677     1.0  0.75304  0.86235  0.48626  1.0000
  H   H8678     1.0  0.93517  0.95334  0.48138  1.0000
  H   H8679     1.0  0.79054  0.98314  0.47497  1.0000
  H   H8680     1.0  0.56195  0.96055  0.47776  1.0000
  H   H8681     1.0  0.83872  0.84154  0.46590  1.0000
  C   C4876     1.0  0.89770  0.85784  0.47996  1.0000
  H   H8682     1.0  0.70728  0.98811  0.42600  1.0000
  H   H8683     1.0  0.68836  0.99042  0.35271  1.0000
  H   H8684     1.0  0.62376  0.88424  0.24320  1.0000
  H   H8685     1.0  0.86664  0.77624  0.48162  1.0000
  C   C4877     1.0  0.63747  0.95827  0.24181  1.0000
  S   S1093     1.0  0.54363  0.98785  0.38933  1.0000
  H   H8686     1.0  0.60239  0.98964  0.42452  1.0000
  C   C4878     1.0  0.84688  0.83763  0.47271  1.0000
  H   H8687     1.0  0.86926  0.74210  0.37102  1.0000
  H   H8688     1.0  0.90824  0.85706  0.48258  1.0000
  H   H8689     1.0  0.70743  0.99092  0.31861  1.0000
  C   C4879     1.0  0.64672  0.99137  0.26564  1.0000
  H   H8690     1.0  0.89911  0.76611  0.48240  1.0000
  H   H8691     1.0  0.84956  0.81541  0.47310  1.0000
  H   H8692     1.0  0.82280  0.82786  0.48528  1.0000
  H   H8693     1.0  0.50859  0.95465  0.44217  1.0000
  H   H8694     1.0  0.73307  0.99085  0.38030  1.0000
  H   H8695     1.0  0.85510  0.81865  0.48739  1.0000
  S   S1094     1.0  0.51511  0.87402  0.23767  1.0000
  H   H8696     1.0  0.50553  0.78613  0.23751  1.0000
  H   H8697     1.0  0.95886  0.83656  0.54649  1.0000
  H   H8698     1.0  0.93902  0.82596  0.54669  1.0000
  C   C4880     1.0  0.92330  0.83699  0.53378  1.0000
  C   C4881     1.0  0.59211  0.97145  0.61064  1.0000
  Fe  Fe550     1.0  0.88538  0.77501  0.56956  1.0000
  C   C4882     1.0  0.91457  0.95141  0.49742  1.0000
  H   H8699     1.0  0.92781  0.89558  0.51136  1.0000
  H   H8700     1.0  0.88299  0.91091  0.51427  1.0000
  S   S1095     1.0  0.93841  0.77209  0.54363  1.0000
  H   H8701     1.0  0.93949  0.81758  0.53277  1.0000
  C   C4883     1.0  0.88353  0.81056  0.52098  1.0000
  H   H8702     1.0  0.57357  0.93859  0.59778  1.0000
  S   S1096     1.0  0.86884  0.79370  0.57712  1.0000
  H   H8703     1.0  0.76263  0.95948  0.56934  1.0000
  H   H8704     1.0  0.94726  0.84678  0.52715  1.0000
  S   S1097     1.0  0.62200  0.95693  0.70038  1.0000
  C   C4884     1.0  0.86911  0.83799  0.53962  1.0000
  N   N271      1.0  0.69916  0.91573  0.71328  1.0000
  H   H8705     1.0  0.93549  0.76750  0.58064  1.0000
  H   H8706     1.0  0.77600  0.96883  0.59599  1.0000
  S   S1098     1.0  0.55220  0.97510  0.65663  1.0000
  C   C4885     1.0  0.75054  0.87261  0.50856  1.0000
  H   H8707     1.0  0.91032  0.77718  0.50127  1.0000
  S   S1099     1.0  0.55693  0.96952  0.69553  1.0000
  H   H8708     1.0  0.67694  0.91284  0.72059  1.0000
  S   S1100     1.0  0.58703  0.96435  0.62908  1.0000
  C   C4886     1.0  0.52453  0.96096  0.61042  1.0000
  Fe  Fe551     1.0  0.62592  0.93941  0.71935  1.0000
  Fe  Fe552     1.0  0.65803  0.96497  0.56381  1.0000
  C   C4887     1.0  0.73966  0.96295  0.66838  1.0000
  S   S1101     1.0  0.66675  0.94374  0.57721  1.0000
  C   C4888     1.0  0.98411  0.86182  0.50811  1.0000
  C   C4889     1.0  0.93848  0.82799  0.53531  1.0000
  H   H8709     1.0  0.91518  0.87947  0.49063  1.0000
  S   S1102     1.0  0.64493  0.96670  0.54808  1.0000
  C   C4890     1.0  0.51193  0.96502  0.65725  1.0000
  Fe  Fe553     1.0  0.70200  0.93791  0.63615  1.0000
  S   S1103     1.0  0.72424  0.94094  0.63381  1.0000
  S   S1104     1.0  0.68685  0.95674  0.62586  1.0000
  Fe  Fe554     1.0  0.70810  0.90825  0.65418  1.0000
  S   S1105     1.0  0.73127  0.90848  0.65323  1.0000
  S   S1106     1.0  0.69855  0.88899  0.66602  1.0000
  Fe  Fe555     1.0  0.72151  0.93073  0.65699  1.0000
  S   S1107     1.0  0.72926  0.93934  0.67131  1.0000
  Fe  Fe556     1.0  0.73223  0.91870  0.62991  1.0000
  S   S1108     1.0  0.75187  0.91771  0.61145  1.0000
  S   S1109     1.0  0.69831  0.92970  0.65990  1.0000
  S   S1110     1.0  0.70998  0.91637  0.63042  1.0000
  Fe  Fe557     1.0  0.81377  0.88182  0.54052  1.0000
  S   S1111     1.0  0.78984  0.89021  0.54136  1.0000
  S   S1112     1.0  0.82924  0.89578  0.53798  1.0000
  Fe  Fe558     1.0  0.81316  0.85148  0.54025  1.0000
  S   S1113     1.0  0.78911  0.85725  0.54105  1.0000
  S   S1114     1.0  0.82719  0.83037  0.53534  1.0000
  Fe  Fe559     1.0  0.79356  0.87727  0.52505  1.0000
  S   S1115     1.0  0.78544  0.88642  0.50475  1.0000
  Fe  Fe560     1.0  0.78741  0.86960  0.55747  1.0000
  S   S1116     1.0  0.76864  0.86863  0.57688  1.0000
  S   S1117     1.0  0.81766  0.87060  0.52286  1.0000
  S   S1118     1.0  0.81124  0.86212  0.55805  1.0000
  H   H8710     1.0  0.84052  0.98052  0.48806  1.0000
  C   C4891     1.0  0.83801  0.81989  0.54755  1.0000
  C   C4892     1.0  0.83735  0.82409  0.56000  1.0000
  H   H8711     1.0  0.77545  0.92001  0.62889  1.0000
  C   C4893     1.0  0.84787  0.80733  0.54443  1.0000
  H   H8712     1.0  0.82974  0.83370  0.56256  1.0000
  S   S1119     1.0  0.91529  0.74354  0.55695  1.0000
  H   H8713     1.0  0.84850  0.80417  0.53477  1.0000
  C   C4894     1.0  0.79221  0.87409  0.49365  1.0000
  H   H8714     1.0  0.89014  0.95241  0.48954  1.0000
  C   C4895     1.0  0.87094  0.88837  0.51481  1.0000
  H   H8715     1.0  0.95835  0.78341  0.51868  1.0000
  H   H8716     1.0  0.51219  0.96804  0.59360  1.0000
  H   H8717     1.0  0.96848  0.85572  0.52746  1.0000
  H   H8718     1.0  0.86981  0.97766  0.49874  1.0000
  H   H8719     1.0  0.66213  0.95935  0.72582  1.0000
  C   C4896     1.0  0.62746  0.98241  0.50458  1.0000
  H   H8720     1.0  0.68430  0.97019  0.71193  1.0000
  H   H8721     1.0  0.67786  0.86728  0.71520  1.0000
  C   C4897     1.0  0.75646  0.90389  0.60211  1.0000
  C   C4898     1.0  0.74899  0.89275  0.60664  1.0000
  C   C4899     1.0  0.75286  0.88193  0.59887  1.0000
  C   C4900     1.0  0.76423  0.88217  0.58658  1.0000
  C   C4901     1.0  0.77171  0.89331  0.58209  1.0000
  C   C4902     1.0  0.76780  0.90416  0.58982  1.0000
  H   H8722     1.0  0.74034  0.89240  0.61620  1.0000
  H   H8723     1.0  0.74711  0.87327  0.60242  1.0000
  H   H8724     1.0  0.78055  0.89355  0.57270  1.0000
  H   H8725     1.0  0.77366  0.91272  0.58631  1.0000
  H   H8726     1.0  0.56177  0.92957  0.73369  1.0000
  H   H8727     1.0  0.88798  0.82040  0.51643  1.0000
  S   S1120     1.0  0.60559  0.98915  0.56268  1.0000
  C   C4903     1.0  0.72953  0.95766  0.66504  1.0000
  H   H8728     1.0  0.78951  0.85548  0.51075  1.0000
  C   C4904     1.0  0.97587  0.83804  0.51588  1.0000
  H   H8729     1.0  0.71492  0.91081  0.72646  1.0000
  H   H8730     1.0  0.56464  0.94615  0.58299  1.0000
  H   H8731     1.0  0.71185  0.96299  0.65431  1.0000
  H   H8732     1.0  0.86455  0.82867  0.54063  1.0000
  C   C4905     1.0  0.66895  0.89007  0.71039  1.0000
  C   C4906     1.0  0.66880  0.90284  0.69983  1.0000
  C   C4907     1.0  0.67786  0.90269  0.68609  1.0000
  C   C4908     1.0  0.68681  0.88974  0.68288  1.0000
  C   C4909     1.0  0.68646  0.87698  0.69333  1.0000
  C   C4910     1.0  0.67774  0.87717  0.70709  1.0000
  H   H8733     1.0  0.66188  0.91282  0.70229  1.0000
  H   H8734     1.0  0.67778  0.91251  0.67795  1.0000
  H   H8735     1.0  0.69327  0.86695  0.69086  1.0000
  S   S1121     1.0  0.88115  0.75298  0.57383  1.0000
  H   H8736     1.0  0.57233  0.91150  0.73418  1.0000
  H   H8737     1.0  0.87125  0.89721  0.50505  1.0000
  S   S1122     1.0  0.62249  0.91732  0.72257  1.0000
  H   H8738     1.0  0.85537  0.86664  0.50532  1.0000
  H   H8739     1.0  0.97611  0.83747  0.50484  1.0000
  H   H8740     1.0  0.99378  0.81060  0.51841  1.0000
  H   H8741     1.0  0.70579  0.98979  0.57479  1.0000
  H   H8742     1.0  0.95145  0.75418  0.59716  1.0000
  H   H8743     1.0  0.55623  0.97790  0.61436  1.0000
  C   C4911     1.0  0.67308  0.94714  0.59035  1.0000
  C   C4912     1.0  0.67681  0.93599  0.60177  1.0000
  C   C4913     1.0  0.68164  0.93881  0.61243  1.0000
  C   C4914     1.0  0.68253  0.95279  0.61177  1.0000
  C   C4915     1.0  0.67903  0.96385  0.60023  1.0000
  C   C4916     1.0  0.67435  0.96103  0.58950  1.0000
  H   H8744     1.0  0.67574  0.92526  0.60248  1.0000
  H   H8745     1.0  0.68396  0.93032  0.62149  1.0000
  H   H8746     1.0  0.67999  0.97460  0.59949  1.0000
  H   H8747     1.0  0.67167  0.96965  0.58061  1.0000
  H   H8748     1.0  0.51703  0.94871  0.59992  1.0000
  C   C4917     1.0  0.60381  0.96355  0.60224  1.0000
  C   C4918     1.0  0.58666  0.94849  0.57839  1.0000
  H   H8749     1.0  0.60972  0.95323  0.60715  1.0000
  H   H8750     1.0  0.61742  0.96312  0.58111  1.0000
  H   H8751     1.0  0.86566  0.86745  0.53462  1.0000
  C   C4919     1.0  0.89302  0.80493  0.49639  1.0000
  H   H8752     1.0  0.85366  0.89926  0.49497  1.0000
  H   H8753     1.0  0.93736  0.94309  0.49909  1.0000
  H   H8754     1.0  0.87518  0.85873  0.49020  1.0000
  H   H8755     1.0  0.66139  0.98032  0.70454  1.0000
  C   C4920     1.0  0.94354  0.75760  0.57833  1.0000
  C   C4921     1.0  0.57403  0.96697  0.69923  1.0000
  C   C4922     1.0  0.58262  0.97693  0.69180  1.0000
  C   C4923     1.0  0.59733  0.97375  0.69215  1.0000
  C   C4924     1.0  0.60335  0.96094  0.70065  1.0000
  C   C4925     1.0  0.59439  0.95152  0.70928  1.0000
  C   C4926     1.0  0.57974  0.95445  0.70842  1.0000
  C   C4927     1.0  0.98177  0.82780  0.54449  1.0000
  H   H8756     1.0  0.60399  0.98130  0.68593  1.0000
  H   H8757     1.0  0.59884  0.94171  0.71617  1.0000
  H   H8758     1.0  0.57306  0.94683  0.71444  1.0000
  C   C4928     1.0  0.93228  0.81249  0.50848  1.0000
  S   S1123     1.0  0.64187  0.98175  0.57453  1.0000
  C   C4929     1.0  0.94792  0.79094  0.51925  1.0000
  C   C4930     1.0  0.93620  0.78808  0.53064  1.0000
  C   C4931     1.0  0.92079  0.81003  0.52025  1.0000
  H   H8759     1.0  0.76146  0.86620  0.51019  1.0000
  H   H8760     1.0  0.73901  0.96539  0.63059  1.0000
  H   H8761     1.0  0.91041  0.81756  0.52080  1.0000
  H   H8762     1.0  0.93574  0.77463  0.50396  1.0000
  H   H8763     1.0  0.88401  0.87988  0.53146  1.0000
  H   H8764     1.0  0.59473  0.94894  0.58404  1.0000
  C   C4932     1.0  0.75159  0.88147  0.49319  1.0000
  H   H8765     1.0  0.88115  0.83430  0.53795  1.0000
  C   C4933     1.0  0.82823  0.92996  0.49648  1.0000
  C   C4934     1.0  0.81705  0.92243  0.50234  1.0000
  C   C4935     1.0  0.81722  0.91206  0.51521  1.0000
  C   C4936     1.0  0.82830  0.90952  0.52248  1.0000
  C   C4937     1.0  0.83906  0.91760  0.51698  1.0000
  C   C4938     1.0  0.83918  0.92760  0.50386  1.0000
  H   H8766     1.0  0.51485  0.95546  0.66524  1.0000
  H   H8767     1.0  0.80888  0.90589  0.51934  1.0000
  H   H8768     1.0  0.84744  0.91595  0.52272  1.0000
  H   H8769     1.0  0.84768  0.93356  0.49952  1.0000
  H   H8770     1.0  0.78010  0.98592  0.60575  1.0000
  H   H8771     1.0  0.77940  0.97842  0.62461  1.0000
  H   H8772     1.0  0.82645  0.78819  0.49152  1.0000
  C   C4939     1.0  0.73124  0.98665  0.65427  1.0000
  Fe  Fe561     1.0  0.63000  0.98503  0.55737  1.0000
  C   C4940     1.0  0.93837  0.77937  0.49227  1.0000
  H   H8773     1.0  0.91418  0.75224  0.52592  1.0000
  H   H8774     1.0  0.91385  0.79605  0.54047  1.0000
  H   H8775     1.0  0.74706  0.95580  0.67490  1.0000
  H   H8776     1.0  0.98695  0.79372  0.50799  1.0000
  H   H8777     1.0  0.52471  0.95225  0.62021  1.0000
  C   C4941     1.0  0.85718  0.79906  0.55359  1.0000
  C   C4942     1.0  0.92274  0.79784  0.53135  1.0000
  C   C4943     1.0  0.91626  0.92494  0.50294  1.0000
  C   C4944     1.0  0.51673  0.97741  0.65598  1.0000
  N   N272      1.0  0.82881  0.80637  0.49786  1.0000
  H   H8778     1.0  0.80852  0.92424  0.49674  1.0000
  C   C4945     1.0  0.83969  0.79842  0.50707  1.0000
  C   C4946     1.0  0.81337  0.80752  0.50667  1.0000
  C   C4947     1.0  0.83142  0.82131  0.49116  1.0000
  C   C4948     1.0  0.79646  0.84997  0.49006  1.0000
  H   H8779     1.0  0.95494  0.80511  0.49933  1.0000
  C   C4949     1.0  0.80968  0.81448  0.51973  1.0000
  C   C4950     1.0  0.83766  0.78328  0.51605  1.0000
  C   C4951     1.0  0.84988  0.77574  0.52411  1.0000
  C   C4952     1.0  0.61080  0.99117  0.71193  1.0000
  S   S1124     1.0  0.89623  0.77596  0.54640  1.0000
  C   C4953     1.0  0.79391  0.81476  0.52795  1.0000
  H   H8780     1.0  0.52181  0.97313  0.69556  1.0000
  C   C4954     1.0  0.63802  0.85103  0.72789  1.0000
  H   H8781     1.0  0.85089  0.79686  0.50027  1.0000
  H   H8782     1.0  0.83979  0.80495  0.51444  1.0000
  H   H8783     1.0  0.81056  0.79678  0.51059  1.0000
  H   H8784     1.0  0.91122  0.95056  0.50920  1.0000
  H   H8785     1.0  0.93114  0.99006  0.53806  1.0000
  H   H8786     1.0  0.83049  0.82708  0.49956  1.0000
  C   C4955     1.0  0.57188  0.94798  0.58877  1.0000
  H   H8787     1.0  0.67966  0.98105  0.72484  1.0000
  H   H8788     1.0  0.76315  0.95730  0.63419  1.0000
  C   C4956     1.0  0.70553  0.90102  0.70979  1.0000
  H   H8789     1.0  0.81090  0.82578  0.51627  1.0000
  H   H8790     1.0  0.81677  0.80844  0.52737  1.0000
  H   H8791     1.0  0.82718  0.78402  0.52412  1.0000
  H   H8792     1.0  0.83782  0.77629  0.50908  1.0000
  H   H8793     1.0  0.86074  0.77496  0.51665  1.0000
  H   H8794     1.0  0.84947  0.78153  0.53227  1.0000
  H   H8795     1.0  0.84857  0.76467  0.52977  1.0000
  S   S1125     1.0  0.92911  0.82672  0.49387  1.0000
  N   N273      1.0  0.96602  0.82888  0.52677  1.0000
  C   C4957     1.0  0.88396  0.87131  0.49959  1.0000
  H   H8796     1.0  0.92223  0.83933  0.52250  1.0000
  H   H8797     1.0  0.86066  0.89179  0.52255  1.0000
  C   C4958     1.0  0.65249  0.98303  0.50297  1.0000
  H   H8798     1.0  0.79203  0.80367  0.53216  1.0000
  H   H8799     1.0  0.79164  0.81987  0.53716  1.0000
  H   H8800     1.0  0.78625  0.82115  0.52093  1.0000
  C   C4959     1.0  0.87158  0.86288  0.52499  1.0000
  C   C4960     1.0  0.68605  0.95259  0.68840  1.0000
  H   H8801     1.0  0.59316  0.96220  0.51001  1.0000
  H   H8802     1.0  0.88310  0.85866  0.52609  1.0000
  C   C4961     1.0  0.96978  0.81428  0.52323  1.0000
  C   C4962     1.0  0.73068  0.98209  0.61390  1.0000
  H   H8803     1.0  0.93315  0.74879  0.50398  1.0000
  C   C4963     1.0  0.72065  0.98152  0.65143  1.0000
  H   H8804     1.0  0.93871  0.75199  0.57325  1.0000
  H   H8805     1.0  0.96229  0.85978  0.51115  1.0000
  C   C4964     1.0  0.95053  0.83576  0.52513  1.0000
  H   H8806     1.0  0.65883  0.99153  0.60864  1.0000
  H   H8807     1.0  0.84730  0.87939  0.51606  1.0000
  H   H8808     1.0  0.98738  0.83380  0.51677  1.0000
  H   H8809     1.0  0.69662  0.89559  0.71088  1.0000
  H   H8810     1.0  0.67507  0.98807  0.62559  1.0000
  H   H8811     1.0  0.96348  0.81762  0.54899  1.0000
  H   H8812     1.0  0.71195  0.97365  0.62796  1.0000
  H   H8813     1.0  0.90299  0.79485  0.51495  1.0000
  C   C4965     1.0  0.66415  0.98671  0.71058  1.0000
  C   C4966     1.0  0.98503  0.80486  0.52467  1.0000
  H   H8814     1.0  0.65378  0.98986  0.71837  1.0000
  H   H8815     1.0  0.70799  0.90467  0.68653  1.0000
  S   S1126     1.0  0.65879  0.88986  0.72799  1.0000
  H   H8816     1.0  0.92830  0.96573  0.50811  1.0000
  H   H8817     1.0  0.86820  0.84529  0.51742  1.0000
  H   H8818     1.0  0.73419  0.98695  0.60240  1.0000
  H   H8819     1.0  0.52043  0.97154  0.61337  1.0000
  C   C4967     1.0  0.71987  0.96699  0.65672  1.0000
  H   H8820     1.0  0.74870  0.98129  0.66527  1.0000
  H   H8821     1.0  0.89441  0.88558  0.51366  1.0000
  C   C4968     1.0  0.84672  0.81586  0.56915  1.0000
  C   C4969     1.0  0.88676  0.78554  0.49034  1.0000
  C   C4970     1.0  0.76725  0.96481  0.57490  1.0000
  H   H8822     1.0  0.70341  0.92809  0.72587  1.0000
  H   H8823     1.0  0.87595  0.79288  0.48981  1.0000
  H   H8824     1.0  0.68601  0.93290  0.55188  1.0000
  H   H8825     1.0  0.73044  0.88028  0.70040  1.0000
  H   H8826     1.0  0.89166  0.90202  0.52909  1.0000
  C   C4971     1.0  0.63070  0.98273  0.48992  1.0000
  H   H8827     1.0  0.68902  0.98740  0.69013  1.0000
  H   H8828     1.0  0.87185  0.81340  0.52052  1.0000
  C   C4972     1.0  0.85664  0.87668  0.50711  1.0000
  H   H8829     1.0  0.83975  0.87869  0.48797  1.0000
  H   H8830     1.0  0.72910  0.99028  0.62010  1.0000
  H   H8831     1.0  0.86469  0.84177  0.54979  1.0000
  C   C4973     1.0  0.85427  0.88848  0.49344  1.0000
  H   H8832     1.0  0.63554  0.98323  0.52221  1.0000
  H   H8833     1.0  0.98632  0.86201  0.49653  1.0000
  C   C4974     1.0  0.53989  0.95984  0.60042  1.0000
  H   H8834     1.0  0.84629  0.81922  0.57870  1.0000
  C   C4975     1.0  0.50453  0.98972  0.63654  1.0000
  H   H8835     1.0  0.69197  0.94561  0.70885  1.0000
  C   C4976     1.0  0.71498  0.90034  0.69450  1.0000
  H   H8836     1.0  0.96208  0.80757  0.53036  1.0000
  H   H8837     1.0  0.69720  0.95368  0.68223  1.0000
  H   H8838     1.0  0.72917  0.91931  0.70162  1.0000
  C   C4977     1.0  0.68667  0.94175  0.70266  1.0000
  H   H8839     1.0  0.70299  0.92509  0.54100  1.0000
  C   C4978     1.0  0.73126  0.93085  0.71569  1.0000
  H   H8840     1.0  0.51047  0.96751  0.68755  1.0000
  C   C4979     1.0  0.69706  0.93448  0.54583  1.0000
  H   H8841     1.0  0.68064  0.92511  0.72834  1.0000
  H   H8842     1.0  0.66117  0.84287  0.71959  1.0000
  H   H8843     1.0  0.70770  0.98824  0.61335  1.0000
  C   C4980     1.0  0.93238  0.96596  0.49648  1.0000
  Fe  Fe562     1.0  0.89360  0.75336  0.55115  1.0000
  N   N274      1.0  0.71814  0.92209  0.57659  1.0000
  C   C4981     1.0  0.70647  0.92354  0.56881  1.0000
  C   C4982     1.0  0.71564  0.91135  0.59068  1.0000
  C   C4983     1.0  0.71627  0.93648  0.57999  1.0000
  C   C4984     1.0  0.73345  0.91794  0.56788  1.0000
  C   C4985     1.0  0.73563  0.90855  0.55704  1.0000
  C   C4986     1.0  0.70547  0.93640  0.55569  1.0000
  C   C4987     1.0  0.72601  0.93692  0.58962  1.0000
  C   C4988     1.0  0.71631  0.89583  0.58994  1.0000
  C   C4989     1.0  0.71161  0.88675  0.60490  1.0000
  C   C4990     1.0  0.75175  0.90386  0.55026  1.0000
  Fe  Fe563     1.0  0.91680  0.76619  0.55443  1.0000
  C   C4991     1.0  0.72503  0.95231  0.59025  1.0000
  H   H8844     1.0  0.69555  0.92480  0.57626  1.0000
  H   H8845     1.0  0.70767  0.91360  0.56524  1.0000
  H   H8846     1.0  0.72396  0.91018  0.59676  1.0000
  H   H8847     1.0  0.70490  0.91533  0.59754  1.0000
  H   H8848     1.0  0.70474  0.94042  0.58531  1.0000
  H   H8849     1.0  0.71858  0.94475  0.56997  1.0000
  H   H8850     1.0  0.73765  0.92768  0.56145  1.0000
  H   H8851     1.0  0.74113  0.91225  0.57513  1.0000
  H   H8852     1.0  0.73008  0.91470  0.54819  1.0000
  H   H8853     1.0  0.73125  0.89876  0.56213  1.0000
  H   H8854     1.0  0.69960  0.94646  0.55945  1.0000
  H   H8855     1.0  0.71645  0.93783  0.54931  1.0000
  H   H8856     1.0  0.73760  0.93199  0.58561  1.0000
  H   H8857     1.0  0.72232  0.93112  0.60078  1.0000
  H   H8858     1.0  0.70906  0.89551  0.58337  1.0000
  H   H8859     1.0  0.72769  0.89064  0.58550  1.0000
  H   H8860     1.0  0.70006  0.89113  0.60971  1.0000
  H   H8861     1.0  0.71269  0.87554  0.60419  1.0000
  H   H8862     1.0  0.71859  0.88654  0.61204  1.0000
  H   H8863     1.0  0.75780  0.89717  0.55859  1.0000
  H   H8864     1.0  0.75303  0.89732  0.54243  1.0000
  H   H8865     1.0  0.75662  0.91333  0.54458  1.0000
  C   C4992     1.0  0.97167  0.85423  0.51630  1.0000
  C   C4993     1.0  0.60812  0.96910  0.58752  1.0000
  H   H8866     1.0  0.71197  0.89386  0.71770  1.0000
  H   H8867     1.0  0.73141  0.95206  0.59793  1.0000
  H   H8868     1.0  0.72957  0.95855  0.57957  1.0000
  H   H8869     1.0  0.71351  0.95769  0.59403  1.0000
  N   N275      1.0  0.75783  0.97036  0.61425  1.0000
  C   C4994     1.0  0.74226  0.96865  0.61872  1.0000
  C   C4995     1.0  0.76700  0.95756  0.62248  1.0000
  C   C4996     1.0  0.72184  0.92688  0.70816  1.0000
  C   C4997     1.0  0.76389  0.97223  0.59826  1.0000
  C   C4998     1.0  0.75819  0.96442  0.59018  1.0000
  H   H8870     1.0  0.87400  0.76242  0.49563  1.0000
  H   H8871     1.0  0.76704  0.97608  0.56883  1.0000
  C   C4999     1.0  0.76750  0.94261  0.62029  1.0000
  C   C5000     1.0  0.77503  0.93056  0.63094  1.0000
  C   C5001     1.0  0.54746  0.97674  0.60996  1.0000
  C   C5002     1.0  0.71588  0.97840  0.61649  1.0000
  N   N276      1.0  0.87082  0.87451  0.51144  1.0000
  S   S1127     1.0  0.64726  0.93212  0.72600  1.0000
  H   H8872     1.0  0.74105  0.95985  0.61474  1.0000
  H   H8873     1.0  0.77856  0.95847  0.61957  1.0000
  H   H8874     1.0  0.68909  0.89207  0.73633  1.0000
  H   H8875     1.0  0.59075  0.93865  0.57399  1.0000
  H   H8876     1.0  0.57381  0.96494  0.59736  1.0000
  C   C5003     1.0  0.54459  0.99022  0.59782  1.0000
  C   C5004     1.0  0.83994  0.88916  0.48975  1.0000
  H   H8877     1.0  0.74679  0.96985  0.58940  1.0000
  H   H8878     1.0  0.75831  0.95304  0.59558  1.0000
  H   H8879     1.0  0.80552  0.81399  0.49990  1.0000
  H   H8880     1.0  0.98399  0.83875  0.54034  1.0000
  Fe  Fe564     1.0  0.55858  0.98238  0.67276  1.0000
  C   C5005     1.0  0.92263  0.74644  0.50544  1.0000
  H   H8881     1.0  0.75648  0.94078  0.62189  1.0000
  H   H8882     1.0  0.77382  0.94144  0.60938  1.0000
  H   H8883     1.0  0.76881  0.93083  0.64210  1.0000
  C   C5006     1.0  0.96686  0.82760  0.54200  1.0000
  H   H8884     1.0  0.78635  0.93152  0.62976  1.0000
  C   C5007     1.0  0.87651  0.98132  0.48837  1.0000
  C   C5008     1.0  0.79269  0.85942  0.49930  1.0000
  H   H8885     1.0  0.53241  0.88317  0.71868  1.0000
  H   H8886     1.0  0.91492  0.83093  0.54069  1.0000
  H   H8887     1.0  0.70463  0.92774  0.69140  1.0000
  H   H8888     1.0  0.99103  0.82048  0.53904  1.0000
  H   H8889     1.0  0.56306  0.97063  0.58429  1.0000
  H   H8890     1.0  0.59785  0.97542  0.72167  1.0000
  C   C5009     1.0  0.85674  0.80341  0.56590  1.0000
  H   H8891     1.0  0.88197  0.81133  0.49516  1.0000
  N   N277      1.0  0.64217  0.94937  0.65242  1.0000
  C   C5010     1.0  0.63424  0.95307  0.64045  1.0000
  C   C5011     1.0  0.63147  0.94640  0.66657  1.0000
  C   C5012     1.0  0.64743  0.96251  0.65175  1.0000
  C   C5013     1.0  0.65521  0.93687  0.65130  1.0000
  C   C5014     1.0  0.65435  0.92485  0.64464  1.0000
  C   C5015     1.0  0.64282  0.95925  0.62538  1.0000
  C   C5016     1.0  0.65407  0.96196  0.66434  1.0000
  C   C5017     1.0  0.62448  0.93340  0.66938  1.0000
  C   C5018     1.0  0.61251  0.93266  0.68305  1.0000
  C   C5019     1.0  0.66626  0.91139  0.64776  1.0000
  C   C5020     1.0  0.63543  0.95976  0.61366  1.0000
  C   C5021     1.0  0.66247  0.97386  0.66058  1.0000
  H   H8892     1.0  0.62385  0.96117  0.64269  1.0000
  H   H8893     1.0  0.63081  0.94365  0.63969  1.0000
  H   H8894     1.0  0.63685  0.94412  0.67564  1.0000
  H   H8895     1.0  0.62254  0.95613  0.66776  1.0000
  H   H8896     1.0  0.63837  0.97222  0.65107  1.0000
  H   H8897     1.0  0.65601  0.96460  0.64182  1.0000
  H   H8898     1.0  0.66523  0.94066  0.64472  1.0000
  H   H8899     1.0  0.65771  0.93176  0.66207  1.0000
  H   H8900     1.0  0.65589  0.92859  0.63284  1.0000
  H   H8901     1.0  0.64376  0.92162  0.64867  1.0000
  H   H8902     1.0  0.64358  0.97040  0.62454  1.0000
  H   H8903     1.0  0.65397  0.95265  0.62324  1.0000
  H   H8904     1.0  0.66168  0.95150  0.66711  1.0000
  H   H8905     1.0  0.64524  0.96359  0.67395  1.0000
  H   H8906     1.0  0.61943  0.93394  0.66056  1.0000
  H   H8907     1.0  0.63285  0.92326  0.67092  1.0000
  H   H8908     1.0  0.61695  0.93194  0.69236  1.0000
  H   H8909     1.0  0.60345  0.94230  0.68197  1.0000
  H   H8910     1.0  0.60812  0.92295  0.68512  1.0000
  H   H8911     1.0  0.66619  0.90337  0.64197  1.0000
  H   H8912     1.0  0.67719  0.91402  0.64421  1.0000
  H   H8913     1.0  0.66437  0.90644  0.65941  1.0000
  H   H8914     1.0  0.63454  0.94884  0.61376  1.0000
  H   H8915     1.0  0.62442  0.96697  0.61508  1.0000
  H   H8916     1.0  0.64205  0.96399  0.60307  1.0000
  H   H8917     1.0  0.65554  0.98451  0.65690  1.0000
  H   H8918     1.0  0.66592  0.97415  0.67015  1.0000
  H   H8919     1.0  0.67238  0.97183  0.65198  1.0000
  H   H8920     1.0  0.61645  0.98245  0.51082  1.0000
  H   H8921     1.0  0.71652  0.97079  0.61000  1.0000
  H   H8922     1.0  0.86475  0.78938  0.55110  1.0000
  C   C5022     1.0  0.69491  0.92653  0.70028  1.0000
  C   C5023     1.0  0.88249  0.90255  0.52436  1.0000
  H   H8923     1.0  0.89416  0.86906  0.50339  1.0000
  H   H8924     1.0  0.71729  0.93693  0.70107  1.0000
  H   H8925     1.0  0.72845  0.88462  0.68215  1.0000
  H   H8926     1.0  0.98037  0.81233  0.56502  1.0000
  S   S1128     1.0  0.90624  0.76705  0.57729  1.0000
  H   H8927     1.0  0.59936  0.88003  0.72389  1.0000
  C   C5024     1.0  0.86481  0.84990  0.52702  1.0000
  H   H8928     1.0  0.98100  0.87311  0.50935  1.0000
  C   C5025     1.0  0.50336  0.96496  0.64820  1.0000
  H   H8929     1.0  0.93709  0.74516  0.59943  1.0000
  H   H8930     1.0  0.96866  0.81550  0.51210  1.0000
  H   H8931     1.0  0.94712  0.98639  0.54531  1.0000
  H   H8932     1.0  0.69581  0.94425  0.53709  1.0000
  C   C5026     1.0  0.88611  0.94245  0.51185  1.0000
  C   C5027     1.0  0.94597  0.80319  0.50822  1.0000
  Fe  Fe565     1.0  0.57249  0.98064  0.64156  1.0000
  H   H8933     1.0  0.92118  0.84727  0.53713  1.0000
  H   H8934     1.0  0.74301  0.86527  0.51109  1.0000
  C   C5028     1.0  0.86984  0.94362  0.51351  1.0000
  C   C5029     1.0  0.51354  0.95919  0.60316  1.0000
  H   H8935     1.0  0.99419  0.85638  0.51219  1.0000
  C   C5030     1.0  0.60022  0.98220  0.58104  1.0000
  H   H8936     1.0  0.92619  0.97582  0.49037  1.0000
  H   H8937     1.0  0.56195  0.90906  0.71561  1.0000
  C   C5031     1.0  0.58257  0.95913  0.51200  1.0000
  H   H8938     1.0  0.64948  0.84456  0.70785  1.0000
  H   H8939     1.0  0.65361  0.86041  0.70973  1.0000
  H   H8940     1.0  0.57524  0.99075  0.61047  1.0000
  H   H8941     1.0  0.91601  0.92621  0.51375  1.0000
  H   H8942     1.0  0.67971  0.96327  0.69038  1.0000
  H   H8943     1.0  0.97301  0.83092  0.56634  1.0000
  H   H8944     1.0  0.88715  0.95200  0.51485  1.0000
  H   H8945     1.0  0.89018  0.93268  0.51956  1.0000
  H   H8946     1.0  0.53887  0.96727  0.58990  1.0000
  H   H8947     1.0  0.83057  0.89200  0.49852  1.0000
  C   C5032     1.0  0.68542  0.91475  0.72484  1.0000
  H   H8948     1.0  0.52283  0.97759  0.66334  1.0000
  N   N278      1.0  0.55162  0.96234  0.60591  1.0000
  H   H8949     1.0  0.50382  0.97078  0.70536  1.0000
  H   H8950     1.0  0.88430  0.80666  0.53238  1.0000
  Fe  Fe566     1.0  0.64252  0.91018  0.73148  1.0000
  H   H8951     1.0  0.77870  0.95895  0.57501  1.0000
  H   H8952     1.0  0.67625  0.95584  0.73547  1.0000
  H   H8953     1.0  0.72459  0.93882  0.72218  1.0000
  H   H8954     1.0  0.86401  0.94394  0.52476  1.0000
  H   H8955     1.0  0.86510  0.95358  0.50638  1.0000
  H   H8956     1.0  0.86800  0.93426  0.51085  1.0000
  N   N279      1.0  0.54249  0.92993  0.70006  1.0000
  C   C5033     1.0  0.55516  0.92547  0.68827  1.0000
  C   C5034     1.0  0.53243  0.91962  0.70441  1.0000
  C   C5035     1.0  0.53399  0.94456  0.69389  1.0000
  C   C5036     1.0  0.54723  0.93089  0.71287  1.0000
  C   C5037     1.0  0.56121  0.92001  0.71666  1.0000
  C   C5038     1.0  0.56527  0.93627  0.68096  1.0000
  C   C5039     1.0  0.51977  0.95079  0.70399  1.0000
  C   C5040     1.0  0.53870  0.90376  0.71104  1.0000
  C   C5041     1.0  0.52782  0.89440  0.71357  1.0000
  H   H8957     1.0  0.58931  0.94826  0.49472  1.0000
  C   C5042     1.0  0.57963  0.92943  0.67203  1.0000
  C   C5043     1.0  0.51366  0.96652  0.69767  1.0000
  H   H8958     1.0  0.55109  0.92378  0.67963  1.0000
  H   H8959     1.0  0.56207  0.91492  0.69213  1.0000
  H   H8960     1.0  0.52270  0.92299  0.71268  1.0000
  H   H8961     1.0  0.52827  0.91983  0.69501  1.0000
  H   H8962     1.0  0.53109  0.94441  0.68390  1.0000
  H   H8963     1.0  0.54084  0.95264  0.69062  1.0000
  H   H8964     1.0  0.54933  0.94174  0.71139  1.0000
  H   H8965     1.0  0.53818  0.92991  0.72254  1.0000
  H   H8966     1.0  0.57108  0.92355  0.70941  1.0000
  H   H8967     1.0  0.88457  0.88097  0.49063  1.0000
  H   H8968     1.0  0.55988  0.94551  0.67357  1.0000
  H   H8969     1.0  0.56779  0.94051  0.68892  1.0000
  H   H8970     1.0  0.52174  0.95024  0.71457  1.0000
  H   H8971     1.0  0.51116  0.94488  0.70560  1.0000
  H   H8972     1.0  0.54889  0.89916  0.70400  1.0000
  H   H8973     1.0  0.54077  0.90293  0.72166  1.0000
  H   H8974     1.0  0.76151  0.98381  0.59278  1.0000
  H   H8975     1.0  0.51741  0.89835  0.72082  1.0000
  H   H8976     1.0  0.52559  0.89437  0.70327  1.0000
  H   H8977     1.0  0.58267  0.94893  0.52026  1.0000
  C   C5044     1.0  0.70953  0.92015  0.71912  1.0000
  H   H8978     1.0  0.88559  0.77893  0.50148  1.0000
  H   H8979     1.0  0.57760  0.92532  0.66368  1.0000
  H   H8980     1.0  0.58631  0.93763  0.66661  1.0000
  H   H8981     1.0  0.58588  0.92047  0.67897  1.0000
  Fe  Fe567     1.0  0.65751  0.98328  0.53425  1.0000
  H   H8982     1.0  0.68780  0.92253  0.69603  1.0000
  H   H8983     1.0  0.67526  0.94159  0.70862  1.0000
  H   H8984     1.0  0.75862  0.88906  0.49167  1.0000
  C   C5045     1.0  0.74058  0.97737  0.66292  1.0000
  C   C5046     1.0  0.55531  0.95036  0.61852  1.0000
  H   H8985     1.0  0.87206  0.90557  0.53203  1.0000
  H   H8986     1.0  0.71318  0.98865  0.64505  1.0000
  C   C5047     1.0  0.67509  0.97578  0.71925  1.0000
  H   H8987     1.0  0.73656  0.92114  0.72271  1.0000
  C   C5048     1.0  0.72250  0.88486  0.69338  1.0000
  C   C5049     1.0  0.54703  0.95266  0.63373  1.0000
  C   C5050     1.0  0.55013  0.93904  0.64524  1.0000
  H   H8988     1.0  0.61314  0.98889  0.70117  1.0000
  H   H8989     1.0  0.58578  0.95802  0.56934  1.0000
  H   H8990     1.0  0.71436  0.87807  0.69645  1.0000
  C   C5051     1.0  0.75820  0.98353  0.61874  1.0000
  H   H8991     1.0  0.85269  0.85327  0.52944  1.0000
  H   H8992     1.0  0.55382  0.94002  0.61749  1.0000
  H   H8993     1.0  0.56707  0.94847  0.61866  1.0000
  H   H8994     1.0  0.88801  0.84818  0.50125  1.0000
  H   H8995     1.0  0.94969  0.83697  0.51390  1.0000
  H   H8996     1.0  0.68068  0.94912  0.68193  1.0000
  H   H8997     1.0  0.54298  0.94888  0.59824  1.0000
  C   C5052     1.0  0.63828  0.98281  0.51105  1.0000
  H   H8998     1.0  0.88619  0.78989  0.51693  1.0000
  C   C5053     1.0  0.88380  0.88801  0.52124  1.0000
  H   H8999     1.0  0.93656  0.90530  0.51815  1.0000
  C   C5054     1.0  0.89193  0.79886  0.51267  1.0000
  C   C5055     1.0  0.91223  0.78376  0.49013  1.0000
  H   H9000     1.0  0.55069  0.96113  0.63612  1.0000
  H   H9001     1.0  0.53512  0.95604  0.63475  1.0000
  H   H9002     1.0  0.54438  0.94129  0.65595  1.0000
  H   H9003     1.0  0.54614  0.93030  0.64369  1.0000
  H   H9004     1.0  0.56202  0.93553  0.64488  1.0000
  S   S1129     1.0  0.67210  0.97997  0.54922  1.0000
  C   C5056     1.0  0.56519  0.96224  0.59400  1.0000
  H   H9005     1.0  0.92241  0.79893  0.49413  1.0000
  H   H9006     1.0  0.79603  0.83882  0.49441  1.0000
  C   C5057     1.0  0.59653  0.98700  0.72101  1.0000
  C   C5058     1.0  0.91191  0.74837  0.51786  1.0000
  H   H9007     1.0  0.72351  0.90657  0.69127  1.0000
  H   H9008     1.0  0.74635  0.87991  0.51614  1.0000
  H   H9009     1.0  0.59943  0.89832  0.72335  1.0000
  H   H9010     1.0  0.90005  0.81292  0.49286  1.0000
  N   N280      1.0  0.91100  0.93938  0.49353  1.0000
  H   H9011     1.0  0.98571  0.80147  0.53609  1.0000
  H   H9012     1.0  0.57360  0.96762  0.51620  1.0000
  C   C5059     1.0  0.93587  0.90245  0.50841  1.0000
  S   S1130     1.0  0.88557  0.74589  0.53609  1.0000
  H   H9013     1.0  0.95336  0.76084  0.57067  1.0000
  H   H9014     1.0  0.73993  0.93570  0.70752  1.0000
  C   C5060     1.0  0.89461  0.94199  0.49621  1.0000
  H   H9015     1.0  0.90873  0.91766  0.50485  1.0000
  S   S1131     1.0  0.66601  0.98421  0.51068  1.0000
  H   H9016     1.0  0.62863  0.85756  0.72314  1.0000
  C   C5061     1.0  0.58037  0.95705  0.49820  1.0000
  C   C5062     1.0  0.65141  0.84964  0.71554  1.0000
  C   C5063     1.0  0.98184  0.82353  0.56043  1.0000
  H   H9017     1.0  0.63602  0.84011  0.73308  1.0000
  H   H9018     1.0  0.61942  0.98908  0.66322  1.0000
  C   C5064     1.0  0.89848  0.74489  0.51999  1.0000
  H   H9019     1.0  0.90801  0.96197  0.49284  1.0000
  C   C5065     1.0  0.51344  0.98962  0.64534  1.0000
  H   H9020     1.0  0.57795  0.98708  0.68560  1.0000
  C   C5066     1.0  0.77349  0.98642  0.61671  1.0000
  H   H9021     1.0  0.62007  0.98497  0.71702  1.0000
  H   H9022     1.0  0.53760  0.97750  0.61880  1.0000
  H   H9023     1.0  0.64352  0.86846  0.73275  1.0000
  H   H9024     1.0  0.89157  0.93361  0.49295  1.0000
  H   H9025     1.0  0.94406  0.96651  0.49346  1.0000
  H   H9026     1.0  0.94670  0.89617  0.50390  1.0000
  H   H9027     1.0  0.75273  0.98293  0.63024  1.0000
  C   C5067     1.0  0.59971  0.88737  0.73030  1.0000
  C   C5068     1.0  0.93073  0.95252  0.49303  1.0000
  H   H9028     1.0  0.62297  0.88176  0.72671  1.0000
  H   H9029     1.0  0.56995  0.95348  0.50081  1.0000
  C   C5069     1.0  0.93156  0.91600  0.49722  1.0000
  H   H9030     1.0  0.56929  0.97850  0.49071  1.0000
  C   C5070     1.0  0.65586  0.98269  0.48847  1.0000
  C   C5071     1.0  0.88530  0.85832  0.49332  1.0000
  H   H9031     1.0  0.53659  0.98943  0.59229  1.0000
  C   C5072     1.0  0.58437  0.98467  0.60416  1.0000
  H   H9032     1.0  0.98011  0.78436  0.52604  1.0000
  C   C5073     1.0  0.98794  0.79112  0.51931  1.0000
  C   C5074     1.0  0.94735  0.74786  0.59222  1.0000
  C   C5075     1.0  0.56200  0.91892  0.73202  1.0000
  C   C5076     1.0  0.66788  0.96438  0.73056  1.0000
  H   H9033     1.0  0.94011  0.92226  0.49416  1.0000
  S   S1132     1.0  0.58013  0.98557  0.65828  1.0000
  C   C5077     1.0  0.58822  0.98990  0.58932  1.0000
  H   H9034     1.0  0.99917  0.78485  0.51990  1.0000
  C   C5078     1.0  0.59330  0.98990  0.73615  1.0000
  S   S1133     1.0  0.89081  0.98969  0.50319  1.0000
  H   H9035     1.0  0.74050  0.88773  0.49207  1.0000
  H   H9036     1.0  0.57606  0.97223  0.73561  1.0000
  Fe  Fe568     1.0  0.90319  0.74499  0.57935  1.0000
  C   C5079     1.0  0.61363  0.88222  0.73605  1.0000
  H   H9037     1.0  0.99246  0.82415  0.56190  1.0000
  C   C5080     1.0  0.83197  0.99059  0.48825  1.0000
  H   H9038     1.0  0.94777  0.78446  0.48989  1.0000
  H   H9039     1.0  0.93148  0.91239  0.48766  1.0000
  H   H9040     1.0  0.55488  0.99167  0.58986  1.0000
  C   C5081     1.0  0.92529  0.79066  0.48779  1.0000
  H   H9041     1.0  0.53668  0.91810  0.78441  1.0000
  C   C5082     1.0  0.64422  0.86309  0.76658  1.0000
  S   S1134     1.0  0.52344  0.81168  0.92984  1.0000
  H   H9042     1.0  0.56977  0.75292  0.85945  1.0000
  C   C5083     1.0  0.54353  0.75685  0.96764  1.0000
  H   H9043     1.0  0.63725  0.83947  0.76347  1.0000
  Fe  Fe569     1.0  0.53999  0.84158  0.82144  1.0000
  S   S1135     1.0  0.54738  0.85794  0.80190  1.0000
  S   S1136     1.0  0.52116  0.84664  0.83952  1.0000
  Fe  Fe570     1.0  0.56345  0.81686  0.81214  1.0000
  S   S1137     1.0  0.57344  0.83084  0.79186  1.0000
  S   S1138     1.0  0.57028  0.79270  0.81721  1.0000
  Fe  Fe571     1.0  0.56978  0.84663  0.80541  1.0000
  S   S1139     1.0  0.58662  0.85871  0.80386  1.0000
  Fe  Fe572     1.0  0.55037  0.84103  0.78993  1.0000
  C   C5084     1.0  0.51432  0.90958  0.74958  1.0000
  S   S1140     1.0  0.56210  0.83162  0.82604  1.0000
  S   S1141     1.0  0.54058  0.82581  0.80903  1.0000
  C   C5085     1.0  0.52813  0.85772  0.76724  1.0000
  H   H9044     1.0  0.69642  0.90313  0.74276  1.0000
  H   H9045     1.0  0.52844  0.76201  0.95329  1.0000
  H   H9046     1.0  0.52963  0.80605  0.88422  1.0000
  C   C5086     1.0  0.56597  0.96562  0.75812  1.0000
  S   S1142     1.0  0.63037  0.91109  0.75403  1.0000
  C   C5087     1.0  0.61511  0.84591  0.77549  1.0000
  H   H9047     1.0  0.66380  0.90445  0.74702  1.0000
  S   S1143     1.0  0.58885  0.91369  0.75306  1.0000
  H   H9048     1.0  0.51419  0.85807  0.91373  1.0000
  S   S1144     1.0  0.64047  0.94283  0.76220  1.0000
  H   H9049     1.0  0.58933  0.76022  0.91377  1.0000
  C   C5088     1.0  0.57797  0.97198  0.74616  1.0000
  C   C5089     1.0  0.57630  0.75389  0.93510  1.0000
  C   C5090     1.0  0.52909  0.80855  0.84496  1.0000
  H   H9050     1.0  0.52010  0.77637  0.89264  1.0000
  C   C5091     1.0  0.63580  0.96685  0.77220  1.0000
  H   H9051     1.0  0.55456  0.74461  0.82805  1.0000
  C   C5092     1.0  0.63178  0.98162  0.77165  1.0000
  C   C5093     1.0  0.57370  0.77148  0.86356  1.0000
  H   H9052     1.0  0.52492  0.80623  0.76626  1.0000
  H   H9053     1.0  0.63950  0.95950  0.78142  1.0000
  C   C5094     1.0  0.63020  0.97111  0.74903  1.0000
  H   H9054     1.0  0.57265  0.94469  0.75250  1.0000
  C   C5095     1.0  0.58703  0.87406  0.78982  1.0000
  C   C5096     1.0  0.57767  0.87786  0.78041  1.0000
  C   C5097     1.0  0.57814  0.89019  0.76929  1.0000
  C   C5098     1.0  0.58824  0.89853  0.76729  1.0000
  C   C5099     1.0  0.59769  0.89466  0.77660  1.0000
  C   C5100     1.0  0.59701  0.88249  0.78791  1.0000
  H   H9055     1.0  0.57009  0.87131  0.78167  1.0000
  H   H9056     1.0  0.57080  0.89315  0.76212  1.0000
  H   H9057     1.0  0.60533  0.90118  0.77528  1.0000
  H   H9058     1.0  0.60424  0.87961  0.79518  1.0000
  C   C5101     1.0  0.53695  0.80662  0.78129  1.0000
  C   C5102     1.0  0.51729  0.85971  0.77957  1.0000
  H   H9059     1.0  0.54502  0.85942  0.87529  1.0000
  H   H9060     1.0  0.58836  0.96401  0.74700  1.0000
  N   N281      1.0  0.62797  0.86029  0.75148  1.0000
  H   H9061     1.0  0.67477  0.89571  0.76007  1.0000
  H   H9062     1.0  0.51968  0.85484  0.79005  1.0000
  H   H9063     1.0  0.52129  0.90521  0.80803  1.0000
  H   H9064     1.0  0.60489  0.86979  0.75632  1.0000
  C   C5103     1.0  0.57041  0.77036  0.84072  1.0000
  C   C5104     1.0  0.57179  0.78464  0.83501  1.0000
  C   C5105     1.0  0.57429  0.79227  0.84357  1.0000
  C   C5106     1.0  0.57552  0.78561  0.85772  1.0000
  H   H9065     1.0  0.50575  0.79599  0.80512  1.0000
  H   H9066     1.0  0.57580  0.80312  0.83913  1.0000
  H   H9067     1.0  0.57797  0.79140  0.86410  1.0000
  Fe  Fe573     1.0  0.63338  0.93380  0.74777  1.0000
  H   H9068     1.0  0.55173  0.87433  0.85127  1.0000
  H   H9069     1.0  0.52499  0.83884  0.87533  1.0000
  C   C5107     1.0  0.52034  0.86400  0.84085  1.0000
  C   C5108     1.0  0.53205  0.87062  0.83378  1.0000
  C   C5109     1.0  0.53077  0.88504  0.83366  1.0000
  C   C5110     1.0  0.57098  0.76390  0.85507  1.0000
  C   C5111     1.0  0.61537  0.83070  0.78468  1.0000
  H   H9070     1.0  0.54212  0.86467  0.82841  1.0000
  H   H9071     1.0  0.53976  0.89020  0.82804  1.0000
  C   C5112     1.0  0.54998  0.90398  0.79868  1.0000
  S   S1145     1.0  0.51501  0.91144  0.83785  1.0000
  H   H9072     1.0  0.60392  0.85043  0.77361  1.0000
  C   C5113     1.0  0.50772  0.95903  0.85578  1.0000
  C   C5114     1.0  0.52132  0.79518  0.92846  1.0000
  C   C5115     1.0  0.53305  0.78624  0.92114  1.0000
  C   C5116     1.0  0.51913  0.76772  0.92814  1.0000
  C   C5117     1.0  0.61377  0.86755  0.74690  1.0000
  N   N282      1.0  0.55616  0.74880  0.95813  1.0000
  H   H9073     1.0  0.54313  0.78975  0.91594  1.0000
  H   H9074     1.0  0.53825  0.74938  0.97687  1.0000
  C   C5118     1.0  0.54715  0.74572  0.83859  1.0000
  H   H9075     1.0  0.61717  0.85233  0.78187  1.0000
  C   C5119     1.0  0.56260  0.95319  0.75435  1.0000
  C   C5120     1.0  0.52627  0.91667  0.86875  1.0000
  C   C5121     1.0  0.50873  0.77627  0.89293  1.0000
  H   H9076     1.0  0.53333  0.85819  0.90823  1.0000
  H   H9077     1.0  0.50636  0.77538  0.82832  1.0000
  C   C5122     1.0  0.53842  0.89653  0.89440  1.0000
  C   C5123     1.0  0.53808  0.92576  0.86391  1.0000
  H   H9078     1.0  0.53366  0.79802  0.79052  1.0000
  H   H9079     1.0  0.55446  0.94840  0.76332  1.0000
  H   H9080     1.0  0.60295  0.98338  0.74054  1.0000
  C   C5124     1.0  0.54912  0.89426  0.90380  1.0000
  C   C5125     1.0  0.54512  0.92687  0.84798  1.0000
  H   H9081     1.0  0.55378  0.76504  0.93870  1.0000
  C   C5126     1.0  0.50756  0.93187  0.78721  1.0000
  H   H9082     1.0  0.53224  0.90603  0.86646  1.0000
  C   C5127     1.0  0.52701  0.98286  0.93189  1.0000
  H   H9083     1.0  0.55963  0.79531  0.77852  1.0000
  H   H9084     1.0  0.53600  0.76328  0.85817  1.0000
  S   S1146     1.0  0.51814  0.75002  0.92958  1.0000
  H   H9085     1.0  0.53343  0.91969  0.89286  1.0000
  H   H9086     1.0  0.51290  0.93302  0.77570  1.0000
  H   H9087     1.0  0.54487  0.89574  0.88346  1.0000
  H   H9088     1.0  0.53250  0.88766  0.89884  1.0000
  H   H9089     1.0  0.53359  0.93684  0.86555  1.0000
  H   H9090     1.0  0.54688  0.92069  0.86991  1.0000
  H   H9091     1.0  0.50528  0.90039  0.89959  1.0000
  H   H9092     1.0  0.51766  0.83879  0.90165  1.0000
  H   H9093     1.0  0.50817  0.97359  0.94231  1.0000
  H   H9094     1.0  0.51626  0.78821  0.78993  1.0000
  H   H9095     1.0  0.58013  0.77484  0.92267  1.0000
  H   H9096     1.0  0.51751  0.95236  0.85080  1.0000
  H   H9097     1.0  0.54060  0.78639  0.84590  1.0000
  H   H9098     1.0  0.55567  0.90265  0.89963  1.0000
  H   H9099     1.0  0.50869  0.84113  0.76864  1.0000
  H   H9100     1.0  0.55668  0.88358  0.90379  1.0000
  H   H9101     1.0  0.55339  0.93354  0.84469  1.0000
  H   H9102     1.0  0.55057  0.91605  0.84578  1.0000
  H   H9103     1.0  0.53678  0.93202  0.84142  1.0000
  C   C5128     1.0  0.63492  0.96150  0.76100  1.0000
  C   C5129     1.0  0.57022  0.81263  0.88712  1.0000
  H   H9104     1.0  0.65572  0.86873  0.77916  1.0000
  H   H9105     1.0  0.53673  0.85618  0.86277  1.0000
  H   H9106     1.0  0.52558  0.89432  0.77292  1.0000
  H   H9107     1.0  0.62622  0.82572  0.78732  1.0000
  H   H9108     1.0  0.64216  0.85359  0.77528  1.0000
  C   C5130     1.0  0.62713  0.99128  0.75976  1.0000
  H   H9109     1.0  0.55812  0.95704  0.74454  1.0000
  H   H9110     1.0  0.55969  0.85854  0.84388  1.0000
  S   S1147     1.0  0.61235  0.94290  0.74068  1.0000
  N   N283      1.0  0.50962  0.81927  0.78067  1.0000
  C   C5131     1.0  0.54164  0.83416  0.89538  1.0000
  C   C5132     1.0  0.55714  0.86278  0.85370  1.0000
  H   H9111     1.0  0.52167  0.81701  0.83880  1.0000
  H   H9112     1.0  0.67152  0.91497  0.75379  1.0000
  C   C5133     1.0  0.51127  0.87273  0.75249  1.0000
  H   H9113     1.0  0.50979  0.84867  0.74206  1.0000
  H   H9114     1.0  0.53349  0.86276  0.74418  1.0000
  H   H9115     1.0  0.54943  0.80664  0.89287  1.0000
  H   H9116     1.0  0.51296  0.89671  0.86849  1.0000
  C   C5134     1.0  0.53714  0.76067  0.83725  1.0000
  H   H9117     1.0  0.56402  0.76854  0.94897  1.0000
  C   C5135     1.0  0.68718  0.90285  0.73860  1.0000
  C   C5136     1.0  0.50778  0.77149  0.87998  1.0000
  H   H9118     1.0  0.52346  0.75368  0.85801  1.0000
  H   H9119     1.0  0.55524  0.80850  0.76288  1.0000
  H   H9120     1.0  0.63353  0.87983  0.75150  1.0000
  C   C5137     1.0  0.50850  0.82023  0.88511  1.0000
  H   H9121     1.0  0.51697  0.83167  0.79064  1.0000
  H   H9122     1.0  0.62143  0.87333  0.76728  1.0000
  H   H9123     1.0  0.51560  0.81442  0.80119  1.0000
  H   H9124     1.0  0.53026  0.76162  0.82983  1.0000
  H   H9125     1.0  0.54752  0.76343  0.97250  1.0000
  H   H9126     1.0  0.63683  0.87798  0.78093  1.0000
  H   H9127     1.0  0.62336  0.83930  0.75549  1.0000
  N   N284      1.0  0.51274  0.90426  0.79050  1.0000
  H   H9128     1.0  0.55574  0.97385  0.76004  1.0000
  H   H9129     1.0  0.59067  0.97596  0.76417  1.0000
  C   C5138     1.0  0.52531  0.85131  0.91109  1.0000
  C   C5139     1.0  0.50869  0.96912  0.86259  1.0000
  C   C5140     1.0  0.53918  0.90647  0.78933  1.0000
  H   H9130     1.0  0.54164  0.96481  0.94265  1.0000
  C   C5141     1.0  0.56202  0.75975  0.94538  1.0000
  H   H9131     1.0  0.53611  0.82575  0.86598  1.0000
  C   C5142     1.0  0.51313  0.98161  0.94402  1.0000
  H   H9132     1.0  0.52925  0.82293  0.76441  1.0000
  C   C5143     1.0  0.53268  0.82823  0.87684  1.0000
  C   C5144     1.0  0.52512  0.86429  0.75372  1.0000
  H   H9133     1.0  0.51119  0.82302  0.75165  1.0000
  H   H9134     1.0  0.53524  0.77701  0.95335  1.0000
  H   H9135     1.0  0.55016  0.83935  0.89580  1.0000
  H   H9136     1.0  0.63231  0.98559  0.78049  1.0000
  C   C5145     1.0  0.64685  0.87393  0.77328  1.0000
  H   H9137     1.0  0.52378  0.88605  0.88119  1.0000
  H   H9138     1.0  0.54484  0.90052  0.78068  1.0000
  H   H9139     1.0  0.61276  0.82390  0.77902  1.0000
  S   S1148     1.0  0.54513  0.84623  0.76836  1.0000
  H   H9140     1.0  0.54411  0.76861  0.83215  1.0000
  H   H9141     1.0  0.55740  0.80936  0.87427  1.0000
  C   C5146     1.0  0.55122  0.80007  0.77200  1.0000
  H   H9142     1.0  0.52385  0.80704  0.85649  1.0000
  H   H9143     1.0  0.54970  0.79148  0.76783  1.0000
  H   H9144     1.0  0.53918  0.81237  0.84333  1.0000
  C   C5147     1.0  0.51852  0.90494  0.77462  1.0000
  H   H9145     1.0  0.55760  0.83428  0.85962  1.0000
  N   N285      1.0  0.51596  0.77677  0.85219  1.0000
  C   C5148     1.0  0.51952  0.78917  0.83998  1.0000
  H   H9146     1.0  0.58581  0.75175  0.93995  1.0000
  C   C5149     1.0  0.53189  0.77260  0.92080  1.0000
  H   H9147     1.0  0.54505  0.90988  0.80745  1.0000
  C   C5150     1.0  0.62653  0.84578  0.76109  1.0000
  C   C5151     1.0  0.55524  0.81398  0.88384  1.0000
  C   C5152     1.0  0.63118  0.86974  0.75915  1.0000
  C   C5153     1.0  0.57612  0.79746  0.89505  1.0000
  C   C5154     1.0  0.52417  0.81672  0.88683  1.0000
  H   H9148     1.0  0.53935  0.81478  0.78539  1.0000
  C   C5155     1.0  0.53799  0.96845  0.93238  1.0000
  H   H9149     1.0  0.56978  0.96130  0.76832  1.0000
  H   H9150     1.0  0.56752  0.86189  0.85667  1.0000
  H   H9151     1.0  0.55343  0.89232  0.80328  1.0000
  H   H9152     1.0  0.52389  0.78328  0.86700  1.0000
  C   C5156     1.0  0.51352  0.78168  0.86587  1.0000
  H   H9153     1.0  0.55986  0.90795  0.79207  1.0000
  N   N286      1.0  0.51766  0.91545  0.88408  1.0000
  H   H9154     1.0  0.65021  0.88313  0.76481  1.0000
  N   N287      1.0  0.57958  0.98643  0.74671  1.0000
  C   C5157     1.0  0.52496  0.81388  0.77252  1.0000
  H   H9155     1.0  0.52566  0.91274  0.76969  1.0000
  H   H9156     1.0  0.57004  0.76700  0.91528  1.0000
  N   N288      1.0  0.54573  0.82896  0.88158  1.0000
  C   C5158     1.0  0.52799  0.76334  0.85213  1.0000
  H   H9157     1.0  0.51865  0.92116  0.86133  1.0000
  H   H9158     1.0  0.57174  0.98329  0.76981  1.0000
  C   C5159     1.0  0.53142  0.76723  0.96017  1.0000
  H   H9159     1.0  0.52465  0.85348  0.88928  1.0000
  H   H9160     1.0  0.56879  0.79494  0.90574  1.0000
  H   H9161     1.0  0.65442  0.85977  0.75881  1.0000
  H   H9162     1.0  0.54158  0.82493  0.90482  1.0000
  C   C5160     1.0  0.51769  0.89286  0.84038  1.0000
  H   H9163     1.0  0.57829  0.81516  0.87690  1.0000
  C   C5161     1.0  0.53304  0.79459  0.83972  1.0000
  H   H9164     1.0  0.53931  0.79678  0.82847  1.0000
  H   H9165     1.0  0.57694  0.78943  0.88892  1.0000
  H   H9166     1.0  0.61022  0.86027  0.74254  1.0000
  H   H9167     1.0  0.61402  0.89041  0.74144  1.0000
  H   H9168     1.0  0.58713  0.79667  0.89657  1.0000
  Fe  Fe574     1.0  0.61054  0.92007  0.74473  1.0000
  H   H9169     1.0  0.56484  0.83815  0.87220  1.0000
  H   H9170     1.0  0.56889  0.76430  0.83402  1.0000
  H   H9171     1.0  0.52160  0.78641  0.82948  1.0000
  H   H9172     1.0  0.65044  0.85130  0.74242  1.0000
  C   C5162     1.0  0.52659  0.84463  0.89861  1.0000
  C   C5163     1.0  0.57906  0.76471  0.92086  1.0000
  H   H9173     1.0  0.56951  0.82010  0.89382  1.0000
  C   C5164     1.0  0.54712  0.85456  0.86598  1.0000
  H   H9174     1.0  0.52900  0.88918  0.80177  1.0000
  S   S1149     1.0  0.52580  0.97035  0.86374  1.0000
  C   C5165     1.0  0.52515  0.90100  0.79805  1.0000
  H   H9175     1.0  0.50824  0.82177  0.87371  1.0000
  C   C5166     1.0  0.55445  0.83842  0.86961  1.0000
  H   H9176     1.0  0.60705  0.83112  0.79486  1.0000
  S   S1150     1.0  0.57513  0.76338  0.88135  1.0000
  H   H9177     1.0  0.54101  0.76576  0.91519  1.0000
  C   C5167     1.0  0.51767  0.77218  0.97105  1.0000
  C   C5168     1.0  0.67347  0.90464  0.75056  1.0000
  H   H9178     1.0  0.54768  0.96971  0.92346  1.0000
  H   H9179     1.0  0.52385  0.81569  0.89827  1.0000
  S   S1151     1.0  0.54009  0.74953  0.89011  1.0000
  H   H9180     1.0  0.50757  0.75738  0.83930  1.0000
  Fe  Fe575     1.0  0.56345  0.74524  0.89102  1.0000
  C   C5169     1.0  0.62654  0.98605  0.74831  1.0000
  H   H9181     1.0  0.50947  0.77999  0.96533  1.0000
  H   H9182     1.0  0.54319  0.89462  0.91503  1.0000
  H   H9183     1.0  0.57184  0.74962  0.96918  1.0000
  C   C5170     1.0  0.50832  0.79056  0.93509  1.0000
  H   H9184     1.0  0.52716  0.84280  0.92078  1.0000
  H   H9185     1.0  0.52021  0.77758  0.97811  1.0000
  H   H9186     1.0  0.54767  0.74370  0.94274  1.0000
  H   H9187     1.0  0.52136  0.89889  0.74836  1.0000
  H   H9188     1.0  0.57590  0.74381  0.93272  1.0000
  H   H9189     1.0  0.51285  0.76291  0.97768  1.0000
  H   H9190     1.0  0.50989  0.79836  0.83981  1.0000
  C   C5171     1.0  0.52743  0.91114  0.89452  1.0000
  H   H9191     1.0  0.51410  0.76035  0.88030  1.0000
  H   H9192     1.0  0.52102  0.91783  0.74523  1.0000
  C   C5172     1.0  0.64045  0.85811  0.73878  1.0000
  C   C5173     1.0  0.50773  0.87152  0.84855  1.0000
  C   C5174     1.0  0.51011  0.82361  0.79385  1.0000
  H   H9193     1.0  0.51543  0.93208  0.79322  1.0000
  C   C5175     1.0  0.51275  0.89240  0.88005  1.0000
  C   C5176     1.0  0.58167  0.98533  0.76147  1.0000
  C   C5177     1.0  0.50733  0.77675  0.93516  1.0000
  H   H9194     1.0  0.55390  0.74388  0.84648  1.0000
  H   H9195     1.0  0.53313  0.96018  0.93109  1.0000
  H   H9196     1.0  0.51483  0.93834  0.88257  1.0000
  C   C5178     1.0  0.50317  0.86755  0.77832  1.0000
  H   H9197     1.0  0.62971  0.96704  0.74025  1.0000
  H   H9198     1.0  0.51269  0.88182  0.79414  1.0000
  H   H9199     1.0  0.52429  0.98609  0.92120  1.0000
  H   H9200     1.0  0.50898  0.87786  0.74201  1.0000
  H   H9201     1.0  0.59530  0.98737  0.78168  1.0000
  H   H9202     1.0  0.50459  0.76887  0.90299  1.0000
  H   H9203     1.0  0.52082  0.91027  0.90569  1.0000
  H   H9204     1.0  0.58995  0.88785  0.73926  1.0000
  H   H9205     1.0  0.50563  0.79227  0.86560  1.0000
  H   H9206     1.0  0.50437  0.84139  0.81291  1.0000
  C   C5179     1.0  0.50539  0.79405  0.79483  1.0000
  H   H9207     1.0  0.51695  0.97656  0.95410  1.0000
  C   C5180     1.0  0.50818  0.93017  0.88521  1.0000
  C   C5181     1.0  0.50768  0.90504  0.88783  1.0000
  H   H9208     1.0  0.65998  0.96933  0.73919  1.0000
  H   H9209     1.0  0.50641  0.87334  0.87977  1.0000
  C   C5182     1.0  0.50638  0.88596  0.84831  1.0000
  C   C5183     1.0  0.50699  0.90936  0.76535  1.0000
  H   H9210     1.0  0.53256  0.99073  0.93285  1.0000
  H   H9211     1.0  0.55281  0.91458  0.73981  1.0000
  H   H9212     1.0  0.55228  0.98804  0.73822  1.0000
  S   S1152     1.0  0.50326  0.84188  0.95194  1.0000
  C   C5184     1.0  0.50499  0.89195  0.79645  1.0000
  Fe  Fe576     1.0  0.52319  0.99190  0.86819  1.0000
  H   H9213     1.0  0.50583  0.91217  0.74330  1.0000
  H   H9214     1.0  0.50455  0.93097  0.90777  1.0000
  H   H9215     1.0  0.50583  0.88907  0.81900  1.0000
  H   H9216     1.0  0.50313  0.81132  0.89163  1.0000
