data_image0
_chemical_formula_structural       FeS2FeSFeSFeS3H2SH2SCHCHCSH4C5H3C6H4C6H4C2H3CHCHCHSNC4HC7H5CHCSFeH12CHCH2C3H12CSH2CH5NH2CFeCHCSCHCHCHC2HCHCFeH3C2H3CH2CHSH2FeH7CH2CHCH2SNH3SHFeH5FeH4C3H6SCH3CHCHSFeH2SHCHCH2SH2SCSH3C2FeS2HFeSFeSHSCH2FeS2FeSFeS3FeS2C6H4C2HC6H4C2N2C3H2C4H4C3HC3SCSHC4H3CH3CHFeH3C6H5C2H2C2H2CHCHCH3FeH2CHCHFeCH3C3H6NC12H22CHCH3CHC2H5CFeHSH5CH2CHSH2CSHC2H3CH2CSCFeH2FeHCHC2H5FeSHS2CFeH6C2H5NC2H2CHSCH6C2H6SNH2CHCH2C2H2CH3SHCH2CSH2C2H4CHC4H3CHCHCH10CNCH3SHCH2C2SH3C2HCH4SHCHCH6SHFeS2FeS2FeSFeS3HSCFeS2FeS2FeSFeS3C3H4SH3FeS2FeS2FeSFeS3HSHFeSHC6H4C6H4C6H7CHCH3CHC7H4C4H3CH2SC6H4C6H4C6H4C2H3CHNC7H4NC8H2C2H8CH13CSH3FeNC12H29CH2C2H12CHCH2SCH10CH3SHSH6C3H4CH3C5H6FeNHSNC5SC4HCH11FeH19CH2C2H7NC11H19CH2CH2CH3C3H7CHC2H3CHCSCHC2H2SH5C3H5CHFeCH2SCH2CH3CH7CHC3NC2H2CH3CH2C3SC3HCH10CH3CHSH10CH3CHC2H3CHSFeSH3FeH3FeHCHNH5CH3C2H5C3H4FeCHC3HNC2H2CHNHCH2C2HCH7CH5CH3C2H3C4FeHSHSC2HC2H5FeCH7CHC2FeS2FeS2FeHFeS3HS2FeSFeSCHSH3CH3CSHC5SCH2CHC6H4C6H4CHC2H2C2HC3HCH3CHC2HC2HCHCNFeCH2SH4CH3CNCH2CHC2H3CH3NH5SH2C3H2CH3SCH6SCH3C2SHCH3CNH3CH3CH5CFeHNH7C2HC3HCH2CH2CH3CHCH2C2FeCFeH8C3H3CSH4CH5FeH4CHCH2C2H3CH3S2HNH4CHCH3C2H2SHSHC3H4CH5CH7C2FeS2FeS2FeSFeS3CH2SH2C2H2FeNSNH7CHCH3C6H4C6H4C3SC2H4CHCH2C7H4NCHCH4CHCSH4CHCH5CH3CH2CHCH2C3H2CHC2H2CH2CH4CH6CHCH2SCH3C2H7C2H2CH4CH2CNCFeH5C3HS2HSCHCSCHC3H6CH3C2H3CHNC11H17SH2CHCHCHC2HCHC3HCH2C2HFeHCH2FeHCNCH3CH3CH4CH4CHSH2CH2CH4C2HCNH2CH7SH7FeSHCFeS2H3FeSFeS3HSH2FeSH3SHFeSFeHFeSCHSHFeSFeSHSFeS2FeS2FeSFeS3H3CHC4H4C5H3SC6H4C6H6C6H4C6H4C6H5C3HCH3C7H5FeSC2H2C2HCH2CH2NCH3C4HCFeC2H2FeC2H4FeH4CH9C2H4NH3CH2CNC4H2C4H11SH9C2H7NC5FeC4H5C3H4CH7CH4CSHCSCH2C2H5CHCH2CH3NC11H30SCHCH8NSC3HC3H2SCH2SC2SH3CSHC2H6CHNC4HC2H9SHCH11NH5C2H2CSHCH4C2HCHCHCH2FeHCHCH2SH4CFeS2FeS2Fe2S3FeS2FeSCFeSFeS3H4SC2H3FeS2FeS2FeSFeS3HCSC2HFeSH4SH5CH5CSC2HC2HCHC6H5CH2C7H4C7H4CHCH2C5H2C6H4C6H5C2HC2H2CH9CNCHC2H4NH6CH3C3H8C2H2CHCHC2NHNH2SH3C2H3CHC2H8NFeCH2CHSH2CH4SCH10CHCHNH2CHC2NC12H36CHC3HC2H2C4H2C2NC12H21CH6CH2C2HCH7CHCH3C2H5CH5C2H4C2HCHCHCH2CH3CHNH2CH3FeCHC2HSNC7HCH17CH2CH9C3HCH3C2H3CH11C4NH2CH7CNCH3CH3C5S2NH2C2HCHCH5SH2CNCHC3H9CFeH3C2H4CHC4H8C3H6C2SC2H6C2H5SCH4CH6FeSFeS2FeSFeS3FeS2HCFeSCHSCSH3SHCSHNHSHSC2H6CHC2HC6H4CHCHC7H4C2H2C7H4C6H5CHC2H2SH9C3HC2H2CHCH2NHCH7C2H3CH3SH5CH4SCHSFeH6CHCHCH2C2HNC2HC2H4NH10CH5CH4FeCHC2H3FeHCHCH3C2H2CHFeHNC8HC3H9CH16CH2S2H11C2H2CH4CHCHC3HSFeNH2SCH2NC12H15CHC2H3C2FeC2HCH2C2HC2H3FeCH2CHC3NC2H3C3HFeS2FeS2FeSFeS3H2CH5CH3SFeS4HSC3HFeS2HCH2CSCFeS2C2H2C5H4CH3C3H3C2H2CH4C6H4C6H4C6H4C6H4C2HFeH4CH5CHC3HFeCH3CNH2C3H4NC12H29CH10C3SH2CH2CHNH2C2H2SHC3H3SH5SH11CH6CSCHCH3C2H6C6NCHC2SH10NCHC5HC3H2CSH3FeH4CH2CH7FeH2CHC3H2CHCSC3HC2H7SCH8FeHC2H2FeHC2HNHNC8HC2H7CHCH5CH7CSH4C2NSC3H4CH4CHC2SHSH3FeHSFeHCH3FeCHFeSHSFeHSH5FeC6SH2CSCHCHCH3CH2CH2SHC2HCH2CH5CH3CH8C5H2C2H6C2HSHCH2FeH3CH2CH2SCS2H2FeSH5CHCHSFeS2FeS2FeSFeS3HCHFeC6H4C6H8CHSC6H5C8H3CSCH5C2HC2HCHCHFeCH2SFeH7SCH2CH3CHCHSCH5CHCHCNHC2HC3HNH3C2HC2HCSC3H12CH3CHC3HSHNC12H19CHCH9CHCNH3C4HCH3CH5CHCH2CH2C2H3SC2NC10HCH6CH15CH3CHNCHC7H4FeCH7CH4FeH3C2H2C2HSFeH3CHCH2CHSHS3H3C2HSCHFeHFeCH2CNH2C2H8CSH2CH3CH5CH2NHCNH11CHCHCH4CH2C2HC2H3CH4C2HNH4FeS2FeS2CHCFeH6FeSH2SNHSC6H10CH2C4S2H3CHC4H3SFeH2CH2CHCHC2NC2HCH2C2H3CHSH3CFeNC10H21CH2CHC2H9C2H4CH2CH4C2HCH5SCH3CNCH3FeS2FeS2FeSFeS3FeSFeS2FeSFeS3HSFe2S2FeSHS2H2CFeSFeS2FeS2FeSFeCS2FeH2SFeS2FeS2FeSFeS3H6SH2C7H4C6H5C7H4C2HSHC6H4CHC4H2C6H4C6H4C6H4C6H4C4H3C6H7CH5NC11H28CH3CFe2CHCHCHCH3CNC12H28CH3CH3CHNHCH9CSCHCHC3HCHCH6SH2CHNC2H2C3H2CH2CHC2HCH3SH2CHCH3NH3C2H4CH2CHNC12H17CH9C2H2SC2HCSFeHCH2CHNHCH2CFeH4CH2C2H4CH6NH2C2H4NC2H2CH4NH4C2H2CH3CHC2H5CH2CHC2H3C5H3C3HS2H8FeH3CHC2H4CHSH2CH2CH4C4HCHCHCH7CSHCH2CHNH3CHC2H3SH3CH7CH2CS2CH2CH3CH4C2H5C2HCH4SH3C2H6CH4CH2SH2CH2CHCH2CH2CH3CFeCH3CHCH5CH4CH7C2H2CSH2CH2CHCSHC2HNC3HCH3C2HFeHCHFeC2H2CHC2NHCH2C2H8CH2CFeS2FeS2FeSFeS3H3SHFeS2FeS2FeSFeS4FeCSH3SFeCSH6CS2HCH3CHCS2HCSHFeSFeSCH4CH6C5H3CH3CH3CFeH4CHCSC2H4C2H3SH4C2H3CHC6H4C6H4C6H4C6H4C6H4C6H4C5H2C2H3CHCH2NC4H2C3H2CHSH7CHCH7CH8NC8HC3H13CH3CH9SHFeH4CNH6CHCH2CH4NH4CHC3H3CH2NCHCHCH2CH2CHSCH7FeH7CSHNH3C2HCHCHCHCSH2CHCHC3H5C2HCHNH4C2H4C2H6CHCH2C2HC4HSNH3FeHCHCH2CH5C4H3FeH4C2H3CH3CFeCHCH5CH3CHC2H2CNH2CH3CH2SH2C2SHCH2C3SCSCH5CH2SH4CH6C2SHSHFeHNHCH5FeS2FeS2FeSFeS3FeS2FeS2FeSFeS3HSH2CH2SH2SC7H4C6H4C6H6CH4C7H4C7HC3HCH2C2HNH4FeH2C2H2SC2H3C2H2CHC3HCSCH6SNHCH3NHC4H5FeHCHSHS2H2CH2SH2CHCHC2HC2HCSC2H4SH2FeH3FeC3H2SCHC2H2CH4CSNC12H30CH9CH2CH6CHC3H3C5H2NC9HC2H19N2H10NH3CH3C2H2C3HCH2CH6CH3C2H4C2HCH2CH3CH3CHCH2C2HCHFeC3H3C2HCH3FeH2CH4CHSHCH2C3H7CH3CH2CSCHCH3FeH2FeC2H4CHC2H4CHCH3C2H5CHCH2SH4CH8CH6FeH2SCHSCFeSFeSNH2CHFeSH2FeS2H2C3H2C5FeCH4C4HCH3CH7CH4C5H4SC2HCHSHCFeH3C2H2CNC9HC2H16CH2CSCH6C2H4SH6CH4CHCHFeSCH6CH5CHCHNHCH3CH3C2H2CHC2H2C3H8CHSHCH2SCH6CHCHFeSFeS2FeSFeS3FeS2FeS2FeSFeS3CS2HFeS2FeSFeS3FeS2HFeS2FeS2FeS2FeSFeS3H3CHSH2FeS2FeS2FeSFeS3C6H3C2HC3H2C6H4C2HC2HCHC2H6CHC6H2C6H4C2H2C2H5CH3CH2CHC4FeH3C2H2CH3CHC6H2C6H2C6H4CHNC12H28CH2CHC2HCH9CHCH2NSCHCH3NH2CFeHC2HC2HCH9CHNC12H28C3H10FeCH3CHCH2CH3C2HCH3C2H3CHCH2CH2CH3C3HCH9CHC2H4C2H2CH2CH2NH3FeH2CNC8H17NC3HC5HCH7CH11CH4SH2NCHCHCH2C5HSH3CH5CHC2H3CH2C2H6C2HCH2CH8CH2CH4C2H2CHC2H3FeHSH2C2H6CHCNH6CH7C2H4CHCH2CHC2HCH2CH3CSFeH3SH2CNHCH8CH2CH4C3HNC4HCHCH2NHC3HCH4CH2CHCH3CSH2CH2SH7C2H2C2HFeC2H2C2H6CH5C2HC2H3CSH5CH2NHCNFeS2FeS2FeSFeHS2H2C2H2C2FeS2FeHC3H7SH3FeS2CHSCH2FeH2SHCHCH5C2HCSH5FeCH2CH2CH2CH5CH2C9H4C6H4CHC4FeH3CH4NCH2C2HNH3CH2C2H6CSH2CNH3C3H3C2H3CHC2H2CH8CHC2HCHSHC2H5CHSH5CFeHCH2CH4FeS2FeS2HCFeS3H2SH2CFeSHFeS2FeS2FeSHS2FeS2FeSHFeSFeS3H5SH3FeS2FeSHFeHFeS3H3C2H3CHSCH2CHCHSC3NHCH7C8H2C6H2SHC6H4C6H4C6H4C6HCH2CHC2HC2H2C2H3CHC9H6CHFeH2FeCHNH2CH4CSHNHCHCHC2H5CH2CNHCH4CH4CH5CH2CH3C2FeH3CH4NCHCH5NC11H28CHCHCHC3H9CHCH2CH2CH3CH3CNH3CH8CH3NHFeSH2SH3CHC2HC4HFeHCH4CH4CH4CH10C4HCH4CH2C2HSCHCHCH2CH2CH2CH5C3HC2H8CHC2HC2H2C2H2CHSNHFeS2FeS2FeSFeS2HFeS2FeS2FeHFeS3HFeS2FeS2FeCFeS3FeS2FeS2FeSFeS3HS2H4CH2CH3NH2C6H4CH2C6H4C6H4C6H4C6H5CH2C4H2C6H4C6H5C6H4NC10HCH21SHCH3NC7HSC4H2NH14CH9CHCHCH4C2HFeHCSHSHNC4HC2H2C2H14CH2CH6NH3C6H13CHC4H6CH5NC12H11FeH7CH2CH5CH2CHCHCHNH2CHC2H3CHCHCHCH2CH7CHNHSCH3CH6CH4CH4C3HC2H6CHC2H3CNHCH5C2HCH2C4H6CH4CHC2HCH3C2HCH3CH4CFeC2HCH4CH2CH4CHCH3CFeHCSCH4FeSH3CH6CH6SHCH6C2H3CH2NHCH2CH3CH4SC3SH4CH2C4HC2H2CHSCH2SH7CH2C2NC3H6CHCH4CHCH2SH2CH11C3H7CFeS2FeS2Fe2S5FeSFeS2FeSHFeSFeS3C2H2NH3C2HCH2C4HC2H5SCNHC8H10CHCHC4H2C6H4C3HC2H4CH7C2H2C2H2CH6CH5CH3CH2CHC2H7CHCH3CHCHSH4CH2CH3CH2CHCHFeCH2NHNHSC3H6CH3CH6CHCSFeHNCHCHC3H2C6HC2HCHCHCH6CHCH3C2HFeHCH4CH4CH6CH8NH2CH2CHCH3C3HSH6CSHC5HCH2CH2CH7CH8CH4CH4CHCH2CFeS2FeS2FeSFeS3FeHSFeH2CHFeHS2FeHSC2H5CHC3H3C2H2C2SHSCH3C3HNH4C6H4C6H4C3H3C3H3CH4CHC2H2CH4SHCH6SHCHFeH4CH2SHFeCH2CHNC2H2C2HCH2CH3CH3C2H4CH2C2HC4H6NC10H9CH5CH4NC4HC3HC3H12CH3SC2H9C2H2CH5FeH5C3HC2SH2CH2CH4CH3CH2C2HSH4CH4CH4CHNHSCH3NCFeSFeSCFeSH2SHFeS2H2NFeSFeS2HS2HFeS2FeS2FeSFeS3FeS2FeS2FeSHCS2FeS2FeSHFeHFeS3C6H9C6H4C6H4CH2CH4C2SHCH4FeC3H3CHC6H4CHC2HC4H4C6H4NC2H2C2HC2H3C3HC3FeCHC3HCHCH3C2HCHCHCHSCFeHNCHC3HC3SH7SCH5NC8FeH22NC10H21NC8H21NC2HCHNC4H10CH5C2H2FeHC2H7SHCHC3H3CH2CHCH3CH2SC2H3CH7CSHCHCH6C4H12CH3CHCH6CH2C2H9CH2CH3CH3CH2C2H6CH7CH4CHC2H7CHCSCHCFeS2FeS2FeSH2S3FeS2FeS2FeSFeCS2CHSHC2HFeSFeH2FeS2FeS2FeSFeS3FeSFeS2FeS3H2CHC7H4C6H5CHC6H6NH7C2HCH2C6H4C6H4CSHCH2CH3C3H4CHCNC12H35CH10CH5NC12H29CH6CNC11H8CH8C2H7CH2C2H2C2HC3H2CNH4CH4C2H3CH3SFeCH3NHC3HCH2C3H4C2H2C2HC2H7SHC2H3CSNC9H21C3HCHCHC2HC3HCH4C2HCH7C2H3C2H2CH3FeH3CSH5NCHCHNHCHC3H2CHC3H4CHC6HCH3C2HNCHCH3NC2H2CH3CH2C3H2CH6CHCH3C4HCHCH5CH5SHCH12CH3SH3SH7C4H2CH4FeS2FeSHFeCFeS3CFeS2FeC2FeSCS2HFeSFeS2FeS2C4H3C6H6SH2C2HC6H5NH2FeC3H9CHC2SCH2CHCH3C2HNH6CHCH2CHCHC4H2FeH5CH4CHC3H6CH3CH2SH3NHCH4CH5C2HCH10CHCH2CHCH4SHCHCHC3H4FeCHCH3CH2CHSH2C2HSHCH2C2HCSHNH2C2HCH3CHCHCH3CH6NHSCH5CH4CSCSC2HC5H5CH4CH7C2HCHCHCHSH4CHCH
_chemical_formula_sum              "Fe384 S768 H6144 C3456 N192"
_cell_length_a       77.0906
_cell_length_b       76.7965
_cell_length_c       76.8348
_cell_angle_alpha    75.3597
_cell_angle_beta     75.2193
_cell_angle_gamma    75.2126

_space_group_name_H-M_alt    "P 1"
_space_group_IT_number       1

loop_
  _space_group_symop_operation_xyz
  'x, y, z'

loop_
  _atom_site_type_symbol
  _atom_site_label
  _atom_site_symmetry_multiplicity
  _atom_site_fract_x
  _atom_site_fract_y
  _atom_site_fract_z
  _atom_site_occupancy
  Fe  Fe1       1.0  0.16223  0.44161  0.10893  1.0000
  S   S1        1.0  0.17836  0.41257  0.11018  1.0000
  S   S2        1.0  0.13240  0.45138  0.12100  1.0000
  Fe  Fe2       1.0  0.19570  0.45810  0.09041  1.0000
  S   S3        1.0  0.21444  0.43076  0.09007  1.0000
  Fe  Fe3       1.0  0.19231  0.42312  0.08117  1.0000
  S   S4        1.0  0.20274  0.40700  0.05835  1.0000
  Fe  Fe4       1.0  0.19918  0.42272  0.11882  1.0000
  S   S5        1.0  0.21239  0.40701  0.14288  1.0000
  S   S6        1.0  0.17457  0.45136  0.07920  1.0000
  S   S7        1.0  0.18186  0.45077  0.11991  1.0000
  H   H1        1.0  0.00286  0.44761  0.18268  1.0000
  H   H2        1.0  0.22459  0.47202  0.21816  1.0000
  S   S8        1.0  0.28932  0.47807  0.19120  1.0000
  H   H3        1.0  0.28323  0.40057  0.07372  1.0000
  H   H4        1.0  0.17301  0.39722  0.16025  1.0000
  S   S9        1.0  0.27318  0.43825  0.18688  1.0000
  C   C1        1.0  0.99849  0.43866  0.19555  1.0000
  H   H5        1.0  0.21444  0.42404  0.17892  1.0000
  C   C2        1.0  0.26282  0.37472  0.11683  1.0000
  H   H6        1.0  0.25557  0.43421  0.08568  1.0000
  C   C3        1.0  0.14962  0.43969  0.19216  1.0000
  S   S10       1.0  0.10564  0.40733  0.20091  1.0000
  H   H7        1.0  0.15624  0.45160  0.18550  1.0000
  H   H8        1.0  0.17475  0.39533  0.22470  1.0000
  H   H9        1.0  0.21302  0.35228  0.11365  1.0000
  H   H10       1.0  0.20356  0.46411  0.01012  1.0000
  C   C4        1.0  0.23371  0.41101  0.14351  1.0000
  C   C5        1.0  0.24330  0.42191  0.12864  1.0000
  C   C6        1.0  0.26103  0.42349  0.12881  1.0000
  C   C7        1.0  0.26882  0.41500  0.14426  1.0000
  C   C8        1.0  0.24162  0.40231  0.15883  1.0000
  H   H11       1.0  0.23717  0.42891  0.11693  1.0000
  H   H12       1.0  0.26861  0.43151  0.11707  1.0000
  H   H13       1.0  0.23435  0.39376  0.17034  1.0000
  C   C9        1.0  0.12533  0.43951  0.14349  1.0000
  C   C10       1.0  0.13502  0.42198  0.14991  1.0000
  C   C11       1.0  0.12869  0.41215  0.16747  1.0000
  C   C12       1.0  0.11306  0.42006  0.17898  1.0000
  C   C13       1.0  0.10359  0.43779  0.17280  1.0000
  C   C14       1.0  0.10958  0.44742  0.15497  1.0000
  H   H14       1.0  0.14708  0.41574  0.14112  1.0000
  H   H15       1.0  0.13590  0.39836  0.17214  1.0000
  H   H16       1.0  0.09171  0.44407  0.18178  1.0000
  H   H17       1.0  0.10212  0.46104  0.15010  1.0000
  C   C15       1.0  0.19436  0.41586  0.03775  1.0000
  C   C16       1.0  0.20514  0.41112  0.02124  1.0000
  C   C17       1.0  0.19878  0.41793  0.00467  1.0000
  C   C18       1.0  0.18144  0.42930  0.00455  1.0000
  C   C19       1.0  0.17059  0.43393  0.02109  1.0000
  C   C20       1.0  0.17702  0.42728  0.03762  1.0000
  H   H18       1.0  0.21850  0.40220  0.02124  1.0000
  H   H19       1.0  0.07707  0.43895  0.14778  1.0000
  H   H20       1.0  0.15713  0.44263  0.02114  1.0000
  H   H21       1.0  0.16852  0.43085  0.05028  1.0000
  C   C21       1.0  0.27202  0.40669  0.08404  1.0000
  C   C22       1.0  0.25894  0.40466  0.15940  1.0000
  H   H22       1.0  0.17464  0.38308  0.20114  1.0000
  H   H23       1.0  0.21602  0.41640  0.20271  1.0000
  H   H24       1.0  0.20720  0.41416  0.99206  1.0000
  C   C23       1.0  0.05675  0.45994  0.15942  1.0000
  H   H25       1.0  0.11750  0.48562  0.98451  1.0000
  C   C24       1.0  0.25556  0.39687  0.08934  1.0000
  H   H26       1.0  0.20606  0.37279  0.09707  1.0000
  C   C25       1.0  0.18444  0.40490  0.21927  1.0000
  H   H27       1.0  0.02051  0.42368  0.13394  1.0000
  S   S11       1.0  0.24758  0.41202  0.22910  1.0000
  N   N1        1.0  0.05993  0.40687  0.16748  1.0000
  C   C26       1.0  0.04740  0.40724  0.15507  1.0000
  C   C27       1.0  0.07956  0.39855  0.15963  1.0000
  C   C28       1.0  0.05384  0.39464  0.18573  1.0000
  C   C29       1.0  0.18267  0.40947  0.18697  1.0000
  H   H28       1.0  0.06432  0.46027  0.16980  1.0000
  C   C30       1.0  0.01175  0.47980  0.20958  1.0000
  C   C31       1.0  0.15869  0.42720  0.20811  1.0000
  C   C32       1.0  0.08598  0.40254  0.13840  1.0000
  C   C33       1.0  0.10674  0.39643  0.13274  1.0000
  C   C34       1.0  0.26652  0.35520  0.14812  1.0000
  C   C35       1.0  0.24306  0.36886  0.09865  1.0000
  C   C36       1.0  0.20337  0.46353  0.02477  1.0000
  H   H29       1.0  0.04836  0.39300  0.15338  1.0000
  H   H30       1.0  0.05170  0.41501  0.14100  1.0000
  H   H31       1.0  0.08923  0.40271  0.16566  1.0000
  H   H32       1.0  0.08205  0.38325  0.16365  1.0000
  H   H33       1.0  0.05235  0.38133  0.18351  1.0000
  C   C37       1.0  0.19910  0.48279  0.02887  1.0000
  H   H34       1.0  0.27890  0.34656  0.12252  1.0000
  C   C38       1.0  0.17604  0.38633  0.17234  1.0000
  S   S12       1.0  0.29110  0.41693  0.14418  1.0000
  Fe  Fe5       1.0  0.29471  0.41871  0.17190  1.0000
  H   H35       1.0  0.19736  0.40252  0.18407  1.0000
  H   H36       1.0  0.30604  0.46646  0.13789  1.0000
  H   H37       1.0  0.01647  0.40118  0.14648  1.0000
  H   H38       1.0  0.18066  0.41969  0.17409  1.0000
  H   H39       1.0  0.07953  0.39478  0.13227  1.0000
  H   H40       1.0  0.08229  0.41728  0.13220  1.0000
  H   H41       1.0  0.11383  0.40451  0.13772  1.0000
  H   H42       1.0  0.11120  0.38158  0.13839  1.0000
  H   H43       1.0  0.11086  0.39882  0.11752  1.0000
  H   H44       1.0  0.21490  0.45601  0.18070  1.0000
  H   H45       1.0  0.15064  0.41625  0.21489  1.0000
  H   H46       1.0  0.04008  0.40102  0.19288  1.0000
  C   C39       1.0  0.00385  0.42133  0.22551  1.0000
  H   H47       1.0  0.27826  0.43371  0.07178  1.0000
  C   C40       1.0  0.21988  0.44384  0.19088  1.0000
  H   H48       1.0  0.24639  0.35356  0.10195  1.0000
  H   H49       1.0  0.29666  0.34383  0.06220  1.0000
  C   C41       1.0  0.24617  0.46430  0.14770  1.0000
  C   C42       1.0  0.27606  0.36637  0.08672  1.0000
  C   C43       1.0  0.27547  0.36830  0.06626  1.0000
  H   H50       1.0  0.06836  0.37391  0.22715  1.0000
  H   H51       1.0  0.27807  0.35139  0.09271  1.0000
  H   H52       1.0  0.28870  0.37043  0.08743  1.0000
  H   H53       1.0  0.26452  0.36187  0.06516  1.0000
  H   H54       1.0  0.27283  0.38289  0.05908  1.0000
  H   H55       1.0  0.25451  0.34798  0.12936  1.0000
  H   H56       1.0  0.02516  0.43027  0.16227  1.0000
  H   H57       1.0  0.18574  0.44237  0.20846  1.0000
  H   H58       1.0  0.12200  0.48192  0.23097  1.0000
  H   H59       1.0  0.08056  0.38313  0.19431  1.0000
  H   H60       1.0  0.00100  0.42165  0.15257  1.0000
  H   H61       1.0  0.15027  0.43200  0.18150  1.0000
  C   C44       1.0  0.22530  0.37541  0.11227  1.0000
  S   S13       1.0  0.29508  0.39553  0.19644  1.0000
  H   H62       1.0  0.25562  0.45454  0.15612  1.0000
  H   H63       1.0  0.05438  0.44178  0.14356  1.0000
  C   C45       1.0  0.25710  0.47325  0.12964  1.0000
  H   H64       1.0  0.04524  0.38382  0.22409  1.0000
  H   H65       1.0  0.24719  0.48106  0.12085  1.0000
  H   H66       1.0  0.29407  0.47058  0.10128  1.0000
  H   H67       1.0  0.02079  0.40803  0.17486  1.0000
  H   H68       1.0  0.23488  0.43931  0.18630  1.0000
  N   N2        1.0  0.17882  0.41893  0.20293  1.0000
  H   H69       1.0  0.27758  0.40586  0.09624  1.0000
  H   H70       1.0  0.04499  0.43032  0.17956  1.0000
  C   C46       1.0  0.00945  0.43289  0.20885  1.0000
  Fe  Fe6       1.0  0.08288  0.42231  0.22006  1.0000
  C   C47       1.0  0.29362  0.35870  0.05590  1.0000
  H   H71       1.0  0.25323  0.36261  0.15507  1.0000
  C   C48       1.0  0.21050  0.42811  0.19246  1.0000
  S   S14       1.0  0.29650  0.42623  0.21941  1.0000
  C   C49       1.0  0.05862  0.42564  0.17103  1.0000
  H   H72       1.0  0.21696  0.45600  0.02780  1.0000
  C   C50       1.0  0.26625  0.42705  0.07566  1.0000
  H   H73       1.0  0.19294  0.45579  0.03367  1.0000
  C   C51       1.0  0.12945  0.44730  0.19929  1.0000
  H   H74       1.0  0.19801  0.39594  0.21517  1.0000
  C   C52       1.0  0.06644  0.39001  0.19985  1.0000
  C   C53       1.0  0.00607  0.47146  0.22988  1.0000
  H   H75       1.0  0.12301  0.45543  0.18759  1.0000
  C   C54       1.0  0.06222  0.44111  0.15402  1.0000
  H   H76       1.0  0.16767  0.37589  0.17439  1.0000
  C   C55       1.0  0.02685  0.41574  0.16135  1.0000
  Fe  Fe7       1.0  0.29594  0.44716  0.19312  1.0000
  H   H77       1.0  0.30500  0.36507  0.05601  1.0000
  H   H78       1.0  0.20523  0.47253  0.11696  1.0000
  H   H79       1.0  0.25142  0.38346  0.12486  1.0000
  C   C56       1.0  0.01562  0.41551  0.14768  1.0000
  C   C57       1.0  0.30366  0.46160  0.12653  1.0000
  H   H80       1.0  0.24960  0.39936  0.07694  1.0000
  H   H81       1.0  0.26626  0.46229  0.12265  1.0000
  H   H82       1.0  0.21731  0.44765  0.20446  1.0000
  C   C58       1.0  0.20947  0.36754  0.11093  1.0000
  H   H83       1.0  0.06717  0.40262  0.20386  1.0000
  H   H84       1.0  0.19715  0.37187  0.12130  1.0000
  C   C59       1.0  0.26574  0.35493  0.12850  1.0000
  H   H85       1.0  0.24487  0.40438  0.09904  1.0000
  S   S15       1.0  0.31788  0.42928  0.17592  1.0000
  H   H86       1.0  0.22720  0.37091  0.12668  1.0000
  H   H87       1.0  0.27519  0.38004  0.11602  1.0000
  Fe  Fe8       1.0  0.27515  0.41609  0.21187  1.0000
  H   H88       1.0  0.00725  0.47296  0.20088  1.0000
  H   H89       1.0  0.15651  0.40016  0.19235  1.0000
  H   H90       1.0  0.19075  0.37956  0.16948  1.0000
  H   H91       1.0  0.18546  0.44413  0.18517  1.0000
  H   H92       1.0  0.06872  0.42494  0.17935  1.0000
  H   H93       1.0  0.26080  0.42869  0.06314  1.0000
  H   H94       1.0  0.26488  0.39801  0.17135  1.0000
  C   C60       1.0  0.17146  0.39451  0.18955  1.0000
  H   H95       1.0  0.22108  0.39058  0.10923  1.0000
  H   H96       1.0  0.12798  0.45633  0.20902  1.0000
  C   C61       1.0  0.20904  0.48569  0.11217  1.0000
  H   H97       1.0  0.23938  0.37250  0.08487  1.0000
  C   C62       1.0  0.18937  0.43418  0.19750  1.0000
  H   H98       1.0  0.06009  0.47070  0.14711  1.0000
  H   H99       1.0  0.26930  0.34091  0.15610  1.0000
  S   S16       1.0  0.05687  0.43984  0.21213  1.0000
  N   N3        1.0  0.25941  0.37666  0.09788  1.0000
  H   H100      1.0  0.29285  0.45350  0.13264  1.0000
  H   H101      1.0  0.15634  0.43566  0.21862  1.0000
  H   H102      1.0  0.02219  0.43738  0.20622  1.0000
  S   S17       1.0  0.17264  0.43769  0.98417  1.0000
  H   H103      1.0  0.08948  0.47394  0.20124  1.0000
  Fe  Fe9       1.0  0.31671  0.40728  0.20181  1.0000
  H   H104      1.0  0.23725  0.45648  0.14487  1.0000
  H   H105      1.0  0.04179  0.46320  0.16515  1.0000
  H   H106      1.0  0.24852  0.48254  0.22611  1.0000
  H   H107      1.0  0.12618  0.48153  0.15554  1.0000
  H   H108      1.0  0.29275  0.36007  0.04139  1.0000
  Fe  Fe10      1.0  0.05989  0.45806  0.22927  1.0000
  H   H109      1.0  0.12213  0.43594  0.20635  1.0000
  H   H110      1.0  0.23739  0.47489  0.15547  1.0000
  H   H111      1.0  0.27759  0.36209  0.14810  1.0000
  H   H112      1.0  0.05818  0.36408  0.21426  1.0000
  C   C63       1.0  0.29762  0.47740  0.11074  1.0000
  C   C64       1.0  0.05904  0.37716  0.21737  1.0000
  C   C65       1.0  0.23276  0.46267  0.22809  1.0000
  H   H113      1.0  0.24421  0.45358  0.22050  1.0000
  H   H114      1.0  0.14668  0.47938  0.13796  1.0000
  H   H115      1.0  0.02688  0.47812  0.20570  1.0000
  H   H116      1.0  0.19877  0.48117  0.04362  1.0000
  H   H117      1.0  0.31900  0.44232  0.10879  1.0000
  H   H118      1.0  0.27424  0.47938  0.14478  1.0000
  S   S18       1.0  0.20819  0.48294  0.07749  1.0000
  C   C66       1.0  0.32116  0.44850  0.11948  1.0000
  H   H119      1.0  0.13184  0.42778  0.98500  1.0000
  H   H120      1.0  0.17051  0.48534  0.02832  1.0000
  H   H121      1.0  0.30988  0.48305  0.10267  1.0000
  C   C67       1.0  0.26798  0.48633  0.13267  1.0000
  H   H122      1.0  0.19675  0.42023  0.23199  1.0000
  C   C68       1.0  0.32265  0.47960  0.19703  1.0000
  H   H123      1.0  0.30482  0.05420  0.44164  1.0000
  S   S19       1.0  0.30833  0.19457  0.46490  1.0000
  Fe  Fe11      1.0  0.28695  0.18925  0.45293  1.0000
  H   H124      1.0  0.10735  0.35959  0.31146  1.0000
  H   H125      1.0  0.11288  0.38004  0.36828  1.0000
  S   S20       1.0  0.07790  0.42150  0.28786  1.0000
  H   H126      1.0  0.99520  0.18477  0.42832  1.0000
  C   C69       1.0  0.15907  0.36673  0.31660  1.0000
  H   H127      1.0  0.17839  0.46391  0.26227  1.0000
  C   C70       1.0  0.12132  0.05288  0.45758  1.0000
  H   H128      1.0  0.16920  0.35552  0.32302  1.0000
  H   H129      1.0  0.00104  0.41736  0.28587  1.0000
  S   S21       1.0  0.18620  0.07311  0.46241  1.0000
  H   H130      1.0  0.10811  0.46104  0.33180  1.0000
  H   H131      1.0  0.00030  0.44603  0.26131  1.0000
  S   S22       1.0  0.20834  0.02372  0.45118  1.0000
  C   C71       1.0  0.22764  0.47466  0.28433  1.0000
  S   S23       1.0  0.21658  0.10983  0.45394  1.0000
  H   H132      1.0  0.32085  0.07680  0.41819  1.0000
  H   H133      1.0  0.19175  0.34342  0.46335  1.0000
  H   H134      1.0  0.08874  0.36235  0.33116  1.0000
  C   C72       1.0  0.13207  0.99111  0.44251  1.0000
  C   C73       1.0  0.25870  0.13240  0.45463  1.0000
  Fe  Fe12      1.0  0.08401  0.15439  0.45872  1.0000
  S   S24       1.0  0.07483  0.18162  0.44091  1.0000
  S   S25       1.0  0.09927  0.12912  0.44750  1.0000
  H   H135      1.0  0.14997  0.36060  0.31191  1.0000
  Fe  Fe13      1.0  0.05040  0.18493  0.46420  1.0000
  S   S26       1.0  0.02112  0.19793  0.46086  1.0000
  Fe  Fe14      1.0  0.08911  0.19292  0.45643  1.0000
  S   S27       1.0  0.11127  0.20909  0.44164  1.0000
  H   H136      1.0  0.13343  0.47813  0.31642  1.0000
  S   S28       1.0  0.09990  0.16538  0.47254  1.0000
  C   C74       1.0  0.20317  0.20020  0.46553  1.0000
  H   H137      1.0  0.14739  0.05700  0.42424  1.0000
  H   H138      1.0  0.20838  0.38047  0.45489  1.0000
  Fe  Fe15      1.0  0.16837  0.42076  0.35140  1.0000
  S   S29       1.0  0.18383  0.40784  0.32720  1.0000
  S   S30       1.0  0.15396  0.40675  0.37908  1.0000
  Fe  Fe16      1.0  0.20221  0.42773  0.32246  1.0000
  S   S31       1.0  0.23259  0.42027  0.31176  1.0000
  Fe  Fe17      1.0  0.16677  0.43112  0.31067  1.0000
  S   S32       1.0  0.15851  0.42833  0.28558  1.0000
  S   S33       1.0  0.18832  0.43889  0.34815  1.0000
  S   S34       1.0  0.14968  0.44254  0.33508  1.0000
  Fe  Fe18      1.0  0.17052  0.31010  0.44574  1.0000
  S   S35       1.0  0.18398  0.32503  0.41811  1.0000
  S   S36       1.0  0.16954  0.28040  0.44815  1.0000
  C   C75       1.0  0.16209  0.38373  0.38929  1.0000
  C   C76       1.0  0.15170  0.37561  0.40579  1.0000
  C   C77       1.0  0.15806  0.35749  0.41465  1.0000
  C   C78       1.0  0.17495  0.34745  0.40711  1.0000
  C   C79       1.0  0.18517  0.35548  0.39045  1.0000
  C   C80       1.0  0.17876  0.37353  0.38153  1.0000
  H   H139      1.0  0.13873  0.38341  0.41181  1.0000
  H   H140      1.0  0.15000  0.35136  0.42737  1.0000
  H   H141      1.0  0.19822  0.34774  0.38449  1.0000
  H   H142      1.0  0.18686  0.37964  0.36881  1.0000
  C   C81       1.0  0.22201  0.24730  0.45402  1.0000
  C   C82       1.0  0.23721  0.23801  0.44296  1.0000
  H   H143      1.0  0.21217  0.25823  0.44775  1.0000
  C   C83       1.0  0.24389  0.41339  0.25226  1.0000
  C   C84       1.0  0.22590  0.41687  0.26223  1.0000
  C   C85       1.0  0.22243  0.41845  0.28062  1.0000
  C   C86       1.0  0.23694  0.41669  0.28917  1.0000
  C   C87       1.0  0.25500  0.41265  0.27936  1.0000
  C   C88       1.0  0.25849  0.41114  0.26086  1.0000
  H   H144      1.0  0.21459  0.41859  0.25565  1.0000
  H   H145      1.0  0.20847  0.42091  0.28815  1.0000
  H   H146      1.0  0.26626  0.41063  0.28608  1.0000
  H   H147      1.0  0.13187  0.35454  0.38586  1.0000
  C   C89       1.0  0.11214  0.22854  0.44932  1.0000
  C   C90       1.0  0.15316  0.03688  0.44921  1.0000
  N   N4        1.0  0.13417  0.03439  0.45951  1.0000
  N   N5        1.0  0.13483  0.37075  0.34652  1.0000
  C   C91       1.0  0.12851  0.25241  0.44768  1.0000
  C   C92       1.0  0.12725  0.23700  0.44171  1.0000
  C   C93       1.0  0.16601  0.37431  0.45317  1.0000
  H   H148      1.0  0.14013  0.25896  0.44169  1.0000
  H   H149      1.0  0.13796  0.23164  0.43110  1.0000
  C   C94       1.0  0.00482  0.18424  0.46415  1.0000
  C   C95       1.0  0.01010  0.16539  0.46425  1.0000
  C   C96       1.0  0.99682  0.15506  0.46604  1.0000
  C   C97       1.0  0.09898  0.25161  0.46812  1.0000
  H   H150      1.0  0.18973  0.40221  0.39368  1.0000
  H   H151      1.0  0.11428  0.40726  0.33876  1.0000
  H   H152      1.0  0.02446  0.15883  0.46256  1.0000
  H   H153      1.0  0.00106  0.14058  0.46570  1.0000
  C   C98       1.0  0.10138  0.05336  0.46867  1.0000
  C   C99       1.0  0.25000  0.22380  0.45102  1.0000
  C   C100      1.0  0.23695  0.11288  0.45822  1.0000
  H   H154      1.0  0.32089  0.01803  0.27020  1.0000
  C   C101      1.0  0.10854  0.41603  0.36428  1.0000
  C   C102      1.0  0.24244  0.12984  0.45133  1.0000
  C   C103      1.0  0.09806  0.23578  0.46267  1.0000
  S   S37       1.0  0.05845  0.15663  0.48073  1.0000
  C   C104      1.0  0.14539  0.48388  0.27857  1.0000
  S   S38       1.0  0.08723  0.44213  0.23478  1.0000
  H   H155      1.0  0.21126  0.21097  0.46345  1.0000
  C   C105      1.0  0.11132  0.11416  0.46379  1.0000
  C   C106      1.0  0.12636  0.10063  0.45834  1.0000
  C   C107      1.0  0.13666  0.08931  0.47116  1.0000
  C   C108      1.0  0.22357  0.32595  0.44624  1.0000
  H   H156      1.0  0.14093  0.39201  0.32230  1.0000
  H   H157      1.0  0.27194  0.46306  0.28533  1.0000
  H   H158      1.0  0.14828  0.07898  0.46689  1.0000
  C   C109      1.0  0.19780  0.00449  0.45842  1.0000
  H   H159      1.0  0.09110  0.08081  0.45358  1.0000
  H   H160      1.0  0.12730  0.35210  0.33409  1.0000
  H   H161      1.0  0.15818  0.35797  0.35944  1.0000
  C   C110      1.0  0.24018  0.47392  0.23722  1.0000
  H   H162      1.0  0.21015  0.99476  0.43320  1.0000
  Fe  Fe19      1.0  0.20304  0.04461  0.46899  1.0000
  H   H163      1.0  0.26293  0.14545  0.44923  1.0000
  H   H164      1.0  0.11057  0.35919  0.35266  1.0000
  H   H165      1.0  0.27244  0.40794  0.25337  1.0000
  C   C111      1.0  0.10022  0.42368  0.28721  1.0000
  C   C112      1.0  0.11395  0.42174  0.27154  1.0000
  C   C113      1.0  0.13178  0.42322  0.27124  1.0000
  C   C114      1.0  0.13598  0.42669  0.28657  1.0000
  C   C115      1.0  0.12227  0.42878  0.30223  1.0000
  C   C116      1.0  0.10442  0.42714  0.30260  1.0000
  H   H166      1.0  0.11091  0.41875  0.25975  1.0000
  H   H167      1.0  0.14233  0.42157  0.25911  1.0000
  H   H168      1.0  0.12542  0.43175  0.31396  1.0000
  H   H169      1.0  0.09378  0.42871  0.31471  1.0000
  H   H170      1.0  0.18892  0.40317  0.26394  1.0000
  C   C117      1.0  0.14826  0.32767  0.38447  1.0000
  C   C118      1.0  0.10939  0.37861  0.32735  1.0000
  H   H171      1.0  0.09416  0.04616  0.46279  1.0000
  H   H172      1.0  0.18999  0.37369  0.41892  1.0000
  C   C119      1.0  0.12565  0.38406  0.35930  1.0000
  C   C120      1.0  0.17667  0.98664  0.48016  1.0000
  H   H173      1.0  0.18251  0.41021  0.43248  1.0000
  H   H174      1.0  0.17896  0.38431  0.30322  1.0000
  C   C121      1.0  0.12106  0.40474  0.35041  1.0000
  H   H175      1.0  0.09944  0.38879  0.33486  1.0000
  C   C122      1.0  0.28679  0.44408  0.26714  1.0000
  H   H176      1.0  0.15804  0.38384  0.33546  1.0000
  C   C123      1.0  0.18879  0.39725  0.25221  1.0000
  H   H177      1.0  0.12345  0.34113  0.37495  1.0000
  H   H178      1.0  0.20226  0.38794  0.24879  1.0000
  H   H179      1.0  0.10638  0.43085  0.35770  1.0000
  Fe  Fe20      1.0  0.07096  0.42693  0.25983  1.0000
  H   H180      1.0  0.14676  0.46870  0.28122  1.0000
  H   H181      1.0  0.08985  0.38025  0.31079  1.0000
  C   C124      1.0  0.31308  0.06181  0.44577  1.0000
  H   H182      1.0  0.28368  0.43491  0.25977  1.0000
  C   C125      1.0  0.18173  0.40161  0.42321  1.0000
  H   H183      1.0  0.09215  0.48279  0.33294  1.0000
  Fe  Fe21      1.0  0.04294  0.42460  0.23877  1.0000
  C   C126      1.0  0.13994  0.00250  0.45107  1.0000
  H   H184      1.0  0.31706  0.09529  0.45073  1.0000
  H   H185      1.0  0.18059  0.05326  0.42518  1.0000
  H   H186      1.0  0.29655  0.45212  0.25737  1.0000
  C   C127      1.0  0.21955  0.24225  0.47314  1.0000
  C   C128      1.0  0.29528  0.14933  0.40179  1.0000
  C   C129      1.0  0.24786  0.09849  0.46829  1.0000
  H   H187      1.0  0.16288  0.23182  0.46554  1.0000
  H   H188      1.0  0.12022  0.05847  0.44298  1.0000
  H   H189      1.0  0.15979  0.38767  0.45761  1.0000
  H   H190      1.0  0.13465  0.38342  0.36883  1.0000
  H   H191      1.0  0.13423  0.46554  0.25912  1.0000
  H   H192      1.0  0.20214  0.48199  0.30344  1.0000
  N   N6        1.0  0.16297  0.14499  0.42743  1.0000
  C   C130      1.0  0.16626  0.14159  0.44667  1.0000
  C   C131      1.0  0.17592  0.15656  0.41419  1.0000
  C   C132      1.0  0.14354  0.15575  0.42745  1.0000
  C   C133      1.0  0.16464  0.12731  0.42136  1.0000
  C   C134      1.0  0.18289  0.11319  0.42198  1.0000
  C   C135      1.0  0.15373  0.13031  0.46192  1.0000
  C   C136      1.0  0.13825  0.16319  0.40829  1.0000
  C   C137      1.0  0.19534  0.15378  0.41823  1.0000
  C   C138      1.0  0.20779  0.16388  0.40219  1.0000
  C   C139      1.0  0.18185  0.09535  0.41723  1.0000
  C   C140      1.0  0.15860  0.12771  0.48058  1.0000
  C   C141      1.0  0.11810  0.17272  0.41012  1.0000
  H   H193      1.0  0.16487  0.15494  0.45055  1.0000
  H   H194      1.0  0.18049  0.13419  0.44750  1.0000
  H   H195      1.0  0.17753  0.15470  0.39990  1.0000
  H   H196      1.0  0.16999  0.17147  0.41392  1.0000
  H   H197      1.0  0.14079  0.16775  0.43419  1.0000
  H   H198      1.0  0.13345  0.14716  0.43570  1.0000
  H   H199      1.0  0.15326  0.12032  0.42953  1.0000
  H   H200      1.0  0.16297  0.13017  0.40692  1.0000
  H   H201      1.0  0.18628  0.10966  0.43577  1.0000
  H   H202      1.0  0.19418  0.11861  0.41164  1.0000
  H   H203      1.0  0.13908  0.13718  0.46319  1.0000
  H   H204      1.0  0.15564  0.11648  0.45903  1.0000
  H   H205      1.0  0.14024  0.15196  0.40089  1.0000
  H   H206      1.0  0.14648  0.17335  0.39959  1.0000
  H   H207      1.0  0.19431  0.15942  0.43052  1.0000
  H   H208      1.0  0.20221  0.13915  0.42098  1.0000
  H   H209      1.0  0.22134  0.16205  0.40573  1.0000
  H   H210      1.0  0.20996  0.15822  0.38968  1.0000
  H   H211      1.0  0.20174  0.17882  0.39928  1.0000
  H   H212      1.0  0.19503  0.08533  0.41796  1.0000
  H   H213      1.0  0.17069  0.08917  0.42711  1.0000
  H   H214      1.0  0.17937  0.09795  0.40309  1.0000
  C   C142      1.0  0.18538  0.41270  0.23571  1.0000
  H   H215      1.0  0.13393  0.41004  0.34524  1.0000
  C   C143      1.0  0.21654  0.34676  0.44340  1.0000
  H   H216      1.0  0.10921  0.16283  0.41799  1.0000
  H   H217      1.0  0.11516  0.18440  0.41718  1.0000
  H   H218      1.0  0.11471  0.17813  0.39630  1.0000
  C   C144      1.0  0.15191  0.20083  0.47183  1.0000
  H   H219      1.0  0.17867  0.18540  0.46252  1.0000
  C   C145      1.0  0.25192  0.46124  0.25101  1.0000
  C   C146      1.0  0.15577  0.04309  0.42804  1.0000
  H   H220      1.0  0.17820  0.36802  0.29034  1.0000
  H   H221      1.0  0.15133  0.20766  0.45739  1.0000
  H   H222      1.0  0.12657  0.19152  0.47632  1.0000
  H   H223      1.0  0.18161  0.42444  0.39975  1.0000
  H   H224      1.0  0.30170  0.44060  0.28878  1.0000
  C   C147      1.0  0.16972  0.37750  0.29949  1.0000
  Fe  Fe22      1.0  0.29661  0.14803  0.46561  1.0000
  H   H225      1.0  0.11837  0.98898  0.45068  1.0000
  S   S39       1.0  0.06392  0.19882  0.47822  1.0000
  H   H226      1.0  0.01081  0.47899  0.23773  1.0000
  H   H227      1.0  0.11067  0.47605  0.34522  1.0000
  H   H228      1.0  0.16341  0.02403  0.45224  1.0000
  H   H229      1.0  0.23869  0.32285  0.44148  1.0000
  H   H230      1.0  0.16071  0.34636  0.46196  1.0000
  C   C148      1.0  0.32032  0.00361  0.27080  1.0000
  H   H231      1.0  0.23246  0.46259  0.29466  1.0000
  H   H232      1.0  0.17773  0.38926  0.25659  1.0000
  C   C149      1.0  0.31433  0.07993  0.43201  1.0000
  H   H233      1.0  0.12453  0.02831  0.43796  1.0000
  S   S40       1.0  0.11476  0.27985  0.46770  1.0000
  H   H234      1.0  0.09888  0.48154  0.24401  1.0000
  H   H235      1.0  0.20694  0.38172  0.42493  1.0000
  C   C150      1.0  0.09062  0.07315  0.46800  1.0000
  S   S41       1.0  0.30579  0.16687  0.43909  1.0000
  H   H236      1.0  0.30670  0.11187  0.41131  1.0000
  C   C151      1.0  0.20091  0.99247  0.44639  1.0000
  C   C152      1.0  0.17750  0.22566  0.46095  1.0000
  H   H237      1.0  0.08780  0.25746  0.47808  1.0000
  H   H238      1.0  0.24383  0.08537  0.47358  1.0000
  H   H239      1.0  0.25766  0.20840  0.47647  1.0000
  C   C153      1.0  0.17997  0.22551  0.44021  1.0000
  H   H240      1.0  0.11481  0.41407  0.37633  1.0000
  H   H241      1.0  0.15015  0.45570  0.39068  1.0000
  C   C154      1.0  0.11428  0.25983  0.46079  1.0000
  S   S42       1.0  0.14182  0.31767  0.46179  1.0000
  C   C155      1.0  0.19636  0.23346  0.42808  1.0000
  Fe  Fe23      1.0  0.17076  0.45963  0.33004  1.0000
  H   H242      1.0  0.20419  0.41161  0.40252  1.0000
  H   H243      1.0  0.23821  0.16235  0.47552  1.0000
  Fe  Fe24      1.0  0.14163  0.28770  0.46571  1.0000
  H   H244      1.0  0.14117  0.32199  0.39849  1.0000
  C   C156      1.0  0.26419  0.10096  0.47138  1.0000
  H   H245      1.0  0.29068  0.48104  0.26646  1.0000
  C   C157      1.0  0.26962  0.11791  0.46468  1.0000
  C   C158      1.0  0.18589  0.00133  0.47549  1.0000
  H   H246      1.0  0.22025  0.31946  0.46102  1.0000
  H   H247      1.0  0.22319  0.35215  0.45155  1.0000
  H   H248      1.0  0.18098  0.21162  0.43778  1.0000
  H   H249      1.0  0.16762  0.23425  0.43525  1.0000
  H   H250      1.0  0.16706  0.40221  0.42377  1.0000
  Fe  Fe25      1.0  0.20830  0.08288  0.46929  1.0000
  S   S43       1.0  0.18625  0.45004  0.30433  1.0000
  H   H251      1.0  0.22995  0.17045  0.45437  1.0000
  S   S44       1.0  0.18359  0.30456  0.47029  1.0000
  S   S45       1.0  0.06880  0.40556  0.24567  1.0000
  C   C159      1.0  0.24771  0.21910  0.47016  1.0000
  Fe  Fe26      1.0  0.18035  0.27567  0.47388  1.0000
  H   H252      1.0  0.15159  0.31706  0.37597  1.0000
  H   H253      1.0  0.15196  0.03341  0.42183  1.0000
  H   H254      1.0  0.19699  0.23346  0.41348  1.0000
  H   H255      1.0  0.19487  0.24789  0.42934  1.0000
  H   H256      1.0  0.20948  0.22527  0.43173  1.0000
  H   H257      1.0  0.30229  0.12279  0.43024  1.0000
  C   C160      1.0  0.27196  0.48242  0.24824  1.0000
  C   C161      1.0  0.19207  0.38142  0.42848  1.0000
  H   H258      1.0  0.11126  0.46525  0.27207  1.0000
  H   H259      1.0  0.00449  0.22776  0.48047  1.0000
  H   H260      1.0  0.06676  0.33086  0.47340  1.0000
  H   H261      1.0  0.22104  0.35246  0.42858  1.0000
  H   H262      1.0  0.18663  0.39479  0.45958  1.0000
  N   N7        1.0  0.18671  0.37169  0.44821  1.0000
  C   C162      1.0  0.24383  0.48343  0.27198  1.0000
  C   C163      1.0  0.19536  0.35155  0.44930  1.0000
  H   H263      1.0  0.17730  0.04913  0.40426  1.0000
  H   H264      1.0  0.02700  0.23142  0.47922  1.0000
  C   C164      1.0  0.14798  0.37928  0.33036  1.0000
  H   H265      1.0  0.99670  0.47540  0.26695  1.0000
  S   S46       1.0  0.01737  0.41364  0.24244  1.0000
  C   C165      1.0  0.29669  0.43200  0.28224  1.0000
  H   H266      1.0  0.16122  0.33074  0.38557  1.0000
  H   H267      1.0  0.23904  0.24178  0.42815  1.0000
  H   H268      1.0  0.16012  0.38808  0.29177  1.0000
  H   H269      1.0  0.17289  0.11990  0.48044  1.0000
  H   H270      1.0  0.18966  0.34584  0.44054  1.0000
  H   H271      1.0  0.12696  0.06298  0.46134  1.0000
  C   C166      1.0  0.14293  0.48534  0.38882  1.0000
  C   C167      1.0  0.13682  0.36467  0.47304  1.0000
  H   H272      1.0  0.15746  0.04731  0.45404  1.0000
  H   H273      1.0  0.07607  0.07319  0.47484  1.0000
  H   H274      1.0  0.11485  0.46033  0.24098  1.0000
  H   H275      1.0  0.15166  0.34320  0.34882  1.0000
  H   H276      1.0  0.30864  0.42219  0.27623  1.0000
  H   H277      1.0  0.29667  0.16234  0.39168  1.0000
  S   S47       1.0  0.29060  0.12007  0.46831  1.0000
  N   N8        1.0  0.25915  0.47092  0.26162  1.0000
  H   H278      1.0  0.24378  0.45131  0.26055  1.0000
  H   H279      1.0  0.18485  0.23587  0.46233  1.0000
  C   C168      1.0  0.31275  0.11957  0.41788  1.0000
  H   H280      1.0  0.14125  0.99472  0.46510  1.0000
  C   C169      1.0  0.18987  0.41045  0.40361  1.0000
  H   H281      1.0  0.11696  0.46901  0.29764  1.0000
  H   H282      1.0  0.13060  0.36784  0.46075  1.0000
  C   C170      1.0  0.19359  0.38014  0.46021  1.0000
  C   C171      1.0  0.13592  0.34509  0.37606  1.0000
  H   H283      1.0  0.26345  0.45268  0.24287  1.0000
  H   H284      1.0  0.20495  0.19708  0.45174  1.0000
  C   C172      1.0  0.14605  0.35419  0.35701  1.0000
  H   H285      1.0  0.15966  0.46877  0.36891  1.0000
  H   H286      1.0  0.13020  0.09911  0.44416  1.0000
  H   H287      1.0  0.13086  0.48414  0.40024  1.0000
  S   S48       1.0  0.26847  0.21175  0.43704  1.0000
  H   H288      1.0  0.16051  0.37520  0.44084  1.0000
  C   C173      1.0  0.23148  0.17465  0.46661  1.0000
  H   H289      1.0  0.08630  0.22943  0.46849  1.0000
  H   H290      1.0  0.18466  0.03002  0.42172  1.0000
  C   C174      1.0  0.14117  0.18545  0.47692  1.0000
  S   S49       1.0  0.04369  0.44448  0.25540  1.0000
  H   H291      1.0  0.23414  0.14096  0.44339  1.0000
  H   H292      1.0  0.21738  0.31985  0.43822  1.0000
  C   C175      1.0  0.11349  0.47444  0.24305  1.0000
  C   C176      1.0  0.14733  0.46841  0.38018  1.0000
  H   H293      1.0  0.22826  0.48300  0.24415  1.0000
  H   H294      1.0  0.99626  0.17542  0.40877  1.0000
  H   H295      1.0  0.99853  0.26064  0.41073  1.0000
  H   H296      1.0  0.11811  0.38583  0.31532  1.0000
  C   C177      1.0  0.30555  0.99829  0.28752  1.0000
  H   H297      1.0  0.28191  0.47431  0.23842  1.0000
  C   C178      1.0  0.17579  0.04394  0.41932  1.0000
  C   C179      1.0  0.12732  0.02170  0.45191  1.0000
  C   C180      1.0  0.12075  0.36427  0.34054  1.0000
  C   C181      1.0  0.13498  0.02606  0.47938  1.0000
  H   H298      1.0  0.28728  0.15286  0.41513  1.0000
  H   H299      1.0  0.15383  0.00356  0.44276  1.0000
  H   H300      1.0  0.11387  0.01910  0.46044  1.0000
  C   C182      1.0  0.21280  0.18269  0.47733  1.0000
  H   H301      1.0  0.09501  0.41196  0.36901  1.0000
  C   C183      1.0  0.26886  0.45658  0.27534  1.0000
  H   H302      1.0  0.25972  0.44716  0.28395  1.0000
  C   C184      1.0  0.09818  0.36954  0.31980  1.0000
  H   H303      1.0  0.13294  0.37687  0.47952  1.0000
  H   H304      1.0  0.14651  0.17610  0.46707  1.0000
  H   H305      1.0  0.14592  0.01349  0.48029  1.0000
  H   H306      1.0  0.99826  0.24889  0.39331  1.0000
  H   H307      1.0  0.27255  0.08970  0.47915  1.0000
  H   H308      1.0  0.30001  0.08762  0.43189  1.0000
  H   H309      1.0  0.31582  0.00273  0.25852  1.0000
  H   H310      1.0  0.28745  0.42399  0.29297  1.0000
  H   H311      1.0  0.22039  0.47012  0.27606  1.0000
  H   H312      1.0  0.14461  0.21103  0.48051  1.0000
  C   C185      1.0  0.17221  0.19329  0.47369  1.0000
  N   N9        1.0  0.18317  0.20728  0.47311  1.0000
  C   C186      1.0  0.10669  0.47565  0.33243  1.0000
  H   H313      1.0  0.30627  0.06449  0.45973  1.0000
  H   H314      1.0  0.13094  0.99797  0.42815  1.0000
  H   H315      1.0  0.15125  0.48624  0.28941  1.0000
  S   S50       1.0  0.31904  0.14969  0.47859  1.0000
  H   H316      1.0  0.28761  0.14173  0.39688  1.0000
  C   C187      1.0  0.19094  0.37113  0.48090  1.0000
  H   H317      1.0  0.30909  0.99927  0.30034  1.0000
  H   H318      1.0  0.18337  0.48166  0.27080  1.0000
  C   C188      1.0  0.31428  0.13782  0.40387  1.0000
  C   C189      1.0  0.15765  0.35894  0.46773  1.0000
  S   S51       1.0  0.22649  0.05478  0.47275  1.0000
  H   H319      1.0  0.24046  0.18489  0.46205  1.0000
  H   H320      1.0  0.13564  0.46778  0.37453  1.0000
  H   H321      1.0  0.09633  0.08040  0.47536  1.0000
  C   C190      1.0  0.11909  0.48509  0.31580  1.0000
  C   C191      1.0  0.23246  0.22826  0.48119  1.0000
  H   H322      1.0  0.29222  0.00778  0.28609  1.0000
  C   C192      1.0  0.17792  0.47890  0.25992  1.0000
  H   H323      1.0  0.17246  0.42225  0.24015  1.0000
  H   H324      1.0  0.20440  0.17204  0.48176  1.0000
  H   H325      1.0  0.19330  0.47786  0.34488  1.0000
  H   H326      1.0  0.22380  0.45409  0.23851  1.0000
  S   S52       1.0  0.27615  0.17002  0.47827  1.0000
  H   H327      1.0  0.15495  0.48482  0.39449  1.0000
  C   C193      1.0  0.11461  0.48393  0.29761  1.0000
  H   H328      1.0  0.18683  0.48304  0.24640  1.0000
  C   C194      1.0  0.11987  0.47330  0.26063  1.0000
  H   H329      1.0  0.16313  0.35520  0.48042  1.0000
  H   H330      1.0  0.32149  0.14634  0.40804  1.0000
  H   H331      1.0  0.32157  0.13490  0.39014  1.0000
  H   H332      1.0  0.32297  0.23183  0.39082  1.0000
  H   H333      1.0  0.01344  0.45692  0.23224  1.0000
  H   H334      1.0  0.27173  0.33555  0.63288  1.0000
  S   S53       1.0  0.22652  0.03913  0.52523  1.0000
  H   H335      1.0  0.21523  0.18599  0.48968  1.0000
  Fe  Fe27      1.0  0.22562  0.09732  0.58356  1.0000
  S   S54       1.0  0.24061  0.08570  0.60676  1.0000
  S   S55       1.0  0.23848  0.10391  0.55367  1.0000
  Fe  Fe28      1.0  0.18819  0.10065  0.60871  1.0000
  S   S56       1.0  0.19973  0.08978  0.63424  1.0000
  S   S57       1.0  0.15861  0.10795  0.60686  1.0000
  Fe  Fe29      1.0  0.22036  0.10770  0.62008  1.0000
  S   S58       1.0  0.22717  0.12895  0.63150  1.0000
  Fe  Fe30      1.0  0.21878  0.06874  0.61854  1.0000
  S   S59       1.0  0.22354  0.03828  0.63122  1.0000
  S   S60       1.0  0.20690  0.12039  0.59590  1.0000
  S   S61       1.0  0.20560  0.07861  0.59412  1.0000
  H   H336      1.0  0.25869  0.12216  0.57426  1.0000
  S   S62       1.0  0.07292  0.16297  0.52322  1.0000
  C   C195      1.0  0.12381  0.02928  0.61838  1.0000
  Fe  Fe31      1.0  0.10829  0.20112  0.61246  1.0000
  S   S63       1.0  0.08805  0.22757  0.61571  1.0000
  S   S64       1.0  0.12131  0.18176  0.63498  1.0000
  Fe  Fe32      1.0  0.11252  0.20852  0.57139  1.0000
  S   S65       1.0  0.09300  0.23570  0.57095  1.0000
  S   S66       1.0  0.12711  0.19894  0.54506  1.0000
  Fe  Fe33      1.0  0.10717  0.23991  0.59113  1.0000
  S   S67       1.0  0.11501  0.26713  0.58749  1.0000
  Fe  Fe34      1.0  0.07536  0.22105  0.59528  1.0000
  S   S68       1.0  0.04489  0.22843  0.59514  1.0000
  S   S69       1.0  0.12835  0.21405  0.58934  1.0000
  S   S70       1.0  0.09395  0.19343  0.59430  1.0000
  C   C196      1.0  0.27010  0.12794  0.57544  1.0000
  C   C197      1.0  0.27102  0.22471  0.59023  1.0000
  C   C198      1.0  0.20542  0.99674  0.62208  1.0000
  H   H337      1.0  0.27093  0.12368  0.59022  1.0000
  H   H338      1.0  0.28400  0.30525  0.63406  1.0000
  H   H339      1.0  0.11690  0.00713  0.61010  1.0000
  H   H340      1.0  0.30754  0.10067  0.53561  1.0000
  S   S71       1.0  0.14491  0.32067  0.51256  1.0000
  H   H341      1.0  0.29538  0.21597  0.50896  1.0000
  H   H342      1.0  0.19652  0.98978  0.55183  1.0000
  H   H343      1.0  0.03085  0.15136  0.54677  1.0000
  Fe  Fe35      1.0  0.19040  0.29137  0.61631  1.0000
  S   S72       1.0  0.21269  0.29304  0.59120  1.0000
  S   S73       1.0  0.17823  0.26593  0.62583  1.0000
  Fe  Fe36      1.0  0.19348  0.32731  0.62476  1.0000
  S   S74       1.0  0.21582  0.33196  0.59975  1.0000
  S   S75       1.0  0.18253  0.34307  0.64827  1.0000
  Fe  Fe37      1.0  0.19914  0.32270  0.58486  1.0000
  S   S76       1.0  0.19991  0.33393  0.55446  1.0000
  Fe  Fe38      1.0  0.22750  0.30190  0.60785  1.0000
  S   S77       1.0  0.25790  0.29163  0.60581  1.0000
  S   S78       1.0  0.17546  0.32062  0.60914  1.0000
  S   S79       1.0  0.20640  0.29768  0.63371  1.0000
  H   H344      1.0  0.00093  0.21448  0.51292  1.0000
  S   S80       1.0  0.30356  0.17892  0.61200  1.0000
  H   H345      1.0  0.30897  0.11498  0.59029  1.0000
  Fe  Fe39      1.0  0.30678  0.19212  0.63351  1.0000
  S   S81       1.0  0.28119  0.20974  0.64670  1.0000
  H   H346      1.0  0.18343  0.01044  0.48488  1.0000
  C   C199      1.0  0.26418  0.26849  0.61621  1.0000
  C   C200      1.0  0.25099  0.25899  0.62788  1.0000
  C   C201      1.0  0.25637  0.24091  0.63716  1.0000
  C   C202      1.0  0.27486  0.23206  0.63428  1.0000
  C   C203      1.0  0.28797  0.24129  0.62199  1.0000
  C   C204      1.0  0.28265  0.25960  0.61315  1.0000
  H   H347      1.0  0.23670  0.26567  0.63013  1.0000
  H   H348      1.0  0.24621  0.23375  0.64660  1.0000
  H   H349      1.0  0.30226  0.23451  0.61977  1.0000
  H   H350      1.0  0.29287  0.26691  0.60407  1.0000
  C   C205      1.0  0.21190  0.38088  0.66360  1.0000
  C   C206      1.0  0.21749  0.37599  0.64626  1.0000
  C   C207      1.0  0.20867  0.36448  0.64138  1.0000
  C   C208      1.0  0.19400  0.35775  0.65379  1.0000
  C   C209      1.0  0.18814  0.36289  0.67105  1.0000
  C   C210      1.0  0.19706  0.37434  0.67598  1.0000
  H   H351      1.0  0.22877  0.38119  0.63650  1.0000
  H   H352      1.0  0.21313  0.36096  0.62794  1.0000
  H   H353      1.0  0.17673  0.35786  0.68072  1.0000
  H   H354      1.0  0.24240  0.34327  0.71245  1.0000
  C   C211      1.0  0.16130  0.32221  0.52422  1.0000
  C   C212      1.0  0.15723  0.31945  0.54348  1.0000
  C   C213      1.0  0.16936  0.32219  0.55299  1.0000
  C   C214      1.0  0.18536  0.32834  0.54323  1.0000
  C   C215      1.0  0.18957  0.33085  0.52398  1.0000
  C   C216      1.0  0.17776  0.32745  0.51452  1.0000
  H   H355      1.0  0.14457  0.31542  0.55110  1.0000
  H   H356      1.0  0.16596  0.32031  0.56781  1.0000
  H   H357      1.0  0.20195  0.33558  0.51637  1.0000
  H   H358      1.0  0.18108  0.32950  0.49971  1.0000
  H   H359      1.0  0.30191  0.18577  0.57524  1.0000
  H   H360      1.0  0.26864  0.29686  0.67590  1.0000
  H   H361      1.0  0.24560  0.34503  0.60598  1.0000
  C   C217      1.0  0.22349  0.27537  0.67466  1.0000
  H   H362      1.0  0.25062  0.35202  0.63380  1.0000
  C   C218      1.0  0.29931  0.24014  0.56290  1.0000
  H   H363      1.0  0.15697  0.14124  0.48416  1.0000
  H   H364      1.0  0.25586  0.26473  0.57873  1.0000
  H   H365      1.0  0.14852  0.31934  0.66000  1.0000
  C   C219      1.0  0.28151  0.08730  0.56884  1.0000
  H   H366      1.0  0.11486  0.31787  0.59457  1.0000
  C   C220      1.0  0.18178  0.21001  0.49225  1.0000
  C   C221      1.0  0.13487  0.26521  0.59565  1.0000
  C   C222      1.0  0.14430  0.27971  0.59005  1.0000
  C   C223      1.0  0.15876  0.27935  0.59824  1.0000
  C   C224      1.0  0.16340  0.26473  0.61243  1.0000
  C   C225      1.0  0.15488  0.24964  0.61707  1.0000
  C   C226      1.0  0.14072  0.24981  0.60859  1.0000
  H   H367      1.0  0.14007  0.29150  0.57981  1.0000
  H   H368      1.0  0.16554  0.29088  0.59434  1.0000
  H   H369      1.0  0.15869  0.23815  0.62778  1.0000
  H   H370      1.0  0.13365  0.23847  0.61282  1.0000
  C   C227      1.0  0.29694  0.28274  0.65243  1.0000
  C   C228      1.0  0.03076  0.17872  0.60457  1.0000
  C   C229      1.0  0.04106  0.19232  0.60151  1.0000
  C   C230      1.0  0.03249  0.21091  0.59893  1.0000
  H   H371      1.0  0.03747  0.16436  0.60670  1.0000
  H   H372      1.0  0.05559  0.18838  0.60130  1.0000
  H   H373      1.0  0.10345  0.23310  0.64847  1.0000
  C   C231      1.0  0.24421  0.32880  0.69089  1.0000
  H   H374      1.0  0.00683  0.23011  0.59733  1.0000
  H   H375      1.0  0.28490  0.21934  0.59346  1.0000
  S   S82       1.0  0.15239  0.28004  0.49157  1.0000
  C   C232      1.0  0.08885  0.17215  0.52890  1.0000
  C   C233      1.0  0.09965  0.18316  0.51540  1.0000
  C   C234      1.0  0.11186  0.19095  0.52033  1.0000
  C   C235      1.0  0.11312  0.18787  0.53874  1.0000
  C   C236      1.0  0.10266  0.17650  0.55212  1.0000
  C   C237      1.0  0.09047  0.16873  0.54723  1.0000
  H   H376      1.0  0.09823  0.18609  0.50126  1.0000
  H   H377      1.0  0.11967  0.20004  0.51002  1.0000
  H   H378      1.0  0.10399  0.17358  0.56626  1.0000
  H   H379      1.0  0.08217  0.16017  0.55769  1.0000
  C   C238      1.0  0.25060  0.12790  0.63016  1.0000
  C   C239      1.0  0.25628  0.14393  0.62983  1.0000
  C   C240      1.0  0.27455  0.14342  0.63001  1.0000
  C   C241      1.0  0.28742  0.12688  0.63023  1.0000
  C   C242      1.0  0.28190  0.11090  0.62996  1.0000
  C   C243      1.0  0.26353  0.11139  0.62992  1.0000
  H   H380      1.0  0.24657  0.15681  0.62942  1.0000
  H   H381      1.0  0.27855  0.15576  0.63041  1.0000
  H   H382      1.0  0.29180  0.09805  0.63012  1.0000
  H   H383      1.0  0.25929  0.09891  0.63026  1.0000
  C   C244      1.0  0.14783  0.12783  0.61563  1.0000
  C   C245      1.0  0.15664  0.13462  0.62551  1.0000
  C   C246      1.0  0.14811  0.15085  0.63201  1.0000
  C   C247      1.0  0.13105  0.16058  0.62823  1.0000
  C   C248      1.0  0.12220  0.15364  0.61850  1.0000
  C   C249      1.0  0.13052  0.13722  0.61230  1.0000
  H   H384      1.0  0.16999  0.12735  0.62819  1.0000
  H   H385      1.0  0.15484  0.15603  0.63969  1.0000
  H   H386      1.0  0.10877  0.16071  0.61608  1.0000
  H   H387      1.0  0.12361  0.13199  0.60474  1.0000
  C   C250      1.0  0.01356  0.21577  0.59930  1.0000
  C   C251      1.0  0.21766  0.02859  0.60132  1.0000
  H   H388      1.0  0.28335  0.17981  0.55637  1.0000
  H   H389      1.0  0.21293  0.02077  0.57816  1.0000
  H   H390      1.0  0.22268  0.04063  0.59315  1.0000
  C   C252      1.0  0.20915  0.98863  0.52320  1.0000
  H   H391      1.0  0.01820  0.14929  0.57022  1.0000
  N   N10       1.0  0.24920  0.31641  0.66097  1.0000
  C   C253      1.0  0.21671  0.02425  0.62030  1.0000
  C   C254      1.0  0.23269  0.05645  0.53198  1.0000
  C   C255      1.0  0.23567  0.05355  0.54975  1.0000
  C   C256      1.0  0.23864  0.06792  0.55603  1.0000
  C   C257      1.0  0.23857  0.08524  0.54452  1.0000
  C   C258      1.0  0.23659  0.08791  0.52638  1.0000
  C   C259      1.0  0.23358  0.07349  0.52013  1.0000
  H   H392      1.0  0.23485  0.04049  0.55893  1.0000
  H   H393      1.0  0.24043  0.06575  0.56998  1.0000
  H   H394      1.0  0.23663  0.10128  0.51740  1.0000
  H   H395      1.0  0.23166  0.07567  0.50625  1.0000
  N   N11       1.0  0.02594  0.20899  0.53672  1.0000
  C   C260      1.0  0.02291  0.19000  0.53802  1.0000
  C   C261      1.0  0.02645  0.22008  0.51726  1.0000
  C   C262      1.0  0.04443  0.20681  0.54127  1.0000
  C   C263      1.0  0.01171  0.21907  0.55023  1.0000
  C   C264      1.0  0.99711  0.17126  0.65855  1.0000
  C   C265      1.0  0.02234  0.17684  0.55707  1.0000
  C   C266      1.0  0.05034  0.22493  0.54039  1.0000
  C   C267      1.0  0.01498  0.21579  0.50545  1.0000
  H   H396      1.0  0.26514  0.01674  0.65112  1.0000
  H   H397      1.0  0.99079  0.08956  0.56330  1.0000
  C   C268      1.0  0.01920  0.15822  0.55629  1.0000
  C   C269      1.0  0.07053  0.22139  0.54118  1.0000
  H   H398      1.0  0.03379  0.18306  0.52786  1.0000
  H   H399      1.0  0.00974  0.19075  0.53429  1.0000
  H   H400      1.0  0.02239  0.23506  0.51737  1.0000
  H   H401      1.0  0.04073  0.21815  0.50899  1.0000
  H   H402      1.0  0.05522  0.19876  0.53199  1.0000
  H   H403      1.0  0.04492  0.19891  0.55547  1.0000
  H   H404      1.0  0.01313  0.21218  0.56449  1.0000
  H   H405      1.0  0.01405  0.23315  0.54856  1.0000
  C   C270      1.0  0.27102  0.25893  0.55175  1.0000
  H   H406      1.0  0.29329  0.27214  0.66480  1.0000
  H   H407      1.0  0.03539  0.17403  0.56180  1.0000
  H   H408      1.0  0.10111  0.02906  0.60636  1.0000
  H   H409      1.0  0.04234  0.23106  0.55240  1.0000
  H   H410      1.0  0.04827  0.23516  0.52764  1.0000
  H   H411      1.0  0.30778  0.09431  0.56584  1.0000
  H   H412      1.0  0.22363  0.27130  0.68957  1.0000
  H   H413      1.0  0.29594  0.13799  0.58954  1.0000
  H   H414      1.0  0.00108  0.15660  0.66515  1.0000
  H   H415      1.0  0.15152  0.41316  0.72231  1.0000
  H   H416      1.0  0.03591  0.28229  0.55495  1.0000
  H   H417      1.0  0.06000  0.31417  0.67805  1.0000
  H   H418      1.0  0.26249  0.01071  0.62238  1.0000
  C   C271      1.0  0.26406  0.98840  0.59869  1.0000
  S   S83       1.0  0.22467  0.39425  0.66923  1.0000
  H   H419      1.0  0.00629  0.15987  0.55161  1.0000
  H   H420      1.0  0.07341  0.21114  0.55374  1.0000
  H   H421      1.0  0.07923  0.21639  0.52881  1.0000
  Fe  Fe40      1.0  0.23158  0.40865  0.72831  1.0000
  N   N12       1.0  0.19932  0.25347  0.54267  1.0000
  C   C272      1.0  0.21385  0.26259  0.52896  1.0000
  C   C273      1.0  0.20211  0.23396  0.54016  1.0000
  C   C274      1.0  0.18098  0.26369  0.53810  1.0000
  C   C275      1.0  0.19895  0.25387  0.56234  1.0000
  C   C276      1.0  0.21757  0.25265  0.56733  1.0000
  C   C277      1.0  0.21113  0.28360  0.52752  1.0000
  C   C278      1.0  0.16410  0.25574  0.54984  1.0000
  C   C279      1.0  0.22058  0.22093  0.54303  1.0000
  C   C280      1.0  0.22189  0.20218  0.53872  1.0000
  C   C281      1.0  0.21639  0.24692  0.58805  1.0000
  C   C282      1.0  0.22869  0.29055  0.51760  1.0000
  C   C283      1.0  0.14638  0.26823  0.54516  1.0000
  H   H422      1.0  0.21455  0.26052  0.51493  1.0000
  H   H423      1.0  0.22769  0.25609  0.53173  1.0000
  H   H424      1.0  0.19150  0.22693  0.54995  1.0000
  H   H425      1.0  0.20048  0.23412  0.52611  1.0000
  H   H426      1.0  0.18112  0.26453  0.52335  1.0000
  H   H427      1.0  0.17807  0.27817  0.53991  1.0000
  H   H428      1.0  0.18999  0.26681  0.56621  1.0000
  H   H429      1.0  0.19238  0.24271  0.57187  1.0000
  H   H430      1.0  0.22150  0.26628  0.56270  1.0000
  H   H431      1.0  0.22881  0.24278  0.56079  1.0000
  H   H432      1.0  0.20042  0.29100  0.51943  1.0000
  H   H433      1.0  0.20668  0.28737  0.54124  1.0000
  H   H434      1.0  0.16337  0.25425  0.56473  1.0000
  H   H435      1.0  0.16445  0.24214  0.54720  1.0000
  H   H436      1.0  0.23243  0.22652  0.53397  1.0000
  H   H437      1.0  0.22171  0.21835  0.55760  1.0000
  H   H438      1.0  0.23531  0.19314  0.54071  1.0000
  H   H439      1.0  0.21081  0.19542  0.54798  1.0000
  H   H440      1.0  0.22085  0.20365  0.52424  1.0000
  H   H441      1.0  0.22924  0.24782  0.59148  1.0000
  H   H442      1.0  0.20489  0.25620  0.59522  1.0000
  H   H443      1.0  0.21418  0.23261  0.59310  1.0000
  H   H444      1.0  0.23992  0.28374  0.52515  1.0000
  H   H445      1.0  0.23292  0.28787  0.50341  1.0000
  H   H446      1.0  0.22626  0.30559  0.51680  1.0000
  H   H447      1.0  0.14417  0.28168  0.54914  1.0000
  H   H448      1.0  0.14668  0.27057  0.53029  1.0000
  H   H449      1.0  0.13476  0.26149  0.55269  1.0000
  H   H450      1.0  0.13737  0.31788  0.59766  1.0000
  C   C284      1.0  0.20628  0.00121  0.60311  1.0000
  H   H451      1.0  0.09166  0.32041  0.51192  1.0000
  H   H452      1.0  0.14929  0.11980  0.49132  1.0000
  C   C285      1.0  0.29720  0.18158  0.55035  1.0000
  C   C286      1.0  0.30116  0.11502  0.53017  1.0000
  H   H453      1.0  0.20978  0.00486  0.64535  1.0000
  H   H454      1.0  0.14331  0.03724  0.51754  1.0000
  H   H455      1.0  0.19262  0.37796  0.68938  1.0000
  H   H456      1.0  0.23646  0.00958  0.50460  1.0000
  H   H457      1.0  0.25366  0.35362  0.69004  1.0000
  H   H458      1.0  0.28422  0.06721  0.59427  1.0000
  H   H459      1.0  0.05052  0.25967  0.55636  1.0000
  H   H460      1.0  0.99521  0.14297  0.52842  1.0000
  H   H461      1.0  0.11475  0.39915  0.70778  1.0000
  H   H462      1.0  0.18603  0.19668  0.50145  1.0000
  H   H463      1.0  0.06369  0.29629  0.54787  1.0000
  H   H464      1.0  0.05766  0.29388  0.69568  1.0000
  C   C287      1.0  0.12978  0.37642  0.69503  1.0000
  H   H465      1.0  0.24290  0.28973  0.55504  1.0000
  C   C288      1.0  0.05897  0.27964  0.53169  1.0000
  H   H466      1.0  0.05188  0.29163  0.52282  1.0000
  H   H467      1.0  0.13122  0.35323  0.48309  1.0000
  S   S84       1.0  0.14495  0.07779  0.50550  1.0000
  C   C289      1.0  0.12921  0.44631  0.71161  1.0000
  H   H468      1.0  0.06913  0.30210  0.49664  1.0000
  H   H469      1.0  0.27548  0.99303  0.65865  1.0000
  H   H470      1.0  0.15347  0.20849  0.50630  1.0000
  H   H471      1.0  0.14943  0.38858  0.71121  1.0000
  H   H472      1.0  0.15226  0.01602  0.50945  1.0000
  H   H473      1.0  0.28889  0.12937  0.50650  1.0000
  H   H474      1.0  0.12866  0.42202  0.70325  1.0000
  H   H475      1.0  0.21261  0.13792  0.49105  1.0000
  H   H476      1.0  0.23071  0.22448  0.49596  1.0000
  H   H477      1.0  0.20986  0.28394  0.67278  1.0000
  C   C290      1.0  0.09155  0.30912  0.55084  1.0000
  H   H478      1.0  0.06869  0.31896  0.52274  1.0000
  H   H479      1.0  0.24776  0.99530  0.55851  1.0000
  H   H480      1.0  0.27638  0.47972  0.71987  1.0000
  S   S85       1.0  0.24013  0.46974  0.68883  1.0000
  H   H481      1.0  0.25087  0.99632  0.64184  1.0000
  S   S86       1.0  0.20006  0.25250  0.48741  1.0000
  H   H482      1.0  0.14387  0.44606  0.70501  1.0000
  H   H483      1.0  0.00574  0.16829  0.50469  1.0000
  H   H484      1.0  0.11205  0.37699  0.72153  1.0000
  H   H485      1.0  0.27792  0.26724  0.53900  1.0000
  H   H486      1.0  0.11235  0.10588  0.50921  1.0000
  H   H487      1.0  0.08304  0.30219  0.56336  1.0000
  C   C291      1.0  0.16754  0.22353  0.66668  1.0000
  C   C292      1.0  0.19831  0.13572  0.49515  1.0000
  C   C293      1.0  0.21058  0.00828  0.63065  1.0000
  H   H488      1.0  0.27097  0.21550  0.53841  1.0000
  H   H489      1.0  0.25713  0.31945  0.69395  1.0000
  H   H490      1.0  0.25176  0.27665  0.66752  1.0000
  H   H491      1.0  0.17005  0.21044  0.52946  1.0000
  C   C294      1.0  0.24223  0.34651  0.69756  1.0000
  H   H492      1.0  0.30559  0.26635  0.54560  1.0000
  H   H493      1.0  0.23611  0.29983  0.68568  1.0000
  H   H494      1.0  0.00375  0.17960  0.66375  1.0000
  C   C295      1.0  0.13770  0.38420  0.72194  1.0000
  C   C296      1.0  0.26394  0.14922  0.57137  1.0000
  C   C297      1.0  0.30302  0.12934  0.56287  1.0000
  C   C298      1.0  0.28469  0.12313  0.54424  1.0000
  C   C299      1.0  0.10057  0.29556  0.53752  1.0000
  H   H495      1.0  0.30029  0.14389  0.55546  1.0000
  H   H496      1.0  0.14921  0.29943  0.67870  1.0000
  H   H497      1.0  0.23472  0.14986  0.57566  1.0000
  H   H498      1.0  0.24020  0.17060  0.57785  1.0000
  H   H499      1.0  0.12019  0.33873  0.59662  1.0000
  H   H500      1.0  0.00231  0.17262  0.64354  1.0000
  Fe  Fe41      1.0  0.07367  0.17018  0.49297  1.0000
  N   N13       1.0  0.08809  0.29286  0.52656  1.0000
  H   H501      1.0  0.20923  0.00353  0.51939  1.0000
  S   S87       1.0  0.99925  0.16617  0.60922  1.0000
  N   N14       1.0  0.16184  0.13552  0.54070  1.0000
  C   C300      1.0  0.16920  0.13814  0.52024  1.0000
  C   C301      1.0  0.14156  0.13576  0.54444  1.0000
  C   C302      1.0  0.16399  0.15195  0.54685  1.0000
  C   C303      1.0  0.17193  0.11811  0.55126  1.0000
  C   C304      1.0  0.17958  0.10147  0.54143  1.0000
  S   S88       1.0  0.20778  0.40032  0.72277  1.0000
  C   C305      1.0  0.15551  0.15306  0.56727  1.0000
  C   C306      1.0  0.13599  0.11964  0.53996  1.0000
  C   C307      1.0  0.11526  0.12313  0.54161  1.0000
  C   C308      1.0  0.18863  0.08471  0.55385  1.0000
  H   H502      1.0  0.11839  0.37668  0.68851  1.0000
  C   C309      1.0  0.16266  0.16688  0.57340  1.0000
  H   H503      1.0  0.16055  0.15033  0.51292  1.0000
  H   H504      1.0  0.16813  0.12643  0.51487  1.0000
  H   H505      1.0  0.13538  0.13534  0.55925  1.0000
  H   H506      1.0  0.13437  0.14893  0.53692  1.0000
  H   H507      1.0  0.15780  0.16501  0.53832  1.0000
  H   H508      1.0  0.17876  0.15218  0.54474  1.0000
  H   H509      1.0  0.18391  0.12078  0.55506  1.0000
  H   H510      1.0  0.16298  0.11343  0.56467  1.0000
  H   H511      1.0  0.19032  0.10455  0.52908  1.0000
  H   H512      1.0  0.16884  0.09748  0.53699  1.0000
  H   H513      1.0  0.12970  0.10376  0.59147  1.0000
  Fe  Fe42      1.0  0.21173  0.05184  0.50214  1.0000
  H   H514      1.0  0.15879  0.13955  0.57641  1.0000
  H   H515      1.0  0.14038  0.15764  0.56929  1.0000
  H   H516      1.0  0.14246  0.11744  0.52586  1.0000
  H   H517      1.0  0.13978  0.10682  0.55000  1.0000
  H   H518      1.0  0.11143  0.11073  0.53999  1.0000
  H   H519      1.0  0.10783  0.12625  0.55525  1.0000
  H   H520      1.0  0.11088  0.13479  0.53066  1.0000
  H   H521      1.0  0.19357  0.07300  0.54663  1.0000
  H   H522      1.0  0.20059  0.08777  0.55709  1.0000
  H   H523      1.0  0.17888  0.08081  0.56678  1.0000
  H   H524      1.0  0.05490  0.33530  0.49581  1.0000
  H   H525      1.0  0.28740  0.00719  0.63890  1.0000
  H   H526      1.0  0.29620  0.24346  0.52704  1.0000
  H   H527      1.0  0.17763  0.16235  0.57286  1.0000
  H   H528      1.0  0.15974  0.18074  0.56457  1.0000
  H   H529      1.0  0.15571  0.16783  0.58781  1.0000
  H   H530      1.0  0.10881  0.23586  0.66899  1.0000
  H   H531      1.0  0.26676  0.32792  0.60476  1.0000
  H   H532      1.0  0.18750  0.01899  0.56070  1.0000
  C   C310      1.0  0.21227  0.01722  0.59282  1.0000
  H   H533      1.0  0.22904  0.35597  0.69548  1.0000
  H   H534      1.0  0.16802  0.30060  0.65922  1.0000
  C   C311      1.0  0.10670  0.25978  0.52436  1.0000
  C   C312      1.0  0.11518  0.24688  0.51084  1.0000
  H   H535      1.0  0.11289  0.30021  0.52807  1.0000
  H   H536      1.0  0.23246  0.32248  0.69909  1.0000
  H   H537      1.0  0.11742  0.25970  0.53160  1.0000
  H   H538      1.0  0.09557  0.25387  0.53428  1.0000
  H   H539      1.0  0.12086  0.23307  0.51827  1.0000
  H   H540      1.0  0.10462  0.24536  0.50418  1.0000
  H   H541      1.0  0.12638  0.25215  0.50016  1.0000
  N   N15       1.0  0.11250  0.29164  0.65004  1.0000
  C   C313      1.0  0.11762  0.29800  0.62951  1.0000
  C   C314      1.0  0.11735  0.27089  0.65445  1.0000
  C   C315      1.0  0.09226  0.29873  0.65618  1.0000
  C   C316      1.0  0.12285  0.29895  0.65991  1.0000
  C   C317      1.0  0.14404  0.29485  0.65370  1.0000
  C   C318      1.0  0.11595  0.31904  0.62238  1.0000
  C   C319      1.0  0.08397  0.29169  0.67666  1.0000
  C   C320      1.0  0.10591  0.26083  0.64778  1.0000
  C   C321      1.0  0.11150  0.23997  0.65376  1.0000
  C   C322      1.0  0.15288  0.30414  0.66358  1.0000
  C   C323      1.0  0.12248  0.32358  0.60153  1.0000
  H   H542      1.0  0.10900  0.29358  0.62246  1.0000
  H   H543      1.0  0.13181  0.29118  0.62425  1.0000
  H   H544      1.0  0.13194  0.26595  0.64816  1.0000
  H   H545      1.0  0.11644  0.26570  0.66949  1.0000
  H   H546      1.0  0.08432  0.29567  0.64746  1.0000
  H   H547      1.0  0.08924  0.31399  0.65407  1.0000
  H   H548      1.0  0.11798  0.31406  0.65887  1.0000
  H   H549      1.0  0.11997  0.29302  0.67489  1.0000
  H   H550      1.0  0.14846  0.29991  0.63877  1.0000
  H   H551      1.0  0.14962  0.27984  0.65693  1.0000
  H   H552      1.0  0.10148  0.32635  0.62563  1.0000
  H   H553      1.0  0.12439  0.32465  0.62847  1.0000
  H   H554      1.0  0.08998  0.29650  0.68581  1.0000
  H   H555      1.0  0.08638  0.27647  0.68026  1.0000
  H   H556      1.0  0.09106  0.26470  0.65349  1.0000
  H   H557      1.0  0.10795  0.26410  0.63258  1.0000
  H   H558      1.0  0.12624  0.23509  0.64819  1.0000
  H   H559      1.0  0.28507  0.10622  0.51562  1.0000
  H   H560      1.0  0.30726  0.10997  0.50251  1.0000
  C   C324      1.0  0.24405  0.15536  0.58080  1.0000
  H   H561      1.0  0.25901  0.20986  0.61672  1.0000
  H   H562      1.0  0.24501  0.21539  0.59978  1.0000
  C   C325      1.0  0.29518  0.11517  0.51266  1.0000
  H   H563      1.0  0.28138  0.13802  0.53818  1.0000
  H   H564      1.0  0.08264  0.32164  0.54455  1.0000
  C   C326      1.0  0.10590  0.31541  0.55690  1.0000
  H   H565      1.0  0.10745  0.10273  0.60599  1.0000
  H   H566      1.0  0.26516  0.19709  0.59864  1.0000
  H   H567      1.0  0.24231  0.15047  0.59587  1.0000
  C   C327      1.0  0.25927  0.21094  0.60196  1.0000
  C   C328      1.0  0.06326  0.29890  0.68092  1.0000
  C   C329      1.0  0.27380  0.00416  0.64638  1.0000
  H   H568      1.0  0.30588  0.29055  0.65523  1.0000
  H   H569      1.0  0.18958  0.15556  0.51270  1.0000
  H   H570      1.0  0.28446  0.23947  0.50111  1.0000
  H   H571      1.0  0.05643  0.29391  0.67257  1.0000
  H   H572      1.0  0.26718  0.35183  0.60193  1.0000
  H   H573      1.0  0.27255  0.15544  0.57660  1.0000
  H   H574      1.0  0.18262  0.03589  0.54057  1.0000
  C   C330      1.0  0.18389  0.03393  0.55504  1.0000
  H   H575      1.0  0.19512  0.04042  0.55524  1.0000
  C   C331      1.0  0.24771  0.99902  0.51004  1.0000
  C   C332      1.0  0.25939  0.34090  0.60943  1.0000
  H   H576      1.0  0.26536  0.23798  0.59467  1.0000
  H   H577      1.0  0.30064  0.22062  0.53944  1.0000
  H   H578      1.0  0.29401  0.42943  0.72979  1.0000
  C   C333      1.0  0.30768  0.18509  0.56105  1.0000
  H   H579      1.0  0.27702  0.31640  0.66229  1.0000
  C   C334      1.0  0.14063  0.02803  0.50990  1.0000
  S   S89       1.0  0.19521  0.08059  0.49913  1.0000
  C   C335      1.0  0.04421  0.27176  0.54689  1.0000
  H   H580      1.0  0.25761  0.22974  0.56725  1.0000
  C   C336      1.0  0.27965  0.29566  0.64702  1.0000
  C   C337      1.0  0.25775  0.33858  0.63007  1.0000
  H   H581      1.0  0.27770  0.21246  0.56690  1.0000
  H   H582      1.0  0.26496  0.15511  0.55652  1.0000
  S   S90       1.0  0.20447  0.43879  0.69122  1.0000
  H   H583      1.0  0.18412  0.19051  0.58275  1.0000
  H   H584      1.0  0.19892  0.12096  0.49585  1.0000
  H   H585      1.0  0.17431  0.02655  0.59156  1.0000
  H   H586      1.0  0.18145  0.05753  0.64059  1.0000
  H   H587      1.0  0.20193  0.17177  0.59011  1.0000
  C   C338      1.0  0.28223  0.22617  0.51028  1.0000
  C   C339      1.0  0.16777  0.04103  0.58634  1.0000
  C   C340      1.0  0.16589  0.04262  0.56630  1.0000
  H   H588      1.0  0.17790  0.04948  0.58523  1.0000
  H   H589      1.0  0.18258  0.04893  0.61191  1.0000
  H   H590      1.0  0.15516  0.03566  0.56571  1.0000
  H   H591      1.0  0.17242  0.23354  0.51719  1.0000
  H   H592      1.0  0.15010  0.22858  0.52772  1.0000
  C   C341      1.0  0.26862  0.30652  0.66237  1.0000
  H   H593      1.0  0.25362  0.34246  0.66332  1.0000
  Fe  Fe43      1.0  0.22834  0.44401  0.69941  1.0000
  C   C342      1.0  0.19507  0.18625  0.59089  1.0000
  H   H594      1.0  0.23248  0.18923  0.63068  1.0000
  H   H595      1.0  0.24721  0.16950  0.65653  1.0000
  S   S91       1.0  0.21693  0.43752  0.72950  1.0000
  C   C343      1.0  0.16399  0.22297  0.52032  1.0000
  H   H596      1.0  0.26831  0.02368  0.51132  1.0000
  H   H597      1.0  0.29219  0.09765  0.58656  1.0000
  C   C344      1.0  0.27186  0.22662  0.56941  1.0000
  H   H598      1.0  0.27167  0.28729  0.64371  1.0000
  H   H599      1.0  0.20518  0.19527  0.58477  1.0000
  H   H600      1.0  0.13168  0.01949  0.62838  1.0000
  C   C345      1.0  0.16885  0.05373  0.61999  1.0000
  H   H601      1.0  0.16032  0.02833  0.62286  1.0000
  H   H602      1.0  0.14480  0.02138  0.59619  1.0000
  H   H603      1.0  0.16248  0.05727  0.55943  1.0000
  H   H604      1.0  0.15774  0.05590  0.64867  1.0000
  H   H605      1.0  0.21092  0.16996  0.61985  1.0000
  H   H606      1.0  0.21001  0.19399  0.61634  1.0000
  H   H607      1.0  0.23347  0.18517  0.67127  1.0000
  C   C346      1.0  0.17087  0.05040  0.63991  1.0000
  H   H608      1.0  0.16459  0.06871  0.61521  1.0000
  C   C347      1.0  0.20166  0.18326  0.62240  1.0000
  C   C348      1.0  0.22520  0.18966  0.64506  1.0000
  C   C349      1.0  0.23977  0.18390  0.65682  1.0000
  N   N16       1.0  0.15021  0.04669  0.59962  1.0000
  C   C350      1.0  0.15478  0.04329  0.61834  1.0000
  C   C351      1.0  0.13708  0.03481  0.59990  1.0000
  H   H609      1.0  0.12874  0.04140  0.58918  1.0000
  H   H610      1.0  0.15332  0.07500  0.58975  1.0000
  C   C352      1.0  0.18659  0.18784  0.61084  1.0000
  H   H611      1.0  0.21897  0.16270  0.64938  1.0000
  H   H612      1.0  0.21830  0.20406  0.64592  1.0000
  H   H613      1.0  0.07727  0.27398  0.55064  1.0000
  C   C353      1.0  0.14258  0.06673  0.59276  1.0000
  H   H614      1.0  0.14229  0.04691  0.62880  1.0000
  H   H615      1.0  0.14255  0.36925  0.72724  1.0000
  C   C354      1.0  0.29315  0.09983  0.57148  1.0000
  C   C355      1.0  0.09920  0.27949  0.51443  1.0000
  C   C356      1.0  0.28663  0.06759  0.57930  1.0000
  S   S92       1.0  0.29042  0.17577  0.51943  1.0000
  C   C357      1.0  0.01188  0.18359  0.60482  1.0000
  C   C358      1.0  0.24684  0.32348  0.64133  1.0000
  C   C359      1.0  0.24411  0.33286  0.67006  1.0000
  H   H616      1.0  0.25049  0.31216  0.63375  1.0000
  C   C360      1.0  0.21135  0.17663  0.65164  1.0000
  H   H617      1.0  0.11615  0.04122  0.62463  1.0000
  H   H618      1.0  0.12067  0.45544  0.70190  1.0000
  H   H619      1.0  0.01099  0.18266  0.56749  1.0000
  H   H620      1.0  0.30734  0.22582  0.56607  1.0000
  H   H621      1.0  0.13847  0.06862  0.57943  1.0000
  H   H622      1.0  0.17533  0.03549  0.64534  1.0000
  H   H623      1.0  0.10086  0.01547  0.62925  1.0000
  H   H624      1.0  0.12778  0.02329  0.51741  1.0000
  H   H625      1.0  0.17676  0.17847  0.61626  1.0000
  H   H626      1.0  0.19796  0.13259  0.52383  1.0000
  C   C361      1.0  0.12573  0.07604  0.60548  1.0000
  H   H627      1.0  0.12929  0.07652  0.61845  1.0000
  H   H628      1.0  0.12598  0.45212  0.72420  1.0000
  H   H629      1.0  0.30469  0.27560  0.64101  1.0000
  C   C362      1.0  0.28963  0.23318  0.53798  1.0000
  H   H630      1.0  0.11110  0.28508  0.50523  1.0000
  S   S93       1.0  0.31037  0.12589  0.63087  1.0000
  H   H631      1.0  0.27800  0.99349  0.50148  1.0000
  H   H632      1.0  0.09112  0.30802  0.48642  1.0000
  H   H633      1.0  0.03492  0.26731  0.54072  1.0000
  H   H634      1.0  0.15491  0.22693  0.66104  1.0000
  H   H635      1.0  0.23019  0.34086  0.66831  1.0000
  H   H636      1.0  0.07411  0.23436  0.54151  1.0000
  H   H637      1.0  0.18746  0.15725  0.64116  1.0000
  H   H638      1.0  0.28131  0.02521  0.48805  1.0000
  H   H639      1.0  0.13698  0.36191  0.69873  1.0000
  H   H640      1.0  0.16356  0.22522  0.68120  1.0000
  C   C363      1.0  0.23574  0.30410  0.67085  1.0000
  H   H641      1.0  0.26885  0.41675  0.72614  1.0000
  H   H642      1.0  0.11433  0.06873  0.60859  1.0000
  H   H643      1.0  0.11311  0.09592  0.58407  1.0000
  C   C364      1.0  0.17757  0.20374  0.66579  1.0000
  H   H644      1.0  0.09445  0.12618  0.48656  1.0000
  C   C365      1.0  0.08144  0.31145  0.51498  1.0000
  C   C366      1.0  0.30441  0.18053  0.53188  1.0000
  H   H645      1.0  0.24989  0.19296  0.65137  1.0000
  H   H646      1.0  0.06624  0.26888  0.52359  1.0000
  H   H647      1.0  0.09112  0.27781  0.50514  1.0000
  C   C367      1.0  0.11862  0.09580  0.59614  1.0000
  H   H648      1.0  0.23211  0.32930  0.64091  1.0000
  S   S94       1.0  0.24496  0.41543  0.69856  1.0000
  Fe  Fe44      1.0  0.21992  0.40937  0.69279  1.0000
  S   S95       1.0  0.18968  0.03954  0.49880  1.0000
  H   H649      1.0  0.24717  0.00183  0.52372  1.0000
  H   H650      1.0  0.27795  0.05908  0.57716  1.0000
  H   H651      1.0  0.26683  0.09244  0.57395  1.0000
  Fe  Fe45      1.0  0.19426  0.43015  0.72160  1.0000
  H   H652      1.0  0.13952  0.38431  0.68483  1.0000
  H   H653      1.0  0.25166  0.29864  0.56974  1.0000
  H   H654      1.0  0.17654  0.23333  0.65883  1.0000
  Fe  Fe46      1.0  0.29915  0.17337  0.48943  1.0000
  H   H655      1.0  0.25376  0.00046  0.60292  1.0000
  C   C368      1.0  0.25559  0.29012  0.55912  1.0000
  H   H656      1.0  0.24916  0.01160  0.57095  1.0000
  N   N17       1.0  0.19481  0.18228  0.64283  1.0000
  H   H657      1.0  0.17877  0.20217  0.61075  1.0000
  H   H658      1.0  0.11369  0.32380  0.54499  1.0000
  H   H659      1.0  0.26609  0.00293  0.48277  1.0000
  H   H660      1.0  0.16791  0.19470  0.67377  1.0000
  H   H661      1.0  0.27041  0.45758  0.72525  1.0000
  C   C369      1.0  0.18301  0.16788  0.64988  1.0000
  H   H662      1.0  0.20724  0.17505  0.66678  1.0000
  H   H663      1.0  0.26240  0.23945  0.53038  1.0000
  H   H664      1.0  0.29517  0.24490  0.57614  1.0000
  C   C370      1.0  0.99154  0.22144  0.54898  1.0000
  C   C371      1.0  0.23877  0.28582  0.66443  1.0000
  H   H665      1.0  0.22149  0.31181  0.66998  1.0000
  H   H666      1.0  0.23915  0.28819  0.64954  1.0000
  H   H667      1.0  0.16853  0.17428  0.64881  1.0000
  H   H668      1.0  0.16900  0.13630  0.68963  1.0000
  H   H669      1.0  0.18055  0.99401  0.53697  1.0000
  C   C372      1.0  0.26588  0.00334  0.49715  1.0000
  C   C373      1.0  0.00333  0.20215  0.60216  1.0000
  C   C374      1.0  0.18934  0.14090  0.51386  1.0000
  H   H670      1.0  0.22562  0.26272  0.66922  1.0000
  H   H671      1.0  0.19121  0.21198  0.63750  1.0000
  H   H672      1.0  0.10590  0.28238  0.54635  1.0000
  H   H673      1.0  0.31182  0.12348  0.52629  1.0000
  Fe  Fe47      1.0  0.17453  0.06872  0.49266  1.0000
  C   C375      1.0  0.16265  0.21847  0.50251  1.0000
  H   H674      1.0  0.25798  0.25810  0.54869  1.0000
  C   C376      1.0  0.18369  0.20098  0.64570  1.0000
  C   C377      1.0  0.18291  0.15654  0.66974  1.0000
  C   C378      1.0  0.16862  0.14444  0.67551  1.0000
  H   H675      1.0  0.19649  0.14723  0.67048  1.0000
  N   N18       1.0  0.28279  0.23997  0.55588  1.0000
  C   C379      1.0  0.31278  0.25198  0.54987  1.0000
  C   C380      1.0  0.12525  0.42695  0.71633  1.0000
  H   H676      1.0  0.26467  0.29699  0.54710  1.0000
  H   H677      1.0  0.02178  0.20256  0.50099  1.0000
  C   C381      1.0  0.10984  0.01965  0.61578  1.0000
  H   H678      1.0  0.28345  0.08681  0.55415  1.0000
  N   N19       1.0  0.28776  0.12008  0.56351  1.0000
  H   H679      1.0  0.27680  0.99358  0.59136  1.0000
  C   C382      1.0  0.30718  0.12901  0.58170  1.0000
  H   H680      1.0  0.17156  0.13473  0.66607  1.0000
  H   H681      1.0  0.11550  0.30339  0.56298  1.0000
  C   C383      1.0  0.12217  0.38494  0.71211  1.0000
  C   C384      1.0  0.26547  0.27070  0.56668  1.0000
  H   H682      1.0  0.00686  0.24442  0.49199  1.0000
  C   C385      1.0  0.27495  0.22854  0.53019  1.0000
  H   H683      1.0  0.15463  0.15301  0.67539  1.0000
  H   H684      1.0  0.20428  0.47719  0.71215  1.0000
  H   H685      1.0  0.09908  0.32397  0.56738  1.0000
  H   H686      1.0  0.30124  0.06160  0.57424  1.0000
  H   H687      1.0  0.27243  0.11792  0.54436  1.0000
  H   H688      1.0  0.17089  0.20410  0.64033  1.0000
  H   H689      1.0  0.17993  0.16541  0.67990  1.0000
  C   C386      1.0  0.07223  0.28567  0.53998  1.0000
  H   H690      1.0  0.18942  0.20091  0.67249  1.0000
  H   H691      1.0  0.27750  0.27215  0.57117  1.0000
  H   H692      1.0  0.27218  0.22117  0.50565  1.0000
  H   H693      1.0  0.11040  0.42813  0.72223  1.0000
  H   H694      1.0  0.15180  0.04333  0.48388  1.0000
  C   C387      1.0  0.25583  0.99809  0.56721  1.0000
  H   H695      1.0  0.31966  0.24612  0.53745  1.0000
  H   H696      1.0  0.26991  0.99877  0.55916  1.0000
  H   H697      1.0  0.19154  0.21861  0.49188  1.0000
  C   C388      1.0  0.26818  0.02251  0.49722  1.0000
  C   C389      1.0  0.26451  0.99870  0.63380  1.0000
  H   H698      1.0  0.25684  0.03317  0.49219  1.0000
  H   H699      1.0  0.19802  0.37300  0.50586  1.0000
  H   H700      1.0  0.15631  0.23146  0.49429  1.0000
  C   C390      1.0  0.07787  0.31179  0.49589  1.0000
  C   C391      1.0  0.11631  0.10437  0.49504  1.0000
  C   C392      1.0  0.13174  0.09128  0.48949  1.0000
  C   C393      1.0  0.13883  0.03850  0.49046  1.0000
  Fe  Fe48      1.0  0.31855  0.15311  0.62733  1.0000
  H   H701      1.0  0.23012  0.98964  0.48933  1.0000
  S   S96       1.0  0.31975  0.16575  0.65029  1.0000
  H   H702      1.0  0.32183  0.25868  0.57166  1.0000
  S   S97       1.0  0.19853  0.98800  0.59207  1.0000
  C   C394      1.0  0.06859  0.33099  0.48725  1.0000
  C   C395      1.0  0.32210  0.18364  0.52395  1.0000
  H   H703      1.0  0.31601  0.12278  0.55464  1.0000
  C   C396      1.0  0.13702  0.41389  0.72979  1.0000
  C   C397      1.0  0.01329  0.23083  0.48825  1.0000
  H   H704      1.0  0.19505  0.39449  0.48961  1.0000
  H   H705      1.0  0.07719  0.34112  0.48569  1.0000
  H   H706      1.0  0.12755  0.05071  0.49172  1.0000
  H   H707      1.0  0.21553  0.37690  0.48553  1.0000
  H   H708      1.0  0.14181  0.17750  0.49107  1.0000
  Fe  Fe49      1.0  0.15487  0.30927  0.48657  1.0000
  C   C398      1.0  0.20050  0.37946  0.49100  1.0000
  H   H709      1.0  0.17618  0.37363  0.48742  1.0000
  H   H710      1.0  0.17242  0.18272  0.48663  1.0000
  H   H711      1.0  0.19061  0.14421  0.48446  1.0000
  H   H712      1.0  0.12217  0.02118  0.48691  1.0000
  H   H713      1.0  0.10090  0.04682  0.48334  1.0000
  H   H714      1.0  0.16995  0.37574  0.73036  1.0000
  H   H715      1.0  0.19671  0.35617  0.48316  1.0000
  C   C399      1.0  0.99143  0.17014  0.51269  1.0000
  H   H716      1.0  0.99066  0.17641  0.52446  1.0000
  C   C400      1.0  0.27259  0.46834  0.73131  1.0000
  C   C401      1.0  0.10623  0.11593  0.48218  1.0000
  Fe  Fe50      1.0  0.06557  0.41917  0.84541  1.0000
  S   S98       1.0  0.08002  0.43028  0.81697  1.0000
  S   S99       1.0  0.03780  0.41137  0.85290  1.0000
  Fe  Fe51      1.0  0.09254  0.42793  0.86402  1.0000
  S   S100      1.0  0.10857  0.44038  0.83704  1.0000
  S   S101      1.0  0.09931  0.42499  0.89192  1.0000
  Fe  Fe52      1.0  0.08134  0.45329  0.82927  1.0000
  H   H717      1.0  0.09849  0.46390  0.87166  1.0000
  Fe  Fe53      1.0  0.10592  0.41618  0.82735  1.0000
  S   S102      1.0  0.13182  0.40031  0.81249  1.0000
  S   S103      1.0  0.06539  0.44316  0.85704  1.0000
  S   S104      1.0  0.09142  0.40278  0.85484  1.0000
  H   H718      1.0  0.24801  0.47375  0.84614  1.0000
  S   S105      1.0  0.21797  0.43395  0.90663  1.0000
  S   S106      1.0  0.23758  0.38449  0.92769  1.0000
  Fe  Fe54      1.0  0.30923  0.42660  0.79079  1.0000
  S   S107      1.0  0.30785  0.42878  0.76138  1.0000
  Fe  Fe55      1.0  0.28851  0.41395  0.82913  1.0000
  S   S108      1.0  0.26603  0.39821  0.84212  1.0000
  C   C402      1.0  0.22680  0.48475  0.77614  1.0000
  H   H719      1.0  0.23952  0.42740  0.77986  1.0000
  S   S109      1.0  0.28425  0.44014  0.80843  1.0000
  H   H720      1.0  0.13757  0.45942  0.97746  1.0000
  H   H721      1.0  0.27616  0.46160  0.88973  1.0000
  H   H722      1.0  0.99235  0.47252  0.78625  1.0000
  C   C403      1.0  0.13702  0.47891  0.92254  1.0000
  H   H723      1.0  0.05517  0.43371  0.89975  1.0000
  H   H724      1.0  0.15143  0.43020  0.84439  1.0000
  H   H725      1.0  0.18037  0.42849  0.85177  1.0000
  C   C404      1.0  0.23728  0.46539  0.85030  1.0000
  S   S110      1.0  0.24518  0.39380  0.75229  1.0000
  H   H726      1.0  0.25090  0.44609  0.87118  1.0000
  C   C405      1.0  0.31253  0.36558  0.86488  1.0000
  C   C406      1.0  0.29077  0.41856  0.75889  1.0000
  C   C407      1.0  0.28131  0.40772  0.77397  1.0000
  C   C408      1.0  0.26782  0.39963  0.77167  1.0000
  C   C409      1.0  0.26300  0.40313  0.75452  1.0000
  S   S111      1.0  0.23098  0.47665  0.91390  1.0000
  C   C410      1.0  0.08639  0.40620  0.77186  1.0000
  H   H727      1.0  0.28449  0.40537  0.78739  1.0000
  H   H728      1.0  0.26074  0.39106  0.78334  1.0000
  C   C411      1.0  0.23049  0.45238  0.79170  1.0000
  H   H729      1.0  0.00003  0.41644  0.85169  1.0000
  C   C412      1.0  0.24768  0.38687  0.90431  1.0000
  C   C413      1.0  0.24505  0.37545  0.89405  1.0000
  C   C414      1.0  0.25120  0.37874  0.87494  1.0000
  C   C415      1.0  0.26047  0.39307  0.86616  1.0000
  C   C416      1.0  0.26420  0.40367  0.87657  1.0000
  C   C417      1.0  0.25746  0.40084  0.89562  1.0000
  H   H730      1.0  0.23744  0.36469  0.90076  1.0000
  H   H731      1.0  0.24835  0.37047  0.86691  1.0000
  H   H732      1.0  0.27162  0.41454  0.86989  1.0000
  H   H733      1.0  0.25959  0.40962  0.90358  1.0000
  C   C418      1.0  0.14200  0.41346  0.79206  1.0000
  C   C419      1.0  0.13192  0.42983  0.78361  1.0000
  C   C420      1.0  0.13964  0.43919  0.76632  1.0000
  C   C421      1.0  0.15744  0.43222  0.75748  1.0000
  C   C422      1.0  0.16789  0.41641  0.76640  1.0000
  C   C423      1.0  0.16014  0.40703  0.78369  1.0000
  H   H734      1.0  0.11796  0.43495  0.79010  1.0000
  H   H735      1.0  0.13154  0.45148  0.75950  1.0000
  H   H736      1.0  0.18171  0.41109  0.75973  1.0000
  H   H737      1.0  0.16805  0.39452  0.79037  1.0000
  C   C424      1.0  0.12024  0.43011  0.89240  1.0000
  H   H738      1.0  0.24257  0.45203  0.79735  1.0000
  C   C425      1.0  0.14654  0.44387  0.87681  1.0000
  C   C426      1.0  0.13041  0.43891  0.87643  1.0000
  H   H739      1.0  0.15388  0.45127  0.86443  1.0000
  H   H740      1.0  0.12557  0.44237  0.86382  1.0000
  C   C427      1.0  0.02718  0.41162  0.83507  1.0000
  C   C428      1.0  0.00804  0.41402  0.83844  1.0000
  H   H741      1.0  0.22074  0.44898  0.76060  1.0000
  C   C429      1.0  0.00959  0.41045  0.80754  1.0000
  C   C430      1.0  0.02870  0.40844  0.80405  1.0000
  C   C431      1.0  0.03749  0.40904  0.81776  1.0000
  H   H742      1.0  0.19224  0.48252  0.77227  1.0000
  C   C432      1.0  0.15301  0.43965  0.89310  1.0000
  H   H743      1.0  0.03677  0.40614  0.79077  1.0000
  H   H744      1.0  0.05225  0.40707  0.81509  1.0000
  H   H745      1.0  0.28827  0.37021  0.89567  1.0000
  C   C433      1.0  0.25010  0.46067  0.76150  1.0000
  H   H746      1.0  0.18735  0.46761  0.74853  1.0000
  C   C434      1.0  0.16039  0.42200  0.83429  1.0000
  C   C435      1.0  0.11336  0.39537  0.74735  1.0000
  H   H747      1.0  0.14772  0.45909  0.82380  1.0000
  C   C436      1.0  0.24618  0.44604  0.85868  1.0000
  C   C437      1.0  0.23007  0.43225  0.79193  1.0000
  H   H748      1.0  0.22199  0.40957  0.85705  1.0000
  C   C438      1.0  0.12990  0.42975  0.97072  1.0000
  H   H749      1.0  0.05196  0.45384  0.77187  1.0000
  C   C439      1.0  0.27233  0.41412  0.73948  1.0000
  N   N20       1.0  0.31689  0.36120  0.88380  1.0000
  Fe  Fe56      1.0  0.21902  0.41149  0.93159  1.0000
  C   C440      1.0  0.12661  0.42590  0.90887  1.0000
  H   H750      1.0  0.18815  0.44623  0.76521  1.0000
  H   H751      1.0  0.19409  0.47958  0.89455  1.0000
  S   S112      1.0  0.18842  0.41430  0.94008  1.0000
  H   H752      1.0  0.13582  0.42076  0.74123  1.0000
  H   H753      1.0  0.99378  0.45139  0.81964  1.0000
  H   H754      1.0  0.99860  0.44953  0.88122  1.0000
  H   H755      1.0  0.07074  0.46304  0.90548  1.0000
  C   C441      1.0  0.99924  0.41347  0.82471  1.0000
  H   H756      1.0  0.00264  0.34941  0.82520  1.0000
  H   H757      1.0  0.21191  0.37273  0.80980  1.0000
  H   H758      1.0  0.12017  0.45090  0.94932  1.0000
  C   C442      1.0  0.04458  0.46298  0.89970  1.0000
  N   N21       1.0  0.12937  0.48261  0.95641  1.0000
  C   C443      1.0  0.18679  0.41442  0.84907  1.0000
  H   H759      1.0  0.22741  0.42422  0.82176  1.0000
  H   H760      1.0  0.05055  0.44052  0.79490  1.0000
  C   C444      1.0  0.23558  0.41925  0.80918  1.0000
  H   H761      1.0  0.12505  0.37419  0.87346  1.0000
  C   C445      1.0  0.29973  0.35822  0.89788  1.0000
  C   C446      1.0  0.14511  0.38485  0.75089  1.0000
  H   H762      1.0  0.00257  0.37070  0.86074  1.0000
  H   H763      1.0  0.10369  0.40186  0.73796  1.0000
  H   H764      1.0  0.18015  0.44038  0.82083  1.0000
  C   C447      1.0  0.19702  0.46747  0.77299  1.0000
  H   H765      1.0  0.15107  0.41675  0.82892  1.0000
  H   H766      1.0  0.16126  0.46237  0.80095  1.0000
  H   H767      1.0  0.23335  0.46468  0.83768  1.0000
  N   N22       1.0  0.17331  0.40638  0.84374  1.0000
  H   H768      1.0  0.17290  0.38960  0.82509  1.0000
  H   H769      1.0  0.00758  0.47027  0.87273  1.0000
  H   H770      1.0  0.12029  0.42115  0.97076  1.0000
  H   H771      1.0  0.19868  0.41615  0.83747  1.0000
  H   H772      1.0  0.17064  0.38472  0.86818  1.0000
  S   S113      1.0  0.99924  0.40887  0.79017  1.0000
  H   H773      1.0  0.05165  0.43990  0.92176  1.0000
  H   H774      1.0  0.25034  0.41819  0.80869  1.0000
  C   C448      1.0  0.32066  0.37199  0.77052  1.0000
  C   C449      1.0  0.02794  0.46392  0.79136  1.0000
  C   C450      1.0  0.20470  0.36486  0.82263  1.0000
  H   H775      1.0  0.30504  0.47936  0.78284  1.0000
  H   H776      1.0  0.25822  0.44071  0.84855  1.0000
  C   C451      1.0  0.19710  0.47981  0.83428  1.0000
  H   H777      1.0  0.21473  0.35263  0.82780  1.0000
  H   H778      1.0  0.29482  0.34647  0.89615  1.0000
  H   H779      1.0  0.19363  0.36005  0.81947  1.0000
  S   S114      1.0  0.18708  0.45833  0.93332  1.0000
  C   C452      1.0  0.00162  0.45936  0.85177  1.0000
  H   H780      1.0  0.17079  0.39467  0.73963  1.0000
  H   H781      1.0  0.14139  0.37130  0.75788  1.0000
  H   H782      1.0  0.08369  0.39207  0.77704  1.0000
  H   H783      1.0  0.13541  0.40102  0.85268  1.0000
  H   H784      1.0  0.23346  0.40529  0.80990  1.0000
  H   H785      1.0  0.17332  0.35431  0.75984  1.0000
  S   S115      1.0  0.17309  0.44692  0.89247  1.0000
  C   C453      1.0  0.13542  0.46222  0.96315  1.0000
  H   H786      1.0  0.31739  0.33684  0.86117  1.0000
  H   H787      1.0  0.19951  0.38919  0.86687  1.0000
  H   H788      1.0  0.15108  0.38005  0.84794  1.0000
  C   C454      1.0  0.21746  0.46311  0.76339  1.0000
  C   C455      1.0  0.13650  0.37899  0.87589  1.0000
  S   S116      1.0  0.22149  0.42932  0.94961  1.0000
  H   H789      1.0  0.14622  0.36682  0.88165  1.0000
  C   C456      1.0  0.31801  0.41062  0.88828  1.0000
  H   H790      1.0  0.17523  0.42870  0.80565  1.0000
  H   H791      1.0  0.21837  0.45746  0.80194  1.0000
  H   H792      1.0  0.23641  0.43665  0.86238  1.0000
  C   C457      1.0  0.04811  0.45468  0.78662  1.0000
  N   N23       1.0  0.13302  0.39487  0.73723  1.0000
  H   H793      1.0  0.20525  0.46564  0.83711  1.0000
  H   H794      1.0  0.21424  0.40522  0.88165  1.0000
  H   H795      1.0  0.15576  0.40602  0.87060  1.0000
  C   C458      1.0  0.14309  0.43052  0.90921  1.0000
  H   H796      1.0  0.13071  0.38810  0.88604  1.0000
  H   H797      1.0  0.14293  0.39260  0.76195  1.0000
  H   H798      1.0  0.14440  0.44824  0.80687  1.0000
  C   C459      1.0  0.04607  0.44272  0.90912  1.0000
  H   H799      1.0  0.08209  0.41341  0.78359  1.0000
  H   H800      1.0  0.20853  0.38080  0.83994  1.0000
  H   H801      1.0  0.19030  0.36807  0.84979  1.0000
  H   H802      1.0  0.01983  0.45534  0.78844  1.0000
  H   H803      1.0  0.15605  0.47686  0.97824  1.0000
  C   C460      1.0  0.18301  0.39399  0.83028  1.0000
  Fe  Fe57      1.0  0.19073  0.43394  0.95647  1.0000
  H   H804      1.0  0.22668  0.47493  0.87561  1.0000
  N   N24       1.0  0.23117  0.46529  0.77322  1.0000
  H   H805      1.0  0.21605  0.43117  0.79163  1.0000
  H   H806      1.0  0.03258  0.47077  0.81543  1.0000
  H   H807      1.0  0.30911  0.33942  0.92188  1.0000
  H   H808      1.0  0.14904  0.45684  0.95500  1.0000
  H   H809      1.0  0.26101  0.45775  0.76958  1.0000
  H   H810      1.0  0.21218  0.46313  0.87086  1.0000
  H   H811      1.0  0.09027  0.48540  0.89322  1.0000
  C   C461      1.0  0.19434  0.40406  0.86665  1.0000
  C   C462      1.0  0.16923  0.43544  0.81767  1.0000
  H   H812      1.0  0.14292  0.46408  0.92648  1.0000
  C   C463      1.0  0.14605  0.38945  0.85779  1.0000
  C   C464      1.0  0.06367  0.46814  0.89362  1.0000
  C   C465      1.0  0.99756  0.46286  0.87126  1.0000
  H   H813      1.0  0.17337  0.37311  0.76999  1.0000
  C   C466      1.0  0.10677  0.40562  0.76368  1.0000
  H   H814      1.0  0.19480  0.46037  0.78759  1.0000
  H   H815      1.0  0.14795  0.42728  0.92192  1.0000
  C   C467      1.0  0.12218  0.44995  0.96334  1.0000
  H   H816      1.0  0.03230  0.43920  0.91298  1.0000
  H   H817      1.0  0.20547  0.42698  0.86814  1.0000
  C   C468      1.0  0.99332  0.37591  0.87276  1.0000
  H   H818      1.0  0.12405  0.47588  0.84923  1.0000
  H   H819      1.0  0.11423  0.39861  0.77495  1.0000
  H   H820      1.0  0.25881  0.47773  0.87851  1.0000
  C   C469      1.0  0.28299  0.35601  0.93121  1.0000
  H   H821      1.0  0.19095  0.40169  0.81785  1.0000
  C   C470      1.0  0.16198  0.39662  0.86072  1.0000
  H   H822      1.0  0.01635  0.38126  0.88045  1.0000
  H   H823      1.0  0.05699  0.46269  0.78927  1.0000
  C   C471      1.0  0.19682  0.37673  0.83720  1.0000
  C   C472      1.0  0.00070  0.47774  0.83743  1.0000
  Fe  Fe58      1.0  0.18756  0.43839  0.91636  1.0000
  C   C473      1.0  0.15475  0.45227  0.81200  1.0000
  Fe  Fe59      1.0  0.21756  0.45221  0.92518  1.0000
  H   H824      1.0  0.03858  0.46493  0.88749  1.0000
  H   H825      1.0  0.07140  0.45959  0.88342  1.0000
  H   H826      1.0  0.02348  0.45096  0.81971  1.0000
  H   H827      1.0  0.27926  0.46633  0.86506  1.0000
  H   H828      1.0  0.31855  0.38313  0.77811  1.0000
  H   H829      1.0  0.31949  0.35709  0.83008  1.0000
  H   H830      1.0  0.28469  0.35123  0.94569  1.0000
  H   H831      1.0  0.01552  0.45056  0.84944  1.0000
  C   C474      1.0  0.20996  0.41200  0.86838  1.0000
  C   C475      1.0  0.18503  0.46145  0.76344  1.0000
  C   C476      1.0  0.30169  0.35385  0.91823  1.0000
  H   H832      1.0  0.22316  0.46599  0.95329  1.0000
  H   H833      1.0  0.29544  0.36730  0.83618  1.0000
  H   H834      1.0  0.11880  0.41906  0.92136  1.0000
  C   C477      1.0  0.17945  0.47829  0.82967  1.0000
  S   S117      1.0  0.30591  0.42363  0.84248  1.0000
  H   H835      1.0  0.99154  0.45160  0.85118  1.0000
  H   H836      1.0  0.11164  0.47428  0.80426  1.0000
  H   H837      1.0  0.27420  0.34788  0.92861  1.0000
  H   H838      1.0  0.28404  0.46264  0.73879  1.0000
  C   C478      1.0  0.02211  0.46538  0.81184  1.0000
  H   H839      1.0  0.25183  0.44764  0.75677  1.0000
  H   H840      1.0  0.23854  0.48201  0.80020  1.0000
  H   H841      1.0  0.18333  0.40560  0.87907  1.0000
  H   H842      1.0  0.29360  0.34753  0.86733  1.0000
  H   H843      1.0  0.29826  0.48246  0.87362  1.0000
  Fe  Fe60      1.0  0.30405  0.44879  0.81997  1.0000
  H   H844      1.0  0.17031  0.46592  0.76933  1.0000
  H   H845      1.0  0.30094  0.37759  0.86359  1.0000
  H   H846      1.0  0.15720  0.48494  0.94380  1.0000
  H   H847      1.0  0.28730  0.47905  0.77175  1.0000
  C   C479      1.0  0.30723  0.34991  0.85920  1.0000
  H   H848      1.0  0.30110  0.39912  0.87790  1.0000
  C   C480      1.0  0.28649  0.42140  0.74159  1.0000
  H   H849      1.0  0.12259  0.47952  0.87187  1.0000
  H   H850      1.0  0.14843  0.48641  0.91779  1.0000
  C   C481      1.0  0.17668  0.36812  0.75695  1.0000
  C   C482      1.0  0.30609  0.35476  0.83892  1.0000
  H   H851      1.0  0.24404  0.48001  0.73620  1.0000
  H   H852      1.0  0.19164  0.36682  0.75136  1.0000
  H   H853      1.0  0.21848  0.47217  0.74959  1.0000
  C   C483      1.0  0.22074  0.47369  0.86428  1.0000
  H   H854      1.0  0.31331  0.36111  0.77927  1.0000
  H   H855      1.0  0.21450  0.48408  0.97773  1.0000
  H   H856      1.0  0.01130  0.35887  0.89116  1.0000
  S   S118      1.0  0.29514  0.47799  0.82479  1.0000
  S   S119      1.0  0.31216  0.39968  0.81064  1.0000
  H   H857      1.0  0.99678  0.37919  0.89900  1.0000
  N   N25       1.0  0.00311  0.47631  0.81769  1.0000
  H   H858      1.0  0.29958  0.39247  0.90226  1.0000
  H   H859      1.0  0.14311  0.48304  0.74649  1.0000
  H   H860      1.0  0.27601  0.37072  0.92935  1.0000
  H   H861      1.0  0.09077  0.48181  0.85365  1.0000
  C   C484      1.0  0.09661  0.47882  0.86609  1.0000
  H   H862      1.0  0.10167  0.48409  0.97217  1.0000
  C   C485      1.0  0.11564  0.48344  0.86010  1.0000
  H   H863      1.0  0.31461  0.37795  0.75810  1.0000
  H   H864      1.0  0.11848  0.47217  0.90925  1.0000
  H   H865      1.0  0.03509  0.47118  0.90953  1.0000
  C   C486      1.0  0.00509  0.37359  0.88678  1.0000
  C   C487      1.0  0.12825  0.48149  0.90612  1.0000
  H   H866      1.0  0.18520  0.47945  0.86264  1.0000
  H   H867      1.0  0.05978  0.48388  0.86068  1.0000
  S   S120      1.0  0.16555  0.44252  0.73467  1.0000
  H   H868      1.0  0.10865  0.42004  0.75923  1.0000
  S   S121      1.0  0.07247  0.48297  0.81674  1.0000
  H   H869      1.0  0.02619  0.47761  0.78212  1.0000
  C   C488      1.0  0.30917  0.39476  0.88879  1.0000
  C   C489      1.0  0.25500  0.47551  0.74414  1.0000
  C   C490      1.0  0.16608  0.38150  0.74299  1.0000
  H   H870      1.0  0.30720  0.42311  0.89011  1.0000
  H   H871      1.0  0.30937  0.36296  0.92089  1.0000
  H   H872      1.0  0.07796  0.41376  0.76147  1.0000
  H   H873      1.0  0.30235  0.34333  0.83522  1.0000
  C   C491      1.0  0.27378  0.47251  0.87747  1.0000
  H   H874      1.0  0.14332  0.42498  0.96192  1.0000
  H   H875      1.0  0.13916  0.47815  0.89418  1.0000
  H   H876      1.0  0.11107  0.38106  0.75280  1.0000
  H   H877      1.0  0.99033  0.37841  0.83708  1.0000
  H   H878      1.0  0.01142  0.48412  0.83892  1.0000
  C   C492      1.0  0.22193  0.48072  0.94962  1.0000
  H   H879      1.0  0.17257  0.46837  0.84071  1.0000
  H   H880      1.0  0.10864  0.45397  0.97222  1.0000
  H   H881      1.0  0.18267  0.47342  0.81658  1.0000
  H   H882      1.0  0.99679  0.36892  0.80746  1.0000
  H   H883      1.0  0.25460  0.48509  0.77884  1.0000
  H   H884      1.0  0.11000  0.48165  0.94074  1.0000
  H   H885      1.0  0.28201  0.48512  0.90475  1.0000
  C   C493      1.0  0.99109  0.35981  0.82023  1.0000
  C   C494      1.0  0.06339  0.62425  0.21877  1.0000
  Fe  Fe61      1.0  0.25394  0.57228  0.11335  1.0000
  S   S122      1.0  0.22751  0.57116  0.13368  1.0000
  S   S123      1.0  0.28051  0.56698  0.12267  1.0000
  Fe  Fe62      1.0  0.23698  0.57306  0.08096  1.0000
  S   S124      1.0  0.20912  0.57173  0.09887  1.0000
  S   S125      1.0  0.24500  0.56988  0.05133  1.0000
  Fe  Fe63      1.0  0.21497  0.59213  0.11188  1.0000
  S   S126      1.0  0.19454  0.61728  0.11864  1.0000
  Fe  Fe64      1.0  0.22441  0.55097  0.11889  1.0000
  S   S127      1.0  0.21744  0.52409  0.13452  1.0000
  S   S128      1.0  0.24191  0.59519  0.09241  1.0000
  S   S129      1.0  0.25169  0.55049  0.10012  1.0000
  C   C495      1.0  0.15091  0.60585  0.21743  1.0000
  H   H886      1.0  0.22100  0.57716  0.20457  1.0000
  H   H887      1.0  0.25907  0.52550  0.07075  1.0000
  S   S130      1.0  0.12338  0.61188  0.18114  1.0000
  H   H888      1.0  0.20725  0.55383  0.22769  1.0000
  H   H889      1.0  0.27045  0.50402  0.06355  1.0000
  C   C496      1.0  0.18085  0.49425  0.02341  1.0000
  C   C497      1.0  0.01671  0.58416  0.20609  1.0000
  H   H890      1.0  0.08511  0.49577  0.15992  1.0000
  H   H891      1.0  0.18011  0.59978  0.21329  1.0000
  Fe  Fe65      1.0  0.30383  0.58088  0.20532  1.0000
  N   N26       1.0  0.02675  0.53458  0.17436  1.0000
  S   S131      1.0  0.27843  0.59415  0.19381  1.0000
  N   N27       1.0  0.05360  0.63663  0.20400  1.0000
  H   H892      1.0  0.00998  0.59125  0.15127  1.0000
  H   H893      1.0  0.17522  0.51142  0.06692  1.0000
  H   H894      1.0  0.03348  0.66703  0.18477  1.0000
  H   H895      1.0  0.29661  0.50231  0.07800  1.0000
  H   H896      1.0  0.00041  0.62972  0.20545  1.0000
  H   H897      1.0  0.24216  0.56223  0.01771  1.0000
  H   H898      1.0  0.26012  0.53113  0.14769  1.0000
  C   C498      1.0  0.24842  0.53991  0.17350  1.0000
  H   H899      1.0  0.21098  0.59714  0.05540  1.0000
  C   C499      1.0  0.16840  0.59907  0.22513  1.0000
  H   H900      1.0  0.01396  0.65466  0.21020  1.0000
  H   H901      1.0  0.21883  0.57459  0.99822  1.0000
  H   H902      1.0  0.25338  0.59232  0.99391  1.0000
  C   C500      1.0  0.27804  0.57253  0.14404  1.0000
  C   C501      1.0  0.29166  0.56431  0.15434  1.0000
  C   C502      1.0  0.29134  0.57037  0.17015  1.0000
  C   C503      1.0  0.27752  0.58484  0.17559  1.0000
  C   C504      1.0  0.26342  0.59257  0.16579  1.0000
  C   C505      1.0  0.26357  0.58627  0.15010  1.0000
  H   H903      1.0  0.30284  0.55363  0.14979  1.0000
  H   H904      1.0  0.30213  0.56422  0.17778  1.0000
  H   H905      1.0  0.25270  0.60379  0.16998  1.0000
  H   H906      1.0  0.25305  0.59272  0.14215  1.0000
  C   C506      1.0  0.17478  0.61470  0.13579  1.0000
  C   C507      1.0  0.17154  0.59743  0.14586  1.0000
  C   C508      1.0  0.15580  0.59627  0.15999  1.0000
  C   C509      1.0  0.14325  0.61234  0.16375  1.0000
  C   C510      1.0  0.14645  0.62943  0.15343  1.0000
  C   C511      1.0  0.16216  0.63060  0.13960  1.0000
  H   H907      1.0  0.18125  0.58509  0.14292  1.0000
  H   H908      1.0  0.15333  0.58304  0.16786  1.0000
  H   H909      1.0  0.13680  0.64186  0.15623  1.0000
  H   H910      1.0  0.16457  0.64393  0.13183  1.0000
  C   C512      1.0  0.21656  0.51179  0.11867  1.0000
  C   C513      1.0  0.22046  0.51921  0.09985  1.0000
  C   C514      1.0  0.21835  0.50999  0.08722  1.0000
  S   S132      1.0  0.14252  0.56016  0.20508  1.0000
  C   C515      1.0  0.23345  0.53550  0.19076  1.0000
  C   C516      1.0  0.21089  0.49501  0.12485  1.0000
  H   H911      1.0  0.22472  0.53223  0.09495  1.0000
  H   H912      1.0  0.22123  0.51583  0.07268  1.0000
  H   H913      1.0  0.15015  0.52436  0.04881  1.0000
  H   H914      1.0  0.21359  0.63186  0.23143  1.0000
  C   C517      1.0  0.07382  0.49729  0.21301  1.0000
  H   H915      1.0  0.12610  0.49552  0.13290  1.0000
  C   C518      1.0  0.16361  0.52547  0.01462  1.0000
  H   H916      1.0  0.02006  0.63974  0.23066  1.0000
  H   H917      1.0  0.08454  0.51949  0.15926  1.0000
  C   C519      1.0  0.01173  0.58012  0.22528  1.0000
  C   C520      1.0  0.20206  0.59340  0.01527  1.0000
  C   C521      1.0  0.19989  0.59966  0.03150  1.0000
  C   C522      1.0  0.21278  0.59226  0.04289  1.0000
  C   C523      1.0  0.22814  0.57887  0.03785  1.0000
  C   C524      1.0  0.23038  0.57271  0.02157  1.0000
  C   C525      1.0  0.21725  0.57977  0.01044  1.0000
  H   H918      1.0  0.18816  0.61020  0.03533  1.0000
  H   H919      1.0  0.28554  0.52415  0.08445  1.0000
  H   H920      1.0  0.05949  0.64333  0.17420  1.0000
  H   H921      1.0  0.03166  0.51463  0.19905  1.0000
  N   N28       1.0  0.17319  0.51266  0.02929  1.0000
  C   C526      1.0  0.14760  0.51915  0.01079  1.0000
  H   H922      1.0  0.03184  0.70012  0.18295  1.0000
  C   C527      1.0  0.27798  0.62493  0.10727  1.0000
  H   H923      1.0  0.08700  0.60107  0.15929  1.0000
  H   H924      1.0  0.09434  0.62189  0.15807  1.0000
  H   H925      1.0  0.14263  0.51443  0.08346  1.0000
  H   H926      1.0  0.17211  0.52663  0.18679  1.0000
  C   C528      1.0  0.30397  0.51902  0.14000  1.0000
  H   H927      1.0  0.19395  0.52378  0.17088  1.0000
  C   C529      1.0  0.07257  0.61518  0.18156  1.0000
  S   S133      1.0  0.30484  0.55391  0.22508  1.0000
  H   H928      1.0  0.18456  0.54506  0.17888  1.0000
  H   H929      1.0  0.28587  0.61888  0.09518  1.0000
  H   H930      1.0  0.03755  0.61568  0.20970  1.0000
  H   H931      1.0  0.21977  0.59545  0.16305  1.0000
  C   C530      1.0  0.21228  0.49340  0.09339  1.0000
  H   H932      1.0  0.19641  0.51190  0.04078  1.0000
  C   C531      1.0  0.22459  0.56803  0.19460  1.0000
  H   H933      1.0  0.15013  0.62019  0.20949  1.0000
  H   H934      1.0  0.05140  0.50151  0.16543  1.0000
  H   H935      1.0  0.00379  0.55768  0.17614  1.0000
  H   H936      1.0  0.00381  0.55040  0.20518  1.0000
  H   H937      1.0  0.19440  0.55936  0.04318  1.0000
  C   C532      1.0  0.03600  0.63083  0.20479  1.0000
  H   H938      1.0  0.05926  0.50793  0.18254  1.0000
  H   H939      1.0  0.02008  0.50809  0.17769  1.0000
  H   H940      1.0  0.04608  0.69443  0.19973  1.0000
  C   C533      1.0  0.00982  0.53555  0.20857  1.0000
  H   H941      1.0  0.15772  0.53924  0.01820  1.0000
  H   H942      1.0  0.03363  0.56468  0.14170  1.0000
  C   C534      1.0  0.24110  0.55350  0.23034  1.0000
  H   H943      1.0  0.26857  0.63785  0.10240  1.0000
  C   C535      1.0  0.10558  0.49451  0.19683  1.0000
  H   H944      1.0  0.15746  0.49473  0.09431  1.0000
  H   H945      1.0  0.12829  0.52809  0.99244  1.0000
  C   C536      1.0  0.23371  0.61518  0.21412  1.0000
  C   C537      1.0  0.04879  0.57766  0.20837  1.0000
  C   C538      1.0  0.21791  0.61706  0.23067  1.0000
  H   H946      1.0  0.07708  0.62761  0.21697  1.0000
  H   H947      1.0  0.05379  0.54114  0.16606  1.0000
  C   C539      1.0  0.02752  0.52972  0.19455  1.0000
  H   H948      1.0  0.30112  0.63613  0.14531  1.0000
  C   C540      1.0  0.18857  0.52094  0.03040  1.0000
  C   C541      1.0  0.30386  0.61109  0.12456  1.0000
  H   H949      1.0  0.03829  0.53577  0.19681  1.0000
  H   H950      1.0  0.26092  0.51260  0.16765  1.0000
  C   C542      1.0  0.25254  0.52568  0.16149  1.0000
  H   H951      1.0  0.25613  0.55163  0.20269  1.0000
  H   H952      1.0  0.17371  0.52772  0.00144  1.0000
  C   C543      1.0  0.01824  0.64007  0.21676  1.0000
  H   H953      1.0  0.26429  0.60270  0.01597  1.0000
  H   H954      1.0  0.15849  0.55101  0.16380  1.0000
  H   H955      1.0  0.17144  0.56959  0.08968  1.0000
  H   H956      1.0  0.18025  0.55093  0.02238  1.0000
  C   C544      1.0  0.20869  0.57375  0.18405  1.0000
  H   H957      1.0  0.19871  0.52179  0.01710  1.0000
  H   H958      1.0  0.12218  0.57482  0.15947  1.0000
  H   H959      1.0  0.15081  0.59701  0.20804  1.0000
  H   H960      1.0  0.06364  0.65927  0.20717  1.0000
  H   H961      1.0  0.28046  0.52411  0.05437  1.0000
  H   H962      1.0  0.20694  0.59702  0.22352  1.0000
  C   C545      1.0  0.18292  0.54047  0.03487  1.0000
  H   H963      1.0  0.21119  0.54318  0.03087  1.0000
  C   C546      1.0  0.15920  0.51079  0.04712  1.0000
  H   H964      1.0  0.18866  0.54996  0.08345  1.0000
  H   H965      1.0  0.32219  0.58845  0.15405  1.0000
  S   S134      1.0  0.10059  0.56933  0.19748  1.0000
  C   C547      1.0  0.08994  0.52170  0.20913  1.0000
  H   H966      1.0  0.06297  0.57667  0.20171  1.0000
  H   H967      1.0  0.07887  0.64009  0.18423  1.0000
  H   H968      1.0  0.02186  0.52095  0.15505  1.0000
  C   C548      1.0  0.04396  0.67109  0.18963  1.0000
  C   C549      1.0  0.15141  0.50077  0.08189  1.0000
  H   H969      1.0  0.26138  0.54001  0.17722  1.0000
  H   H970      1.0  0.22100  0.53520  0.18608  1.0000
  H   H971      1.0  0.14808  0.49688  0.16057  1.0000
  H   H972      1.0  0.25936  0.51112  0.10473  1.0000
  H   H973      1.0  0.20033  0.54548  0.21168  1.0000
  H   H974      1.0  0.14981  0.50203  0.04691  1.0000
  H   H975      1.0  0.05571  0.67284  0.17789  1.0000
  C   C550      1.0  0.08962  0.48722  0.20354  1.0000
  C   C551      1.0  0.07729  0.51005  0.15640  1.0000
  H   H976      1.0  0.17044  0.54193  0.04583  1.0000
  H   H977      1.0  0.06164  0.52262  0.22254  1.0000
  C   C552      1.0  0.03529  0.58273  0.19770  1.0000
  H   H978      1.0  0.19536  0.59790  0.16690  1.0000
  H   H979      1.0  0.07271  0.62300  0.15216  1.0000
  H   H980      1.0  0.06077  0.60846  0.18431  1.0000
  H   H981      1.0  0.20798  0.48919  0.13940  1.0000
  C   C553      1.0  0.19820  0.54493  0.04123  1.0000
  H   H982      1.0  0.31235  0.51449  0.15076  1.0000
  H   H983      1.0  0.15213  0.50536  0.00718  1.0000
  C   C554      1.0  0.10588  0.51155  0.20001  1.0000
  N   N29       1.0  0.22873  0.54815  0.20417  1.0000
  C   C555      1.0  0.16680  0.50263  0.06487  1.0000
  Fe  Fe66      1.0  0.09046  0.56768  0.22772  1.0000
  H   H984      1.0  0.13476  0.54664  0.99800  1.0000
  H   H985      1.0  0.24972  0.61710  0.98949  1.0000
  H   H986      1.0  0.16892  0.55829  0.07288  1.0000
  H   H987      1.0  0.28098  0.62820  0.22896  1.0000
  H   H988      1.0  0.17517  0.48879  0.06420  1.0000
  C   C556      1.0  0.13453  0.48927  0.14353  1.0000
  C   C557      1.0  0.28912  0.50777  0.12003  1.0000
  C   C558      1.0  0.27262  0.51646  0.06688  1.0000
  H   H989      1.0  0.00549  0.49468  0.20707  1.0000
  S   S135      1.0  0.31220  0.59505  0.22306  1.0000
  S   S136      1.0  0.10857  0.58553  0.22993  1.0000
  H   H990      1.0  0.23704  0.57204  0.18498  1.0000
  S   S137      1.0  0.18575  0.60303  0.00118  1.0000
  C   C559      1.0  0.00239  0.63059  0.21902  1.0000
  H   H991      1.0  0.26957  0.61519  0.11662  1.0000
  C   C560      1.0  0.03585  0.68979  0.19502  1.0000
  S   S138      1.0  0.00020  0.59221  0.19212  1.0000
  C   C561      1.0  0.01381  0.53176  0.22783  1.0000
  H   H992      1.0  0.11035  0.57608  0.14145  1.0000
  C   C562      1.0  0.00658  0.58133  0.14499  1.0000
  C   C563      1.0  0.29958  0.50229  0.13600  1.0000
  C   C564      1.0  0.21204  0.54382  0.21837  1.0000
  H   H993      1.0  0.12369  0.59298  0.13949  1.0000
  H   H994      1.0  0.27765  0.51963  0.12254  1.0000
  H   H995      1.0  0.13625  0.51855  0.02303  1.0000
  H   H996      1.0  0.01598  0.55325  0.14158  1.0000
  H   H997      1.0  0.20038  0.53575  0.05451  1.0000
  H   H998      1.0  0.28212  0.63554  0.12873  1.0000
  C   C565      1.0  0.06625  0.63481  0.18562  1.0000
  H   H999      1.0  0.99211  0.58006  0.15093  1.0000
  H   H1000     1.0  0.21542  0.51397  0.22141  1.0000
  H   H1001     1.0  0.30110  0.62219  0.18729  1.0000
  C   C566      1.0  0.27216  0.50120  0.10037  1.0000
  C   C567      1.0  0.08223  0.61540  0.16151  1.0000
  H   H1002     1.0  0.06617  0.60961  0.21754  1.0000
  H   H1003     1.0  0.29900  0.51328  0.10786  1.0000
  H   H1004     1.0  0.28309  0.58976  0.00211  1.0000
  C   C568      1.0  0.28318  0.51119  0.08246  1.0000
  H   H1005     1.0  0.03927  0.58578  0.18288  1.0000
  N   N30       1.0  0.15674  0.53194  0.13631  1.0000
  C   C569      1.0  0.16975  0.53931  0.11933  1.0000
  C   C570      1.0  0.16638  0.52609  0.15233  1.0000
  C   C571      1.0  0.15263  0.51487  0.13312  1.0000
  C   C572      1.0  0.13900  0.54562  0.14046  1.0000
  C   C573      1.0  0.13999  0.56638  0.13485  1.0000
  C   C574      1.0  0.16322  0.54314  0.10095  1.0000
  C   C575      1.0  0.14044  0.50408  0.14947  1.0000
  C   C576      1.0  0.17121  0.54153  0.15871  1.0000
  C   C577      1.0  0.18109  0.53369  0.17480  1.0000
  C   C578      1.0  0.12293  0.57822  0.14441  1.0000
  C   C579      1.0  0.17374  0.55603  0.08586  1.0000
  H   H1006     1.0  0.18388  0.49617  0.00812  1.0000
  H   H1007     1.0  0.18296  0.52933  0.11769  1.0000
  H   H1008     1.0  0.17350  0.55185  0.12064  1.0000
  H   H1009     1.0  0.15779  0.51921  0.16471  1.0000
  H   H1010     1.0  0.17920  0.51571  0.14923  1.0000
  H   H1011     1.0  0.16565  0.50504  0.12904  1.0000
  H   H1012     1.0  0.14545  0.51846  0.12144  1.0000
  H   H1013     1.0  0.12860  0.54410  0.13349  1.0000
  H   H1014     1.0  0.13278  0.54253  0.15540  1.0000
  H   H1015     1.0  0.14098  0.57123  0.11982  1.0000
  H   H1016     1.0  0.15198  0.56926  0.13814  1.0000
  H   H1017     1.0  0.16569  0.53002  0.09620  1.0000
  H   H1018     1.0  0.14837  0.54924  0.10249  1.0000
  H   H1019     1.0  0.12788  0.51338  0.15522  1.0000
  H   H1020     1.0  0.29120  0.52837  0.14516  1.0000
  H   H1021     1.0  0.18021  0.54932  0.14748  1.0000
  H   H1022     1.0  0.23839  0.52107  0.19759  1.0000
  S   S139      1.0  0.12630  0.51986  0.19315  1.0000
  H   H1023     1.0  0.19537  0.57273  0.19367  1.0000
  H   H1024     1.0  0.99181  0.54058  0.16161  1.0000
  C   C580      1.0  0.04635  0.53150  0.16372  1.0000
  H   H1025     1.0  0.02344  0.68905  0.20615  1.0000
  C   C581      1.0  0.29086  0.62900  0.11726  1.0000
  H   H1026     1.0  0.31962  0.63261  0.18702  1.0000
  C   C582      1.0  0.24504  0.54541  0.21281  1.0000
  H   H1027     1.0  0.27744  0.65289  0.22298  1.0000
  C   C583      1.0  0.07388  0.51470  0.21540  1.0000
  C   C584      1.0  0.05064  0.65635  0.20584  1.0000
  H   H1028     1.0  0.08986  0.53494  0.21154  1.0000
  C   C585      1.0  0.01951  0.56263  0.14839  1.0000
  H   H1029     1.0  0.19595  0.62028  0.21732  1.0000
  C   C586      1.0  0.01679  0.52231  0.16968  1.0000
  C   C587      1.0  0.13988  0.53264  0.99486  1.0000
  C   C588      1.0  0.20722  0.59375  0.17376  1.0000
  H   H1030     1.0  0.99953  0.52744  0.20957  1.0000
  C   C589      1.0  0.05786  0.51171  0.16805  1.0000
  H   H1031     1.0  0.21073  0.56505  0.17389  1.0000
  H   H1032     1.0  0.29514  0.60208  0.13469  1.0000
  C   C590      1.0  0.99562  0.52826  0.17217  1.0000
  C   C591      1.0  0.31296  0.51751  0.19621  1.0000
  H   H1033     1.0  0.24383  0.55350  0.16503  1.0000
  Fe  Fe67      1.0  0.12027  0.58497  0.20012  1.0000
  H   H1034     1.0  0.08248  0.60681  0.19015  1.0000
  C   C592      1.0  0.01840  0.55470  0.16924  1.0000
  H   H1035     1.0  0.20517  0.60309  0.18336  1.0000
  H   H1036     1.0  0.04680  0.53456  0.14869  1.0000
  Fe  Fe68      1.0  0.12152  0.54444  0.20559  1.0000
  H   H1037     1.0  0.02518  0.56302  0.17439  1.0000
  C   C593      1.0  0.09238  0.51732  0.98315  1.0000
  N   N31       1.0  0.28202  0.49281  0.11617  1.0000
  C   C594      1.0  0.27264  0.60277  0.00182  1.0000
  H   H1038     1.0  0.30045  0.63939  0.22081  1.0000
  H   H1039     1.0  0.23268  0.56757  0.22862  1.0000
  H   H1040     1.0  0.28732  0.51594  0.19085  1.0000
  C   C595      1.0  0.30062  0.50832  0.19339  1.0000
  H   H1041     1.0  0.27956  0.61465  0.99769  1.0000
  H   H1042     1.0  0.13863  0.60523  0.22873  1.0000
  H   H1043     1.0  0.07699  0.51325  0.14154  1.0000
  C   C596      1.0  0.21423  0.52400  0.23006  1.0000
  H   H1044     1.0  0.29859  0.61408  0.15881  1.0000
  H   H1045     1.0  0.99288  0.50949  0.15633  1.0000
  H   H1046     1.0  0.29167  0.49545  0.14894  1.0000
  H   H1047     1.0  0.30986  0.60387  0.11293  1.0000
  C   C597      1.0  0.04382  0.57461  0.22752  1.0000
  H   H1048     1.0  0.25767  0.49836  0.13705  1.0000
  H   H1049     1.0  0.24514  0.62067  0.21565  1.0000
  H   H1050     1.0  0.03303  0.63346  0.19079  1.0000
  H   H1051     1.0  0.22926  0.62297  0.20117  1.0000
  C   C598      1.0  0.20145  0.60997  0.22876  1.0000
  H   H1052     1.0  0.25138  0.53055  0.21640  1.0000
  S   S140      1.0  0.17138  0.56604  0.98402  1.0000
  H   H1053     1.0  0.23971  0.52294  0.15973  1.0000
  H   H1054     1.0  0.29868  0.63894  0.10742  1.0000
  C   C599      1.0  0.26018  0.60421  0.98871  1.0000
  H   H1055     1.0  0.23897  0.60049  0.21320  1.0000
  H   H1056     1.0  0.21066  0.48956  0.02088  1.0000
  C   C600      1.0  0.30892  0.62201  0.14967  1.0000
  H   H1057     1.0  0.32054  0.57566  0.12862  1.0000
  H   H1058     1.0  0.04081  0.65897  0.21865  1.0000
  H   H1059     1.0  0.00793  0.58685  0.12999  1.0000
  H   H1060     1.0  0.00510  0.61654  0.22747  1.0000
  C   C601      1.0  0.30538  0.48932  0.19398  1.0000
  C   C602      1.0  0.28632  0.64026  0.22923  1.0000
  H   H1061     1.0  0.02451  0.53906  0.22790  1.0000
  C   C603      1.0  0.31025  0.63154  0.17865  1.0000
  N   N32       1.0  0.31849  0.61324  0.13324  1.0000
  H   H1062     1.0  0.26760  0.49044  0.09629  1.0000
  H   H1063     1.0  0.11780  0.48688  0.18947  1.0000
  C   C604      1.0  0.32151  0.62399  0.16169  1.0000
  H   H1064     1.0  0.30185  0.64540  0.17459  1.0000
  H   H1065     1.0  0.16885  0.58442  0.23196  1.0000
  H   H1066     1.0  0.31297  0.49312  0.13208  1.0000
  H   H1067     1.0  0.31175  0.52669  0.12745  1.0000
  H   H1068     1.0  0.24736  0.55226  0.98460  1.0000
  H   H1069     1.0  0.09797  0.51338  0.99588  1.0000
  H   H1070     1.0  0.30915  0.53213  0.19583  1.0000
  S   S141      1.0  0.05367  0.48866  0.22135  1.0000
  H   H1071     1.0  0.08035  0.51095  0.98542  1.0000
  H   H1072     1.0  0.26592  0.56412  0.22436  1.0000
  H   H1073     1.0  0.14288  0.49147  0.08098  1.0000
  H   H1074     1.0  0.99001  0.50052  0.18085  1.0000
  H   H1075     1.0  0.99743  0.58122  0.23190  1.0000
  H   H1076     1.0  0.32296  0.64007  0.11795  1.0000
  H   H1077     1.0  0.31283  0.76703  0.40220  1.0000
  Fe  Fe69      1.0  0.30820  0.79901  0.47898  1.0000
  S   S142      1.0  0.14962  0.55139  0.25400  1.0000
  H   H1078     1.0  0.18152  0.63512  0.24901  1.0000
  C   C605      1.0  0.18964  0.58765  0.25623  1.0000
  Fe  Fe70      1.0  0.09880  0.80836  0.43726  1.0000
  S   S143      1.0  0.08171  0.83579  0.42710  1.0000
  S   S144      1.0  0.12062  0.79194  0.41857  1.0000
  H   H1079     1.0  0.17819  0.54079  0.38627  1.0000
  H   H1080     1.0  0.31931  0.74433  0.43039  1.0000
  H   H1081     1.0  0.24854  0.60809  0.25714  1.0000
  Fe  Fe71      1.0  0.05809  0.82411  0.44616  1.0000
  S   S145      1.0  0.03145  0.82960  0.43644  1.0000
  Fe  Fe72      1.0  0.08556  0.84393  0.45178  1.0000
  S   S146      1.0  0.08918  0.87124  0.45491  1.0000
  S   S147      1.0  0.07492  0.79623  0.45459  1.0000
  S   S148      1.0  0.10484  0.81755  0.46016  1.0000
  H   H1082     1.0  0.04789  0.63840  0.24169  1.0000
  S   S149      1.0  0.20993  0.88187  0.46279  1.0000
  H   H1083     1.0  0.27918  0.58860  0.24911  1.0000
  H   H1084     1.0  0.01634  0.88537  0.43135  1.0000
  Fe  Fe73      1.0  0.21729  0.90902  0.44848  1.0000
  S   S150      1.0  0.24441  0.91241  0.42981  1.0000
  H   H1085     1.0  0.28478  0.60389  0.31480  1.0000
  H   H1086     1.0  0.17900  0.60848  0.46634  1.0000
  H   H1087     1.0  0.04860  0.73699  0.43634  1.0000
  S   S151      1.0  0.28298  0.81197  0.46733  1.0000
  H   H1088     1.0  0.16521  0.55496  0.40249  1.0000
  Fe  Fe74      1.0  0.30209  0.81510  0.43998  1.0000
  S   S152      1.0  0.30260  0.83983  0.41713  1.0000
  Fe  Fe75      1.0  0.28392  0.78385  0.46341  1.0000
  H   H1089     1.0  0.01904  0.83185  0.47436  1.0000
  Fe  Fe76      1.0  0.18321  0.70120  0.45167  1.0000
  S   S153      1.0  0.20046  0.70652  0.42330  1.0000
  C   C606      1.0  0.07858  0.74046  0.47214  1.0000
  H   H1090     1.0  0.26670  0.60864  0.37281  1.0000
  S   S154      1.0  0.23380  0.67631  0.44057  1.0000
  H   H1091     1.0  0.19650  0.58789  0.44457  1.0000
  Fe  Fe77      1.0  0.22244  0.70663  0.43767  1.0000
  S   S155      1.0  0.24107  0.72704  0.42525  1.0000
  Fe  Fe78      1.0  0.21058  0.67581  0.42793  1.0000
  S   S156      1.0  0.21867  0.66105  0.40386  1.0000
  H   H1092     1.0  0.22606  0.57789  0.45287  1.0000
  S   S157      1.0  0.19146  0.67044  0.45536  1.0000
  Fe  Fe79      1.0  0.19661  0.56491  0.34439  1.0000
  S   S158      1.0  0.16864  0.57926  0.35650  1.0000
  S   S159      1.0  0.20600  0.53433  0.35343  1.0000
  Fe  Fe80      1.0  0.20536  0.59957  0.31770  1.0000
  S   S160      1.0  0.17804  0.61671  0.32793  1.0000
  S   S161      1.0  0.22374  0.61096  0.29162  1.0000
  Fe  Fe81      1.0  0.18272  0.60182  0.35607  1.0000
  S   S162      1.0  0.17368  0.61447  0.38153  1.0000
  Fe  Fe82      1.0  0.16659  0.59276  0.32738  1.0000
  S   S163      1.0  0.14164  0.59673  0.31518  1.0000
  S   S164      1.0  0.21112  0.58633  0.34593  1.0000
  S   S165      1.0  0.19357  0.57679  0.31538  1.0000
  H   H1093     1.0  0.09083  0.50399  0.42140  1.0000
  H   H1094     1.0  0.21037  0.49539  0.35540  1.0000
  H   H1095     1.0  0.04157  0.61713  0.24218  1.0000
  C   C607      1.0  0.17572  0.50208  0.33280  1.0000
  H   H1096     1.0  0.05798  0.61430  0.26671  1.0000
  C   C608      1.0  0.19949  0.50263  0.34811  1.0000
  C   C609      1.0  0.19479  0.52189  0.34501  1.0000
  C   C610      1.0  0.18069  0.53115  0.33566  1.0000
  C   C611      1.0  0.17135  0.52131  0.32937  1.0000
  H   H1097     1.0  0.29415  0.61148  0.25724  1.0000
  H   H1098     1.0  0.30329  0.50823  0.24873  1.0000
  H   H1099     1.0  0.17668  0.54592  0.33366  1.0000
  H   H1100     1.0  0.16039  0.52864  0.32223  1.0000
  C   C612      1.0  0.28022  0.57483  0.27708  1.0000
  C   C613      1.0  0.27046  0.57265  0.29530  1.0000
  C   C614      1.0  0.25266  0.58301  0.29974  1.0000
  C   C615      1.0  0.24484  0.59605  0.28604  1.0000
  C   C616      1.0  0.25447  0.59799  0.26777  1.0000
  H   H1101     1.0  0.23372  0.54474  0.24217  1.0000
  H   H1102     1.0  0.27674  0.56307  0.30604  1.0000
  H   H1103     1.0  0.24528  0.58140  0.31386  1.0000
  S   S166      1.0  0.19044  0.92132  0.43953  1.0000
  C   C617      1.0  0.20440  0.65081  0.39649  1.0000
  C   C618      1.0  0.18779  0.64710  0.40758  1.0000
  C   C619      1.0  0.17816  0.63654  0.40243  1.0000
  C   C620      1.0  0.18500  0.62966  0.38615  1.0000
  C   C621      1.0  0.20111  0.63419  0.37457  1.0000
  C   C622      1.0  0.21071  0.64480  0.37971  1.0000
  H   H1104     1.0  0.18266  0.65193  0.42036  1.0000
  H   H1105     1.0  0.16557  0.63330  0.41133  1.0000
  H   H1106     1.0  0.20640  0.62915  0.36190  1.0000
  H   H1107     1.0  0.22337  0.64793  0.37090  1.0000
  C   C623      1.0  0.24468  0.74041  0.43896  1.0000
  C   C624      1.0  0.23730  0.73795  0.45781  1.0000
  C   C625      1.0  0.16854  0.61060  0.23908  1.0000
  C   C626      1.0  0.25190  0.76161  0.46025  1.0000
  C   C627      1.0  0.25886  0.76444  0.44135  1.0000
  C   C628      1.0  0.25537  0.75375  0.43074  1.0000
  H   H1108     1.0  0.22918  0.72760  0.46431  1.0000
  H   H1109     1.0  0.28906  0.51202  0.23229  1.0000
  H   H1110     1.0  0.26703  0.77476  0.43490  1.0000
  H   H1111     1.0  0.26103  0.75578  0.41613  1.0000
  H   H1112     1.0  0.29976  0.73613  0.45915  1.0000
  H   H1113     1.0  0.19959  0.50784  0.25405  1.0000
  C   C629      1.0  0.26037  0.89199  0.42666  1.0000
  C   C630      1.0  0.27569  0.89268  0.41226  1.0000
  C   C631      1.0  0.28858  0.87657  0.40941  1.0000
  C   C632      1.0  0.28636  0.85975  0.42115  1.0000
  C   C633      1.0  0.27131  0.85908  0.43581  1.0000
  C   C634      1.0  0.25828  0.87517  0.43850  1.0000
  H   H1114     1.0  0.27740  0.90566  0.40311  1.0000
  H   H1115     1.0  0.30018  0.87715  0.39802  1.0000
  H   H1116     1.0  0.26955  0.84616  0.44487  1.0000
  H   H1117     1.0  0.24688  0.87461  0.44994  1.0000
  C   C635      1.0  0.12906  0.76989  0.43044  1.0000
  C   C636      1.0  0.12295  0.76488  0.44940  1.0000
  C   C637      1.0  0.13038  0.74761  0.45899  1.0000
  C   C638      1.0  0.14428  0.73542  0.44977  1.0000
  C   C639      1.0  0.15020  0.74025  0.43073  1.0000
  C   C640      1.0  0.14245  0.75742  0.42104  1.0000
  H   H1118     1.0  0.11270  0.77441  0.45680  1.0000
  H   H1119     1.0  0.07098  0.59968  0.25096  1.0000
  H   H1120     1.0  0.16071  0.73074  0.42351  1.0000
  H   H1121     1.0  0.14706  0.76117  0.40632  1.0000
  C   C641      1.0  0.11205  0.87355  0.45117  1.0000
  C   C642      1.0  0.12567  0.86457  0.43870  1.0000
  C   C643      1.0  0.14395  0.86611  0.43612  1.0000
  C   C644      1.0  0.14879  0.87633  0.44624  1.0000
  C   C645      1.0  0.13513  0.88562  0.45851  1.0000
  C   C646      1.0  0.11674  0.88439  0.46081  1.0000
  H   H1122     1.0  0.12209  0.85642  0.43104  1.0000
  H   H1123     1.0  0.15444  0.85908  0.42645  1.0000
  H   H1124     1.0  0.29659  0.65207  0.27592  1.0000
  H   H1125     1.0  0.12570  0.74390  0.47371  1.0000
  H   H1126     1.0  0.25554  0.55929  0.46341  1.0000
  C   C647      1.0  0.00937  0.78384  0.45715  1.0000
  C   C648      1.0  0.02102  0.79636  0.45346  1.0000
  C   C649      1.0  0.01696  0.81363  0.44216  1.0000
  H   H1127     1.0  0.23808  0.49578  0.26240  1.0000
  C   C650      1.0  0.18993  0.49271  0.34205  1.0000
  H   H1128     1.0  0.01266  0.77042  0.46573  1.0000
  H   H1129     1.0  0.03316  0.79263  0.45924  1.0000
  H   H1130     1.0  0.25208  0.63667  0.31676  1.0000
  C   C651      1.0  0.28279  0.67604  0.43486  1.0000
  C   C652      1.0  0.14659  0.56386  0.27129  1.0000
  C   C653      1.0  0.13332  0.58004  0.27233  1.0000
  C   C654      1.0  0.13173  0.58995  0.28596  1.0000
  C   C655      1.0  0.14353  0.58386  0.29846  1.0000
  C   C656      1.0  0.15658  0.56755  0.29753  1.0000
  C   C657      1.0  0.15807  0.55755  0.28405  1.0000
  H   H1131     1.0  0.12431  0.58496  0.26263  1.0000
  H   H1132     1.0  0.12147  0.60248  0.28672  1.0000
  H   H1133     1.0  0.16545  0.56257  0.30730  1.0000
  H   H1134     1.0  0.16821  0.54491  0.28351  1.0000
  H   H1135     1.0  0.24648  0.84747  0.47655  1.0000
  Fe  Fe83      1.0  0.07960  0.80762  0.47664  1.0000
  S   S167      1.0  0.06032  0.57066  0.24116  1.0000
  C   C658      1.0  0.19189  0.97765  0.45116  1.0000
  C   C659      1.0  0.14483  0.82522  0.46390  1.0000
  H   H1136     1.0  0.27387  0.61404  0.28551  1.0000
  H   H1137     1.0  0.12962  0.55841  0.33035  1.0000
  C   C660      1.0  0.29624  0.50138  0.24227  1.0000
  C   C661      1.0  0.28607  0.64100  0.24899  1.0000
  H   H1138     1.0  0.05475  0.73887  0.46357  1.0000
  C   C662      1.0  0.30460  0.72408  0.42745  1.0000
  H   H1139     1.0  0.09325  0.74093  0.46643  1.0000
  H   H1140     1.0  0.24925  0.48893  0.28115  1.0000
  C   C663      1.0  0.99347  0.78861  0.44980  1.0000
  H   H1141     1.0  0.22977  0.84727  0.44798  1.0000
  H   H1142     1.0  0.24107  0.96572  0.46364  1.0000
  N   N33       1.0  0.29983  0.62288  0.27755  1.0000
  C   C664      1.0  0.28059  0.62358  0.28900  1.0000
  H   H1143     1.0  0.19883  0.82258  0.45668  1.0000
  H   H1144     1.0  0.01175  0.74822  0.42877  1.0000
  H   H1145     1.0  0.09396  0.53066  0.38398  1.0000
  C   C665      1.0  0.19756  0.52198  0.24567  1.0000
  C   C666      1.0  0.24085  0.74862  0.46838  1.0000
  C   C667      1.0  0.03887  0.89174  0.47983  1.0000
  C   C668      1.0  0.00837  0.86636  0.45659  1.0000
  H   H1146     1.0  0.17298  0.81156  0.46080  1.0000
  C   C669      1.0  0.15830  0.48977  0.26000  1.0000
  Fe  Fe84      1.0  0.18234  0.89473  0.45578  1.0000
  C   C670      1.0  0.24984  0.56523  0.43585  1.0000
  C   C671      1.0  0.21363  0.48847  0.29480  1.0000
  H   H1147     1.0  0.21941  0.58192  0.25405  1.0000
  H   H1148     1.0  0.07685  0.73113  0.41770  1.0000
  Fe  Fe85      1.0  0.31532  0.56733  0.24176  1.0000
  C   C672      1.0  0.02260  0.74220  0.41802  1.0000
  C   C673      1.0  0.06904  0.74041  0.45698  1.0000
  H   H1149     1.0  0.01534  0.89324  0.45179  1.0000
  H   H1150     1.0  0.99107  0.83597  0.46641  1.0000
  H   H1151     1.0  0.26776  0.54066  0.23734  1.0000
  H   H1152     1.0  0.15395  0.48720  0.24835  1.0000
  Fe  Fe86      1.0  0.18133  0.93058  0.46656  1.0000
  H   H1153     1.0  0.25098  0.61367  0.31598  1.0000
  H   H1154     1.0  0.22328  0.60965  0.24314  1.0000
  H   H1155     1.0  0.22087  0.55697  0.28124  1.0000
  H   H1156     1.0  0.99768  0.83184  0.42635  1.0000
  C   C674      1.0  0.27930  0.89449  0.46682  1.0000
  H   H1157     1.0  0.25452  0.91577  0.47021  1.0000
  H   H1158     1.0  0.20971  0.55205  0.26556  1.0000
  H   H1159     1.0  0.30360  0.59375  0.28950  1.0000
  H   H1160     1.0  0.31252  0.62304  0.24873  1.0000
  H   H1161     1.0  0.07188  0.75250  0.47872  1.0000
  H   H1162     1.0  0.20793  0.50076  0.28518  1.0000
  H   H1163     1.0  0.01849  0.51678  0.23276  1.0000
  H   H1164     1.0  0.20633  0.58982  0.27466  1.0000
  H   H1165     1.0  0.28801  0.66635  0.42525  1.0000
  C   C675      1.0  0.20853  0.56122  0.27501  1.0000
  C   C676      1.0  0.00092  0.81849  0.43509  1.0000
  H   H1166     1.0  0.03619  0.75962  0.43809  1.0000
  H   H1167     1.0  0.29056  0.65374  0.24859  1.0000
  H   H1168     1.0  0.14134  0.97741  0.44229  1.0000
  H   H1169     1.0  0.29538  0.75255  0.43094  1.0000
  N   N34       1.0  0.30299  0.71251  0.44675  1.0000
  H   H1170     1.0  0.27573  0.85741  0.47292  1.0000
  H   H1171     1.0  0.19645  0.84478  0.46062  1.0000
  H   H1172     1.0  0.24697  0.82654  0.45144  1.0000
  C   C677      1.0  0.20685  0.58127  0.26481  1.0000
  H   H1173     1.0  0.25766  0.61776  0.33517  1.0000
  H   H1174     1.0  0.18068  0.63535  0.28803  1.0000
  C   C678      1.0  0.29100  0.69913  0.44827  1.0000
  N   N35       1.0  0.13410  0.52114  0.38091  1.0000
  C   C679      1.0  0.13903  0.50323  0.37431  1.0000
  C   C680      1.0  0.13070  0.53726  0.36518  1.0000
  C   C681      1.0  0.15043  0.52277  0.38746  1.0000
  C   C682      1.0  0.11789  0.52165  0.39679  1.0000
  H   H1175     1.0  0.00195  0.85973  0.44934  1.0000
  H   H1176     1.0  0.10619  0.89158  0.47029  1.0000
  C   C683      1.0  0.14889  0.54111  0.39341  1.0000
  C   C684      1.0  0.12185  0.53454  0.35026  1.0000
  C   C685      1.0  0.11715  0.55265  0.33687  1.0000
  C   C686      1.0  0.20325  0.61345  0.44529  1.0000
  H   H1177     1.0  0.27533  0.92294  0.46972  1.0000
  H   H1178     1.0  0.02286  0.85914  0.45626  1.0000
  H   H1179     1.0  0.15139  0.50329  0.36316  1.0000
  H   H1180     1.0  0.21997  0.49284  0.30403  1.0000
  H   H1181     1.0  0.12219  0.54961  0.37056  1.0000
  H   H1182     1.0  0.14386  0.54137  0.35738  1.0000
  H   H1183     1.0  0.16306  0.52090  0.37651  1.0000
  H   H1184     1.0  0.15313  0.51174  0.39954  1.0000
  H   H1185     1.0  0.12156  0.51155  0.40917  1.0000
  H   H1186     1.0  0.11412  0.53526  0.40084  1.0000
  H   H1187     1.0  0.12433  0.50136  0.25133  1.0000
  S   S168      1.0  0.16593  0.95825  0.47287  1.0000
  H   H1188     1.0  0.09597  0.52511  0.27576  1.0000
  H   H1189     1.0  0.05843  0.76929  0.44882  1.0000
  H   H1190     1.0  0.13787  0.54264  0.40576  1.0000
  H   H1191     1.0  0.14594  0.55318  0.38233  1.0000
  H   H1192     1.0  0.13158  0.52472  0.34211  1.0000
  H   H1193     1.0  0.25201  0.62595  0.38507  1.0000
  H   H1194     1.0  0.02125  0.57316  0.25078  1.0000
  H   H1195     1.0  0.11156  0.55029  0.32590  1.0000
  H   H1196     1.0  0.10675  0.56283  0.34408  1.0000
  C   C687      1.0  0.17303  0.75088  0.47515  1.0000
  C   C688      1.0  0.30654  0.63904  0.27939  1.0000
  H   H1197     1.0  0.30995  0.67586  0.43723  1.0000
  H   H1198     1.0  0.27862  0.66810  0.44895  1.0000
  H   H1199     1.0  0.19550  0.53179  0.25480  1.0000
  H   H1200     1.0  0.22656  0.52010  0.23617  1.0000
  H   H1201     1.0  0.22466  0.80934  0.47149  1.0000
  H   H1202     1.0  0.25930  0.59483  0.40530  1.0000
  H   H1203     1.0  0.10310  0.49904  0.26613  1.0000
  N   N36       1.0  0.06468  0.75809  0.42434  1.0000
  C   C689      1.0  0.06885  0.75854  0.44235  1.0000
  C   C690      1.0  0.06160  0.77746  0.41316  1.0000
  C   C691      1.0  0.04685  0.75152  0.42874  1.0000
  C   C692      1.0  0.07952  0.74535  0.41369  1.0000
  C   C693      1.0  0.09956  0.74334  0.41578  1.0000
  Fe  Fe87      1.0  0.21375  0.67378  0.46753  1.0000
  C   C694      1.0  0.03847  0.75237  0.41214  1.0000
  C   C695      1.0  0.07817  0.78705  0.40689  1.0000
  C   C696      1.0  0.07251  0.80727  0.39804  1.0000
  C   C697      1.0  0.11334  0.73278  0.40196  1.0000
  H   H1204     1.0  0.25797  0.56683  0.42164  1.0000
  H   H1205     1.0  0.99438  0.89371  0.44493  1.0000
  H   H1206     1.0  0.08213  0.76266  0.44025  1.0000
  H   H1207     1.0  0.05756  0.77780  0.40018  1.0000
  H   H1208     1.0  0.04998  0.78639  0.42091  1.0000
  C   C698      1.0  0.28267  0.49138  0.25699  1.0000
  C   C699      1.0  0.30788  0.74381  0.42444  1.0000
  C   C700      1.0  0.22012  0.82454  0.46852  1.0000
  H   H1209     1.0  0.07919  0.74965  0.39878  1.0000
  H   H1210     1.0  0.09963  0.48910  0.29822  1.0000
  H   H1211     1.0  0.10337  0.75674  0.41384  1.0000
  H   H1212     1.0  0.21226  0.60816  0.45546  1.0000
  C   C701      1.0  0.16669  0.54173  0.39832  1.0000
  H   H1213     1.0  0.03272  0.76685  0.40622  1.0000
  H   H1214     1.0  0.08438  0.78662  0.41848  1.0000
  H   H1215     1.0  0.08871  0.78044  0.39638  1.0000
  H   H1216     1.0  0.06223  0.81478  0.40806  1.0000
  H   H1217     1.0  0.08471  0.81373  0.39357  1.0000
  H   H1218     1.0  0.06666  0.80862  0.38586  1.0000
  H   H1219     1.0  0.11278  0.74040  0.38769  1.0000
  C   C702      1.0  0.05315  0.62434  0.23894  1.0000
  H   H1220     1.0  0.17002  0.53027  0.40986  1.0000
  H   H1221     1.0  0.13566  0.83760  0.46854  1.0000
  H   H1222     1.0  0.16939  0.83564  0.45135  1.0000
  H   H1223     1.0  0.28572  0.62701  0.31495  1.0000
  C   C703      1.0  0.25865  0.62190  0.32007  1.0000
  S   S169      1.0  0.30094  0.78805  0.43479  1.0000
  H   H1224     1.0  0.31994  0.69162  0.46344  1.0000
  C   C704      1.0  0.29882  0.62380  0.25796  1.0000
  S   S170      1.0  0.20429  0.70409  0.46563  1.0000
  C   C705      1.0  0.10004  0.51852  0.39349  1.0000
  H   H1225     1.0  0.99730  0.50735  0.27053  1.0000
  H   H1226     1.0  0.23989  0.78888  0.41139  1.0000
  C   C706      1.0  0.23431  0.58226  0.43892  1.0000
  C   C707      1.0  0.29762  0.68629  0.43412  1.0000
  H   H1227     1.0  0.22256  0.82988  0.47953  1.0000
  H   H1228     1.0  0.23135  0.61549  0.41538  1.0000
  H   H1229     1.0  0.13877  0.89361  0.46628  1.0000
  H   H1230     1.0  0.02466  0.89657  0.47750  1.0000
  H   H1231     1.0  0.12825  0.50165  0.36799  1.0000
  C   C708      1.0  0.29343  0.72417  0.46098  1.0000
  H   H1232     1.0  0.07606  0.72822  0.45079  1.0000
  C   C709      1.0  0.11798  0.49278  0.26420  1.0000
  H   H1233     1.0  0.27681  0.70679  0.44700  1.0000
  H   H1234     1.0  0.24058  0.59336  0.44017  1.0000
  C   C710      1.0  0.18424  0.62091  0.25734  1.0000
  H   H1235     1.0  0.10239  0.50601  0.38782  1.0000
  H   H1236     1.0  0.30277  0.86531  0.45481  1.0000
  H   H1237     1.0  0.30098  0.69398  0.41982  1.0000
  N   N37       1.0  0.18756  0.77612  0.42416  1.0000
  C   C711      1.0  0.17541  0.79044  0.41258  1.0000
  C   C712      1.0  0.19500  0.75960  0.41518  1.0000
  C   C713      1.0  0.17567  0.77016  0.44266  1.0000
  C   C714      1.0  0.20304  0.78305  0.42720  1.0000
  C   C715      1.0  0.21071  0.79830  0.41184  1.0000
  C   C716      1.0  0.16353  0.80665  0.42160  1.0000
  C   C717      1.0  0.18477  0.75339  0.45572  1.0000
  C   C718      1.0  0.20725  0.76280  0.39571  1.0000
  C   C719      1.0  0.21201  0.74572  0.38728  1.0000
  C   C720      1.0  0.22880  0.80074  0.41465  1.0000
  C   C721      1.0  0.15569  0.82264  0.40746  1.0000
  H   H1238     1.0  0.18499  0.52450  0.24007  1.0000
  H   H1239     1.0  0.16573  0.78400  0.40896  1.0000
  H   H1240     1.0  0.18338  0.79630  0.39917  1.0000
  H   H1241     1.0  0.20366  0.74851  0.42353  1.0000
  H   H1242     1.0  0.18349  0.75366  0.41448  1.0000
  H   H1243     1.0  0.16312  0.76683  0.44088  1.0000
  H   H1244     1.0  0.17071  0.78164  0.45026  1.0000
  H   H1245     1.0  0.19883  0.78881  0.43994  1.0000
  H   H1246     1.0  0.21470  0.77136  0.42980  1.0000
  H   H1247     1.0  0.20087  0.81165  0.41204  1.0000
  H   H1248     1.0  0.21320  0.79534  0.39795  1.0000
  H   H1249     1.0  0.15175  0.80200  0.43194  1.0000
  H   H1250     1.0  0.17156  0.81176  0.42859  1.0000
  H   H1251     1.0  0.19847  0.75484  0.45655  1.0000
  H   H1252     1.0  0.18626  0.74068  0.45065  1.0000
  H   H1253     1.0  0.20041  0.77422  0.38613  1.0000
  H   H1254     1.0  0.22038  0.76570  0.39652  1.0000
  H   H1255     1.0  0.19938  0.74182  0.38640  1.0000
  H   H1256     1.0  0.22042  0.74856  0.37320  1.0000
  H   H1257     1.0  0.22012  0.73401  0.39557  1.0000
  H   H1258     1.0  0.22769  0.80180  0.42906  1.0000
  H   H1259     1.0  0.27193  0.63753  0.28582  1.0000
  H   H1260     1.0  0.23260  0.81343  0.40533  1.0000
  H   H1261     1.0  0.14761  0.81796  0.40008  1.0000
  H   H1262     1.0  0.14643  0.83355  0.41452  1.0000
  H   H1263     1.0  0.16686  0.82861  0.39739  1.0000
  H   H1264     1.0  0.08257  0.52869  0.41757  1.0000
  H   H1265     1.0  0.27912  0.73026  0.45920  1.0000
  H   H1266     1.0  0.26425  0.49395  0.23935  1.0000
  H   H1267     1.0  0.15852  0.50460  0.25749  1.0000
  S   S171      1.0  0.15413  0.71452  0.46259  1.0000
  C   C722      1.0  0.16922  0.61983  0.27514  1.0000
  H   H1268     1.0  0.27164  0.64191  0.25653  1.0000
  C   C723      1.0  0.16744  0.63569  0.28455  1.0000
  H   H1269     1.0  0.19092  0.57784  0.24734  1.0000
  H   H1270     1.0  0.28950  0.68981  0.46195  1.0000
  H   H1271     1.0  0.15713  0.60750  0.25080  1.0000
  H   H1272     1.0  0.15552  0.62077  0.27250  1.0000
  H   H1273     1.0  0.17285  0.60678  0.28493  1.0000
  H   H1274     1.0  0.19634  0.55941  0.28610  1.0000
  H   H1275     1.0  0.15684  0.63447  0.29742  1.0000
  H   H1276     1.0  0.16317  0.64911  0.27552  1.0000
  N   N38       1.0  0.18631  0.60715  0.24558  1.0000
  S   S172      1.0  0.11038  0.54158  0.23576  1.0000
  C   C724      1.0  0.27194  0.58708  0.26324  1.0000
  C   C725      1.0  0.23237  0.83203  0.45057  1.0000
  C   C726      1.0  0.29301  0.71426  0.48138  1.0000
  H   H1277     1.0  0.01647  0.74350  0.40603  1.0000
  C   C727      1.0  0.16477  0.82507  0.46332  1.0000
  C   C728      1.0  0.12408  0.51338  0.28063  1.0000
  C   C729      1.0  0.10436  0.52476  0.28566  1.0000
  H   H1278     1.0  0.27238  0.88692  0.46116  1.0000
  H   H1279     1.0  0.25536  0.55964  0.24834  1.0000
  S   S173      1.0  0.17217  0.87610  0.44384  1.0000
  C   C730      1.0  0.10467  0.54463  0.28549  1.0000
  H   H1280     1.0  0.27061  0.68597  0.43061  1.0000
  H   H1281     1.0  0.15952  0.74837  0.47502  1.0000
  S   S174      1.0  0.20885  0.92078  0.47388  1.0000
  C   C731      1.0  0.16680  0.82961  0.48114  1.0000
  C   C732      1.0  0.31190  0.75248  0.40398  1.0000
  S   S175      1.0  0.16151  0.49029  0.32758  1.0000
  H   H1282     1.0  0.13221  0.51455  0.29024  1.0000
  H   H1283     1.0  0.13046  0.52065  0.26697  1.0000
  H   H1284     1.0  0.31574  0.71681  0.41777  1.0000
  C   C733      1.0  0.02524  0.57562  0.23595  1.0000
  S   S176      1.0  0.30803  0.77044  0.47690  1.0000
  H   H1285     1.0  0.11737  0.49948  0.31719  1.0000
  C   C734      1.0  0.27878  0.61863  0.31022  1.0000
  C   C735      1.0  0.26932  0.91462  0.46383  1.0000
  H   H1286     1.0  0.19410  0.96870  0.44161  1.0000
  H   H1287     1.0  0.07294  0.51459  0.40860  1.0000
  H   H1288     1.0  0.11016  0.55171  0.27142  1.0000
  H   H1289     1.0  0.09052  0.55222  0.28999  1.0000
  H   H1290     1.0  0.11328  0.54512  0.29488  1.0000
  H   H1291     1.0  0.23034  0.94650  0.47525  1.0000
  C   C736      1.0  0.06575  0.61421  0.25240  1.0000
  H   H1292     1.0  0.17759  0.58538  0.26740  1.0000
  N   N39       1.0  0.22206  0.58968  0.42499  1.0000
  C   C737      1.0  0.21934  0.57423  0.41771  1.0000
  C   C738      1.0  0.22957  0.60421  0.40975  1.0000
  C   C739      1.0  0.24828  0.59787  0.39744  1.0000
  C   C740      1.0  0.20660  0.57976  0.40362  1.0000
  H   H1293     1.0  0.18401  0.63091  0.46291  1.0000
  C   C741      1.0  0.25268  0.61299  0.38073  1.0000
  C   C742      1.0  0.20593  0.56314  0.39647  1.0000
  H   H1294     1.0  0.23254  0.56660  0.41097  1.0000
  H   H1295     1.0  0.19441  0.60551  0.42469  1.0000
  H   H1296     1.0  0.21949  0.61098  0.40086  1.0000
  H   H1297     1.0  0.29179  0.72600  0.42230  1.0000
  H   H1298     1.0  0.24859  0.58562  0.39217  1.0000
  H   H1299     1.0  0.24284  0.61558  0.37158  1.0000
  H   H1300     1.0  0.19234  0.58550  0.41000  1.0000
  H   H1301     1.0  0.21148  0.59003  0.39152  1.0000
  H   H1302     1.0  0.09725  0.51898  0.29959  1.0000
  S   S177      1.0  0.06049  0.83459  0.47002  1.0000
  H   H1303     1.0  0.10920  0.52907  0.35617  1.0000
  C   C743      1.0  0.99793  0.86618  0.47674  1.0000
  H   H1304     1.0  0.30395  0.98405  0.28860  1.0000
  H   H1305     1.0  0.16041  0.84455  0.48003  1.0000
  H   H1306     1.0  0.19634  0.56747  0.38683  1.0000
  H   H1307     1.0  0.21967  0.55735  0.38890  1.0000
  H   H1308     1.0  0.20098  0.55233  0.40795  1.0000
  H   H1309     1.0  0.31626  0.60579  0.29706  1.0000
  H   H1310     1.0  0.10145  0.73562  0.42970  1.0000
  H   H1311     1.0  0.29360  0.89398  0.45896  1.0000
  H   H1312     1.0  0.31974  0.67151  0.26161  1.0000
  H   H1313     1.0  0.19711  0.61954  0.26201  1.0000
  H   H1314     1.0  0.02746  0.72736  0.42346  1.0000
  N   N40       1.0  0.12551  0.49350  0.28026  1.0000
  H   H1315     1.0  0.30679  0.49146  0.23484  1.0000
  H   H1316     1.0  0.14299  0.82546  0.45001  1.0000
  H   H1317     1.0  0.27051  0.92033  0.44887  1.0000
  H   H1318     1.0  0.11051  0.71888  0.40377  1.0000
  H   H1319     1.0  0.17425  0.62580  0.44630  1.0000
  C   C744      1.0  0.32150  0.70171  0.45017  1.0000
  C   C745      1.0  0.20347  0.59859  0.43467  1.0000
  H   H1320     1.0  0.21366  0.56389  0.42938  1.0000
  H   H1321     1.0  0.04888  0.74617  0.40128  1.0000
  C   C746      1.0  0.31006  0.85488  0.46478  1.0000
  S   S178      1.0  0.30316  0.56320  0.27204  1.0000
  H   H1322     1.0  0.12741  0.73115  0.40418  1.0000
  C   C747      1.0  0.08578  0.51632  0.41140  1.0000
  H   H1323     1.0  0.04796  0.88719  0.46732  1.0000
  H   H1324     1.0  0.22988  0.82785  0.43876  1.0000
  H   H1325     1.0  0.21751  0.96946  0.47605  1.0000
  H   H1326     1.0  0.20153  0.79289  0.47150  1.0000
  C   C748      1.0  0.23125  0.96045  0.47600  1.0000
  C   C749      1.0  0.00855  0.88592  0.44560  1.0000
  H   H1327     1.0  0.30705  0.63808  0.29392  1.0000
  C   C750      1.0  0.19966  0.82991  0.46704  1.0000
  H   H1328     1.0  0.14070  0.81278  0.47330  1.0000
  C   C751      1.0  0.17947  0.97492  0.46790  1.0000
  H   H1329     1.0  0.00116  0.53677  0.23746  1.0000
  C   C752      1.0  0.31171  0.60481  0.28475  1.0000
  H   H1330     1.0  0.20781  0.62565  0.43572  1.0000
  H   H1331     1.0  0.30584  0.84168  0.46630  1.0000
  Fe  Fe88      1.0  0.12960  0.55952  0.23490  1.0000
  H   H1332     1.0  0.27312  0.50161  0.26475  1.0000
  C   C753      1.0  0.18392  0.62000  0.45582  1.0000
  H   H1333     1.0  0.07752  0.62096  0.25001  1.0000
  C   C754      1.0  0.25866  0.55446  0.23536  1.0000
  H   H1334     1.0  0.30076  0.75221  0.39734  1.0000
  H   H1335     1.0  0.24385  0.55283  0.43865  1.0000
  S   S179      1.0  0.25761  0.77329  0.47424  1.0000
  H   H1336     1.0  0.16454  0.62544  0.23282  1.0000
  H   H1337     1.0  0.27364  0.54897  0.44675  1.0000
  H   H1338     1.0  0.26996  0.57324  0.44611  1.0000
  H   H1339     1.0  0.17078  0.76319  0.48111  1.0000
  C   C755      1.0  0.26301  0.56151  0.44886  1.0000
  Fe  Fe89      1.0  0.13084  0.81959  0.55772  1.0000
  S   S180      1.0  0.11490  0.84862  0.55505  1.0000
  S   S181      1.0  0.14277  0.80469  0.53422  1.0000
  Fe  Fe90      1.0  0.12912  0.81506  0.59821  1.0000
  S   S182      1.0  0.11292  0.84374  0.59958  1.0000
  S   S183      1.0  0.13971  0.79276  0.62061  1.0000
  Fe  Fe91      1.0  0.09678  0.83824  0.58157  1.0000
  Fe  Fe92      1.0  0.13207  0.85210  0.57303  1.0000
  S   S184      1.0  0.14523  0.87677  0.56388  1.0000
  S   S185      1.0  0.11123  0.80884  0.58273  1.0000
  S   S186      1.0  0.14971  0.82403  0.57322  1.0000
  Fe  Fe93      1.0  0.19710  0.91966  0.60682  1.0000
  S   S187      1.0  0.22593  0.90468  0.59875  1.0000
  S   S188      1.0  0.17568  0.90253  0.61995  1.0000
  Fe  Fe94      1.0  0.20789  0.95704  0.59720  1.0000
  S   S189      1.0  0.23772  0.94483  0.58876  1.0000
  C   C756      1.0  0.20467  0.68779  0.66773  1.0000
  Fe  Fe95      1.0  0.22807  0.92800  0.57473  1.0000
  S   S190      1.0  0.24342  0.92412  0.54659  1.0000
  Fe  Fe96      1.0  0.23279  0.92271  0.61368  1.0000
  S   S191      1.0  0.25254  0.90922  0.63243  1.0000
  S   S192      1.0  0.19845  0.94165  0.58115  1.0000
  S   S193      1.0  0.20374  0.93627  0.62360  1.0000
  H   H1340     1.0  0.24722  0.53009  0.67595  1.0000
  H   H1341     1.0  0.24696  0.91909  0.51021  1.0000
  H   H1342     1.0  0.08073  0.75802  0.61681  1.0000
  H   H1343     1.0  0.31512  0.74905  0.55362  1.0000
  S   S194      1.0  0.25598  0.59286  0.68939  1.0000
  C   C757      1.0  0.03109  0.80360  0.50053  1.0000
  C   C758      1.0  0.28083  0.95709  0.60848  1.0000
  H   H1344     1.0  0.24947  0.55775  0.68751  1.0000
  H   H1345     1.0  0.26982  0.52709  0.69432  1.0000
  H   H1346     1.0  0.02281  0.89705  0.55814  1.0000
  Fe  Fe97      1.0  0.21948  0.71435  0.58846  1.0000
  S   S195      1.0  0.21872  0.68697  0.58376  1.0000
  S   S196      1.0  0.20025  0.73889  0.57621  1.0000
  Fe  Fe98      1.0  0.25602  0.70013  0.60053  1.0000
  S   S197      1.0  0.25850  0.67162  0.59622  1.0000
  S   S198      1.0  0.27993  0.70621  0.60804  1.0000
  Fe  Fe99      1.0  0.24824  0.68574  0.57018  1.0000
  S   S199      1.0  0.26091  0.68253  0.54090  1.0000
  Fe  Fe100     1.0  0.22881  0.67544  0.61030  1.0000
  S   S200      1.0  0.21501  0.65470  0.63255  1.0000
  S   S201      1.0  0.24843  0.71377  0.57350  1.0000
  S   S202      1.0  0.22694  0.70328  0.61619  1.0000
  H   H1347     1.0  0.26546  0.72810  0.49242  1.0000
  C   C759      1.0  0.30125  0.75419  0.55026  1.0000
  S   S203      1.0  0.01161  0.79432  0.60758  1.0000
  C   C760      1.0  0.22575  0.65949  0.52694  1.0000
  C   C761      1.0  0.22895  0.66504  0.50773  1.0000
  H   H1348     1.0  0.16077  0.85274  0.53750  1.0000
  Fe  Fe101     1.0  0.30265  0.78968  0.62381  1.0000
  S   S204      1.0  0.27572  0.77988  0.63344  1.0000
  H   H1349     1.0  0.11811  0.83814  0.51971  1.0000
  H   H1350     1.0  0.02874  0.88028  0.50798  1.0000
  H   H1351     1.0  0.00619  0.81685  0.51564  1.0000
  H   H1352     1.0  0.21519  0.88820  0.66519  1.0000
  S   S205      1.0  0.30709  0.81024  0.50375  1.0000
  H   H1353     1.0  0.28177  0.54552  0.69016  1.0000
  H   H1354     1.0  0.28054  0.76719  0.51362  1.0000
  H   H1355     1.0  0.08258  0.83583  0.50848  1.0000
  H   H1356     1.0  0.06141  0.85872  0.54689  1.0000
  H   H1357     1.0  0.09525  0.80229  0.64112  1.0000
  C   C762      1.0  0.01185  0.81547  0.50117  1.0000
  H   H1358     1.0  0.16032  0.58733  0.72201  1.0000
  H   H1359     1.0  0.04896  0.77698  0.67044  1.0000
  H   H1360     1.0  0.30456  0.73271  0.51528  1.0000
  H   H1361     1.0  0.30681  0.64783  0.62950  1.0000
  H   H1362     1.0  0.19870  0.87344  0.67062  1.0000
  C   C763      1.0  0.25198  0.76907  0.52500  1.0000
  S   S206      1.0  0.21843  0.65620  0.49494  1.0000
  C   C764      1.0  0.24776  0.67646  0.52849  1.0000
  C   C765      1.0  0.23492  0.66541  0.53734  1.0000
  H   H1363     1.0  0.19600  0.81877  0.64169  1.0000
  C   C766      1.0  0.24114  0.67681  0.49897  1.0000
  C   C767      1.0  0.25076  0.68222  0.50930  1.0000
  H   H1364     1.0  0.23259  0.66082  0.55210  1.0000
  C   C768      1.0  0.25637  0.98297  0.58447  1.0000
  H   H1365     1.0  0.26058  0.69084  0.50242  1.0000
  C   C769      1.0  0.27808  0.72677  0.61517  1.0000
  C   C770      1.0  0.26111  0.73787  0.62097  1.0000
  C   C771      1.0  0.26044  0.75390  0.62709  1.0000
  C   C772      1.0  0.27665  0.75921  0.62679  1.0000
  C   C773      1.0  0.29349  0.74801  0.62102  1.0000
  C   C774      1.0  0.29420  0.73178  0.61546  1.0000
  H   H1366     1.0  0.24857  0.73395  0.62102  1.0000
  H   H1367     1.0  0.24741  0.76225  0.63200  1.0000
  H   H1368     1.0  0.30604  0.75174  0.62091  1.0000
  H   H1369     1.0  0.30736  0.72321  0.61111  1.0000
  H   H1370     1.0  0.25075  0.75946  0.51691  1.0000
  C   C775      1.0  0.25878  0.64776  0.68671  1.0000
  H   H1371     1.0  0.24711  0.64619  0.68177  1.0000
  H   H1372     1.0  0.27141  0.64061  0.67856  1.0000
  C   C776      1.0  0.20376  0.50061  0.72312  1.0000
  C   C777      1.0  0.24447  0.61006  0.67369  1.0000
  C   C778      1.0  0.22538  0.61547  0.67727  1.0000
  C   C779      1.0  0.21658  0.62907  0.66447  1.0000
  C   C780      1.0  0.22676  0.63761  0.64812  1.0000
  C   C781      1.0  0.24588  0.63228  0.64453  1.0000
  C   C782      1.0  0.25468  0.61842  0.65721  1.0000
  H   H1373     1.0  0.21734  0.60927  0.68991  1.0000
  H   H1374     1.0  0.20178  0.63314  0.66736  1.0000
  H   H1375     1.0  0.25384  0.63861  0.63185  1.0000
  H   H1376     1.0  0.26944  0.61417  0.65428  1.0000
  C   C783      1.0  0.22878  0.90124  0.51229  1.0000
  C   C784      1.0  0.26983  0.89396  0.62086  1.0000
  C   C785      1.0  0.27967  0.87820  0.63062  1.0000
  C   C786      1.0  0.29255  0.86540  0.62113  1.0000
  C   C787      1.0  0.29592  0.86871  0.60191  1.0000
  C   C788      1.0  0.28655  0.88480  0.59223  1.0000
  C   C789      1.0  0.27333  0.89723  0.60168  1.0000
  H   H1377     1.0  0.27702  0.87568  0.64546  1.0000
  H   H1378     1.0  0.29998  0.85311  0.62863  1.0000
  H   H1379     1.0  0.28917  0.88742  0.57737  1.0000
  H   H1380     1.0  0.26589  0.90941  0.59405  1.0000
  C   C790      1.0  0.11345  0.74983  0.67077  1.0000
  H   H1381     1.0  0.27010  0.86722  0.52036  1.0000
  C   C791      1.0  0.10627  0.76009  0.59796  1.0000
  H   H1382     1.0  0.28951  0.98499  0.61810  1.0000
  H   H1383     1.0  0.25739  0.62282  0.70753  1.0000
  C   C792      1.0  0.21666  0.89055  0.52408  1.0000
  C   C793      1.0  0.23758  0.91089  0.51939  1.0000
  C   C794      1.0  0.23382  0.91036  0.53826  1.0000
  C   C795      1.0  0.22202  0.89934  0.55016  1.0000
  C   C796      1.0  0.21374  0.88915  0.54305  1.0000
  H   H1384     1.0  0.21917  0.89874  0.56478  1.0000
  H   H1385     1.0  0.20459  0.88065  0.55214  1.0000
  C   C797      1.0  0.15550  0.77601  0.60948  1.0000
  C   C798      1.0  0.16831  0.76265  0.61841  1.0000
  C   C799      1.0  0.18189  0.75049  0.60860  1.0000
  C   C800      1.0  0.18257  0.75185  0.58992  1.0000
  C   C801      1.0  0.16931  0.76464  0.58136  1.0000
  C   C802      1.0  0.15584  0.77659  0.59109  1.0000
  H   H1386     1.0  0.16803  0.76203  0.63270  1.0000
  H   H1387     1.0  0.19205  0.74046  0.61530  1.0000
  H   H1388     1.0  0.16966  0.76566  0.56698  1.0000
  H   H1389     1.0  0.14590  0.78644  0.58411  1.0000
  C   C803      1.0  0.15468  0.88220  0.57985  1.0000
  C   C804      1.0  0.14805  0.87737  0.59875  1.0000
  C   C805      1.0  0.15479  0.88341  0.61106  1.0000
  C   C806      1.0  0.16822  0.89416  0.60449  1.0000
  C   C807      1.0  0.17526  0.89845  0.58563  1.0000
  C   C808      1.0  0.16848  0.89246  0.57337  1.0000
  H   H1390     1.0  0.13736  0.86948  0.60384  1.0000
  H   H1391     1.0  0.14934  0.88006  0.62567  1.0000
  H   H1392     1.0  0.18568  0.90665  0.58046  1.0000
  H   H1393     1.0  0.17371  0.89602  0.55877  1.0000
  H   H1394     1.0  0.07233  0.80994  0.58594  1.0000
  C   C809      1.0  0.05124  0.83385  0.58998  1.0000
  C   C810      1.0  0.25728  0.63749  0.70670  1.0000
  H   H1395     1.0  0.27913  0.87191  0.54711  1.0000
  C   C811      1.0  0.12526  0.79946  0.52693  1.0000
  C   C812      1.0  0.10757  0.80099  0.53773  1.0000
  H   H1396     1.0  0.28728  0.94089  0.63528  1.0000
  H   H1397     1.0  0.25566  0.96022  0.65384  1.0000
  C   C813      1.0  0.11486  0.84508  0.50610  1.0000
  H   H1398     1.0  0.10464  0.80496  0.55079  1.0000
  H   H1399     1.0  0.28004  0.97099  0.63857  1.0000
  H   H1400     1.0  0.11063  0.77814  0.65731  1.0000
  H   H1401     1.0  0.13189  0.89746  0.50398  1.0000
  H   H1402     1.0  0.10772  0.94517  0.53411  1.0000
  H   H1403     1.0  0.08439  0.75443  0.65507  1.0000
  H   H1404     1.0  0.28006  0.93715  0.53989  1.0000
  H   H1405     1.0  0.29241  0.67700  0.63943  1.0000
  H   H1406     1.0  0.31194  0.86004  0.51701  1.0000
  C   C814      1.0  0.03947  0.87587  0.49645  1.0000
  N   N41       1.0  0.29671  0.74057  0.54185  1.0000
  C   C815      1.0  0.02682  0.78596  0.65592  1.0000
  H   H1407     1.0  0.04717  0.89607  0.55359  1.0000
  C   C816      1.0  0.27718  0.74615  0.53919  1.0000
  C   C817      1.0  0.27170  0.76562  0.52754  1.0000
  H   H1408     1.0  0.22664  0.95520  0.50535  1.0000
  H   H1409     1.0  0.08008  0.81880  0.61580  1.0000
  H   H1410     1.0  0.28863  0.72227  0.56759  1.0000
  H   H1411     1.0  0.15779  0.82231  0.49301  1.0000
  N   N42       1.0  0.26777  0.97356  0.61527  1.0000
  H   H1412     1.0  0.26744  0.74511  0.55270  1.0000
  H   H1413     1.0  0.27431  0.73641  0.53230  1.0000
  H   H1414     1.0  0.27304  0.94800  0.60570  1.0000
  H   H1415     1.0  0.28303  0.70755  0.54511  1.0000
  H   H1416     1.0  0.27275  0.77646  0.53417  1.0000
  H   H1417     1.0  0.27425  0.76625  0.56532  1.0000
  C   C818      1.0  0.09130  0.78015  0.62157  1.0000
  H   H1418     1.0  0.10076  0.98187  0.50916  1.0000
  H   H1419     1.0  0.21499  0.77237  0.49768  1.0000
  H   H1420     1.0  0.24800  0.78334  0.51736  1.0000
  C   C819      1.0  0.24744  0.85294  0.61987  1.0000
  C   C820      1.0  0.25898  0.84105  0.60566  1.0000
  C   C821      1.0  0.25964  0.85205  0.58600  1.0000
  H   H1421     1.0  0.25572  0.86275  0.62016  1.0000
  H   H1422     1.0  0.23546  0.86161  0.61408  1.0000
  H   H1423     1.0  0.22446  0.88274  0.63344  1.0000
  H   H1424     1.0  0.25337  0.82874  0.60693  1.0000
  H   H1425     1.0  0.27331  0.83639  0.60780  1.0000
  H   H1426     1.0  0.26906  0.84365  0.57629  1.0000
  H   H1427     1.0  0.24581  0.85590  0.58262  1.0000
  H   H1428     1.0  0.26482  0.86475  0.58419  1.0000
  C   C822      1.0  0.23065  0.95267  0.65449  1.0000
  C   C823      1.0  0.23743  0.95961  0.49358  1.0000
  H   H1429     1.0  0.14499  0.56192  0.72145  1.0000
  H   H1430     1.0  0.08561  0.83692  0.63618  1.0000
  C   C824      1.0  0.23120  0.51325  0.71312  1.0000
  H   H1431     1.0  0.08490  0.79020  0.61066  1.0000
  C   C825      1.0  0.27633  0.98136  0.62645  1.0000
  H   H1432     1.0  0.24748  0.87404  0.48894  1.0000
  C   C826      1.0  0.04557  0.80308  0.59513  1.0000
  C   C827      1.0  0.29427  0.94485  0.62083  1.0000
  N   N43       1.0  0.24443  0.98000  0.51203  1.0000
  H   H1433     1.0  0.20053  0.98456  0.63018  1.0000
  N   N44       1.0  0.28588  0.86602  0.49273  1.0000
  H   H1434     1.0  0.20464  0.69718  0.65413  1.0000
  H   H1435     1.0  0.30787  0.76351  0.58120  1.0000
  S   S207      1.0  0.17098  0.90489  0.48220  1.0000
  H   H1436     1.0  0.16716  0.98449  0.49318  1.0000
  H   H1437     1.0  0.28983  0.96155  0.59502  1.0000
  H   H1438     1.0  0.11995  0.76274  0.59738  1.0000
  C   C828      1.0  0.10767  0.76548  0.65528  1.0000
  C   C829      1.0  0.13229  0.94473  0.56418  1.0000
  H   H1439     1.0  0.25813  0.94141  0.64260  1.0000
  H   H1440     1.0  0.06613  0.84794  0.62568  1.0000
  H   H1441     1.0  0.30665  0.70433  0.53379  1.0000
  C   C830      1.0  0.12704  0.89366  0.51908  1.0000
  H   H1442     1.0  0.29186  0.68809  0.57419  1.0000
  C   C831      1.0  0.23931  0.49980  0.70236  1.0000
  C   C832      1.0  0.22388  0.52340  0.66128  1.0000
  H   H1443     1.0  0.30488  0.95238  0.62066  1.0000
  H   H1444     1.0  0.22448  0.94707  0.64606  1.0000
  H   H1445     1.0  0.19891  0.69590  0.67873  1.0000
  H   H1446     1.0  0.28475  0.77579  0.58792  1.0000
  H   H1447     1.0  0.29522  0.95236  0.52617  1.0000
  H   H1448     1.0  0.02182  0.84077  0.49248  1.0000
  H   H1449     1.0  0.18002  0.73881  0.48407  1.0000
  H   H1450     1.0  0.11142  0.92051  0.52175  1.0000
  N   N45       1.0  0.99410  0.84782  0.48795  1.0000
  Fe  Fe102     1.0  0.19944  0.89452  0.48756  1.0000
  C   C833      1.0  0.09346  0.79747  0.53161  1.0000
  H   H1451     1.0  0.24425  0.64339  0.71533  1.0000
  H   H1452     1.0  0.23760  0.51407  0.66056  1.0000
  C   C834      1.0  0.09589  0.85751  0.50842  1.0000
  H   H1453     1.0  0.25320  0.49923  0.69456  1.0000
  S   S208      1.0  0.20495  0.87910  0.51527  1.0000
  H   H1454     1.0  0.23581  0.54164  0.63743  1.0000
  H   H1455     1.0  0.10503  0.78337  0.61968  1.0000
  C   C835      1.0  0.11444  0.79164  0.50340  1.0000
  H   H1456     1.0  0.23155  0.90191  0.49771  1.0000
  H   H1457     1.0  0.03580  0.86426  0.49302  1.0000
  H   H1458     1.0  0.03972  0.83974  0.55447  1.0000
  H   H1459     1.0  0.28621  0.74633  0.57869  1.0000
  S   S209      1.0  0.31053  0.81100  0.63417  1.0000
  C   C836      1.0  0.09667  0.79359  0.51414  1.0000
  H   H1460     1.0  0.25990  0.53875  0.65408  1.0000
  H   H1461     1.0  0.03980  0.81031  0.50510  1.0000
  H   H1462     1.0  0.03686  0.89200  0.52700  1.0000
  H   H1463     1.0  0.24414  0.96211  0.61764  1.0000
  H   H1464     1.0  0.25570  0.96416  0.54670  1.0000
  H   H1465     1.0  0.19131  0.81171  0.66634  1.0000
  H   H1466     1.0  0.27639  0.72990  0.66055  1.0000
  H   H1467     1.0  0.25359  0.98023  0.48292  1.0000
  H   H1468     1.0  0.24765  0.56800  0.63573  1.0000
  H   H1469     1.0  0.22687  0.84995  0.66537  1.0000
  C   C837      1.0  0.30939  0.73999  0.52337  1.0000
  H   H1470     1.0  0.99497  0.59334  0.72395  1.0000
  C   C838      1.0  0.09405  0.76097  0.61695  1.0000
  H   H1471     1.0  0.27259  0.96553  0.50516  1.0000
  N   N46       1.0  0.23212  0.55426  0.66068  1.0000
  H   H1472     1.0  0.19920  0.83629  0.50078  1.0000
  H   H1473     1.0  0.21180  0.50103  0.66078  1.0000
  C   C839      1.0  0.22053  0.58554  0.63998  1.0000
  H   H1474     1.0  0.17067  0.57043  0.69294  1.0000
  C   C840      1.0  0.30584  0.86024  0.48388  1.0000
  C   C841      1.0  0.24979  0.96852  0.62585  1.0000
  N   N47       1.0  0.21780  0.80596  0.57636  1.0000
  C   C842      1.0  0.23813  0.80440  0.57463  1.0000
  C   C843      1.0  0.21023  0.79220  0.59274  1.0000
  C   C844      1.0  0.21552  0.80113  0.55930  1.0000
  C   C845      1.0  0.20718  0.82521  0.57740  1.0000
  C   C846      1.0  0.20831  0.83251  0.59402  1.0000
  C   C847      1.0  0.24705  0.81919  0.55963  1.0000
  C   C848      1.0  0.19562  0.80140  0.55824  1.0000
  C   C849      1.0  0.21917  0.78699  0.60979  1.0000
  C   C850      1.0  0.20824  0.77545  0.62602  1.0000
  C   C851      1.0  0.20004  0.85300  0.59211  1.0000
  C   C852      1.0  0.26790  0.81446  0.55712  1.0000
  C   C853      1.0  0.19554  0.79068  0.54403  1.0000
  H   H1475     1.0  0.24570  0.79050  0.57217  1.0000
  H   H1476     1.0  0.24133  0.80539  0.58757  1.0000
  H   H1477     1.0  0.19521  0.79710  0.59747  1.0000
  H   H1478     1.0  0.21141  0.77882  0.58883  1.0000
  H   H1479     1.0  0.22393  0.78722  0.55791  1.0000
  H   H1480     1.0  0.22064  0.81070  0.54666  1.0000
  H   H1481     1.0  0.21136  0.83504  0.56447  1.0000
  H   H1482     1.0  0.19232  0.82612  0.57832  1.0000
  H   H1483     1.0  0.22263  0.83049  0.59555  1.0000
  H   H1484     1.0  0.20032  0.82537  0.60676  1.0000
  H   H1485     1.0  0.24390  0.82068  0.54600  1.0000
  H   H1486     1.0  0.24215  0.83279  0.56369  1.0000
  H   H1487     1.0  0.18847  0.81582  0.55402  1.0000
  H   H1488     1.0  0.18758  0.79533  0.57151  1.0000
  H   H1489     1.0  0.23320  0.77865  0.60643  1.0000
  H   H1490     1.0  0.22020  0.79921  0.61430  1.0000
  H   H1491     1.0  0.19387  0.78298  0.62963  1.0000
  H   H1492     1.0  0.20824  0.76222  0.62263  1.0000
  H   H1493     1.0  0.21454  0.77236  0.63822  1.0000
  H   H1494     1.0  0.18584  0.85582  0.58989  1.0000
  H   H1495     1.0  0.19959  0.85765  0.60481  1.0000
  H   H1496     1.0  0.20841  0.86104  0.58043  1.0000
  H   H1497     1.0  0.27215  0.81210  0.57045  1.0000
  H   H1498     1.0  0.27359  0.80201  0.55103  1.0000
  H   H1499     1.0  0.27379  0.82597  0.54759  1.0000
  H   H1500     1.0  0.20388  0.79592  0.53059  1.0000
  H   H1501     1.0  0.20121  0.77583  0.54850  1.0000
  H   H1502     1.0  0.18126  0.79220  0.54250  1.0000
  H   H1503     1.0  0.28097  0.81773  0.67074  1.0000
  H   H1504     1.0  0.28741  0.95161  0.55053  1.0000
  H   H1505     1.0  0.24677  0.80766  0.66555  1.0000
  H   H1506     1.0  0.17507  0.68679  0.49455  1.0000
  H   H1507     1.0  0.11461  0.88784  0.52175  1.0000
  H   H1508     1.0  0.29347  0.84909  0.54797  1.0000
  H   H1509     1.0  0.07450  0.80257  0.65754  1.0000
  H   H1510     1.0  0.05575  0.79015  0.62819  1.0000
  C   C854      1.0  0.07160  0.83595  0.63578  1.0000
  H   H1511     1.0  0.30203  0.76739  0.54022  1.0000
  C   C855      1.0  0.20236  0.81379  0.65397  1.0000
  C   C856      1.0  0.22753  0.60062  0.62454  1.0000
  C   C857      1.0  0.32069  0.80009  0.52032  1.0000
  H   H1512     1.0  0.19809  0.52354  0.65439  1.0000
  C   C858      1.0  0.12138  0.95673  0.50651  1.0000
  C   C859      1.0  0.21232  0.51533  0.65315  1.0000
  H   H1513     1.0  0.24367  0.68116  0.48416  1.0000
  H   H1514     1.0  0.23637  0.60719  0.62912  1.0000
  C   C860      1.0  0.08701  0.76796  0.65530  1.0000
  C   C861      1.0  0.27232  0.80797  0.67124  1.0000
  C   C862      1.0  0.25436  0.81825  0.66527  1.0000
  C   C863      1.0  0.20628  0.88273  0.65947  1.0000
  H   H1515     1.0  0.18400  0.85349  0.48848  1.0000
  H   H1516     1.0  0.21636  0.65035  0.53376  1.0000
  C   C864      1.0  0.17202  0.85274  0.52517  1.0000
  C   C865      1.0  0.07197  0.81819  0.63003  1.0000
  N   N48       1.0  0.17277  0.71505  0.54369  1.0000
  C   C866      1.0  0.17380  0.69835  0.53619  1.0000
  C   C867      1.0  0.17516  0.70873  0.56333  1.0000
  C   C868      1.0  0.15443  0.72773  0.54234  1.0000
  C   C869      1.0  0.18767  0.72531  0.53289  1.0000
  C   C870      1.0  0.20757  0.71414  0.53242  1.0000
  C   C871      1.0  0.17564  0.70147  0.51509  1.0000
  C   C872      1.0  0.14997  0.74481  0.55126  1.0000
  C   C873      1.0  0.15941  0.70054  0.57727  1.0000
  C   C874      1.0  0.16364  0.69460  0.59656  1.0000
  C   C875      1.0  0.22128  0.72493  0.51898  1.0000
  C   C876      1.0  0.17276  0.68471  0.50974  1.0000
  C   C877      1.0  0.13008  0.75481  0.55162  1.0000
  H   H1517     1.0  0.16138  0.69243  0.54276  1.0000
  H   H1518     1.0  0.18545  0.68713  0.53992  1.0000
  H   H1519     1.0  0.18784  0.69796  0.56418  1.0000
  H   H1520     1.0  0.17736  0.72012  0.56847  1.0000
  H   H1521     1.0  0.14314  0.72001  0.54826  1.0000
  H   H1522     1.0  0.15337  0.73323  0.52772  1.0000
  H   H1523     1.0  0.18571  0.73114  0.51854  1.0000
  H   H1524     1.0  0.18685  0.73737  0.53883  1.0000
  H   H1525     1.0  0.20959  0.70091  0.52814  1.0000
  H   H1526     1.0  0.21102  0.71122  0.54619  1.0000
  H   H1527     1.0  0.16546  0.71345  0.50992  1.0000
  H   H1528     1.0  0.18955  0.70378  0.50785  1.0000
  H   H1529     1.0  0.15879  0.75471  0.54326  1.0000
  H   H1530     1.0  0.15193  0.74110  0.56563  1.0000
  H   H1531     1.0  0.14629  0.71076  0.57806  1.0000
  H   H1532     1.0  0.15751  0.68829  0.57339  1.0000
  H   H1533     1.0  0.17625  0.68366  0.59681  1.0000
  H   H1534     1.0  0.16558  0.70649  0.60111  1.0000
  H   H1535     1.0  0.15209  0.68908  0.60642  1.0000
  H   H1536     1.0  0.23546  0.71739  0.51993  1.0000
  H   H1537     1.0  0.21947  0.72648  0.50476  1.0000
  C   C878      1.0  0.30118  0.68752  0.56061  1.0000
  H   H1538     1.0  0.18249  0.67215  0.51477  1.0000
  H   H1539     1.0  0.29413  0.91878  0.61450  1.0000
  H   H1540     1.0  0.29835  0.78346  0.56577  1.0000
  H   H1541     1.0  0.12056  0.74579  0.56013  1.0000
  H   H1542     1.0  0.12739  0.76718  0.55765  1.0000
  H   H1543     1.0  0.12732  0.75924  0.53749  1.0000
  C   C879      1.0  0.12884  0.79418  0.51000  1.0000
  H   H1544     1.0  0.26469  0.97012  0.58014  1.0000
  H   H1545     1.0  0.31348  0.87110  0.48281  1.0000
  C   C880      1.0  0.17093  0.83891  0.51455  1.0000
  C   C881      1.0  0.24393  0.84670  0.49158  1.0000
  H   H1546     1.0  0.08359  0.83812  0.53065  1.0000
  C   C882      1.0  0.19384  0.98562  0.54009  1.0000
  H   H1547     1.0  0.14260  0.79249  0.50185  1.0000
  H   H1548     1.0  0.26937  0.80010  0.68556  1.0000
  H   H1549     1.0  0.22039  0.83826  0.62686  1.0000
  H   H1550     1.0  0.06720  0.86254  0.48961  1.0000
  H   H1551     1.0  0.09185  0.96247  0.50831  1.0000
  H   H1552     1.0  0.23117  0.94279  0.66777  1.0000
  H   H1553     1.0  0.27999  0.79804  0.66229  1.0000
  C   C883      1.0  0.28342  0.95087  0.53788  1.0000
  H   H1554     1.0  0.07989  0.79832  0.54016  1.0000
  C   C884      1.0  0.27379  0.72197  0.67488  1.0000
  H   H1555     1.0  0.21189  0.80036  0.65298  1.0000
  H   H1556     1.0  0.23544  0.81787  0.63487  1.0000
  H   H1557     1.0  0.05073  0.78854  0.59542  1.0000
  C   C885      1.0  0.24974  0.54300  0.66625  1.0000
  C   C886      1.0  0.22592  0.54314  0.65063  1.0000
  H   H1558     1.0  0.23552  0.59484  0.61232  1.0000
  H   H1559     1.0  0.28700  0.71362  0.67828  1.0000
  H   H1560     1.0  0.26520  0.89067  0.49531  1.0000
  H   H1561     1.0  0.18523  0.84896  0.52982  1.0000
  H   H1562     1.0  0.26800  0.83850  0.64490  1.0000
  C   C887      1.0  0.22779  0.83142  0.63827  1.0000
  H   H1563     1.0  0.24664  0.82664  0.67564  1.0000
  H   H1564     1.0  0.09576  0.86709  0.51709  1.0000
  H   H1565     1.0  0.26486  0.82019  0.63654  1.0000
  H   H1566     1.0  0.17888  0.79004  0.48446  1.0000
  H   H1567     1.0  0.02287  0.79608  0.64368  1.0000
  C   C888      1.0  0.08057  0.84615  0.51715  1.0000
  C   C889      1.0  0.21773  0.87261  0.64426  1.0000
  H   H1568     1.0  0.17052  0.86683  0.51658  1.0000
  H   H1569     1.0  0.21797  0.82258  0.66834  1.0000
  H   H1570     1.0  0.14513  0.92192  0.50961  1.0000
  H   H1571     1.0  0.20843  0.86793  0.63834  1.0000
  C   C890      1.0  0.14537  0.58788  0.72697  1.0000
  C   C891      1.0  0.08074  0.80113  0.64309  1.0000
  H   H1572     1.0  0.20182  0.76126  0.48920  1.0000
  C   C892      1.0  0.21253  0.82780  0.65559  1.0000
  H   H1573     1.0  0.19283  0.97092  0.54418  1.0000
  C   C893      1.0  0.25780  0.83017  0.64566  1.0000
  H   H1574     1.0  0.22182  0.96598  0.65727  1.0000
  C   C894      1.0  0.29716  0.70571  0.54711  1.0000
  H   H1575     1.0  0.27930  0.84040  0.49265  1.0000
  H   H1576     1.0  0.31065  0.82325  0.53368  1.0000
  C   C895      1.0  0.20094  0.77241  0.49638  1.0000
  H   H1577     1.0  0.26804  0.73188  0.68424  1.0000
  H   H1578     1.0  0.21275  0.55034  0.64650  1.0000
  H   H1579     1.0  0.29557  0.55657  0.70988  1.0000
  C   C896      1.0  0.29770  0.86757  0.52116  1.0000
  H   H1580     1.0  0.24357  0.86287  0.65289  1.0000
  N   N49       1.0  0.24109  0.84256  0.63907  1.0000
  H   H1581     1.0  0.00539  0.83390  0.60255  1.0000
  H   H1582     1.0  0.23564  0.74636  0.48300  1.0000
  C   C897      1.0  0.25342  0.85997  0.49566  1.0000
  H   H1583     1.0  0.30308  0.86828  0.54738  1.0000
  H   H1584     1.0  0.12532  0.85341  0.49856  1.0000
  H   H1585     1.0  0.19615  0.89450  0.65371  1.0000
  Fe  Fe103     1.0  0.31823  0.82382  0.60429  1.0000
  C   C898      1.0  0.10348  0.96971  0.50279  1.0000
  H   H1586     1.0  0.22695  0.96255  0.53153  1.0000
  C   C899      1.0  0.05783  0.81512  0.58997  1.0000
  C   C900      1.0  0.23273  0.85650  0.65124  1.0000
  H   H1587     1.0  0.21752  0.52316  0.67599  1.0000
  S   S210      1.0  0.06626  0.84917  0.58480  1.0000
  N   N50       1.0  0.25715  0.68109  0.66667  1.0000
  C   C901      1.0  0.26459  0.67167  0.65047  1.0000
  C   C902      1.0  0.23720  0.68996  0.66697  1.0000
  C   C903      1.0  0.26741  0.69634  0.66354  1.0000
  C   C904      1.0  0.25958  0.66824  0.68479  1.0000
  C   C905      1.0  0.28574  0.66506  0.64603  1.0000
  C   C906      1.0  0.26025  0.70967  0.67716  1.0000
  C   C907      1.0  0.22403  0.67699  0.66922  1.0000
  H   H1588     1.0  0.21846  0.51495  0.63847  1.0000
  C   C908      1.0  0.29164  0.65195  0.63263  1.0000
  H   H1589     1.0  0.30121  0.57851  0.70756  1.0000
  H   H1590     1.0  0.26065  0.68107  0.63781  1.0000
  H   H1591     1.0  0.25831  0.65974  0.65223  1.0000
  H   H1592     1.0  0.23143  0.69730  0.67858  1.0000
  H   H1593     1.0  0.23590  0.70057  0.65416  1.0000
  H   H1594     1.0  0.26740  0.70487  0.64947  1.0000
  H   H1595     1.0  0.28208  0.69052  0.66415  1.0000
  H   H1596     1.0  0.27307  0.66786  0.68783  1.0000
  H   H1597     1.0  0.24923  0.67361  0.69627  1.0000
  H   H1598     1.0  0.26903  0.63817  0.71221  1.0000
  H   H1599     1.0  0.29111  0.65804  0.65865  1.0000
  H   H1600     1.0  0.13252  0.96448  0.50016  1.0000
  H   H1601     1.0  0.24714  0.71892  0.67446  1.0000
  H   H1602     1.0  0.22867  0.66864  0.65850  1.0000
  H   H1603     1.0  0.22290  0.66790  0.68302  1.0000
  H   H1604     1.0  0.19568  0.67804  0.66919  1.0000
  H   H1605     1.0  0.10821  0.74620  0.59503  1.0000
  C   C909      1.0  0.25002  0.95514  0.64461  1.0000
  H   H1606     1.0  0.19224  0.76951  0.51033  1.0000
  H   H1607     1.0  0.28588  0.63939  0.63866  1.0000
  C   C910      1.0  0.29906  0.72199  0.55459  1.0000
  H   H1608     1.0  0.20229  0.84068  0.65725  1.0000
  H   H1609     1.0  0.23944  0.98107  0.62819  1.0000
  H   H1610     1.0  0.28701  0.65884  0.61956  1.0000
  H   H1611     1.0  0.24238  0.76710  0.53848  1.0000
  H   H1612     1.0  0.12823  0.74843  0.67045  1.0000
  H   H1613     1.0  0.19420  0.54824  0.67753  1.0000
  H   H1614     1.0  0.12371  0.94518  0.49943  1.0000
  H   H1615     1.0  0.22044  0.54762  0.68988  1.0000
  H   H1616     1.0  0.25803  0.70201  0.69161  1.0000
  C   C911      1.0  0.21823  0.55873  0.67766  1.0000
  C   C912      1.0  0.19768  0.56153  0.67705  1.0000
  C   C913      1.0  0.18521  0.56916  0.69348  1.0000
  H   H1617     1.0  0.18738  0.58301  0.69314  1.0000
  C   C914      1.0  0.27925  0.88650  0.48739  1.0000
  H   H1618     1.0  0.21127  0.59237  0.65108  1.0000
  H   H1619     1.0  0.06774  0.87753  0.52999  1.0000
  H   H1620     1.0  0.18072  0.80398  0.50816  1.0000
  C   C915      1.0  0.25929  0.55218  0.67595  1.0000
  C   C916      1.0  0.28408  0.86120  0.51339  1.0000
  H   H1621     1.0  0.22027  0.57124  0.68111  1.0000
  H   H1622     1.0  0.19414  0.57107  0.66447  1.0000
  H   H1623     1.0  0.18791  0.55979  0.70655  1.0000
  C   C917      1.0  0.23658  0.57160  0.64759  1.0000
  H   H1624     1.0  0.18509  0.95537  0.52424  1.0000
  H   H1625     1.0  0.19110  0.94131  0.50710  1.0000
  H   H1626     1.0  0.17269  0.82530  0.52389  1.0000
  H   H1627     1.0  0.11714  0.90599  0.54277  1.0000
  H   H1628     1.0  0.10068  0.74990  0.62700  1.0000
  H   H1629     1.0  0.29741  0.88247  0.51633  1.0000
  H   H1630     1.0  0.28219  0.57193  0.72506  1.0000
  H   H1631     1.0  0.24207  0.57963  0.65437  1.0000
  H   H1632     1.0  0.26531  0.56346  0.66613  1.0000
  H   H1633     1.0  0.02704  0.85503  0.59446  1.0000
  H   H1634     1.0  0.20421  0.80482  0.49968  1.0000
  C   C918      1.0  0.26681  0.96612  0.53439  1.0000
  C   C919      1.0  0.06050  0.78149  0.64071  1.0000
  C   C920      1.0  0.05807  0.86801  0.53396  1.0000
  C   C921      1.0  0.18797  0.94107  0.52209  1.0000
  N   N51       1.0  0.07987  0.78268  0.64019  1.0000
  H   H1635     1.0  0.21944  0.73867  0.52224  1.0000
  H   H1636     1.0  0.06259  0.83659  0.64951  1.0000
  C   C922      1.0  0.03654  0.88796  0.55553  1.0000
  H   H1637     1.0  0.07935  0.77093  0.66896  1.0000
  H   H1638     1.0  0.21578  0.61140  0.62049  1.0000
  H   H1639     1.0  0.15852  0.68263  0.51553  1.0000
  H   H1640     1.0  0.21257  0.57900  0.63428  1.0000
  H   H1641     1.0  0.17028  0.93024  0.54673  1.0000
  H   H1642     1.0  0.20020  0.93323  0.52776  1.0000
  H   H1643     1.0  0.13776  0.88288  0.52506  1.0000
  C   C923      1.0  0.30413  0.92718  0.61388  1.0000
  N   N52       1.0  0.18593  0.82593  0.48477  1.0000
  C   C924      1.0  0.22794  0.97730  0.52728  1.0000
  H   H1644     1.0  0.05989  0.76728  0.64031  1.0000
  H   H1645     1.0  0.22894  0.85044  0.49674  1.0000
  H   H1646     1.0  0.30917  0.75417  0.51511  1.0000
  C   C925      1.0  0.29298  0.86395  0.54217  1.0000
  H   H1647     1.0  0.09984  0.77038  0.58717  1.0000
  H   H1648     1.0  0.15691  0.84247  0.51169  1.0000
  H   H1649     1.0  0.23877  0.52314  0.71355  1.0000
  C   C926      1.0  0.03753  0.81582  0.54623  1.0000
  C   C927      1.0  0.12248  0.91048  0.52788  1.0000
  C   C928      1.0  0.03228  0.84058  0.59434  1.0000
  C   C929      1.0  0.28793  0.75887  0.56809  1.0000
  C   C930      1.0  0.17165  0.93190  0.53170  1.0000
  S   S211      1.0  0.24732  0.55112  0.73074  1.0000
  S   S212      1.0  0.20957  0.58091  0.72179  1.0000
  N   N53       1.0  0.06105  0.85709  0.51930  1.0000
  H   H1650     1.0  0.15152  0.95751  0.52866  1.0000
  H   H1651     1.0  0.17500  0.91806  0.52830  1.0000
  C   C931      1.0  0.03879  0.88009  0.53852  1.0000
  C   C932      1.0  0.04850  0.84354  0.52451  1.0000
  H   H1652     1.0  0.02786  0.87221  0.54114  1.0000
  C   C933      1.0  0.04748  0.83135  0.54405  1.0000
  H   H1653     1.0  0.06117  0.82515  0.54729  1.0000
  C   C934      1.0  0.15391  0.94367  0.52540  1.0000
  H   H1654     1.0  0.06456  0.88206  0.49920  1.0000
  H   H1655     1.0  0.12044  0.92473  0.55862  1.0000
  H   H1656     1.0  0.14415  0.91782  0.55752  1.0000
  H   H1657     1.0  0.15718  0.94602  0.51019  1.0000
  H   H1658     1.0  0.04537  0.80635  0.53683  1.0000
  S   S213      1.0  0.07808  0.79228  0.50571  1.0000
  H   H1659     1.0  0.11772  0.93066  0.59005  1.0000
  H   H1660     1.0  0.25009  0.85892  0.51074  1.0000
  C   C935      1.0  0.01234  0.83460  0.48830  1.0000
  N   N54       1.0  0.13693  0.93559  0.53273  1.0000
  C   C936      1.0  0.13347  0.92978  0.55336  1.0000
  H   H1661     1.0  0.14232  0.92587  0.58761  1.0000
  C   C937      1.0  0.13965  0.91885  0.52465  1.0000
  C   C938      1.0  0.27964  0.72585  0.49454  1.0000
  C   C939      1.0  0.13017  0.93670  0.58477  1.0000
  H   H1662     1.0  0.04537  0.80082  0.65913  1.0000
  H   H1663     1.0  0.02637  0.77202  0.65460  1.0000
  H   H1664     1.0  0.15032  0.90759  0.53028  1.0000
  H   H1665     1.0  0.03411  0.85049  0.52402  1.0000
  H   H1666     1.0  0.05766  0.81804  0.62993  1.0000
  H   H1667     1.0  0.13826  0.59547  0.71556  1.0000
  H   H1668     1.0  0.11949  0.96253  0.53280  1.0000
  H   H1669     1.0  0.99538  0.84808  0.51580  1.0000
  H   H1670     1.0  0.24898  0.83237  0.49846  1.0000
  C   C940      1.0  0.27501  0.53841  0.68370  1.0000
  Fe  Fe104     1.0  0.23955  0.58087  0.71682  1.0000
  H   H1671     1.0  0.12024  0.95600  0.56226  1.0000
  H   H1672     1.0  0.28535  0.53254  0.67256  1.0000
  H   H1673     1.0  0.12896  0.94767  0.59231  1.0000
  C   C941      1.0  0.04594  0.78668  0.65767  1.0000
  C   C942      1.0  0.27431  0.85540  0.48797  1.0000
  H   H1674     1.0  0.10548  0.75270  0.68434  1.0000
  H   H1675     1.0  0.00358  0.80786  0.49711  1.0000
  H   H1676     1.0  0.03766  0.87672  0.56776  1.0000
  H   H1677     1.0  0.14477  0.95068  0.55978  1.0000
  C   C943      1.0  0.01998  0.82864  0.59896  1.0000
  H   H1678     1.0  0.28587  0.84602  0.51832  1.0000
  C   C944      1.0  0.02662  0.80980  0.59973  1.0000
  C   C945      1.0  0.05891  0.86960  0.50095  1.0000
  C   C946      1.0  0.21341  0.51362  0.72354  1.0000
  C   C947      1.0  0.18586  0.83907  0.49655  1.0000
  H   H1679     1.0  0.03620  0.80774  0.56050  1.0000
  H   H1680     1.0  0.05248  0.83443  0.51428  1.0000
  H   H1681     1.0  0.01661  0.78941  0.66830  1.0000
  H   H1682     1.0  0.02355  0.82141  0.54331  1.0000
  H   H1683     1.0  0.31181  0.93035  0.59950  1.0000
  H   H1684     1.0  0.25756  0.95154  0.51932  1.0000
  H   H1685     1.0  0.28773  0.89405  0.49124  1.0000
  H   H1686     1.0  0.11551  0.83457  0.49820  1.0000
  C   C948      1.0  0.31923  0.80969  0.53403  1.0000
  C   C949      1.0  0.12074  0.95001  0.52745  1.0000
  C   C950      1.0  0.29517  0.77116  0.57619  1.0000
  H   H1687     1.0  0.03037  0.79005  0.50990  1.0000
  H   H1688     1.0  0.11651  0.76215  0.64221  1.0000
  H   H1689     1.0  0.11138  0.73661  0.66904  1.0000
  H   H1690     1.0  0.31248  0.84775  0.49275  1.0000
  H   H1691     1.0  0.09436  0.86556  0.49455  1.0000
  H   H1692     1.0  0.11709  0.78801  0.49012  1.0000
  C   C951      1.0  0.26066  0.96540  0.51691  1.0000
  C   C952      1.0  0.19108  0.80661  0.49530  1.0000
  S   S214      1.0  0.30768  0.80422  0.59452  1.0000
  C   C953      1.0  0.21187  0.48714  0.71246  1.0000
  C   C954      1.0  0.22970  0.48665  0.70210  1.0000
  H   H1693     1.0  0.31247  0.71847  0.55893  1.0000
  H   H1694     1.0  0.28340  0.73936  0.49246  1.0000
  H   H1695     1.0  0.31397  0.91889  0.62266  1.0000
  H   H1696     1.0  0.29896  0.67623  0.55533  1.0000
  H   H1697     1.0  0.27063  0.97942  0.53312  1.0000
  H   H1698     1.0  0.00609  0.87147  0.48354  1.0000
  C   C955      1.0  0.29622  0.56674  0.71759  1.0000
  C   C956      1.0  0.19273  0.79091  0.48542  1.0000
  H   H1699     1.0  0.27987  0.71842  0.50892  1.0000
  H   H1700     1.0  0.24212  0.98109  0.59042  1.0000
  H   H1701     1.0  0.25016  0.94889  0.49391  1.0000
  H   H1702     1.0  0.20565  0.98449  0.51189  1.0000
  H   H1703     1.0  0.22946  0.98097  0.53987  1.0000
  S   S215      1.0  0.31156  0.85308  0.58945  1.0000
  C   C957      1.0  0.24132  0.97834  0.49396  1.0000
  H   H1704     1.0  0.03749  0.80126  0.48642  1.0000
  H   H1705     1.0  0.15992  0.49532  0.73128  1.0000
  H   H1706     1.0  0.31560  0.68440  0.56234  1.0000
  H   H1707     1.0  0.10452  0.97455  0.48772  1.0000
  C   C958      1.0  0.30916  0.55807  0.73101  1.0000
  H   H1708     1.0  0.13583  0.50391  0.73080  1.0000
  H   H1709     1.0  0.19004  0.50079  0.73120  1.0000
  H   H1710     1.0  0.28881  0.70089  0.48461  1.0000
  H   H1711     1.0  0.30683  0.71169  0.48454  1.0000
  H   H1712     1.0  0.07780  0.72772  0.48283  1.0000
  H   H1713     1.0  0.04330  0.90350  0.48216  1.0000
  Fe  Fe105     1.0  0.08927  0.56066  0.86088  1.0000
  S   S216      1.0  0.10581  0.56786  0.83237  1.0000
  Fe  Fe106     1.0  0.12317  0.54401  0.87782  1.0000
  S   S217      1.0  0.14263  0.54929  0.85080  1.0000
  S   S218      1.0  0.13502  0.52936  0.90279  1.0000
  Fe  Fe107     1.0  0.12373  0.57664  0.84606  1.0000
  S   S219      1.0  0.13513  0.60233  0.83625  1.0000
  Fe  Fe108     1.0  0.12329  0.53989  0.83957  1.0000
  S   S220      1.0  0.13476  0.52057  0.82001  1.0000
  S   S221      1.0  0.10561  0.57220  0.87404  1.0000
  S   S222      1.0  0.10550  0.53194  0.86708  1.0000
  Fe  Fe109     1.0  0.16254  0.57950  0.95740  1.0000
  S   S223      1.0  0.18667  0.56415  0.94006  1.0000
  S   S224      1.0  0.13358  0.58192  0.95445  1.0000
  H   H1714     1.0  0.26052  0.50241  0.92749  1.0000
  C   C959      1.0  0.05635  0.49505  0.86861  1.0000
  Fe  Fe110     1.0  0.20013  0.58727  0.93818  1.0000
  S   S225      1.0  0.21545  0.60005  0.91083  1.0000
  C   C960      1.0  0.29614  0.50509  0.76440  1.0000
  H   H1715     1.0  0.31924  0.73646  0.92782  1.0000
  S   S226      1.0  0.17520  0.60391  0.95334  1.0000
  C   C961      1.0  0.00026  0.49570  0.80653  1.0000
  S   S227      1.0  0.21242  0.56070  0.76438  1.0000
  H   H1716     1.0  0.31236  0.71913  0.92057  1.0000
  H   H1717     1.0  0.28938  0.52707  0.91164  1.0000
  H   H1718     1.0  0.14039  0.59558  0.73835  1.0000
  S   S228      1.0  0.30034  0.56730  0.89760  1.0000
  H   H1719     1.0  0.31466  0.74093  0.90508  1.0000
  C   C962      1.0  0.03905  0.55185  0.83220  1.0000
  S   S229      1.0  0.25723  0.54947  0.77969  1.0000
  H   H1720     1.0  0.22316  0.62718  0.75898  1.0000
  N   N55       1.0  0.20893  0.49180  0.85702  1.0000
  H   H1721     1.0  0.24258  0.58565  0.97350  1.0000
  S   S230      1.0  0.29407  0.60004  0.80674  1.0000
  H   H1722     1.0  0.29846  0.53338  0.73796  1.0000
  S   S231      1.0  0.30733  0.56105  0.84870  1.0000
  C   C963      1.0  0.27089  0.51147  0.94626  1.0000
  C   C964      1.0  0.24844  0.51692  0.82924  1.0000
  H   H1723     1.0  0.26354  0.58665  0.76448  1.0000
  H   H1724     1.0  0.18591  0.53571  0.79949  1.0000
  H   H1725     1.0  0.02717  0.49472  0.88215  1.0000
  H   H1726     1.0  0.23782  0.55182  0.87313  1.0000
  H   H1727     1.0  0.24130  0.50081  0.85625  1.0000
  H   H1728     1.0  0.29147  0.51559  0.82552  1.0000
  C   C965      1.0  0.14395  0.50793  0.75450  1.0000
  H   H1729     1.0  0.30555  0.60424  0.90960  1.0000
  C   C966      1.0  0.27111  0.60467  0.96872  1.0000
  C   C967      1.0  0.31998  0.54282  0.76731  1.0000
  H   H1730     1.0  0.04439  0.54479  0.90590  1.0000
  C   C968      1.0  0.26769  0.56361  0.78678  1.0000
  C   C969      1.0  0.27512  0.55679  0.80259  1.0000
  C   C970      1.0  0.28351  0.56772  0.80866  1.0000
  C   C971      1.0  0.28444  0.58564  0.79899  1.0000
  C   C972      1.0  0.27706  0.59244  0.78310  1.0000
  C   C973      1.0  0.26890  0.58138  0.77688  1.0000
  H   H1731     1.0  0.28907  0.56234  0.82091  1.0000
  H   H1732     1.0  0.27778  0.60627  0.77553  1.0000
  H   H1733     1.0  0.13809  0.53416  0.73638  1.0000
  H   H1734     1.0  0.24696  0.58416  0.95020  1.0000
  C   C974      1.0  0.05097  0.55556  0.84135  1.0000
  H   H1735     1.0  0.06531  0.55482  0.83504  1.0000
  C   C975      1.0  0.16997  0.49898  0.96514  1.0000
  H   H1736     1.0  0.27448  0.54299  0.81012  1.0000
  C   C976      1.0  0.21508  0.51008  0.95887  1.0000
  C   C977      1.0  0.23881  0.58982  0.90634  1.0000
  C   C978      1.0  0.25052  0.59782  0.89097  1.0000
  C   C979      1.0  0.26940  0.59044  0.88776  1.0000
  C   C980      1.0  0.27664  0.57540  0.90028  1.0000
  C   C981      1.0  0.26491  0.56715  0.91545  1.0000
  C   C982      1.0  0.24596  0.57413  0.91826  1.0000
  H   H1737     1.0  0.24502  0.60997  0.88173  1.0000
  H   H1738     1.0  0.27841  0.59682  0.87600  1.0000
  H   H1739     1.0  0.27047  0.55543  0.92507  1.0000
  H   H1740     1.0  0.23695  0.56752  0.92979  1.0000
  C   C983      1.0  0.22367  0.50861  0.92651  1.0000
  C   C984      1.0  0.21849  0.51892  0.94039  1.0000
  H   H1741     1.0  0.22617  0.51545  0.91223  1.0000
  H   H1742     1.0  0.21735  0.53363  0.93679  1.0000
  C   C985      1.0  0.04186  0.53066  0.90863  1.0000
  C   C986      1.0  0.14999  0.60436  0.81464  1.0000
  C   C987      1.0  0.15512  0.62124  0.80661  1.0000
  C   C988      1.0  0.16666  0.62364  0.78927  1.0000
  C   C989      1.0  0.17351  0.60907  0.77996  1.0000
  C   C990      1.0  0.16877  0.59194  0.78810  1.0000
  C   C991      1.0  0.15683  0.58962  0.80543  1.0000
  H   H1743     1.0  0.14983  0.63264  0.81363  1.0000
  H   H1744     1.0  0.17021  0.63690  0.78298  1.0000
  H   H1745     1.0  0.17389  0.58069  0.78088  1.0000
  H   H1746     1.0  0.15285  0.57654  0.81159  1.0000
  C   C992      1.0  0.13350  0.54339  0.91816  1.0000
  C   C993      1.0  0.14740  0.53974  0.92801  1.0000
  C   C994      1.0  0.14683  0.55093  0.94000  1.0000
  C   C995      1.0  0.13252  0.56607  0.94203  1.0000
  C   C996      1.0  0.11797  0.56914  0.93310  1.0000
  C   C997      1.0  0.11855  0.55792  0.92096  1.0000
  H   H1747     1.0  0.15884  0.52840  0.92625  1.0000
  H   H1748     1.0  0.15748  0.54780  0.94771  1.0000
  H   H1749     1.0  0.10647  0.58042  0.93523  1.0000
  H   H1750     1.0  0.10743  0.56046  0.91387  1.0000
  H   H1751     1.0  0.13607  0.48973  0.80497  1.0000
  C   C998      1.0  0.09890  0.51923  0.82314  1.0000
  H   H1752     1.0  0.31237  0.53315  0.82962  1.0000
  C   C999      1.0  0.02919  0.50469  0.85323  1.0000
  C   C1000     1.0  0.23652  0.50987  0.78522  1.0000
  H   H1753     1.0  0.09532  0.53147  0.82887  1.0000
  H   H1754     1.0  0.21025  0.63713  0.78876  1.0000
  S   S232      1.0  0.20281  0.52985  0.73755  1.0000
  H   H1755     1.0  0.15259  0.56604  0.75733  1.0000
  H   H1756     1.0  0.25663  0.52705  0.92510  1.0000
  H   H1757     1.0  0.30073  0.62888  0.90201  1.0000
  H   H1758     1.0  0.04216  0.52433  0.92327  1.0000
  H   H1759     1.0  0.30057  0.51569  0.86611  1.0000
  H   H1760     1.0  0.27753  0.52257  0.94666  1.0000
  H   H1761     1.0  0.05557  0.52588  0.88155  1.0000
  H   H1762     1.0  0.00085  0.49583  0.79196  1.0000
  H   H1763     1.0  0.28587  0.61548  0.89933  1.0000
  C   C1001     1.0  0.10017  0.56292  0.78710  1.0000
  C   C1002     1.0  0.30220  0.54194  0.74560  1.0000
  C   C1003     1.0  0.08506  0.51113  0.82177  1.0000
  H   H1764     1.0  0.25148  0.54932  0.96114  1.0000
  C   C1004     1.0  0.28445  0.51448  0.91203  1.0000
  C   C1005     1.0  0.01364  0.55761  0.85745  1.0000
  H   H1765     1.0  0.24327  0.62179  0.93765  1.0000
  H   H1766     1.0  0.01174  0.51090  0.82012  1.0000
  C   C1006     1.0  0.15263  0.55693  0.74817  1.0000
  H   H1767     1.0  0.24194  0.52762  0.81881  1.0000
  C   C1007     1.0  0.11730  0.51138  0.81723  1.0000
  H   H1768     1.0  0.15367  0.49994  0.76350  1.0000
  H   H1769     1.0  0.03973  0.49890  0.90439  1.0000
  N   N56       1.0  0.28268  0.51391  0.89303  1.0000
  H   H1770     1.0  0.03237  0.49096  0.84966  1.0000
  C   C1008     1.0  0.01396  0.50745  0.80645  1.0000
  H   H1771     1.0  0.25715  0.56302  0.86367  1.0000
  H   H1772     1.0  0.24876  0.55329  0.84916  1.0000
  H   H1773     1.0  0.22014  0.60911  0.96061  1.0000
  H   H1774     1.0  0.24973  0.63200  0.95271  1.0000
  H   H1775     1.0  0.16180  0.52590  0.73664  1.0000
  H   H1776     1.0  0.04435  0.54814  0.81888  1.0000
  H   H1777     1.0  0.09544  0.55052  0.79601  1.0000
  C   C1009     1.0  0.25117  0.55146  0.86322  1.0000
  C   C1010     1.0  0.27690  0.49630  0.89370  1.0000
  H   H1778     1.0  0.09619  0.57395  0.79518  1.0000
  H   H1779     1.0  0.28392  0.59395  0.96888  1.0000
  H   H1780     1.0  0.02838  0.50022  0.80273  1.0000
  C   C1011     1.0  0.02550  0.56162  0.86646  1.0000
  H   H1781     1.0  0.16726  0.51354  0.95790  1.0000
  H   H1782     1.0  0.25786  0.51205  0.95668  1.0000
  H   H1783     1.0  0.28914  0.54806  0.75400  1.0000
  S   S233      1.0  0.20805  0.52265  0.97644  1.0000
  H   H1784     1.0  0.07082  0.51723  0.82632  1.0000
  H   H1785     1.0  0.27813  0.56441  0.95293  1.0000
  H   H1786     1.0  0.27579  0.61796  0.96437  1.0000
  H   H1787     1.0  0.31358  0.50756  0.78158  1.0000
  H   H1788     1.0  0.23392  0.64447  0.76136  1.0000
  C   C1012     1.0  0.30514  0.50869  0.82736  1.0000
  H   H1789     1.0  0.99927  0.55846  0.86373  1.0000
  H   H1790     1.0  0.19983  0.63632  0.97089  1.0000
  H   H1791     1.0  0.27240  0.54329  0.88797  1.0000
  H   H1792     1.0  0.17357  0.49929  0.91599  1.0000
  S   S234      1.0  0.23732  0.59161  0.74207  1.0000
  C   C1013     1.0  0.12291  0.48659  0.93859  1.0000
  H   H1793     1.0  0.12387  0.53043  0.77977  1.0000
  S   S235      1.0  0.00577  0.54843  0.82812  1.0000
  Fe  Fe111     1.0  0.31153  0.58682  0.82810  1.0000
  H   H1794     1.0  0.27685  0.53323  0.85696  1.0000
  H   H1795     1.0  0.12982  0.50871  0.76286  1.0000
  H   H1796     1.0  0.10095  0.51613  0.95462  1.0000
  H   H1797     1.0  0.01400  0.52301  0.77838  1.0000
  H   H1798     1.0  0.02807  0.53167  0.90603  1.0000
  H   H1799     1.0  0.08520  0.50427  0.87503  1.0000
  C   C1014     1.0  0.29233  0.48766  0.77824  1.0000
  H   H1800     1.0  0.25821  0.52264  0.83344  1.0000
  C   C1015     1.0  0.05656  0.51940  0.89598  1.0000
  H   H1801     1.0  0.03640  0.51395  0.84169  1.0000
  C   C1016     1.0  0.21355  0.63749  0.96210  1.0000
  H   H1802     1.0  0.26818  0.53782  0.97519  1.0000
  H   H1803     1.0  0.27436  0.56726  0.97632  1.0000
  C   C1017     1.0  0.26432  0.53315  0.86791  1.0000
  C   C1018     1.0  0.27435  0.60167  0.93699  1.0000
  H   H1804     1.0  0.22694  0.61398  0.97918  1.0000
  N   N57       1.0  0.31513  0.53020  0.75789  1.0000
  C   C1019     1.0  0.12186  0.49558  0.80978  1.0000
  C   C1020     1.0  0.04416  0.56072  0.85841  1.0000
  H   H1805     1.0  0.06297  0.50622  0.85918  1.0000
  C   C1021     1.0  0.23409  0.51116  0.84610  1.0000
  C   C1022     1.0  0.18066  0.52745  0.79288  1.0000
  H   H1806     1.0  0.20981  0.51568  0.83503  1.0000
  H   H1807     1.0  0.25757  0.52211  0.86765  1.0000
  H   H1808     1.0  0.25631  0.50489  0.82307  1.0000
  H   H1809     1.0  0.21301  0.48779  0.78503  1.0000
  N   N58       1.0  0.26100  0.60274  0.95511  1.0000
  H   H1810     1.0  0.08584  0.61440  0.87257  1.0000
  H   H1811     1.0  0.02128  0.53373  0.79284  1.0000
  H   H1812     1.0  0.02014  0.56557  0.87967  1.0000
  H   H1813     1.0  0.29347  0.52445  0.78151  1.0000
  H   H1814     1.0  0.26169  0.49816  0.89773  1.0000
  H   H1815     1.0  0.26757  0.59885  0.92708  1.0000
  H   H1816     1.0  0.01420  0.51028  0.85499  1.0000
  H   H1817     1.0  0.22733  0.52344  0.85230  1.0000
  H   H1818     1.0  0.21262  0.50446  0.87771  1.0000
  H   H1819     1.0  0.11473  0.49830  0.85446  1.0000
  C   C1023     1.0  0.21945  0.50362  0.84115  1.0000
  H   H1820     1.0  0.19609  0.50426  0.90925  1.0000
  H   H1821     1.0  0.17895  0.58393  0.88102  1.0000
  H   H1822     1.0  0.17762  0.51962  0.89909  1.0000
  H   H1823     1.0  0.06680  0.62506  0.88816  1.0000
  H   H1824     1.0  0.14964  0.59647  0.86960  1.0000
  C   C1024     1.0  0.30092  0.51573  0.88038  1.0000
  H   H1825     1.0  0.13621  0.65347  0.83644  1.0000
  H   H1826     1.0  0.12103  0.62210  0.95211  1.0000
  H   H1827     1.0  0.12454  0.57188  0.77181  1.0000
  H   H1828     1.0  0.99732  0.53377  0.79596  1.0000
  Fe  Fe112     1.0  0.24210  0.56212  0.75652  1.0000
  C   C1025     1.0  0.10707  0.51130  0.96704  1.0000
  H   H1829     1.0  0.05978  0.49248  0.91347  1.0000
  C   C1026     1.0  0.02034  0.55294  0.84017  1.0000
  C   C1027     1.0  0.12097  0.55884  0.78033  1.0000
  H   H1830     1.0  0.27998  0.49791  0.94988  1.0000
  H   H1831     1.0  0.11930  0.50167  0.93342  1.0000
  H   H1832     1.0  0.11734  0.54566  0.76013  1.0000
  Fe  Fe113     1.0  0.20789  0.58936  0.74814  1.0000
  H   H1833     1.0  0.13885  0.58031  0.88761  1.0000
  C   C1028     1.0  0.25357  0.58531  0.96103  1.0000
  H   H1834     1.0  0.07014  0.52019  0.89787  1.0000
  C   C1029     1.0  0.21708  0.49097  0.96346  1.0000
  H   H1835     1.0  0.12641  0.56990  0.73907  1.0000
  H   H1836     1.0  0.11835  0.51859  0.96503  1.0000
  H   H1837     1.0  0.14234  0.50607  0.94588  1.0000
  C   C1030     1.0  0.05457  0.49905  0.90059  1.0000
  C   C1031     1.0  0.24570  0.61936  0.95187  1.0000
  H   H1838     1.0  0.12103  0.49596  0.90228  1.0000
  H   H1839     1.0  0.11573  0.64576  0.94020  1.0000
  C   C1032     1.0  0.18360  0.50500  0.90425  1.0000
  H   H1840     1.0  0.25497  0.53012  0.89679  1.0000
  Fe  Fe114     1.0  0.18645  0.58882  0.97857  1.0000
  H   H1841     1.0  0.16979  0.49180  0.82815  1.0000
  N   N59       1.0  0.21473  0.60181  0.81572  1.0000
  C   C1033     1.0  0.20128  0.61751  0.82328  1.0000
  C   C1034     1.0  0.22073  0.60735  0.79509  1.0000
  C   C1035     1.0  0.20470  0.58630  0.81948  1.0000
  C   C1036     1.0  0.23105  0.59478  0.82491  1.0000
  C   C1037     1.0  0.24122  0.60919  0.82639  1.0000
  C   C1038     1.0  0.19311  0.61339  0.84421  1.0000
  C   C1039     1.0  0.21554  0.56924  0.81124  1.0000
  C   C1040     1.0  0.22366  0.62731  0.78720  1.0000
  H   H1842     1.0  0.28287  0.51321  0.76088  1.0000
  C   C1041     1.0  0.25349  0.60106  0.84049  1.0000
  C   C1042     1.0  0.18393  0.63112  0.85122  1.0000
  C   C1043     1.0  0.20387  0.55474  0.81571  1.0000
  H   H1843     1.0  0.18955  0.62214  0.81606  1.0000
  H   H1844     1.0  0.20739  0.62980  0.82029  1.0000
  H   H1845     1.0  0.23355  0.59787  0.79007  1.0000
  H   H1846     1.0  0.21036  0.60590  0.78801  1.0000
  H   H1847     1.0  0.19172  0.59136  0.81420  1.0000
  H   H1848     1.0  0.20050  0.58118  0.83452  1.0000
  H   H1849     1.0  0.22702  0.58665  0.83897  1.0000
  H   H1850     1.0  0.24166  0.58482  0.81755  1.0000
  H   H1851     1.0  0.23186  0.62149  0.83085  1.0000
  C   C1044     1.0  0.14135  0.56851  0.73357  1.0000
  H   H1852     1.0  0.18252  0.60500  0.84703  1.0000
  H   H1853     1.0  0.20373  0.60588  0.85232  1.0000
  H   H1854     1.0  0.22808  0.56280  0.81690  1.0000
  H   H1855     1.0  0.21961  0.57297  0.79607  1.0000
  H   H1856     1.0  0.09310  0.56768  0.77532  1.0000
  H   H1857     1.0  0.27189  0.63152  0.92538  1.0000
  H   H1858     1.0  0.24586  0.62081  0.76421  1.0000
  H   H1859     1.0  0.17059  0.56653  0.87537  1.0000
  H   H1860     1.0  0.26332  0.58848  0.83707  1.0000
  H   H1861     1.0  0.26146  0.61121  0.84058  1.0000
  H   H1862     1.0  0.17367  0.63954  0.84300  1.0000
  H   H1863     1.0  0.17698  0.62777  0.86585  1.0000
  H   H1864     1.0  0.19432  0.63921  0.85027  1.0000
  H   H1865     1.0  0.20019  0.54980  0.83080  1.0000
  H   H1866     1.0  0.19113  0.56054  0.81024  1.0000
  H   H1867     1.0  0.21172  0.54296  0.80918  1.0000
  C   C1045     1.0  0.30481  0.51691  0.77221  1.0000
  H   H1868     1.0  0.30381  0.52948  0.87943  1.0000
  H   H1869     1.0  0.23263  0.63102  0.79423  1.0000
  S   S236      1.0  0.21231  0.57400  0.96311  1.0000
  S   S237      1.0  0.18754  0.61315  0.75803  1.0000
  H   H1870     1.0  0.22627  0.49622  0.82977  1.0000
  H   H1871     1.0  0.14483  0.65926  0.85355  1.0000
  H   H1872     1.0  0.22258  0.51459  0.79308  1.0000
  H   H1873     1.0  0.19244  0.51960  0.78437  1.0000
  H   H1874     1.0  0.12042  0.66354  0.85466  1.0000
  H   H1875     1.0  0.24505  0.59761  0.85445  1.0000
  H   H1876     1.0  0.15295  0.51891  0.78309  1.0000
  H   H1877     1.0  0.13748  0.63652  0.94711  1.0000
  H   H1878     1.0  0.29496  0.50266  0.91700  1.0000
  H   H1879     1.0  0.25018  0.61346  0.81295  1.0000
  H   H1880     1.0  0.17171  0.52043  0.76436  1.0000
  C   C1046     1.0  0.15955  0.52895  0.77187  1.0000
  C   C1047     1.0  0.03548  0.50314  0.87093  1.0000
  H   H1881     1.0  0.12728  0.55503  0.79254  1.0000
  H   H1882     1.0  0.28056  0.49858  0.86355  1.0000
  C   C1048     1.0  0.12696  0.54297  0.76958  1.0000
  H   H1883     1.0  0.08774  0.53250  0.98010  1.0000
  H   H1884     1.0  0.17345  0.51774  0.80380  1.0000
  H   H1885     1.0  0.24668  0.51269  0.79155  1.0000
  H   H1886     1.0  0.03230  0.51713  0.87397  1.0000
  C   C1049     1.0  0.31696  0.51865  0.82983  1.0000
  H   H1887     1.0  0.07854  0.60186  0.89561  1.0000
  C   C1050     1.0  0.23219  0.63003  0.76668  1.0000
  H   H1888     1.0  0.16774  0.56773  0.89908  1.0000
  C   C1051     1.0  0.28268  0.61892  0.92739  1.0000
  C   C1052     1.0  0.29442  0.61670  0.90845  1.0000
  C   C1053     1.0  0.14788  0.52751  0.74571  1.0000
  H   H1889     1.0  0.17504  0.49828  0.97764  1.0000
  S   S238      1.0  0.31584  0.60115  0.84850  1.0000
  Fe  Fe115     1.0  0.19649  0.55236  0.96648  1.0000
  N   N60       1.0  0.14659  0.53945  0.75912  1.0000
  H   H1890     1.0  0.30511  0.50095  0.75172  1.0000
  H   H1891     1.0  0.28622  0.59005  0.93863  1.0000
  S   S239      1.0  0.05841  0.56634  0.87004  1.0000
  C   C1054     1.0  0.22646  0.61869  0.96444  1.0000
  H   H1892     1.0  0.19394  0.51668  0.86680  1.0000
  H   H1893     1.0  0.31367  0.48838  0.89524  1.0000
  N   N61       1.0  0.12731  0.61717  0.89707  1.0000
  C   C1055     1.0  0.11243  0.60990  0.89340  1.0000
  C   C1056     1.0  0.14465  0.60241  0.89740  1.0000
  C   C1057     1.0  0.12086  0.62185  0.91597  1.0000
  C   C1058     1.0  0.13093  0.63453  0.88345  1.0000
  C   C1059     1.0  0.13291  0.63466  0.86284  1.0000
  C   C1060     1.0  0.09340  0.62307  0.89411  1.0000
  C   C1061     1.0  0.13524  0.62737  0.92340  1.0000
  C   C1062     1.0  0.14924  0.58905  0.88395  1.0000
  C   C1063     1.0  0.16781  0.57606  0.88494  1.0000
  C   C1064     1.0  0.13368  0.65393  0.85122  1.0000
  C   C1065     1.0  0.08041  0.61559  0.88718  1.0000
  C   C1066     1.0  0.12677  0.63330  0.94181  1.0000
  H   H1894     1.0  0.11040  0.59701  0.90348  1.0000
  H   H1895     1.0  0.11655  0.60580  0.87983  1.0000
  H   H1896     1.0  0.15677  0.60864  0.89526  1.0000
  H   H1897     1.0  0.14396  0.59322  0.91125  1.0000
  H   H1898     1.0  0.11611  0.61002  0.92623  1.0000
  H   H1899     1.0  0.10878  0.63345  0.91627  1.0000
  H   H1900     1.0  0.11986  0.64646  0.88677  1.0000
  H   H1901     1.0  0.14368  0.63797  0.88466  1.0000
  H   H1902     1.0  0.12118  0.63066  0.86014  1.0000
  H   H1903     1.0  0.14575  0.62535  0.85785  1.0000
  H   H1904     1.0  0.08694  0.62459  0.90846  1.0000
  H   H1905     1.0  0.09452  0.63687  0.88552  1.0000
  H   H1906     1.0  0.14075  0.63901  0.91377  1.0000
  H   H1907     1.0  0.14687  0.61563  0.92560  1.0000
  H   H1908     1.0  0.17592  0.54925  0.77021  1.0000
  C   C1067     1.0  0.01140  0.52557  0.79250  1.0000
  H   H1909     1.0  0.21879  0.64761  0.96639  1.0000
  C   C1068     1.0  0.26843  0.53054  0.88722  1.0000
  C   C1069     1.0  0.16765  0.54019  0.78083  1.0000
  H   H1910     1.0  0.15681  0.54874  0.78940  1.0000
  H   H1911     1.0  0.23796  0.51783  0.77085  1.0000
  H   H1912     1.0  0.21198  0.64247  0.94759  1.0000
  C   C1070     1.0  0.20131  0.50259  0.87221  1.0000
  C   C1071     1.0  0.25800  0.55067  0.97195  1.0000
  Fe  Fe116     1.0  0.31469  0.57393  0.86810  1.0000
  C   C1072     1.0  0.31771  0.50057  0.88521  1.0000
  C   C1073     1.0  0.26680  0.51396  0.92725  1.0000
  H   H1913     1.0  0.14220  0.49929  0.97980  1.0000
  C   C1074     1.0  0.19280  0.48865  0.85130  1.0000
  H   H1914     1.0  0.18283  0.50193  0.84864  1.0000
  H   H1915     1.0  0.22588  0.49474  0.76288  1.0000
  C   C1075     1.0  0.26754  0.56705  0.96531  1.0000
  C   C1076     1.0  0.22526  0.48951  0.93115  1.0000
  H   H1916     1.0  0.29164  0.62101  0.93560  1.0000
  C   C1077     1.0  0.14544  0.49159  0.95321  1.0000
  C   C1078     1.0  0.11379  0.49007  0.97073  1.0000
  H   H1917     1.0  0.28178  0.49127  0.79035  1.0000
  H   H1918     1.0  0.17480  0.49451  0.88549  1.0000
  H   H1919     1.0  0.32260  0.55334  0.79895  1.0000
  Fe  Fe117     1.0  0.21707  0.55209  0.73750  1.0000
  C   C1079     1.0  0.14583  0.49698  0.73981  1.0000
  H   H1920     1.0  0.30727  0.55047  0.77503  1.0000
  H   H1921     1.0  0.30959  0.56916  0.73769  1.0000
  C   C1080     1.0  0.18801  0.49406  0.88908  1.0000
  H   H1922     1.0  0.16718  0.55371  0.74086  1.0000
  C   C1081     1.0  0.24016  0.48930  0.78561  1.0000
  C   C1082     1.0  0.08410  0.48973  0.88077  1.0000
  C   C1083     1.0  0.08965  0.49464  0.81547  1.0000
  N   N62       1.0  0.06421  0.48816  0.88579  1.0000
  C   C1084     1.0  0.15259  0.49110  0.97049  1.0000
  C   C1085     1.0  0.32046  0.73014  0.91594  1.0000
  H   H1923     1.0  0.20447  0.48809  0.82198  1.0000
  H   H1924     1.0  0.25696  0.48777  0.74795  1.0000
  H   H1925     1.0  0.18093  0.49090  0.95608  1.0000
  C   C1086     1.0  0.28330  0.48818  0.87595  1.0000
  C   C1087     1.0  0.31088  0.48987  0.82727  1.0000
  C   C1088     1.0  0.10806  0.48693  0.80932  1.0000
  H   H1926     1.0  0.15060  0.53336  0.98206  1.0000
  Fe  Fe118     1.0  0.47156  0.20746  0.07483  1.0000
  S   S240      1.0  0.44326  0.22364  0.07379  1.0000
  S   S241      1.0  0.49542  0.22132  0.06232  1.0000
  Fe  Fe119     1.0  0.45826  0.17225  0.09447  1.0000
  S   S242      1.0  0.42865  0.18586  0.09491  1.0000
  S   S243      1.0  0.46951  0.14346  0.10844  1.0000
  Fe  Fe120     1.0  0.43896  0.19922  0.06560  1.0000
  S   S244      1.0  0.42498  0.20704  0.04132  1.0000
  Fe  Fe121     1.0  0.43591  0.20897  0.10294  1.0000
  S   S245      1.0  0.41729  0.22475  0.12438  1.0000
  S   S246      1.0  0.46809  0.18391  0.06460  1.0000
  S   S247      1.0  0.46474  0.19435  0.10451  1.0000
  H   H1927     1.0  0.60588  0.27609  0.11336  1.0000
  H   H1928     1.0  0.47981  0.23045  0.21063  1.0000
  C   C1089     1.0  0.49182  0.07259  0.21587  1.0000
  H   H1929     1.0  0.64483  0.22660  0.18245  1.0000
  H   H1930     1.0  0.49221  0.07855  0.16570  1.0000
  H   H1931     1.0  0.56619  0.01114  0.12069  1.0000
  H   H1932     1.0  0.50305  0.04750  0.15664  1.0000
  H   H1933     1.0  0.62355  0.26114  0.05807  1.0000
  C   C1090     1.0  0.40792  0.43501  0.18612  1.0000
  H   H1934     1.0  0.41481  0.09959  0.98278  1.0000
  H   H1935     1.0  0.54966  0.99816  0.16147  1.0000
  H   H1936     1.0  0.37428  0.13450  0.00080  1.0000
  S   S248      1.0  0.56549  0.19656  0.00381  1.0000
  Fe  Fe122     1.0  0.55406  0.22447  0.11845  1.0000
  S   S249      1.0  0.58215  0.23079  0.10625  1.0000
  S   S250      1.0  0.52655  0.24334  0.12037  1.0000
  S   S251      1.0  0.56152  0.20605  0.14427  1.0000
  S   S252      1.0  0.55804  0.20176  0.10351  1.0000
  H   H1937     1.0  0.57168  0.18528  0.20860  1.0000
  S   S253      1.0  0.61108  0.20794  0.14750  1.0000
  C   C1091     1.0  0.45775  0.01134  0.20745  1.0000
  C   C1092     1.0  0.58608  0.13008  0.19054  1.0000
  C   C1093     1.0  0.36620  0.43865  0.16977  1.0000
  H   H1938     1.0  0.52943  0.12985  0.18979  1.0000
  Fe  Fe123     1.0  0.57244  0.31449  0.19419  1.0000
  S   S254      1.0  0.54742  0.32139  0.18158  1.0000
  S   S255      1.0  0.58036  0.28644  0.21101  1.0000
  H   H1939     1.0  0.37598  0.18805  0.98612  1.0000
  C   C1094     1.0  0.47651  0.17585  0.20318  1.0000
  H   H1940     1.0  0.41269  0.13452  0.18905  1.0000
  H   H1941     1.0  0.54614  0.00086  0.12958  1.0000
  C   C1095     1.0  0.36714  0.10807  0.00772  1.0000
  S   S256      1.0  0.59582  0.12021  0.21003  1.0000
  C   C1096     1.0  0.63701  0.21681  0.10105  1.0000
  Fe  Fe124     1.0  0.43920  0.26805  0.19667  1.0000
  S   S257      1.0  0.45028  0.24308  0.18360  1.0000
  S   S258      1.0  0.45219  0.29283  0.18703  1.0000
  C   C1097     1.0  0.36377  0.37428  0.18491  1.0000
  C   C1098     1.0  0.37963  0.36250  0.17729  1.0000
  H   H1942     1.0  0.35600  0.38492  0.17603  1.0000
  H   H1943     1.0  0.38392  0.36411  0.16253  1.0000
  C   C1099     1.0  0.49863  0.29542  0.21478  1.0000
  C   C1100     1.0  0.49849  0.30544  0.19687  1.0000
  C   C1101     1.0  0.51339  0.31364  0.18689  1.0000
  C   C1102     1.0  0.52854  0.31174  0.19470  1.0000
  C   C1103     1.0  0.52861  0.30175  0.21265  1.0000
  H   H1944     1.0  0.46811  0.01918  0.19842  1.0000
  H   H1945     1.0  0.48691  0.30693  0.19072  1.0000
  H   H1946     1.0  0.51326  0.32138  0.17302  1.0000
  H   H1947     1.0  0.51418  0.01375  0.16661  1.0000
  C   C1104     1.0  0.40086  0.14558  0.19285  1.0000
  H   H1948     1.0  0.48046  0.01835  0.22635  1.0000
  H   H1949     1.0  0.58382  0.16859  0.15680  1.0000
  H   H1950     1.0  0.59831  0.15383  0.18366  1.0000
  C   C1105     1.0  0.57669  0.19916  0.02010  1.0000
  C   C1106     1.0  0.57420  0.20555  0.05032  1.0000
  C   C1107     1.0  0.56597  0.20389  0.03664  1.0000
  H   H1951     1.0  0.56574  0.20938  0.06287  1.0000
  H   H1952     1.0  0.55119  0.20641  0.03886  1.0000
  H   H1953     1.0  0.36175  0.99335  0.22714  1.0000
  C   C1108     1.0  0.52199  0.16239  0.09541  1.0000
  C   C1109     1.0  0.61396  0.22368  0.15914  1.0000
  H   H1954     1.0  0.52972  0.10729  0.07524  1.0000
  H   H1955     1.0  0.64349  0.39659  0.20848  1.0000
  C   C1110     1.0  0.59578  0.19630  0.01725  1.0000
  H   H1956     1.0  0.57736  0.21700  0.19615  1.0000
  H   H1957     1.0  0.59227  0.38698  0.21369  1.0000
  H   H1958     1.0  0.35187  0.44418  0.17613  1.0000
  H   H1959     1.0  0.62527  0.23218  0.03599  1.0000
  C   C1111     1.0  0.42704  0.23111  0.13969  1.0000
  C   C1112     1.0  0.41605  0.24307  0.15121  1.0000
  C   C1113     1.0  0.42319  0.24745  0.16434  1.0000
  C   C1114     1.0  0.44129  0.23965  0.16615  1.0000
  C   C1115     1.0  0.45230  0.22787  0.15454  1.0000
  C   C1116     1.0  0.44527  0.22377  0.14124  1.0000
  H   H1960     1.0  0.40192  0.24877  0.15011  1.0000
  H   H1961     1.0  0.41458  0.25643  0.17337  1.0000
  H   H1962     1.0  0.46633  0.22180  0.15588  1.0000
  H   H1963     1.0  0.45388  0.21460  0.13250  1.0000
  C   C1117     1.0  0.42625  0.11558  0.15093  1.0000
  C   C1118     1.0  0.42154  0.12787  0.13516  1.0000
  C   C1119     1.0  0.43482  0.13627  0.12190  1.0000
  C   C1120     1.0  0.45296  0.13207  0.12416  1.0000
  C   C1121     1.0  0.45788  0.11900  0.13944  1.0000
  C   C1122     1.0  0.44452  0.11091  0.15290  1.0000
  H   H1964     1.0  0.40748  0.13130  0.13345  1.0000
  H   H1965     1.0  0.43101  0.14595  0.10991  1.0000
  H   H1966     1.0  0.47194  0.11555  0.14114  1.0000
  H   H1967     1.0  0.51888  0.05728  0.13734  1.0000
  C   C1123     1.0  0.43471  0.17057  0.99947  1.0000
  C   C1124     1.0  0.42937  0.18966  0.99445  1.0000
  C   C1125     1.0  0.42664  0.20070  0.00738  1.0000
  C   C1126     1.0  0.42984  0.19282  0.02517  1.0000
  C   C1127     1.0  0.43608  0.17382  0.02988  1.0000
  C   C1128     1.0  0.43821  0.16271  0.01715  1.0000
  H   H1968     1.0  0.37249  0.09413  0.00449  1.0000
  H   H1969     1.0  0.42180  0.21540  0.00368  1.0000
  H   H1970     1.0  0.43854  0.16764  0.04356  1.0000
  H   H1971     1.0  0.44235  0.14795  0.02111  1.0000
  C   C1129     1.0  0.50329  0.22866  0.07824  1.0000
  C   C1130     1.0  0.52050  0.23342  0.07329  1.0000
  C   C1131     1.0  0.52740  0.23841  0.08612  1.0000
  C   C1132     1.0  0.51704  0.23887  0.10390  1.0000
  C   C1133     1.0  0.49975  0.23430  0.10882  1.0000
  C   C1134     1.0  0.49290  0.22918  0.09601  1.0000
  H   H1972     1.0  0.52867  0.23287  0.05962  1.0000
  H   H1973     1.0  0.54089  0.24170  0.08231  1.0000
  H   H1974     1.0  0.49199  0.23390  0.12270  1.0000
  H   H1975     1.0  0.47966  0.22551  0.09995  1.0000
  C   C1135     1.0  0.37979  0.12111  0.99640  1.0000
  C   C1136     1.0  0.36573  0.43389  0.15176  1.0000
  H   H1976     1.0  0.62222  0.21676  0.10678  1.0000
  Fe  Fe125     1.0  0.41787  0.05652  0.22392  1.0000
  H   H1977     1.0  0.58897  0.18642  0.18774  1.0000
  H   H1978     1.0  0.40806  0.43165  0.17289  1.0000
  H   H1979     1.0  0.48347  0.25295  0.19852  1.0000
  H   H1980     1.0  0.34839  0.48122  0.20224  1.0000
  C   C1137     1.0  0.51189  0.05776  0.15182  1.0000
  H   H1981     1.0  0.63368  0.19093  0.21854  1.0000
  H   H1982     1.0  0.52459  0.02876  0.19526  1.0000
  H   H1983     1.0  0.39336  0.11565  0.00015  1.0000
  H   H1984     1.0  0.62897  0.28033  0.10777  1.0000
  H   H1985     1.0  0.62654  0.15609  0.19671  1.0000
  C   C1138     1.0  0.50938  0.99865  0.19397  1.0000
  H   H1986     1.0  0.48484  0.18106  0.99508  1.0000
  C   C1139     1.0  0.56249  0.15513  0.08925  1.0000
  C   C1140     1.0  0.54385  0.02786  0.14929  1.0000
  C   C1141     1.0  0.38835  0.43863  0.19792  1.0000
  H   H1987     1.0  0.50024  0.02724  0.18313  1.0000
  Fe  Fe126     1.0  0.58144  0.09887  0.23008  1.0000
  C   C1142     1.0  0.63302  0.37709  0.20003  1.0000
  H   H1988     1.0  0.62469  0.38758  0.19157  1.0000
  H   H1989     1.0  0.56789  0.38981  0.21617  1.0000
  H   H1990     1.0  0.64247  0.21751  0.11283  1.0000
  C   C1143     1.0  0.61974  0.18796  0.22467  1.0000
  N   N63       1.0  0.37697  0.42445  0.20071  1.0000
  H   H1991     1.0  0.32486  0.43718  0.13100  1.0000
  H   H1992     1.0  0.52684  0.19155  0.14949  1.0000
  C   C1144     1.0  0.61988  0.27086  0.11631  1.0000
  C   C1145     1.0  0.62780  0.16903  0.19983  1.0000
  C   C1146     1.0  0.51363  0.16496  0.17823  1.0000
  H   H1993     1.0  0.51859  0.05519  0.21243  1.0000
  H   H1994     1.0  0.50589  0.19078  0.18936  1.0000
  H   H1995     1.0  0.63742  0.21896  0.06526  1.0000
  H   H1996     1.0  0.50685  0.00055  0.20832  1.0000
  N   N64       1.0  0.45013  0.28857  0.12437  1.0000
  C   C1147     1.0  0.45538  0.27327  0.11373  1.0000
  C   C1148     1.0  0.45948  0.28310  0.14062  1.0000
  C   C1149     1.0  0.42964  0.29148  0.13154  1.0000
  C   C1150     1.0  0.45437  0.30645  0.11242  1.0000
  C   C1151     1.0  0.47462  0.30626  0.10274  1.0000
  C   C1152     1.0  0.44568  0.27643  0.09747  1.0000
  C   C1153     1.0  0.42139  0.30427  0.14567  1.0000
  C   C1154     1.0  0.47888  0.27053  0.13832  1.0000
  C   C1155     1.0  0.48849  0.27003  0.15358  1.0000
  C   C1156     1.0  0.47670  0.32455  0.08956  1.0000
  C   C1157     1.0  0.45303  0.26073  0.08703  1.0000
  C   C1158     1.0  0.40079  0.30495  0.15234  1.0000
  H   H1997     1.0  0.45243  0.26026  0.12320  1.0000
  H   H1998     1.0  0.47031  0.27017  0.10807  1.0000
  H   H1999     1.0  0.46019  0.29557  0.14511  1.0000
  H   H2000     1.0  0.45122  0.27525  0.15268  1.0000
  H   H2001     1.0  0.42563  0.27803  0.13801  1.0000
  H   H2002     1.0  0.42219  0.29748  0.12006  1.0000
  H   H2003     1.0  0.44578  0.31164  0.10182  1.0000
  H   H2004     1.0  0.45048  0.31732  0.12072  1.0000
  H   H2005     1.0  0.48019  0.29530  0.09461  1.0000
  H   H2006     1.0  0.48307  0.30435  0.11308  1.0000
  H   H2007     1.0  0.43075  0.27697  0.10247  1.0000
  H   H2008     1.0  0.44785  0.28932  0.08753  1.0000
  H   H2009     1.0  0.42332  0.31852  0.13946  1.0000
  H   H2010     1.0  0.42766  0.29939  0.15798  1.0000
  H   H2011     1.0  0.47751  0.25628  0.13922  1.0000
  H   H2012     1.0  0.48797  0.27476  0.12503  1.0000
  H   H2013     1.0  0.48007  0.26532  0.16717  1.0000
  H   H2014     1.0  0.50191  0.26027  0.15202  1.0000
  H   H2015     1.0  0.49092  0.28386  0.15290  1.0000
  H   H2016     1.0  0.49139  0.32417  0.08307  1.0000
  H   H2017     1.0  0.46891  0.32705  0.07852  1.0000
  H   H2018     1.0  0.47171  0.33608  0.09707  1.0000
  H   H2019     1.0  0.45098  0.24746  0.09640  1.0000
  H   H2020     1.0  0.44554  0.26309  0.07579  1.0000
  H   H2021     1.0  0.46782  0.25994  0.08080  1.0000
  H   H2022     1.0  0.39361  0.31027  0.14064  1.0000
  H   H2023     1.0  0.39816  0.29105  0.15936  1.0000
  H   H2024     1.0  0.39498  0.31423  0.16229  1.0000
  H   H2025     1.0  0.57049  0.05362  0.20217  1.0000
  C   C1159     1.0  0.63000  0.24775  0.05392  1.0000
  H   H2026     1.0  0.60496  0.16775  0.22243  1.0000
  H   H2027     1.0  0.43063  0.15595  0.17604  1.0000
  H   H2028     1.0  0.52849  0.15148  0.10578  1.0000
  H   H2029     1.0  0.45862  0.21754  0.98787  1.0000
  H   H2030     1.0  0.56332  0.14009  0.09208  1.0000
  H   H2031     1.0  0.38077  0.16599  0.17916  1.0000
  H   H2032     1.0  0.44835  0.10118  0.16487  1.0000
  H   H2033     1.0  0.50759  0.08770  0.14527  1.0000
  H   H2034     1.0  0.47668  0.98989  0.22091  1.0000
  H   H2035     1.0  0.40502  0.15315  0.20102  1.0000
  C   C1160     1.0  0.51826  0.18129  0.10083  1.0000
  C   C1161     1.0  0.63033  0.23158  0.07082  1.0000
  C   C1162     1.0  0.63284  0.23061  0.17636  1.0000
  S   S259      1.0  0.43579  0.15614  0.98448  1.0000
  H   H2036     1.0  0.53058  0.18734  0.09678  1.0000
  H   H2037     1.0  0.52993  0.18265  0.18251  1.0000
  C   C1163     1.0  0.52102  0.11848  0.06702  1.0000
  H   H2038     1.0  0.39270  0.38627  0.19424  1.0000
  H   H2039     1.0  0.58920  0.15143  0.09568  1.0000
  C   C1164     1.0  0.35802  0.43166  0.21104  1.0000
  H   H2040     1.0  0.54308  0.15381  0.19581  1.0000
  N   N65       1.0  0.53297  0.16142  0.07627  1.0000
  H   H2041     1.0  0.38102  0.45249  0.19194  1.0000
  H   H2042     1.0  0.42980  0.14892  0.15647  1.0000
  C   C1165     1.0  0.45578  0.17718  0.20919  1.0000
  C   C1166     1.0  0.61917  0.24529  0.04089  1.0000
  H   H2043     1.0  0.61909  0.27072  0.13098  1.0000
  H   H2044     1.0  0.47883  0.18517  0.18955  1.0000
  S   S260      1.0  0.34058  0.38894  0.21428  1.0000
  H   H2045     1.0  0.50802  0.14685  0.06568  1.0000
  C   C1167     1.0  0.53514  0.14232  0.07309  1.0000
  C   C1168     1.0  0.59327  0.20240  0.04765  1.0000
  C   C1169     1.0  0.39942  0.39229  0.20180  1.0000
  H   H2046     1.0  0.45073  0.17076  0.20054  1.0000
  H   H2047     1.0  0.51871  0.05775  0.17751  1.0000
  H   H2048     1.0  0.52779  0.16146  0.03985  1.0000
  S   S261      1.0  0.62827  0.26280  0.18684  1.0000
  H   H2049     1.0  0.54502  0.17421  0.03793  1.0000
  H   H2050     1.0  0.50860  0.14640  0.22513  1.0000
  H   H2051     1.0  0.50257  0.20026  0.15685  1.0000
  H   H2052     1.0  0.64413  0.24840  0.04602  1.0000
  H   H2053     1.0  0.60080  0.24495  0.22302  1.0000
  S   S262      1.0  0.40890  0.10742  0.16858  1.0000
  H   H2054     1.0  0.38906  0.16774  0.99818  1.0000
  H   H2055     1.0  0.54451  0.14064  0.05968  1.0000
  H   H2056     1.0  0.50511  0.19116  0.03414  1.0000
  H   H2057     1.0  0.64087  0.24636  0.11683  1.0000
  H   H2058     1.0  0.58983  0.15295  0.07168  1.0000
  H   H2059     1.0  0.59804  0.99877  0.22356  1.0000
  H   H2060     1.0  0.41790  0.36597  0.20751  1.0000
  H   H2061     1.0  0.50813  0.17583  0.06632  1.0000
  H   H2062     1.0  0.38146  0.12770  0.19798  1.0000
  H   H2063     1.0  0.64462  0.43333  0.16856  1.0000
  H   H2064     1.0  0.39099  0.03669  0.20684  1.0000
  C   C1170     1.0  0.52307  0.17574  0.06272  1.0000
  H   H2065     1.0  0.50939  0.13376  0.08841  1.0000
  H   H2066     1.0  0.37075  0.27240  0.21459  1.0000
  H   H2067     1.0  0.52320  0.20350  0.03058  1.0000
  H   H2068     1.0  0.37986  0.42939  0.14412  1.0000
  H   H2069     1.0  0.39378  0.14842  0.16703  1.0000
  H   H2070     1.0  0.41462  0.20541  0.20311  1.0000
  C   C1171     1.0  0.38754  0.17615  0.98437  1.0000
  S   S263      1.0  0.48296  0.06112  0.20427  1.0000
  C   C1172     1.0  0.61928  0.16952  0.22002  1.0000
  H   H2071     1.0  0.51026  0.16914  0.21422  1.0000
  C   C1173     1.0  0.53015  0.17423  0.04227  1.0000
  H   H2072     1.0  0.57909  0.05692  0.17771  1.0000
  H   H2073     1.0  0.61418  0.25413  0.09076  1.0000
  H   H2074     1.0  0.34826  0.42326  0.21091  1.0000
  C   C1174     1.0  0.51006  0.06694  0.21777  1.0000
  C   C1175     1.0  0.52012  0.19036  0.02986  1.0000
  H   H2075     1.0  0.55115  0.18024  0.07219  1.0000
  H   H2076     1.0  0.51152  0.19522  0.98581  1.0000
  H   H2077     1.0  0.37334  0.14678  0.20987  1.0000
  H   H2078     1.0  0.53980  0.00991  0.18708  1.0000
  H   H2079     1.0  0.63807  0.20526  0.16712  1.0000
  H   H2080     1.0  0.52469  0.18851  0.01541  1.0000
  C   C1176     1.0  0.36878  0.35882  0.21532  1.0000
  C   C1177     1.0  0.60238  0.24097  0.15976  1.0000
  C   C1178     1.0  0.48668  0.15595  0.20158  1.0000
  C   C1179     1.0  0.51425  0.13280  0.19430  1.0000
  C   C1180     1.0  0.51709  0.13632  0.07399  1.0000
  C   C1181     1.0  0.50656  0.12656  0.18058  1.0000
  N   N66       1.0  0.50736  0.15262  0.19633  1.0000
  C   C1182     1.0  0.51776  0.10809  0.17627  1.0000
  H   H2081     1.0  0.48100  0.15270  0.19117  1.0000
  C   C1183     1.0  0.39645  0.02209  0.21024  1.0000
  C   C1184     1.0  0.39494  0.15810  0.17516  1.0000
  S   S264      1.0  0.61600  0.30047  0.21515  1.0000
  H   H2082     1.0  0.59093  0.24513  0.15288  1.0000
  H   H2083     1.0  0.50395  0.16708  0.16895  1.0000
  H   H2084     1.0  0.50664  0.13674  0.16743  1.0000
  H   H2085     1.0  0.49229  0.12463  0.18667  1.0000
  H   H2086     1.0  0.35260  0.44582  0.20411  1.0000
  H   H2087     1.0  0.65563  0.38332  0.16546  1.0000
  H   H2088     1.0  0.42147  0.17779  0.19045  1.0000
  H   H2089     1.0  0.53186  0.10940  0.16871  1.0000
  H   H2090     1.0  0.51851  0.09758  0.18911  1.0000
  H   H2091     1.0  0.51113  0.10337  0.16759  1.0000
  N   N67       1.0  0.40730  0.17098  0.16345  1.0000
  C   C1185     1.0  0.42716  0.16139  0.16231  1.0000
  H   H2092     1.0  0.52400  0.18972  0.06359  1.0000
  C   C1186     1.0  0.40373  0.17584  0.14416  1.0000
  C   C1187     1.0  0.40300  0.18864  0.17035  1.0000
  C   C1188     1.0  0.39005  0.34876  0.18866  1.0000
  C   C1189     1.0  0.44141  0.17304  0.15072  1.0000
  C   C1190     1.0  0.38346  0.18351  0.14229  1.0000
  H   H2093     1.0  0.50757  0.19094  0.09385  1.0000
  C   C1191     1.0  0.58122  0.15543  0.16479  1.0000
  C   C1192     1.0  0.46078  0.16342  0.15335  1.0000
  C   C1193     1.0  0.38185  0.18862  0.12212  1.0000
  H   H2094     1.0  0.40855  0.46373  0.17333  1.0000
  H   H2095     1.0  0.39029  0.12736  0.21766  1.0000
  C   C1194     1.0  0.58941  0.14710  0.18001  1.0000
  S   S265      1.0  0.60398  0.20395  0.06483  1.0000
  H   H2096     1.0  0.40871  0.16365  0.13763  1.0000
  H   H2097     1.0  0.41161  0.18630  0.13533  1.0000
  H   H2098     1.0  0.40915  0.19935  0.15960  1.0000
  Fe  Fe127     1.0  0.58672  0.20634  0.09316  1.0000
  H   H2099     1.0  0.32625  0.46500  0.19736  1.0000
  H   H2100     1.0  0.44127  0.17526  0.13592  1.0000
  H   H2101     1.0  0.43860  0.18657  0.15462  1.0000
  H   H2102     1.0  0.49128  0.23370  0.18683  1.0000
  C   C1195     1.0  0.39165  0.00984  0.20221  1.0000
  H   H2103     1.0  0.37422  0.44961  0.16631  1.0000
  H   H2104     1.0  0.47395  0.23185  0.98551  1.0000
  C   C1196     1.0  0.57236  0.04782  0.18983  1.0000
  H   H2105     1.0  0.47048  0.17234  0.14518  1.0000
  H   H2106     1.0  0.46166  0.16084  0.16800  1.0000
  H   H2107     1.0  0.46489  0.15018  0.14859  1.0000
  H   H2108     1.0  0.38765  0.17654  0.11545  1.0000
  H   H2109     1.0  0.36720  0.19345  0.12114  1.0000
  H   H2110     1.0  0.38919  0.19991  0.11462  1.0000
  H   H2111     1.0  0.35309  0.11334  0.00490  1.0000
  Fe  Fe128     1.0  0.58661  0.30138  0.22947  1.0000
  H   H2112     1.0  0.52697  0.15815  0.17071  1.0000
  H   H2113     1.0  0.35804  0.42273  0.15446  1.0000
  C   C1197     1.0  0.51465  0.15486  0.21194  1.0000
  H   H2114     1.0  0.54531  0.06065  0.18524  1.0000
  C   C1198     1.0  0.47411  0.20958  0.00937  1.0000
  C   C1199     1.0  0.51622  0.19740  0.16047  1.0000
  C   C1200     1.0  0.52623  0.05425  0.16399  1.0000
  H   H2115     1.0  0.41681  0.42363  0.19392  1.0000
  H   H2116     1.0  0.35879  0.44618  0.14302  1.0000
  C   C1201     1.0  0.46646  0.22455  0.02078  1.0000
  H   H2117     1.0  0.56642  0.22898  0.22021  1.0000
  C   C1202     1.0  0.37481  0.42143  0.18276  1.0000
  S   S266      1.0  0.48042  0.28469  0.22773  1.0000
  C   C1203     1.0  0.49947  0.07682  0.15159  1.0000
  C   C1204     1.0  0.62876  0.25095  0.09224  1.0000
  C   C1205     1.0  0.64621  0.42116  0.16253  1.0000
  H   H2118     1.0  0.53170  0.02742  0.14435  1.0000
  C   C1206     1.0  0.53580  0.14906  0.21001  1.0000
  C   C1207     1.0  0.51645  0.18412  0.17900  1.0000
  H   H2119     1.0  0.38102  0.25291  0.20379  1.0000
  H   H2120     1.0  0.36616  0.41101  0.18560  1.0000
  H   H2121     1.0  0.46609  0.19857  0.01529  1.0000
  H   H2122     1.0  0.48838  0.20347  0.01095  1.0000
  H   H2123     1.0  0.53989  0.13381  0.21340  1.0000
  H   H2124     1.0  0.62794  0.22021  0.22415  1.0000
  H   H2125     1.0  0.39747  0.18346  0.20027  1.0000
  S   S267      1.0  0.57641  0.32957  0.21395  1.0000
  C   C1208     1.0  0.58206  0.15842  0.08414  1.0000
  H   H2126     1.0  0.52801  0.12045  0.05231  1.0000
  H   H2127     1.0  0.49904  0.17357  0.12612  1.0000
  H   H2128     1.0  0.50818  0.15946  0.09705  1.0000
  H   H2129     1.0  0.50758  0.19379  0.12469  1.0000
  H   H2130     1.0  0.48231  0.14649  0.21478  1.0000
  H   H2131     1.0  0.46694  0.21846  0.03540  1.0000
  H   H2132     1.0  0.47475  0.23538  0.01609  1.0000
  H   H2133     1.0  0.45199  0.23086  0.01978  1.0000
  Fe  Fe129     1.0  0.41897  0.09097  0.19409  1.0000
  H   H2134     1.0  0.48899  0.07860  0.14334  1.0000
  C   C1209     1.0  0.55613  0.00829  0.15032  1.0000
  C   C1210     1.0  0.55182  0.16530  0.07375  1.0000
  H   H2135     1.0  0.56061  0.16188  0.06061  1.0000
  H   H2136     1.0  0.63403  0.18219  0.12240  1.0000
  Fe  Fe130     1.0  0.42362  0.30887  0.19634  1.0000
  H   H2137     1.0  0.63457  0.41423  0.16963  1.0000
  C   C1211     1.0  0.58323  0.00249  0.22640  1.0000
  C   C1212     1.0  0.62155  0.24795  0.17690  1.0000
  H   H2138     1.0  0.37492  0.17312  0.14939  1.0000
  N   N68       1.0  0.63902  0.23335  0.08565  1.0000
  H   H2139     1.0  0.50789  0.11429  0.06833  1.0000
  N   N69       1.0  0.54109  0.23922  0.19496  1.0000
  C   C1213     1.0  0.55267  0.24993  0.17906  1.0000
  C   C1214     1.0  0.54811  0.21871  0.19588  1.0000
  C   C1215     1.0  0.52189  0.24399  0.19131  1.0000
  C   C1216     1.0  0.54014  0.24417  0.21305  1.0000
  C   C1217     1.0  0.55856  0.24332  0.21808  1.0000
  C   C1218     1.0  0.54678  0.27127  0.17576  1.0000
  C   C1219     1.0  0.50784  0.23381  0.20595  1.0000
  C   C1220     1.0  0.56906  0.21184  0.18953  1.0000
  H   H2140     1.0  0.58197  0.17333  0.08149  1.0000
  C   C1221     1.0  0.53942  0.27944  0.15808  1.0000
  C   C1222     1.0  0.48953  0.23801  0.20004  1.0000
  H   H2141     1.0  0.55356  0.24528  0.16616  1.0000
  H   H2142     1.0  0.56704  0.24673  0.18076  1.0000
  H   H2143     1.0  0.54387  0.21088  0.21004  1.0000
  H   H2144     1.0  0.54178  0.21375  0.18699  1.0000
  H   H2145     1.0  0.52219  0.24125  0.17762  1.0000
  H   H2146     1.0  0.51595  0.25893  0.19049  1.0000
  H   H2147     1.0  0.53156  0.25811  0.21379  1.0000
  C   C1223     1.0  0.41653  0.45190  0.18166  1.0000
  H   H2148     1.0  0.56692  0.25223  0.20739  1.0000
  C   C1224     1.0  0.48052  0.08725  0.22357  1.0000
  H   H2149     1.0  0.53647  0.27625  0.18726  1.0000
  H   H2150     1.0  0.55889  0.27722  0.17451  1.0000
  H   H2151     1.0  0.41025  0.39851  0.19164  1.0000
  H   H2152     1.0  0.51280  0.21869  0.20837  1.0000
  H   H2153     1.0  0.57320  0.21652  0.17445  1.0000
  C   C1225     1.0  0.64760  0.18260  0.11311  1.0000
  H   H2154     1.0  0.44469  0.02113  0.21091  1.0000
  H   H2155     1.0  0.52140  0.98726  0.19169  1.0000
  H   H2156     1.0  0.52694  0.27445  0.15871  1.0000
  H   H2157     1.0  0.53587  0.29467  0.15618  1.0000
  H   H2158     1.0  0.54999  0.27575  0.14600  1.0000
  H   H2159     1.0  0.33269  0.45584  0.11373  1.0000
  H   H2160     1.0  0.42295  0.20998  0.17895  1.0000
  C   C1226     1.0  0.35849  0.37270  0.20399  1.0000
  S   S268      1.0  0.41068  0.33509  0.17871  1.0000
  H   H2161     1.0  0.61798  0.24261  0.12155  1.0000
  H   H2162     1.0  0.64257  0.16950  0.19686  1.0000
  H   H2163     1.0  0.37762  0.19610  0.14807  1.0000
  H   H2164     1.0  0.64340  0.33071  0.21408  1.0000
  C   C1227     1.0  0.56688  0.12946  0.17016  1.0000
  C   C1228     1.0  0.46423  0.00020  0.22496  1.0000
  N   N70       1.0  0.53846  0.03529  0.16678  1.0000
  S   S269      1.0  0.43527  0.06207  0.19571  1.0000
  C   C1229     1.0  0.57493  0.12125  0.18545  1.0000
  C   C1230     1.0  0.60404  0.19793  0.03101  1.0000
  C   C1231     1.0  0.38486  0.40637  0.21214  1.0000
  H   H2165     1.0  0.38253  0.01506  0.19261  1.0000
  H   H2166     1.0  0.52216  0.17133  0.12898  1.0000
  H   H2167     1.0  0.50511  0.23842  0.21915  1.0000
  H   H2168     1.0  0.61880  0.19556  0.02881  1.0000
  C   C1232     1.0  0.56986  0.14663  0.15992  1.0000
  H   H2169     1.0  0.57284  0.10790  0.19297  1.0000
  H   H2170     1.0  0.37375  0.39874  0.21976  1.0000
  H   H2171     1.0  0.61055  0.19880  0.21658  1.0000
  H   H2172     1.0  0.59738  0.26658  0.16910  1.0000
  C   C1233     1.0  0.41120  0.20622  0.18980  1.0000
  H   H2173     1.0  0.56399  0.04500  0.15867  1.0000
  C   C1234     1.0  0.64376  0.38222  0.20948  1.0000
  C   C1235     1.0  0.63260  0.35853  0.20181  1.0000
  S   S270      1.0  0.44388  0.26273  0.22529  1.0000
  H   H2174     1.0  0.61593  0.22994  0.07677  1.0000
  S   S271      1.0  0.59689  0.18616  0.11685  1.0000
  H   H2175     1.0  0.56624  0.18503  0.18709  1.0000
  H   H2176     1.0  0.41707  0.45577  0.19447  1.0000
  H   H2177     1.0  0.38806  0.19455  0.17245  1.0000
  Fe  Fe131     1.0  0.56779  0.18381  0.12830  1.0000
  H   H2178     1.0  0.38809  0.41542  0.17465  1.0000
  S   S272      1.0  0.43776  0.10121  0.20535  1.0000
  Fe  Fe132     1.0  0.45253  0.07157  0.20935  1.0000
  H   H2179     1.0  0.36635  0.10695  0.02259  1.0000
  C   C1236     1.0  0.57421  0.19086  0.19357  1.0000
  H   H2180     1.0  0.55571  0.16022  0.10212  1.0000
  H   H2181     1.0  0.39041  0.19257  0.22918  1.0000
  H   H2182     1.0  0.45533  0.00196  0.19983  1.0000
  Fe  Fe133     1.0  0.60875  0.28793  0.19515  1.0000
  C   C1237     1.0  0.38432  0.34676  0.20773  1.0000
  H   H2183     1.0  0.60416  0.19266  0.00456  1.0000
  Fe  Fe134     1.0  0.45510  0.28847  0.21625  1.0000
  S   S273      1.0  0.60068  0.31501  0.17667  1.0000
  H   H2184     1.0  0.39217  0.33627  0.21665  1.0000
  S   S274      1.0  0.41054  0.28422  0.20357  1.0000
  Fe  Fe135     1.0  0.60558  0.32769  0.19806  1.0000
  H   H2185     1.0  0.51128  0.12339  0.20783  1.0000
  S   S275      1.0  0.55908  0.15706  0.14131  1.0000
  H   H2186     1.0  0.55848  0.12244  0.16618  1.0000
  H   H2187     1.0  0.39869  0.21702  0.18815  1.0000
  H   H2188     1.0  0.51910  0.21065  0.16113  1.0000
  H   H2189     1.0  0.56978  0.00808  0.15270  1.0000
  H   H2190     1.0  0.53466  0.06491  0.15739  1.0000
  Fe  Fe136     1.0  0.59002  0.21008  0.13097  1.0000
  C   C1238     1.0  0.60606  0.25309  0.16887  1.0000
  C   C1239     1.0  0.62901  0.21853  0.16765  1.0000
  C   C1240     1.0  0.38548  0.13634  0.20530  1.0000
  C   C1241     1.0  0.40852  0.18758  0.18864  1.0000
  C   C1242     1.0  0.62750  0.25142  0.11260  1.0000
  C   C1243     1.0  0.51132  0.17983  0.12148  1.0000
  S   S276      1.0  0.39985  0.08472  0.22137  1.0000
  H   H2191     1.0  0.54199  0.13194  0.08352  1.0000
  H   H2192     1.0  0.63455  0.26290  0.08344  1.0000
  C   C1244     1.0  0.40717  0.01524  0.22368  1.0000
  S   S277      1.0  0.61871  0.35294  0.18969  1.0000
  C   C1245     1.0  0.55934  0.00169  0.13236  1.0000
  H   H2193     1.0  0.56493  0.02341  0.17434  1.0000
  C   C1246     1.0  0.65392  0.35021  0.22249  1.0000
  H   H2194     1.0  0.53106  0.07157  0.22888  1.0000
  C   C1247     1.0  0.54250  0.15660  0.22314  1.0000
  H   H2195     1.0  0.63737  0.19411  0.08827  1.0000
  H   H2196     1.0  0.55111  0.03740  0.13798  1.0000
  H   H2197     1.0  0.35543  0.02614  0.22552  1.0000
  C   C1248     1.0  0.41401  0.99630  0.22805  1.0000
  H   H2198     1.0  0.61936  0.25681  0.02878  1.0000
  H   H2199     1.0  0.39561  0.25196  0.22935  1.0000
  C   C1249     1.0  0.55395  0.99601  0.22665  1.0000
  H   H2200     1.0  0.60467  0.24517  0.04793  1.0000
  H   H2201     1.0  0.49734  0.99467  0.19184  1.0000
  S   S278      1.0  0.56512  0.08223  0.22306  1.0000
  H   H2202     1.0  0.54009  0.30042  0.21888  1.0000
  C   C1250     1.0  0.55373  0.04651  0.18732  1.0000
  C   C1251     1.0  0.40866  0.37648  0.21515  1.0000
  H   H2203     1.0  0.54724  0.03834  0.20026  1.0000
  C   C1252     1.0  0.55596  0.03715  0.17099  1.0000
  H   H2204     1.0  0.50411  0.22566  0.99336  1.0000
  H   H2205     1.0  0.56828  0.98776  0.13342  1.0000
  C   C1253     1.0  0.51370  0.29363  0.22264  1.0000
  H   H2206     1.0  0.58144  0.03400  0.19192  1.0000
  H   H2207     1.0  0.62070  0.18081  0.19069  1.0000
  H   H2208     1.0  0.38996  0.22254  0.22322  1.0000
  H   H2209     1.0  0.44872  0.19185  0.20771  1.0000
  H   H2210     1.0  0.45283  0.20899  0.22810  1.0000
  C   C1254     1.0  0.64594  0.19772  0.09595  1.0000
  H   H2211     1.0  0.48104  0.18084  0.21329  1.0000
  H   H2212     1.0  0.39010  0.44008  0.21137  1.0000
  H   H2213     1.0  0.49421  0.14861  0.99035  1.0000
  C   C1255     1.0  0.51269  0.01640  0.18044  1.0000
  H   H2214     1.0  0.39828  0.36979  0.22576  1.0000
  H   H2215     1.0  0.55757  0.15164  0.22171  1.0000
  H   H2216     1.0  0.35887  0.25378  0.21941  1.0000
  H   H2217     1.0  0.34804  0.05765  0.23073  1.0000
  H   H2218     1.0  0.64576  0.42599  0.14772  1.0000
  H   H2219     1.0  0.65316  0.16903  0.10908  1.0000
  H   H2220     1.0  0.53952  0.17186  0.21985  1.0000
  H   H2221     1.0  0.53661  0.21087  0.98532  1.0000
  C   C1256     1.0  0.52950  0.02243  0.18290  1.0000
  C   C1257     1.0  0.39807  0.99080  0.20713  1.0000
  C   C1258     1.0  0.65431  0.36878  0.22074  1.0000
  C   C1259     1.0  0.47288  0.21722  0.98888  1.0000
  C   C1260     1.0  0.37259  0.25723  0.21664  1.0000
  H   H2222     1.0  0.58291  0.36948  0.20938  1.0000
  H   H2223     1.0  0.43074  0.44881  0.17361  1.0000
  C   C1261     1.0  0.58071  0.37964  0.21816  1.0000
  C   C1262     1.0  0.64325  0.34507  0.21296  1.0000
  H   H2224     1.0  0.41692  0.38154  0.22199  1.0000
  H   H2225     1.0  0.45217  0.17033  0.22380  1.0000
  H   H2226     1.0  0.40365  0.14173  0.98349  1.0000
  H   H2227     1.0  0.53292  0.23487  0.22459  1.0000
  H   H2228     1.0  0.41933  0.21493  0.22730  1.0000
  H   H2229     1.0  0.46629  0.09128  0.22279  1.0000
  C   C1263     1.0  0.51706  0.07619  0.22714  1.0000
  C   C1264     1.0  0.57306  0.99137  0.22296  1.0000
  H   H2230     1.0  0.39078  0.40888  0.22286  1.0000
  S   S279      1.0  0.42783  0.30674  0.22475  1.0000
  H   H2231     1.0  0.36483  0.35750  0.23008  1.0000
  C   C1265     1.0  0.35632  0.43264  0.23138  1.0000
  H   H2232     1.0  0.61809  0.25235  0.22959  1.0000
  H   H2233     1.0  0.62669  0.15743  0.22846  1.0000
  Fe  Fe137     1.0  0.41660  0.28112  0.23140  1.0000
  H   H2234     1.0  0.63461  0.25213  0.26714  1.0000
  H   H2235     1.0  0.54785  0.33093  0.27238  1.0000
  H   H2236     1.0  0.53782  0.08718  0.32788  1.0000
  C   C1266     1.0  0.45531  0.00662  0.26917  1.0000
  H   H2237     1.0  0.65541  0.23374  0.36722  1.0000
  H   H2238     1.0  0.45862  0.00338  0.28305  1.0000
  C   C1267     1.0  0.63851  0.30524  0.25631  1.0000
  H   H2239     1.0  0.35145  0.20845  0.41373  1.0000
  H   H2240     1.0  0.34778  0.27468  0.34697  1.0000
  S   S280      1.0  0.40968  0.10832  0.25628  1.0000
  C   C1268     1.0  0.38213  0.24797  0.23277  1.0000
  S   S281      1.0  0.43655  0.06387  0.23781  1.0000
  S   S282      1.0  0.55277  0.06704  0.26776  1.0000
  H   H2241     1.0  0.42890  0.99375  0.29914  1.0000
  H   H2242     1.0  0.59718  0.35519  0.28693  1.0000
  Fe  Fe138     1.0  0.57507  0.19196  0.33841  1.0000
  S   S283      1.0  0.54423  0.20198  0.34406  1.0000
  H   H2243     1.0  0.60987  0.38200  0.25077  1.0000
  H   H2244     1.0  0.52783  0.08250  0.29949  1.0000
  H   H2245     1.0  0.42211  0.99072  0.23851  1.0000
  H   H2246     1.0  0.40483  0.21697  0.39574  1.0000
  H   H2247     1.0  0.39939  0.22901  0.36386  1.0000
  C   C1269     1.0  0.61233  0.24370  0.28839  1.0000
  H   H2248     1.0  0.40427  0.15904  0.25710  1.0000
  C   C1270     1.0  0.48708  0.09521  0.29384  1.0000
  H   H2249     1.0  0.35045  0.12859  0.39241  1.0000
  S   S284      1.0  0.62743  0.17611  0.32563  1.0000
  Fe  Fe139     1.0  0.44467  0.16644  0.30467  1.0000
  S   S285      1.0  0.44800  0.14470  0.32993  1.0000
  S   S286      1.0  0.45124  0.16002  0.27615  1.0000
  Fe  Fe140     1.0  0.43570  0.19712  0.32612  1.0000
  S   S287      1.0  0.43869  0.17776  0.35294  1.0000
  S   S288      1.0  0.42650  0.22704  0.32703  1.0000
  Fe  Fe141     1.0  0.46364  0.16289  0.33600  1.0000
  S   S289      1.0  0.49143  0.15126  0.34373  1.0000
  Fe  Fe142     1.0  0.42268  0.16185  0.34439  1.0000
  S   S290      1.0  0.39707  0.15170  0.36155  1.0000
  S   S291      1.0  0.46185  0.18364  0.30981  1.0000
  S   S292      1.0  0.41821  0.18231  0.31839  1.0000
  H   H2250     1.0  0.63873  0.29994  0.27113  1.0000
  C   C1271     1.0  0.34394  0.10158  0.40739  1.0000
  H   H2251     1.0  0.36750  0.11417  0.40452  1.0000
  Fe  Fe143     1.0  0.54357  0.09122  0.24648  1.0000
  C   C1272     1.0  0.38586  0.15800  0.38287  1.0000
  C   C1273     1.0  0.36680  0.15946  0.38849  1.0000
  C   C1274     1.0  0.35755  0.16361  0.40575  1.0000
  C   C1275     1.0  0.36733  0.16624  0.41757  1.0000
  C   C1276     1.0  0.38635  0.16508  0.41181  1.0000
  C   C1277     1.0  0.39558  0.16104  0.39450  1.0000
  H   H2252     1.0  0.35918  0.15747  0.37937  1.0000
  H   H2253     1.0  0.34288  0.16483  0.40991  1.0000
  H   H2254     1.0  0.39401  0.16714  0.42087  1.0000
  H   H2255     1.0  0.41027  0.15988  0.39035  1.0000
  C   C1278     1.0  0.40572  0.26250  0.27645  1.0000
  C   C1279     1.0  0.39825  0.26701  0.29372  1.0000
  C   C1280     1.0  0.40500  0.25623  0.30913  1.0000
  C   C1281     1.0  0.41843  0.24028  0.30752  1.0000
  C   C1282     1.0  0.42555  0.23537  0.29037  1.0000
  C   C1283     1.0  0.41973  0.24693  0.27471  1.0000
  H   H2256     1.0  0.38742  0.27904  0.29509  1.0000
  H   H2257     1.0  0.39960  0.26011  0.32237  1.0000
  H   H2258     1.0  0.43586  0.22296  0.28910  1.0000
  H   H2259     1.0  0.52150  0.27366  0.28606  1.0000
  H   H2260     1.0  0.54829  0.03544  0.24235  1.0000
  H   H2261     1.0  0.38336  0.21112  0.34034  1.0000
  H   H2262     1.0  0.56643  0.11148  0.32527  1.0000
  H   H2263     1.0  0.58802  0.32436  0.28111  1.0000
  C   C1284     1.0  0.58660  0.12848  0.31337  1.0000
  H   H2264     1.0  0.36946  0.04570  0.23727  1.0000
  S   S293      1.0  0.39611  0.27546  0.25762  1.0000
  C   C1285     1.0  0.53013  0.18873  0.34072  1.0000
  C   C1286     1.0  0.51118  0.19571  0.34283  1.0000
  C   C1287     1.0  0.49927  0.18473  0.34240  1.0000
  C   C1288     1.0  0.50623  0.16653  0.34031  1.0000
  C   C1289     1.0  0.52526  0.15985  0.33723  1.0000
  C   C1290     1.0  0.53721  0.17094  0.33735  1.0000
  H   H2265     1.0  0.50568  0.20947  0.34541  1.0000
  H   H2266     1.0  0.48463  0.19001  0.34468  1.0000
  H   H2267     1.0  0.53076  0.14586  0.33532  1.0000
  H   H2268     1.0  0.55182  0.16550  0.33545  1.0000
  H   H2269     1.0  0.53346  0.11143  0.29008  1.0000
  C   C1291     1.0  0.53849  0.05886  0.32908  1.0000
  C   C1292     1.0  0.42259  0.12115  0.26224  1.0000
  C   C1293     1.0  0.43792  0.12685  0.25005  1.0000
  C   C1294     1.0  0.44676  0.13852  0.25462  1.0000
  C   C1295     1.0  0.44042  0.14453  0.27139  1.0000
  C   C1296     1.0  0.42545  0.13838  0.28382  1.0000
  C   C1297     1.0  0.41656  0.12677  0.27922  1.0000
  C   C1298     1.0  0.33919  0.99095  0.27260  1.0000
  H   H2270     1.0  0.45870  0.14273  0.24524  1.0000
  H   H2271     1.0  0.42053  0.14278  0.29683  1.0000
  H   H2272     1.0  0.40472  0.12239  0.28872  1.0000
  C   C1299     1.0  0.46856  0.01278  0.23562  1.0000
  S   S294      1.0  0.62656  0.22484  0.29945  1.0000
  C   C1300     1.0  0.57069  0.16863  0.25821  1.0000
  H   H2273     1.0  0.56949  0.16385  0.27332  1.0000
  H   H2274     1.0  0.62828  0.22207  0.24699  1.0000
  H   H2275     1.0  0.57355  0.19588  0.25764  1.0000
  H   H2276     1.0  0.36423  0.26819  0.32699  1.0000
  H   H2277     1.0  0.50582  0.11292  0.28056  1.0000
  C   C1301     1.0  0.33751  0.22604  0.39199  1.0000
  C   C1302     1.0  0.60045  0.13291  0.29825  1.0000
  H   H2278     1.0  0.54186  0.14440  0.29942  1.0000
  C   C1303     1.0  0.37810  0.21319  0.37909  1.0000
  C   C1304     1.0  0.57901  0.37009  0.23836  1.0000
  H   H2279     1.0  0.35428  0.13004  0.45502  1.0000
  C   C1305     1.0  0.39834  0.21459  0.37050  1.0000
  H   H2280     1.0  0.46987  0.11887  0.35642  1.0000
  C   C1306     1.0  0.48206  0.23618  0.26274  1.0000
  H   H2281     1.0  0.33832  0.00168  0.23501  1.0000
  Fe  Fe144     1.0  0.60561  0.16594  0.31903  1.0000
  C   C1307     1.0  0.57677  0.11534  0.31344  1.0000
  H   H2282     1.0  0.65129  0.15967  0.27881  1.0000
  H   H2283     1.0  0.49000  0.21640  0.24484  1.0000
  S   S295      1.0  0.62438  0.16503  0.37820  1.0000
  Fe  Fe145     1.0  0.57008  0.08500  0.27117  1.0000
  H   H2284     1.0  0.58391  0.13469  0.32520  1.0000
  H   H2285     1.0  0.54563  0.05432  0.34081  1.0000
  H   H2286     1.0  0.32743  0.43102  0.23975  1.0000
  H   H2287     1.0  0.48926  0.05819  0.25884  1.0000
  H   H2288     1.0  0.46656  0.09227  0.28049  1.0000
  H   H2289     1.0  0.48066  0.08843  0.30760  1.0000
  H   H2290     1.0  0.34889  0.04944  0.25473  1.0000
  S   S296      1.0  0.40949  0.02933  0.23753  1.0000
  C   C1308     1.0  0.58229  0.26302  0.28661  1.0000
  H   H2291     1.0  0.57762  0.15678  0.25140  1.0000
  H   H2292     1.0  0.34757  0.09926  0.45639  1.0000
  C   C1309     1.0  0.64245  0.16375  0.25300  1.0000
  H   H2293     1.0  0.50600  0.11087  0.33608  1.0000
  H   H2294     1.0  0.61318  0.20377  0.38107  1.0000
  H   H2295     1.0  0.62583  0.22274  0.39475  1.0000
  C   C1310     1.0  0.53398  0.14687  0.28846  1.0000
  H   H2296     1.0  0.37710  0.19808  0.31712  1.0000
  C   C1311     1.0  0.37316  0.20525  0.35202  1.0000
  H   H2297     1.0  0.32694  0.05307  0.44620  1.0000
  S   S297      1.0  0.59007  0.19407  0.30910  1.0000
  C   C1312     1.0  0.59343  0.24751  0.29531  1.0000
  H   H2298     1.0  0.62719  0.18528  0.26799  1.0000
  H   H2299     1.0  0.38458  0.99276  0.27293  1.0000
  H   H2300     1.0  0.34262  0.99353  0.28480  1.0000
  H   H2301     1.0  0.52901  0.04955  0.33075  1.0000
  H   H2302     1.0  0.35266  0.08794  0.41182  1.0000
  C   C1313     1.0  0.60074  0.17786  0.25598  1.0000
  H   H2303     1.0  0.35207  0.23589  0.30086  1.0000
  C   C1314     1.0  0.51788  0.08557  0.31222  1.0000
  H   H2304     1.0  0.50984  0.14095  0.28424  1.0000
  C   C1315     1.0  0.52794  0.07870  0.32859  1.0000
  N   N71       1.0  0.50855  0.10564  0.30907  1.0000
  H   H2305     1.0  0.48987  0.12587  0.32363  1.0000
  C   C1316     1.0  0.60382  0.12485  0.28294  1.0000
  C   C1317     1.0  0.47195  0.10340  0.28284  1.0000
  H   H2306     1.0  0.38166  0.16576  0.25193  1.0000
  C   C1318     1.0  0.62488  0.19764  0.38747  1.0000
  C   C1319     1.0  0.61046  0.37453  0.26506  1.0000
  C   C1320     1.0  0.51740  0.13768  0.29554  1.0000
  H   H2307     1.0  0.59323  0.39807  0.27636  1.0000
  N   N72       1.0  0.33018  0.10798  0.42362  1.0000
  H   H2308     1.0  0.47725  0.11164  0.26931  1.0000
  H   H2309     1.0  0.37326  0.22227  0.38930  1.0000
  H   H2310     1.0  0.49709  0.08446  0.28702  1.0000
  C   C1321     1.0  0.63126  0.18354  0.25339  1.0000
  C   C1322     1.0  0.62853  0.25016  0.33831  1.0000
  H   H2311     1.0  0.37089  0.12762  0.43391  1.0000
  C   C1323     1.0  0.59372  0.11206  0.28286  1.0000
  C   C1324     1.0  0.44073  0.99577  0.26986  1.0000
  H   H2312     1.0  0.47023  0.10495  0.32982  1.0000
  C   C1325     1.0  0.36496  0.23773  0.35598  1.0000
  S   S298      1.0  0.57592  0.29368  0.25990  1.0000
  C   C1326     1.0  0.60694  0.38897  0.27675  1.0000
  C   C1327     1.0  0.47465  0.10392  0.35657  1.0000
  C   C1328     1.0  0.63277  0.17902  0.38808  1.0000
  H   H2313     1.0  0.53173  0.11478  0.31254  1.0000
  H   H2314     1.0  0.46319  0.29476  0.28006  1.0000
  H   H2315     1.0  0.54897  0.05783  0.31622  1.0000
  H   H2316     1.0  0.59944  0.01735  0.29387  1.0000
  H   H2317     1.0  0.48678  0.08539  0.33814  1.0000
  H   H2318     1.0  0.50814  0.07637  0.31486  1.0000
  H   H2319     1.0  0.34798  0.19970  0.38305  1.0000
  H   H2320     1.0  0.50848  0.14405  0.30701  1.0000
  H   H2321     1.0  0.60840  0.01657  0.26998  1.0000
  H   H2322     1.0  0.51797  0.07906  0.34183  1.0000
  H   H2323     1.0  0.37650  0.09355  0.38187  1.0000
  H   H2324     1.0  0.56771  0.26610  0.29210  1.0000
  C   C1329     1.0  0.54507  0.01214  0.23329  1.0000
  H   H2325     1.0  0.61837  0.33026  0.27650  1.0000
  H   H2326     1.0  0.33623  0.24588  0.35247  1.0000
  H   H2327     1.0  0.65360  0.15679  0.39761  1.0000
  C   C1330     1.0  0.35022  0.24649  0.34420  1.0000
  H   H2328     1.0  0.34923  0.21167  0.33865  1.0000
  C   C1331     1.0  0.56434  0.34575  0.28027  1.0000
  C   C1332     1.0  0.58997  0.27436  0.27067  1.0000
  C   C1333     1.0  0.57437  0.01823  0.23370  1.0000
  H   H2329     1.0  0.33525  0.02956  0.24305  1.0000
  S   S299      1.0  0.35646  0.17102  0.43958  1.0000
  H   H2330     1.0  0.58742  0.23869  0.30752  1.0000
  N   N73       1.0  0.53288  0.15000  0.39406  1.0000
  C   C1334     1.0  0.54787  0.16096  0.38685  1.0000
  C   C1335     1.0  0.53542  0.13573  0.38264  1.0000
  C   C1336     1.0  0.51488  0.16328  0.39222  1.0000
  C   C1337     1.0  0.53185  0.14106  0.41408  1.0000
  C   C1338     1.0  0.54968  0.12840  0.41926  1.0000
  C   C1339     1.0  0.54681  0.17630  0.39715  1.0000
  C   C1340     1.0  0.49772  0.15459  0.39649  1.0000
  C   C1341     1.0  0.55530  0.12738  0.37376  1.0000
  C   C1342     1.0  0.55572  0.11110  0.36551  1.0000
  C   C1343     1.0  0.54735  0.12184  0.44008  1.0000
  C   C1344     1.0  0.56360  0.18512  0.38973  1.0000
  C   C1345     1.0  0.48049  0.16941  0.39417  1.0000
  H   H2331     1.0  0.54799  0.16754  0.37214  1.0000
  H   H2332     1.0  0.56163  0.15199  0.38689  1.0000
  H   H2333     1.0  0.52852  0.12424  0.39077  1.0000
  H   H2334     1.0  0.52847  0.14168  0.37082  1.0000
  H   H2335     1.0  0.51590  0.17172  0.37801  1.0000
  H   H2336     1.0  0.51169  0.17321  0.40148  1.0000
  H   H2337     1.0  0.52700  0.15163  0.42280  1.0000
  H   H2338     1.0  0.52135  0.13238  0.41877  1.0000
  H   H2339     1.0  0.56137  0.13552  0.41460  1.0000
  H   H2340     1.0  0.55308  0.11598  0.41321  1.0000
  H   H2341     1.0  0.53461  0.18742  0.39532  1.0000
  H   H2342     1.0  0.54628  0.17076  0.41203  1.0000
  H   H2343     1.0  0.49528  0.14677  0.41083  1.0000
  H   H2344     1.0  0.49918  0.14520  0.38711  1.0000
  H   H2345     1.0  0.56101  0.13788  0.36241  1.0000
  H   H2346     1.0  0.56452  0.12258  0.38368  1.0000
  H   H2347     1.0  0.55108  0.09971  0.37643  1.0000
  H   H2348     1.0  0.54676  0.11534  0.35527  1.0000
  H   H2349     1.0  0.56995  0.10598  0.35847  1.0000
  C   C1346     1.0  0.44958  0.20814  0.24318  1.0000
  H   H2350     1.0  0.47878  0.10828  0.23819  1.0000
  C   C1347     1.0  0.32524  0.09127  0.43765  1.0000
  H   H2351     1.0  0.57643  0.17473  0.39123  1.0000
  H   H2352     1.0  0.56426  0.19168  0.37502  1.0000
  H   H2353     1.0  0.56264  0.19590  0.39741  1.0000
  H   H2354     1.0  0.46849  0.16286  0.39710  1.0000
  H   H2355     1.0  0.47783  0.17888  0.40378  1.0000
  H   H2356     1.0  0.48195  0.17746  0.37986  1.0000
  H   H2357     1.0  0.35150  0.19027  0.35485  1.0000
  H   H2358     1.0  0.62459  0.36650  0.26537  1.0000
  H   H2359     1.0  0.47016  0.24302  0.25611  1.0000
  C   C1348     1.0  0.35332  0.10750  0.44300  1.0000
  H   H2360     1.0  0.60583  0.24433  0.33012  1.0000
  C   C1349     1.0  0.60627  0.20910  0.24618  1.0000
  N   N74       1.0  0.36545  0.21793  0.36570  1.0000
  H   H2361     1.0  0.34006  0.27267  0.32745  1.0000
  H   H2362     1.0  0.60584  0.16315  0.25520  1.0000
  H   H2363     1.0  0.55671  0.17365  0.25521  1.0000
  C   C1350     1.0  0.59376  0.99476  0.28547  1.0000
  C   C1351     1.0  0.33647  0.44010  0.24005  1.0000
  C   C1352     1.0  0.55027  0.33350  0.28509  1.0000
  C   C1353     1.0  0.61626  0.33494  0.26207  1.0000
  H   H2364     1.0  0.60095  0.21028  0.26087  1.0000
  C   C1354     1.0  0.58052  0.10693  0.29831  1.0000
  H   H2365     1.0  0.62743  0.34232  0.25434  1.0000
  H   H2366     1.0  0.38109  0.19194  0.35841  1.0000
  H   H2367     1.0  0.59794  0.34516  0.23402  1.0000
  C   C1355     1.0  0.61923  0.22296  0.23748  1.0000
  H   H2368     1.0  0.49361  0.24322  0.25568  1.0000
  H   H2369     1.0  0.36684  0.25083  0.28614  1.0000
  H   H2370     1.0  0.46051  0.11237  0.29054  1.0000
  H   H2371     1.0  0.60866  0.36249  0.23480  1.0000
  H   H2372     1.0  0.48854  0.00847  0.27208  1.0000
  C   C1356     1.0  0.35066  0.26674  0.33595  1.0000
  H   H2373     1.0  0.60940  0.30907  0.26057  1.0000
  C   C1357     1.0  0.48772  0.21641  0.25970  1.0000
  H   H2374     1.0  0.44811  0.02129  0.26717  1.0000
  H   H2375     1.0  0.60132  0.24639  0.35386  1.0000
  C   C1358     1.0  0.48190  0.10041  0.33703  1.0000
  H   H2376     1.0  0.46294  0.09701  0.36337  1.0000
  H   H2377     1.0  0.33155  0.45423  0.23262  1.0000
  C   C1359     1.0  0.36616  0.23629  0.29274  1.0000
  C   C1360     1.0  0.35924  0.19969  0.34400  1.0000
  H   H2378     1.0  0.56849  0.24885  0.23980  1.0000
  H   H2379     1.0  0.34224  0.13077  0.42343  1.0000
  H   H2380     1.0  0.49926  0.01109  0.24835  1.0000
  S   S300      1.0  0.56918  0.08948  0.29919  1.0000
  C   C1361     1.0  0.60881  0.27028  0.26360  1.0000
  C   C1362     1.0  0.47957  0.03499  0.25622  1.0000
  N   N75       1.0  0.47353  0.25495  0.28863  1.0000
  C   C1363     1.0  0.47680  0.23647  0.28356  1.0000
  C   C1364     1.0  0.46666  0.25332  0.30921  1.0000
  C   C1365     1.0  0.45868  0.26773  0.27925  1.0000
  C   C1366     1.0  0.49039  0.26329  0.28208  1.0000
  C   C1367     1.0  0.50837  0.25116  0.28741  1.0000
  C   C1368     1.0  0.36856  0.10782  0.37867  1.0000
  C   C1369     1.0  0.45189  0.28712  0.28409  1.0000
  C   C1370     1.0  0.47343  0.23483  0.32191  1.0000
  C   C1371     1.0  0.46710  0.23623  0.34215  1.0000
  C   C1372     1.0  0.52416  0.26143  0.27981  1.0000
  H   H2381     1.0  0.37596  0.23110  0.30217  1.0000
  C   C1373     1.0  0.43689  0.29857  0.27378  1.0000
  H   H2382     1.0  0.46423  0.23059  0.28925  1.0000
  H   H2383     1.0  0.48763  0.22644  0.29008  1.0000
  H   H2384     1.0  0.46965  0.26464  0.31389  1.0000
  H   H2385     1.0  0.45142  0.25509  0.31274  1.0000
  H   H2386     1.0  0.44652  0.26137  0.28242  1.0000
  H   H2387     1.0  0.49310  0.26791  0.26684  1.0000
  C   C1374     1.0  0.49708  0.11129  0.32656  1.0000
  H   H2388     1.0  0.48806  0.27602  0.28747  1.0000
  H   H2389     1.0  0.51238  0.23841  0.28181  1.0000
  H   H2390     1.0  0.50694  0.24764  0.30251  1.0000
  H   H2391     1.0  0.37031  0.22360  0.24101  1.0000
  H   H2392     1.0  0.40132  0.15856  0.23480  1.0000
  H   H2393     1.0  0.48556  0.09839  0.36474  1.0000
  H   H2394     1.0  0.44616  0.28626  0.29900  1.0000
  H   H2395     1.0  0.46762  0.22373  0.32006  1.0000
  H   H2396     1.0  0.48850  0.23041  0.31904  1.0000
  H   H2397     1.0  0.47132  0.22265  0.35095  1.0000
  H   H2398     1.0  0.47336  0.24640  0.34511  1.0000
  H   H2399     1.0  0.45192  0.24033  0.34573  1.0000
  H   H2400     1.0  0.52600  0.26602  0.26467  1.0000
  H   H2401     1.0  0.35290  0.23953  0.33256  1.0000
  H   H2402     1.0  0.53711  0.25226  0.28308  1.0000
  C   C1375     1.0  0.34692  0.21461  0.37674  1.0000
  H   H2403     1.0  0.55515  0.32007  0.29382  1.0000
  H   H2404     1.0  0.53602  0.11419  0.44558  1.0000
  H   H2405     1.0  0.42506  0.29169  0.27719  1.0000
  C   C1376     1.0  0.49711  0.11010  0.29455  1.0000
  H   H2406     1.0  0.44237  0.30066  0.25873  1.0000
  N   N76       1.0  0.39610  0.21594  0.25035  1.0000
  C   C1377     1.0  0.48579  0.01383  0.25798  1.0000
  H   H2407     1.0  0.35933  0.10844  0.36944  1.0000
  C   C1378     1.0  0.39080  0.22378  0.26751  1.0000
  C   C1379     1.0  0.39361  0.19632  0.25553  1.0000
  C   C1380     1.0  0.42450  0.99902  0.28576  1.0000
  C   C1381     1.0  0.43059  0.20373  0.25174  1.0000
  C   C1382     1.0  0.37069  0.22460  0.27812  1.0000
  C   C1383     1.0  0.36887  0.18948  0.32836  1.0000
  C   C1384     1.0  0.35029  0.02814  0.23992  1.0000
  H   H2408     1.0  0.63455  0.25619  0.32399  1.0000
  H   H2409     1.0  0.36078  0.23066  0.26892  1.0000
  H   H2410     1.0  0.36323  0.09791  0.43475  1.0000
  H   H2411     1.0  0.54443  0.13371  0.44693  1.0000
  Fe  Fe146     1.0  0.42016  0.09266  0.23293  1.0000
  C   C1385     1.0  0.35016  0.99104  0.23894  1.0000
  H   H2412     1.0  0.39346  0.23786  0.26415  1.0000
  H   H2413     1.0  0.39950  0.21581  0.27754  1.0000
  H   H2414     1.0  0.40122  0.18827  0.26653  1.0000
  H   H2415     1.0  0.37898  0.19578  0.26160  1.0000
  H   H2416     1.0  0.45032  0.22141  0.24594  1.0000
  H   H2417     1.0  0.59665  0.10566  0.27112  1.0000
  H   H2418     1.0  0.42769  0.20433  0.26648  1.0000
  C   C1386     1.0  0.60847  0.24273  0.23408  1.0000
  H   H2419     1.0  0.36854  0.21057  0.28519  1.0000
  H   H2420     1.0  0.64374  0.19204  0.34780  1.0000
  H   H2421     1.0  0.62970  0.25846  0.34769  1.0000
  H   H2422     1.0  0.37801  0.17646  0.33344  1.0000
  Fe  Fe147     1.0  0.57602  0.05946  0.24472  1.0000
  H   H2423     1.0  0.64933  0.16250  0.23867  1.0000
  H   H2424     1.0  0.46007  0.19712  0.24929  1.0000
  H   H2425     1.0  0.41389  0.99175  0.28549  1.0000
  C   C1387     1.0  0.60805  0.25192  0.33962  1.0000
  C   C1388     1.0  0.41008  0.20837  0.38511  1.0000
  H   H2426     1.0  0.61748  0.39759  0.27123  1.0000
  H   H2427     1.0  0.60149  0.26660  0.33573  1.0000
  C   C1389     1.0  0.63809  0.22975  0.34381  1.0000
  C   C1390     1.0  0.59673  0.35597  0.24178  1.0000
  H   H2428     1.0  0.43199  0.31226  0.27764  1.0000
  S   S301      1.0  0.58940  0.16291  0.34809  1.0000
  Fe  Fe148     1.0  0.60993  0.17616  0.35388  1.0000
  H   H2429     1.0  0.50059  0.20935  0.26460  1.0000
  H   H2430     1.0  0.42441  0.20976  0.37855  1.0000
  H   H2431     1.0  0.46329  0.27008  0.26407  1.0000
  C   C1391     1.0  0.33733  0.21439  0.41139  1.0000
  H   H2432     1.0  0.61953  0.00034  0.28741  1.0000
  C   C1392     1.0  0.61991  0.31750  0.25390  1.0000
  H   H2433     1.0  0.41785  0.23129  0.24021  1.0000
  H   H2434     1.0  0.47678  0.20862  0.26718  1.0000
  C   C1393     1.0  0.62002  0.25513  0.27259  1.0000
  H   H2435     1.0  0.56738  0.36294  0.24183  1.0000
  S   S302      1.0  0.59438  0.07543  0.25004  1.0000
  H   H2436     1.0  0.63380  0.15334  0.25884  1.0000
  S   S303      1.0  0.59429  0.20506  0.34647  1.0000
  S   S304      1.0  0.58774  0.03060  0.23947  1.0000
  S   S305      1.0  0.55883  0.10970  0.25175  1.0000
  H   H2437     1.0  0.48677  0.12313  0.29569  1.0000
  H   H2438     1.0  0.37835  0.11697  0.37131  1.0000
  H   H2439     1.0  0.42557  0.24346  0.26141  1.0000
  C   C1394     1.0  0.58146  0.18408  0.25112  1.0000
  C   C1395     1.0  0.64763  0.17118  0.39694  1.0000
  H   H2440     1.0  0.57576  0.38099  0.24645  1.0000
  S   S306      1.0  0.61448  0.14768  0.29831  1.0000
  C   C1396     1.0  0.52358  0.11660  0.30196  1.0000
  H   H2441     1.0  0.63179  0.22479  0.35834  1.0000
  Fe  Fe149     1.0  0.32658  0.17055  0.45293  1.0000
  H   H2442     1.0  0.56020  0.11251  0.44342  1.0000
  Fe  Fe150     1.0  0.61063  0.20409  0.31791  1.0000
  C   C1397     1.0  0.58319  0.33613  0.27037  1.0000
  H   H2443     1.0  0.41015  0.19374  0.39178  1.0000
  H   H2444     1.0  0.61453  0.12818  0.27123  1.0000
  C   C1398     1.0  0.35755  0.11422  0.39630  1.0000
  N   N77       1.0  0.61459  0.18928  0.24476  1.0000
  H   H2445     1.0  0.52929  0.16193  0.28413  1.0000
  H   H2446     1.0  0.59871  0.17794  0.27087  1.0000
  C   C1399     1.0  0.50582  0.09124  0.23431  1.0000
  C   C1400     1.0  0.35444  0.04630  0.24078  1.0000
  H   H2447     1.0  0.46661  0.03871  0.26603  1.0000
  H   H2448     1.0  0.40437  0.20589  0.36006  1.0000
  H   H2449     1.0  0.63392  0.22206  0.33561  1.0000
  H   H2450     1.0  0.64969  0.31293  0.24984  1.0000
  H   H2451     1.0  0.60078  0.99132  0.25732  1.0000
  H   H2452     1.0  0.44276  0.12249  0.23701  1.0000
  H   H2453     1.0  0.59880  0.24594  0.24684  1.0000
  H   H2454     1.0  0.54316  0.14141  0.27649  1.0000
  C   C1401     1.0  0.41580  0.21715  0.24163  1.0000
  S   S307      1.0  0.51435  0.10357  0.24525  1.0000
  H   H2455     1.0  0.55873  0.35898  0.27189  1.0000
  H   H2456     1.0  0.36479  0.44188  0.23243  1.0000
  C   C1402     1.0  0.35986  0.01176  0.25310  1.0000
  H   H2457     1.0  0.43522  0.00077  0.25717  1.0000
  H   H2458     1.0  0.49573  0.03729  0.27482  1.0000
  H   H2459     1.0  0.35795  0.01591  0.26646  1.0000
  C   C1403     1.0  0.49388  0.04304  0.26047  1.0000
  H   H2460     1.0  0.45706  0.02496  0.23622  1.0000
  H   H2461     1.0  0.36336  0.24664  0.36590  1.0000
  H   H2462     1.0  0.37835  0.23918  0.34653  1.0000
  H   H2463     1.0  0.34361  0.23801  0.39063  1.0000
  H   H2464     1.0  0.33669  0.09921  0.39763  1.0000
  C   C1404     1.0  0.36377  0.12002  0.44695  1.0000
  H   H2465     1.0  0.59420  0.21420  0.23949  1.0000
  H   H2466     1.0  0.37799  0.19897  0.38721  1.0000
  N   N78       1.0  0.47258  0.00410  0.25461  1.0000
  H   H2467     1.0  0.60780  0.38228  0.29121  1.0000
  C   C1405     1.0  0.60610  0.00801  0.28406  1.0000
  N   N79       1.0  0.59771  0.34757  0.26160  1.0000
  H   H2468     1.0  0.35854  0.18602  0.32273  1.0000
  H   H2469     1.0  0.61995  0.32141  0.23905  1.0000
  H   H2470     1.0  0.58073  0.32974  0.25993  1.0000
  H   H2471     1.0  0.41368  0.18539  0.23265  1.0000
  H   H2472     1.0  0.37374  0.25365  0.24491  1.0000
  H   H2473     1.0  0.64109  0.29332  0.24962  1.0000
  H   H2474     1.0  0.37422  0.11167  0.45499  1.0000
  H   H2475     1.0  0.58248  0.37128  0.27351  1.0000
  H   H2476     1.0  0.61479  0.27883  0.25126  1.0000
  H   H2477     1.0  0.53707  0.34034  0.29269  1.0000
  H   H2478     1.0  0.58025  0.00328  0.28304  1.0000
  C   C1406     1.0  0.63204  0.20834  0.39531  1.0000
  H   H2479     1.0  0.53030  0.01599  0.23583  1.0000
  C   C1407     1.0  0.59613  0.36197  0.27248  1.0000
  H   H2480     1.0  0.56575  0.34852  0.29332  1.0000
  C   C1408     1.0  0.33753  0.11872  0.43308  1.0000
  H   H2481     1.0  0.41823  0.01392  0.28438  1.0000
  H   H2482     1.0  0.33695  0.21733  0.36774  1.0000
  H   H2483     1.0  0.47748  0.04179  0.24217  1.0000
  H   H2484     1.0  0.51382  0.28602  0.23653  1.0000
  C   C1409     1.0  0.48755  0.09676  0.23253  1.0000
  H   H2485     1.0  0.53584  0.15168  0.23759  1.0000
  H   H2486     1.0  0.33000  0.20302  0.41369  1.0000
  C   C1410     1.0  0.65490  0.18189  0.40465  1.0000
  C   C1411     1.0  0.55524  0.02321  0.23690  1.0000
  H   H2487     1.0  0.64128  0.19252  0.24638  1.0000
  C   C1412     1.0  0.39910  0.18589  0.23948  1.0000
  C   C1413     1.0  0.38428  0.22676  0.23669  1.0000
  H   H2488     1.0  0.58230  0.18860  0.23609  1.0000
  H   H2489     1.0  0.54710  0.24124  0.24746  1.0000
  H   H2490     1.0  0.50725  0.04003  0.25093  1.0000
  C   C1414     1.0  0.64719  0.20059  0.40378  1.0000
  H   H2491     1.0  0.43133  0.18939  0.25078  1.0000
  H   H2492     1.0  0.33008  0.22304  0.42172  1.0000
  H   H2493     1.0  0.33783  0.08160  0.44134  1.0000
  H   H2494     1.0  0.37473  0.01074  0.24698  1.0000
  C   C1415     1.0  0.39636  0.16613  0.24626  1.0000
  C   C1416     1.0  0.55524  0.24984  0.23610  1.0000
  H   H2495     1.0  0.54794  0.26445  0.23462  1.0000
  N   N80       1.0  0.35466  0.99331  0.25616  1.0000
  H   H2496     1.0  0.33553  0.44060  0.25458  1.0000
  H   H2497     1.0  0.36061  0.41884  0.23976  1.0000
  H   H2498     1.0  0.32637  0.12475  0.44365  1.0000
  H   H2499     1.0  0.45361  0.99249  0.23324  1.0000
  Fe  Fe151     1.0  0.60662  0.19957  0.71496  1.0000
  S   S308      1.0  0.58403  0.18555  0.71547  1.0000
  S   S309      1.0  0.63693  0.19163  0.70247  1.0000
  Fe  Fe152     1.0  0.56729  0.21418  0.70946  1.0000
  S   S310      1.0  0.54979  0.22547  0.68800  1.0000
  S   S311      1.0  0.59068  0.22796  0.70656  1.0000
  C   C1417     1.0  0.44528  0.12166  0.70410  1.0000
  H   H2500     1.0  0.49937  0.27834  0.66352  1.0000
  C   C1418     1.0  0.38241  0.22034  0.62512  1.0000
  Fe  Fe153     1.0  0.45486  0.19424  0.70846  1.0000
  H   H2501     1.0  0.37960  0.10861  0.70713  1.0000
  H   H2502     1.0  0.33560  0.23822  0.56361  1.0000
  H   H2503     1.0  0.63888  0.27831  0.70652  1.0000
  H   H2504     1.0  0.55161  0.26724  0.68573  1.0000
  H   H2505     1.0  0.48882  0.28497  0.71930  1.0000
  H   H2506     1.0  0.41103  0.13915  0.70151  1.0000
  Fe  Fe154     1.0  0.41576  0.18759  0.71844  1.0000
  S   S312      1.0  0.38846  0.19260  0.70974  1.0000
  H   H2507     1.0  0.40218  0.19946  0.63765  1.0000
  H   H2508     1.0  0.62874  0.23387  0.70766  1.0000
  S   S313      1.0  0.37327  0.16706  0.64315  1.0000
  N   N81       1.0  0.39267  0.12825  0.72579  1.0000
  H   H2509     1.0  0.63464  0.14891  0.65660  1.0000
  S   S314      1.0  0.34635  0.15767  0.61132  1.0000
  C   C1419     1.0  0.38444  0.18511  0.69138  1.0000
  C   C1420     1.0  0.39835  0.17431  0.68069  1.0000
  C   C1421     1.0  0.39459  0.16866  0.66618  1.0000
  C   C1422     1.0  0.37698  0.17393  0.66206  1.0000
  C   C1423     1.0  0.36306  0.18468  0.67280  1.0000
  C   C1424     1.0  0.36679  0.19019  0.68742  1.0000
  H   H2510     1.0  0.38944  0.12553  0.68888  1.0000
  H   H2511     1.0  0.32775  0.18305  0.50965  1.0000
  H   H2512     1.0  0.34945  0.18881  0.66980  1.0000
  H   H2513     1.0  0.35592  0.19854  0.69563  1.0000
  H   H2514     1.0  0.35824  0.14435  0.68672  1.0000
  H   H2515     1.0  0.41797  0.22501  0.61982  1.0000
  H   H2516     1.0  0.33753  0.26066  0.54971  1.0000
  H   H2517     1.0  0.50530  0.31275  0.70305  1.0000
  H   H2518     1.0  0.53453  0.29443  0.70080  1.0000
  H   H2519     1.0  0.49759  0.23084  0.66102  1.0000
  C   C1425     1.0  0.64467  0.15192  0.66299  1.0000
  H   H2520     1.0  0.34608  0.19027  0.52840  1.0000
  H   H2521     1.0  0.51014  0.29725  0.65054  1.0000
  C   C1426     1.0  0.52861  0.22002  0.68866  1.0000
  C   C1427     1.0  0.51993  0.20803  0.70336  1.0000
  C   C1428     1.0  0.50296  0.20440  0.70282  1.0000
  C   C1429     1.0  0.63406  0.25715  0.68648  1.0000
  S   S315      1.0  0.42755  0.21163  0.71826  1.0000
  S   S316      1.0  0.44275  0.17116  0.70647  1.0000
  H   H2522     1.0  0.65567  0.25715  0.55772  1.0000
  H   H2523     1.0  0.49640  0.19500  0.71402  1.0000
  H   H2524     1.0  0.39682  0.09856  0.73085  1.0000
  C   C1430     1.0  0.51152  0.28452  0.66129  1.0000
  H   H2525     1.0  0.62938  0.24902  0.73032  1.0000
  C   C1431     1.0  0.64566  0.19900  0.67882  1.0000
  C   C1432     1.0  0.63420  0.20578  0.66611  1.0000
  C   C1433     1.0  0.64175  0.21108  0.64732  1.0000
  C   C1434     1.0  0.64376  0.25108  0.72526  1.0000
  H   H2526     1.0  0.61957  0.20668  0.67069  1.0000
  H   H2527     1.0  0.63283  0.21606  0.63751  1.0000
  H   H2528     1.0  0.36131  0.12159  0.68266  1.0000
  S   S317      1.0  0.47440  0.20786  0.68490  1.0000
  Fe  Fe155     1.0  0.33124  0.18446  0.59739  1.0000
  H   H2529     1.0  0.52442  0.26044  0.68875  1.0000
  H   H2530     1.0  0.48520  0.33269  0.72386  1.0000
  C   C1435     1.0  0.55310  0.26859  0.69929  1.0000
  H   H2531     1.0  0.44786  0.16676  0.66445  1.0000
  H   H2532     1.0  0.43010  0.10737  0.72823  1.0000
  C   C1436     1.0  0.56964  0.27739  0.69604  1.0000
  H   H2533     1.0  0.52640  0.20138  0.71495  1.0000
  C   C1437     1.0  0.64114  0.23890  0.69911  1.0000
  H   H2534     1.0  0.41200  0.17039  0.68354  1.0000
  C   C1438     1.0  0.39542  0.21388  0.63857  1.0000
  C   C1439     1.0  0.51407  0.27169  0.69445  1.0000
  N   N82       1.0  0.51795  0.27357  0.71209  1.0000
  C   C1440     1.0  0.32491  0.13572  0.57904  1.0000
  C   C1441     1.0  0.42840  0.12145  0.71973  1.0000
  H   H2535     1.0  0.33689  0.12576  0.57331  1.0000
  C   C1442     1.0  0.37795  0.12347  0.70082  1.0000
  H   H2536     1.0  0.44651  0.11118  0.69597  1.0000
  H   H2537     1.0  0.34829  0.12701  0.70439  1.0000
  C   C1443     1.0  0.49489  0.21255  0.68743  1.0000
  C   C1444     1.0  0.52020  0.25470  0.72436  1.0000
  H   H2538     1.0  0.37249  0.21109  0.62873  1.0000
  H   H2539     1.0  0.47294  0.31676  0.72111  1.0000
  H   H2540     1.0  0.56734  0.29140  0.68738  1.0000
  C   C1445     1.0  0.50363  0.22455  0.67296  1.0000
  H   H2541     1.0  0.44452  0.13542  0.69487  1.0000
  S   S318      1.0  0.33814  0.19393  0.56635  1.0000
  H   H2542     1.0  0.57229  0.27819  0.70935  1.0000
  H   H2543     1.0  0.50080  0.26730  0.69713  1.0000
  H   H2544     1.0  0.53798  0.28100  0.72251  1.0000
  C   C1446     1.0  0.50289  0.24612  0.73082  1.0000
  Fe  Fe156     1.0  0.34640  0.17271  0.63307  1.0000
  N   N83       1.0  0.42263  0.22184  0.64710  1.0000
  C   C1447     1.0  0.40984  0.22615  0.63389  1.0000
  C   C1448     1.0  0.43646  0.23421  0.64050  1.0000
  C   C1449     1.0  0.43300  0.20222  0.64728  1.0000
  C   C1450     1.0  0.41238  0.22315  0.66645  1.0000
  C   C1451     1.0  0.39975  0.24186  0.66925  1.0000
  C   C1452     1.0  0.44931  0.19580  0.65738  1.0000
  C   C1453     1.0  0.42985  0.25430  0.63072  1.0000
  C   C1454     1.0  0.44401  0.26596  0.62821  1.0000
  C   C1455     1.0  0.38737  0.24025  0.68836  1.0000
  C   C1456     1.0  0.45803  0.17555  0.65736  1.0000
  H   H2545     1.0  0.40213  0.24056  0.63252  1.0000
  H   H2546     1.0  0.44248  0.23455  0.65215  1.0000
  H   H2547     1.0  0.44823  0.22850  0.63024  1.0000
  H   H2548     1.0  0.42367  0.19246  0.65388  1.0000
  H   H2549     1.0  0.40416  0.21229  0.67211  1.0000
  H   H2550     1.0  0.42208  0.22020  0.67583  1.0000
  H   H2551     1.0  0.39065  0.24729  0.65922  1.0000
  H   H2552     1.0  0.40824  0.25194  0.66815  1.0000
  H   H2553     1.0  0.38691  0.21419  0.65255  1.0000
  H   H2554     1.0  0.44477  0.19737  0.67186  1.0000
  H   H2555     1.0  0.46023  0.20379  0.65071  1.0000
  H   H2556     1.0  0.42790  0.25441  0.61684  1.0000
  H   H2557     1.0  0.41671  0.26109  0.63830  1.0000
  H   H2558     1.0  0.44596  0.26685  0.64178  1.0000
  H   H2559     1.0  0.45738  0.25996  0.62013  1.0000
  H   H2560     1.0  0.43921  0.28010  0.62072  1.0000
  H   H2561     1.0  0.39562  0.23450  0.69920  1.0000
  H   H2562     1.0  0.37929  0.25404  0.69043  1.0000
  H   H2563     1.0  0.37766  0.23124  0.68983  1.0000
  H   H2564     1.0  0.46348  0.17334  0.64307  1.0000
  H   H2565     1.0  0.46956  0.17136  0.66475  1.0000
  C   C1457     1.0  0.53552  0.28025  0.70904  1.0000
  H   H2566     1.0  0.32681  0.13708  0.59243  1.0000
  H   H2567     1.0  0.50036  0.29935  0.68311  1.0000
  C   C1458     1.0  0.64322  0.27206  0.71974  1.0000
  H   H2568     1.0  0.60466  0.41572  0.71835  1.0000
  C   C1459     1.0  0.33246  0.18771  0.53459  1.0000
  C   C1460     1.0  0.52024  0.22834  0.67363  1.0000
  H   H2569     1.0  0.43855  0.19995  0.63295  1.0000
  H   H2570     1.0  0.52510  0.29529  0.67599  1.0000
  H   H2571     1.0  0.40544  0.16034  0.65793  1.0000
  H   H2572     1.0  0.51348  0.30880  0.72389  1.0000
  H   H2573     1.0  0.36386  0.13540  0.72440  1.0000
  H   H2574     1.0  0.52683  0.23755  0.66220  1.0000
  H   H2575     1.0  0.37458  0.23454  0.62585  1.0000
  H   H2576     1.0  0.39014  0.21988  0.61085  1.0000
  H   H2577     1.0  0.37757  0.14934  0.70731  1.0000
  C   C1461     1.0  0.32782  0.25240  0.55935  1.0000
  C   C1462     1.0  0.50255  0.30685  0.71794  1.0000
  H   H2578     1.0  0.61622  0.24533  0.67673  1.0000
  H   H2579     1.0  0.53088  0.24464  0.71726  1.0000
  H   H2580     1.0  0.62097  0.26695  0.66288  1.0000
  H   H2581     1.0  0.55628  0.25469  0.70783  1.0000
  C   C1463     1.0  0.51288  0.28910  0.67908  1.0000
  H   H2582     1.0  0.39574  0.15529  0.72629  1.0000
  H   H2583     1.0  0.63834  0.24627  0.66174  1.0000
  C   C1464     1.0  0.62695  0.25366  0.67107  1.0000
  H   H2584     1.0  0.49953  0.24245  0.71915  1.0000
  H   H2585     1.0  0.52405  0.27470  0.65627  1.0000
  H   H2586     1.0  0.45780  0.11848  0.70992  1.0000
  H   H2587     1.0  0.58198  0.26892  0.68883  1.0000
  C   C1465     1.0  0.41066  0.12623  0.71209  1.0000
  C   C1466     1.0  0.36034  0.12951  0.69327  1.0000
  H   H2588     1.0  0.32455  0.14929  0.56962  1.0000
  C   C1467     1.0  0.50202  0.28612  0.72195  1.0000
  H   H2589     1.0  0.64284  0.14462  0.67759  1.0000
  H   H2590     1.0  0.41198  0.11519  0.70457  1.0000
  H   H2591     1.0  0.42847  0.13143  0.72787  1.0000
  H   H2592     1.0  0.64786  0.22853  0.69044  1.0000
  H   H2593     1.0  0.62251  0.26557  0.69469  1.0000
  S   S319      1.0  0.33342  0.20013  0.61770  1.0000
  C   C1468     1.0  0.37751  0.13493  0.71497  1.0000
  H   H2594     1.0  0.63027  0.29694  0.73046  1.0000
  H   H2595     1.0  0.64167  0.16697  0.66244  1.0000
  H   H2596     1.0  0.64482  0.26523  0.67974  1.0000
  C   C1469     1.0  0.48443  0.31797  0.72672  1.0000
  N   N84       1.0  0.65374  0.23955  0.71098  1.0000
  C   C1470     1.0  0.32535  0.18822  0.55327  1.0000
  H   H2597     1.0  0.63296  0.21250  0.73179  1.0000
  H   H2598     1.0  0.61721  0.02420  0.73208  1.0000
  H   H2599     1.0  0.47860  0.14519  0.85115  1.0000
  Fe  Fe157     1.0  0.47842  0.05739  0.83099  1.0000
  S   S320      1.0  0.47744  0.03877  0.85849  1.0000
  S   S321      1.0  0.50420  0.06541  0.81324  1.0000
  Fe  Fe158     1.0  0.43783  0.06421  0.83366  1.0000
  S   S322      1.0  0.43281  0.04613  0.86196  1.0000
  S   S323      1.0  0.41732  0.08293  0.81721  1.0000
  Fe  Fe159     1.0  0.45281  0.05954  0.86797  1.0000
  S   S324      1.0  0.45247  0.06723  0.89457  1.0000
  Fe  Fe160     1.0  0.45782  0.02646  0.85048  1.0000
  S   S325      1.0  0.46399  0.99523  0.85842  1.0000
  S   S326      1.0  0.45546  0.07919  0.84095  1.0000
  S   S327      1.0  0.46118  0.04347  0.82177  1.0000
  Fe  Fe161     1.0  0.58564  0.05654  0.85925  1.0000
  S   S328      1.0  0.57422  0.07384  0.83493  1.0000
  Fe  Fe162     1.0  0.59776  0.08849  0.86648  1.0000
  S   S329      1.0  0.58696  0.10840  0.84309  1.0000
  S   S330      1.0  0.61367  0.09994  0.88032  1.0000
  Fe  Fe163     1.0  0.56275  0.09507  0.85232  1.0000
  S   S331      1.0  0.53422  0.11136  0.85176  1.0000
  Fe  Fe164     1.0  0.59934  0.08589  0.82735  1.0000
  S   S332      1.0  0.61266  0.09505  0.79788  1.0000
  S   S333      1.0  0.57209  0.07707  0.87754  1.0000
  S   S334      1.0  0.61226  0.06653  0.85001  1.0000
  H   H2600     1.0  0.54694  0.05193  0.82982  1.0000
  S   S335      1.0  0.45062  0.22629  0.90875  1.0000
  Fe  Fe165     1.0  0.56403  0.20049  0.93877  1.0000
  Fe  Fe166     1.0  0.60394  0.19814  0.93766  1.0000
  S   S336      1.0  0.60468  0.17541  0.96284  1.0000
  S   S337      1.0  0.62826  0.20944  0.91947  1.0000
  Fe  Fe167     1.0  0.58794  0.16356  0.95031  1.0000
  S   S338      1.0  0.59077  0.13317  0.95179  1.0000
  H   H2601     1.0  0.43414  0.13658  0.83022  1.0000
  S   S339      1.0  0.58974  0.18469  0.92419  1.0000
  S   S340      1.0  0.57815  0.21586  0.95021  1.0000
  H   H2602     1.0  0.53739  0.00843  0.78712  1.0000
  H   H2603     1.0  0.61901  0.00430  0.81579  1.0000
  C   C1471     1.0  0.33156  0.34405  0.88636  1.0000
  Fe  Fe168     1.0  0.57468  0.18883  0.74491  1.0000
  S   S341      1.0  0.56130  0.16945  0.76859  1.0000
  Fe  Fe169     1.0  0.60651  0.29674  0.84820  1.0000
  S   S342      1.0  0.63422  0.29044  0.83011  1.0000
  S   S343      1.0  0.59927  0.29033  0.87904  1.0000
  Fe  Fe170     1.0  0.58808  0.31689  0.81629  1.0000
  S   S344      1.0  0.61447  0.31304  0.79558  1.0000
  S   S345      1.0  0.56173  0.33283  0.80729  1.0000
  Fe  Fe171     1.0  0.61902  0.28418  0.81168  1.0000
  S   S346      1.0  0.62800  0.25997  0.79749  1.0000
  Fe  Fe172     1.0  0.62737  0.31998  0.81564  1.0000
  C   C1472     1.0  0.44164  0.98856  0.83872  1.0000
  S   S347      1.0  0.59205  0.28758  0.83140  1.0000
  S   S348      1.0  0.60039  0.32659  0.83477  1.0000
  Fe  Fe173     1.0  0.32963  0.41111  0.82230  1.0000
  H   H2604     1.0  0.61208  0.04822  0.75026  1.0000
  H   H2605     1.0  0.53739  0.08525  0.90920  1.0000
  S   S349      1.0  0.35209  0.39069  0.83512  1.0000
  Fe  Fe174     1.0  0.47242  0.29815  0.81136  1.0000
  S   S350      1.0  0.46191  0.27451  0.80846  1.0000
  S   S351      1.0  0.49864  0.28834  0.82231  1.0000
  Fe  Fe175     1.0  0.44040  0.32629  0.79804  1.0000
  S   S352      1.0  0.42737  0.30489  0.79422  1.0000
  S   S353      1.0  0.42784  0.35615  0.78830  1.0000
  Fe  Fe176     1.0  0.43448  0.28922  0.82116  1.0000
  S   S354      1.0  0.41517  0.27255  0.84136  1.0000
  Fe  Fe177     1.0  0.45579  0.29195  0.78186  1.0000
  S   S355      1.0  0.46169  0.28013  0.75645  1.0000
  S   S356      1.0  0.44514  0.31169  0.82634  1.0000
  S   S357      1.0  0.46867  0.31449  0.78339  1.0000
  H   H2606     1.0  0.35746  0.31965  0.80894  1.0000
  H   H2607     1.0  0.62765  0.37006  0.77234  1.0000
  H   H2608     1.0  0.41219  0.37228  0.75270  1.0000
  H   H2609     1.0  0.51159  0.10722  0.91076  1.0000
  H   H2610     1.0  0.51563  0.01117  0.82261  1.0000
  H   H2611     1.0  0.49868  0.99935  0.83670  1.0000
  S   S358      1.0  0.42735  0.20989  0.77101  1.0000
  H   H2612     1.0  0.52910  0.04905  0.90464  1.0000
  H   H2613     1.0  0.57527  0.28165  0.76695  1.0000
  C   C1473     1.0  0.58736  0.01273  0.85426  1.0000
  C   C1474     1.0  0.45149  0.26108  0.76022  1.0000
  C   C1475     1.0  0.45399  0.25171  0.74599  1.0000
  C   C1476     1.0  0.44668  0.23593  0.74919  1.0000
  C   C1477     1.0  0.43645  0.22973  0.76652  1.0000
  C   C1478     1.0  0.43350  0.23941  0.78056  1.0000
  C   C1479     1.0  0.44108  0.25498  0.77746  1.0000
  H   H2614     1.0  0.57653  0.37953  0.79501  1.0000
  H   H2615     1.0  0.56387  0.98652  0.77409  1.0000
  H   H2616     1.0  0.42521  0.23497  0.79381  1.0000
  H   H2617     1.0  0.43874  0.26234  0.78841  1.0000
  C   C1480     1.0  0.37299  0.38131  0.82171  1.0000
  C   C1481     1.0  0.38426  0.36556  0.82989  1.0000
  C   C1482     1.0  0.40102  0.35766  0.81971  1.0000
  C   C1483     1.0  0.40690  0.36579  0.80139  1.0000
  C   C1484     1.0  0.39580  0.38176  0.79327  1.0000
  C   C1485     1.0  0.37872  0.38932  0.80330  1.0000
  H   H2618     1.0  0.38007  0.35943  0.84417  1.0000
  H   H2619     1.0  0.40954  0.34545  0.82612  1.0000
  H   H2620     1.0  0.40038  0.38824  0.77917  1.0000
  H   H2621     1.0  0.37022  0.40158  0.79694  1.0000
  H   H2622     1.0  0.56300  0.26999  0.86111  1.0000
  C   C1486     1.0  0.39738  0.10516  0.75658  1.0000
  C   C1487     1.0  0.54436  0.32044  0.81028  1.0000
  C   C1488     1.0  0.54724  0.30156  0.81741  1.0000
  C   C1489     1.0  0.53298  0.29210  0.82124  1.0000
  C   C1490     1.0  0.51587  0.30120  0.81711  1.0000
  C   C1491     1.0  0.51305  0.31998  0.80923  1.0000
  C   C1492     1.0  0.52725  0.32963  0.80601  1.0000
  H   H2623     1.0  0.56037  0.29418  0.82019  1.0000
  H   H2624     1.0  0.53525  0.27762  0.82737  1.0000
  H   H2625     1.0  0.49986  0.32711  0.80602  1.0000
  H   H2626     1.0  0.52488  0.34424  0.80039  1.0000
  C   C1493     1.0  0.38370  0.31005  0.77543  1.0000
  C   C1494     1.0  0.51002  0.22425  0.97892  1.0000
  H   H2627     1.0  0.43773  0.00331  0.83442  1.0000
  S   S359      1.0  0.46132  0.17674  0.90104  1.0000
  H   H2628     1.0  0.40848  0.20172  0.80908  1.0000
  C   C1495     1.0  0.59055  0.25505  0.76188  1.0000
  C   C1496     1.0  0.60548  0.24090  0.76548  1.0000
  C   C1497     1.0  0.61689  0.24255  0.77639  1.0000
  C   C1498     1.0  0.61329  0.25821  0.78403  1.0000
  C   C1499     1.0  0.59816  0.27224  0.78066  1.0000
  C   C1500     1.0  0.58689  0.27069  0.76955  1.0000
  H   H2629     1.0  0.60824  0.22871  0.75984  1.0000
  H   H2630     1.0  0.62849  0.23160  0.77907  1.0000
  H   H2631     1.0  0.59518  0.28434  0.78654  1.0000
  H   H2632     1.0  0.57761  0.39055  0.82241  1.0000
  C   C1501     1.0  0.62143  0.23232  0.90833  1.0000
  H   H2633     1.0  0.33437  0.38115  0.87371  1.0000
  C   C1502     1.0  0.60250  0.26278  0.90900  1.0000
  C   C1503     1.0  0.60883  0.26830  0.89011  1.0000
  C   C1504     1.0  0.62214  0.25608  0.88043  1.0000
  C   C1505     1.0  0.62861  0.23814  0.88961  1.0000
  H   H2634     1.0  0.62718  0.26029  0.86586  1.0000
  H   H2635     1.0  0.63869  0.22859  0.88209  1.0000
  C   C1506     1.0  0.44107  0.23822  0.88961  1.0000
  C   C1507     1.0  0.42483  0.23502  0.88725  1.0000
  C   C1508     1.0  0.41672  0.24585  0.87257  1.0000
  C   C1509     1.0  0.42519  0.25937  0.85988  1.0000
  C   C1510     1.0  0.44167  0.26221  0.86201  1.0000
  C   C1511     1.0  0.44944  0.25185  0.87701  1.0000
  H   H2636     1.0  0.41821  0.22469  0.89712  1.0000
  H   H2637     1.0  0.40389  0.24382  0.87102  1.0000
  H   H2638     1.0  0.44827  0.27266  0.85231  1.0000
  H   H2639     1.0  0.46193  0.25442  0.87887  1.0000
  C   C1512     1.0  0.59860  0.11565  0.78915  1.0000
  C   C1513     1.0  0.60545  0.12769  0.77334  1.0000
  C   C1514     1.0  0.59409  0.14434  0.76682  1.0000
  C   C1515     1.0  0.57584  0.14872  0.77597  1.0000
  C   C1516     1.0  0.56893  0.13644  0.79145  1.0000
  C   C1517     1.0  0.58031  0.12004  0.79808  1.0000
  H   H2640     1.0  0.61958  0.12432  0.76635  1.0000
  H   H2641     1.0  0.59945  0.15377  0.75477  1.0000
  H   H2642     1.0  0.55482  0.13966  0.79845  1.0000
  H   H2643     1.0  0.57483  0.11069  0.81003  1.0000
  C   C1518     1.0  0.60308  0.10951  0.89990  1.0000
  C   C1519     1.0  0.60105  0.09807  0.91731  1.0000
  C   C1520     1.0  0.59647  0.10561  0.93315  1.0000
  C   C1521     1.0  0.59383  0.12463  0.93172  1.0000
  C   C1522     1.0  0.59500  0.13616  0.91433  1.0000
  C   C1523     1.0  0.59998  0.12859  0.89846  1.0000
  H   H2644     1.0  0.60392  0.08331  0.91855  1.0000
  H   H2645     1.0  0.59559  0.09661  0.94655  1.0000
  H   H2646     1.0  0.59282  0.15083  0.91308  1.0000
  H   H2647     1.0  0.60205  0.13745  0.88504  1.0000
  C   C1524     1.0  0.42828  0.09588  0.79692  1.0000
  C   C1525     1.0  0.41901  0.11313  0.78897  1.0000
  C   C1526     1.0  0.42810  0.12394  0.77337  1.0000
  C   C1527     1.0  0.44628  0.11726  0.76533  1.0000
  C   C1528     1.0  0.45528  0.09980  0.77296  1.0000
  C   C1529     1.0  0.44641  0.08926  0.78882  1.0000
  H   H2648     1.0  0.40498  0.11831  0.79519  1.0000
  H   H2649     1.0  0.42102  0.13737  0.76763  1.0000
  H   H2650     1.0  0.46930  0.09448  0.76680  1.0000
  H   H2651     1.0  0.45365  0.07599  0.79474  1.0000
  C   C1530     1.0  0.44461  0.09055  0.89588  1.0000
  C   C1531     1.0  0.43458  0.10296  0.88346  1.0000
  C   C1532     1.0  0.42827  0.12144  0.88524  1.0000
  C   C1533     1.0  0.44841  0.09671  0.90988  1.0000
  H   H2652     1.0  0.43132  0.09824  0.87278  1.0000
  H   H2653     1.0  0.42014  0.13089  0.87590  1.0000
  H   H2654     1.0  0.45571  0.08707  0.91976  1.0000
  C   C1534     1.0  0.51095  0.08023  0.82306  1.0000
  C   C1535     1.0  0.50143  0.08441  0.84010  1.0000
  C   C1536     1.0  0.50790  0.09519  0.84830  1.0000
  C   C1537     1.0  0.52435  0.10102  0.83990  1.0000
  C   C1538     1.0  0.53342  0.09753  0.82251  1.0000
  C   C1539     1.0  0.52647  0.08745  0.81399  1.0000
  H   H2655     1.0  0.48957  0.07870  0.84741  1.0000
  H   H2656     1.0  0.50076  0.09799  0.86166  1.0000
  H   H2657     1.0  0.54586  0.10246  0.81571  1.0000
  H   H2658     1.0  0.53335  0.08469  0.80063  1.0000
  H   H2659     1.0  0.61580  0.28044  0.73567  1.0000
  H   H2660     1.0  0.50014  0.23415  0.94308  1.0000
  H   H2661     1.0  0.61687  0.48130  0.82253  1.0000
  C   C1540     1.0  0.63998  0.13955  0.93321  1.0000
  H   H2662     1.0  0.45777  0.05117  0.96252  1.0000
  H   H2663     1.0  0.38294  0.08263  0.76947  1.0000
  H   H2664     1.0  0.50862  0.99218  0.78755  1.0000
  H   H2665     1.0  0.50325  0.14467  0.96725  1.0000
  H   H2666     1.0  0.62036  0.34960  0.78473  1.0000
  N   N85       1.0  0.53611  0.23872  0.80007  1.0000
  C   C1541     1.0  0.53029  0.22767  0.78969  1.0000
  C   C1542     1.0  0.53434  0.25869  0.78999  1.0000
  C   C1543     1.0  0.55612  0.23095  0.80061  1.0000
  C   C1544     1.0  0.52549  0.23733  0.81965  1.0000
  C   C1545     1.0  0.50446  0.23980  0.82265  1.0000
  C   C1546     1.0  0.53267  0.20670  0.79758  1.0000
  C   C1547     1.0  0.56532  0.24104  0.80993  1.0000
  C   C1548     1.0  0.51943  0.26664  0.77815  1.0000
  C   C1549     1.0  0.51883  0.28706  0.76987  1.0000
  C   C1550     1.0  0.49546  0.23929  0.84292  1.0000
  C   C1551     1.0  0.52198  0.19790  0.78916  1.0000
  H   H2667     1.0  0.53824  0.22935  0.77525  1.0000
  H   H2668     1.0  0.51569  0.23300  0.78866  1.0000
  H   H2669     1.0  0.53194  0.26797  0.79971  1.0000
  H   H2670     1.0  0.54744  0.26098  0.78034  1.0000
  H   H2671     1.0  0.56423  0.23103  0.78630  1.0000
  H   H2672     1.0  0.55843  0.21621  0.80746  1.0000
  H   H2673     1.0  0.53043  0.22381  0.82822  1.0000
  H   H2674     1.0  0.52804  0.24774  0.82598  1.0000
  H   H2675     1.0  0.50069  0.22873  0.81838  1.0000
  H   H2676     1.0  0.49857  0.25319  0.81482  1.0000
  H   H2677     1.0  0.54735  0.19989  0.79428  1.0000
  H   H2678     1.0  0.52781  0.20369  0.81267  1.0000
  H   H2679     1.0  0.55851  0.25563  0.80973  1.0000
  H   H2680     1.0  0.57949  0.24121  0.80192  1.0000
  H   H2681     1.0  0.52251  0.25951  0.76651  1.0000
  H   H2682     1.0  0.50561  0.26521  0.78623  1.0000
  H   H2683     1.0  0.50793  0.29243  0.76171  1.0000
  H   H2684     1.0  0.51565  0.29505  0.78088  1.0000
  H   H2685     1.0  0.53218  0.28913  0.76074  1.0000
  H   H2686     1.0  0.50075  0.22605  0.85164  1.0000
  H   H2687     1.0  0.49806  0.25074  0.84764  1.0000
  H   H2688     1.0  0.48041  0.24101  0.84479  1.0000
  H   H2689     1.0  0.52652  0.20041  0.77397  1.0000
  H   H2690     1.0  0.52462  0.18282  0.79439  1.0000
  H   H2691     1.0  0.50703  0.20347  0.79281  1.0000
  H   H2692     1.0  0.55430  0.05697  0.78895  1.0000
  H   H2693     1.0  0.59467  0.06793  0.79507  1.0000
  H   H2694     1.0  0.54004  0.98674  0.83722  1.0000
  C   C1552     1.0  0.43265  0.12768  0.89895  1.0000
  H   H2695     1.0  0.59174  0.02864  0.77855  1.0000
  H   H2696     1.0  0.45550  0.23549  0.83477  1.0000
  H   H2697     1.0  0.46280  0.17550  0.83727  1.0000
  C   C1553     1.0  0.41955  0.17802  0.82925  1.0000
  Fe  Fe178     1.0  0.57775  0.19229  0.97462  1.0000
  Fe  Fe179     1.0  0.44218  0.16695  0.95389  1.0000
  C   C1554     1.0  0.60219  0.01473  0.83955  1.0000
  H   H2698     1.0  0.63321  0.32459  0.85275  1.0000
  C   C1555     1.0  0.49785  0.17327  0.96936  1.0000
  H   H2699     1.0  0.39289  0.18524  0.79636  1.0000
  C   C1556     1.0  0.56562  0.24360  0.87901  1.0000
  H   H2700     1.0  0.43187  0.11431  0.82880  1.0000
  C   C1557     1.0  0.38682  0.20990  0.88082  1.0000
  H   H2701     1.0  0.63406  0.27652  0.74792  1.0000
  H   H2702     1.0  0.55747  0.08173  0.93073  1.0000
  H   H2703     1.0  0.53074  0.99481  0.86748  1.0000
  C   C1558     1.0  0.51109  0.05607  0.88561  1.0000
  N   N86       1.0  0.54590  0.16176  0.86040  1.0000
  C   C1559     1.0  0.56098  0.15437  0.84562  1.0000
  C   C1560     1.0  0.54238  0.14610  0.87635  1.0000
  C   C1561     1.0  0.52864  0.16873  0.85269  1.0000
  C   C1562     1.0  0.55001  0.17715  0.86668  1.0000
  C   C1563     1.0  0.57042  0.17640  0.86634  1.0000
  C   C1564     1.0  0.56437  0.16802  0.82694  1.0000
  C   C1565     1.0  0.51108  0.17687  0.86573  1.0000
  C   C1566     1.0  0.55807  0.13664  0.88683  1.0000
  C   C1567     1.0  0.55325  0.11973  0.90094  1.0000
  C   C1568     1.0  0.57215  0.18979  0.87719  1.0000
  C   C1569     1.0  0.58368  0.16266  0.81576  1.0000
  C   C1570     1.0  0.49553  0.18597  0.85534  1.0000
  H   H2704     1.0  0.55785  0.14214  0.84263  1.0000
  H   H2705     1.0  0.57414  0.14907  0.85033  1.0000
  H   H2706     1.0  0.53066  0.15087  0.88692  1.0000
  H   H2707     1.0  0.53832  0.13535  0.87177  1.0000
  H   H2708     1.0  0.52546  0.15748  0.84803  1.0000
  H   H2709     1.0  0.53069  0.17980  0.84035  1.0000
  H   H2710     1.0  0.54515  0.19072  0.85808  1.0000
  H   H2711     1.0  0.54206  0.17796  0.88090  1.0000
  H   H2712     1.0  0.57788  0.18025  0.85200  1.0000
  H   H2713     1.0  0.57761  0.16259  0.87219  1.0000
  H   H2714     1.0  0.55449  0.16794  0.81865  1.0000
  H   H2715     1.0  0.56245  0.18229  0.82884  1.0000
  H   H2716     1.0  0.51360  0.18739  0.87184  1.0000
  H   H2717     1.0  0.50609  0.16596  0.87704  1.0000
  H   H2718     1.0  0.57106  0.13192  0.87752  1.0000
  H   H2719     1.0  0.56017  0.14615  0.89448  1.0000
  H   H2720     1.0  0.55169  0.10951  0.89384  1.0000
  H   H2721     1.0  0.56432  0.11340  0.90877  1.0000
  H   H2722     1.0  0.54034  0.12348  0.91085  1.0000
  H   H2723     1.0  0.56612  0.18564  0.89198  1.0000
  H   H2724     1.0  0.58685  0.18965  0.87592  1.0000
  H   H2725     1.0  0.56511  0.20398  0.87192  1.0000
  H   H2726     1.0  0.58648  0.14816  0.81420  1.0000
  H   H2727     1.0  0.58504  0.17160  0.80184  1.0000
  H   H2728     1.0  0.59407  0.16428  0.82261  1.0000
  H   H2729     1.0  0.48341  0.19241  0.86467  1.0000
  H   H2730     1.0  0.49970  0.19686  0.84352  1.0000
  H   H2731     1.0  0.49154  0.17556  0.85026  1.0000
  C   C1571     1.0  0.47345  0.01198  0.79144  1.0000
  H   H2732     1.0  0.63064  0.30630  0.87221  1.0000
  H   H2733     1.0  0.62174  0.33839  0.75776  1.0000
  H   H2734     1.0  0.43221  0.17380  0.81918  1.0000
  C   C1572     1.0  0.60789  0.02311  0.74580  1.0000
  H   H2735     1.0  0.34263  0.35369  0.75659  1.0000
  H   H2736     1.0  0.57113  0.99305  0.92876  1.0000
  H   H2737     1.0  0.47690  0.02582  0.78760  1.0000
  C   C1573     1.0  0.61476  0.33271  0.87676  1.0000
  H   H2738     1.0  0.56768  0.25490  0.91131  1.0000
  N   N87       1.0  0.65078  0.13558  0.91470  1.0000
  H   H2739     1.0  0.57367  0.03930  0.76692  1.0000
  C   C1574     1.0  0.37360  0.16068  0.76119  1.0000
  H   H2740     1.0  0.42691  0.35465  0.74109  1.0000
  H   H2741     1.0  0.50076  0.28168  0.73713  1.0000
  H   H2742     1.0  0.43771  0.18041  0.86472  1.0000
  H   H2743     1.0  0.35574  0.35552  0.87091  1.0000
  H   H2744     1.0  0.59463  0.35881  0.75237  1.0000
  H   H2745     1.0  0.38547  0.30701  0.82240  1.0000
  H   H2746     1.0  0.56371  0.06884  0.80030  1.0000
  H   H2747     1.0  0.37645  0.32652  0.86533  1.0000
  H   H2748     1.0  0.63833  0.37692  0.85091  1.0000
  C   C1575     1.0  0.40317  0.17722  0.80476  1.0000
  S   S360      1.0  0.32911  0.43719  0.80054  1.0000
  C   C1576     1.0  0.51635  0.19945  0.91372  1.0000
  H   H2749     1.0  0.58345  0.39816  0.76654  1.0000
  C   C1577     1.0  0.41240  0.36150  0.74531  1.0000
  H   H2750     1.0  0.64012  0.11836  0.88926  1.0000
  C   C1578     1.0  0.65019  0.11618  0.91414  1.0000
  C   C1579     1.0  0.62658  0.04649  0.79908  1.0000
  C   C1580     1.0  0.57707  0.07485  0.76355  1.0000
  H   H2751     1.0  0.36162  0.14852  0.92380  1.0000
  C   C1581     1.0  0.57056  0.09333  0.77029  1.0000
  H   H2752     1.0  0.55329  0.17360  0.93113  1.0000
  C   C1582     1.0  0.57002  0.10984  0.75426  1.0000
  H   H2753     1.0  0.56580  0.07303  0.75793  1.0000
  H   H2754     1.0  0.35417  0.48410  0.83409  1.0000
  H   H2755     1.0  0.50837  0.23171  0.75776  1.0000
  H   H2756     1.0  0.57332  0.02665  0.80499  1.0000
  H   H2757     1.0  0.57974  0.09462  0.77864  1.0000
  H   H2758     1.0  0.55654  0.09425  0.77878  1.0000
  S   S361      1.0  0.58046  0.02759  0.86997  1.0000
  H   H2759     1.0  0.53946  0.14857  0.92945  1.0000
  H   H2760     1.0  0.32622  0.33158  0.88741  1.0000
  C   C1583     1.0  0.64289  0.35943  0.83143  1.0000
  H   H2761     1.0  0.41012  0.10914  0.95135  1.0000
  N   N88       1.0  0.36936  0.34429  0.77820  1.0000
  C   C1584     1.0  0.37615  0.33916  0.79595  1.0000
  C   C1585     1.0  0.38124  0.35629  0.76407  1.0000
  H   H2762     1.0  0.32747  0.41380  0.87484  1.0000
  H   H2763     1.0  0.59027  0.46910  0.82274  1.0000
  C   C1586     1.0  0.51677  0.07034  0.92884  1.0000
  C   C1587     1.0  0.36381  0.32917  0.81281  1.0000
  C   C1588     1.0  0.50559  0.22868  0.74547  1.0000
  H   H2764     1.0  0.34694  0.34474  0.85770  1.0000
  H   H2765     1.0  0.46749  0.21450  0.95698  1.0000
  C   C1589     1.0  0.37460  0.31820  0.82761  1.0000
  H   H2766     1.0  0.37741  0.35172  0.79979  1.0000
  H   H2767     1.0  0.39022  0.33070  0.79438  1.0000
  C   C1590     1.0  0.63073  0.18184  0.88409  1.0000
  H   H2768     1.0  0.38078  0.36879  0.76919  1.0000
  C   C1591     1.0  0.58295  0.99005  0.91741  1.0000
  C   C1592     1.0  0.50428  0.99760  0.80046  1.0000
  H   H2769     1.0  0.61911  0.05185  0.81168  1.0000
  C   C1593     1.0  0.58853  0.36036  0.76674  1.0000
  H   H2770     1.0  0.40639  0.07563  0.75768  1.0000
  H   H2771     1.0  0.50849  0.08052  0.93742  1.0000
  H   H2772     1.0  0.35255  0.33952  0.81897  1.0000
  S   S362      1.0  0.41796  0.17459  0.74779  1.0000
  H   H2773     1.0  0.40840  0.34079  0.76960  1.0000
  H   H2774     1.0  0.36611  0.13771  0.75573  1.0000
  C   C1594     1.0  0.63492  0.13116  0.96821  1.0000
  H   H2775     1.0  0.38733  0.21185  0.89451  1.0000
  C   C1595     1.0  0.39706  0.08522  0.76632  1.0000
  H   H2776     1.0  0.59807  0.38574  0.73587  1.0000
  H   H2777     1.0  0.53447  0.09294  0.93949  1.0000
  H   H2778     1.0  0.39118  0.19207  0.82652  1.0000
  N   N89       1.0  0.39521  0.13335  0.96242  1.0000
  H   H2779     1.0  0.38103  0.30366  0.79026  1.0000
  H   H2780     1.0  0.38108  0.32729  0.83196  1.0000
  H   H2781     1.0  0.55352  0.23162  0.83905  1.0000
  C   C1596     1.0  0.54079  0.17696  0.92602  1.0000
  C   C1597     1.0  0.58607  0.23639  0.87255  1.0000
  H   H2782     1.0  0.55802  0.23920  0.87095  1.0000
  H   H2783     1.0  0.58883  0.22136  0.87337  1.0000
  H   H2784     1.0  0.59100  0.24320  0.85816  1.0000
  H   H2785     1.0  0.59386  0.23892  0.88164  1.0000
  C   C1598     1.0  0.53304  0.16274  0.92491  1.0000
  H   H2786     1.0  0.39766  0.31288  0.77192  1.0000
  H   H2787     1.0  0.59334  0.05098  0.73928  1.0000
  C   C1599     1.0  0.53645  0.07425  0.92158  1.0000
  H   H2788     1.0  0.60747  0.06924  0.77239  1.0000
  N   N90       1.0  0.48321  0.13793  0.79050  1.0000
  C   C1600     1.0  0.48557  0.15445  0.77526  1.0000
  C   C1601     1.0  0.49077  0.12051  0.78299  1.0000
  C   C1602     1.0  0.46280  0.13911  0.79732  1.0000
  C   C1603     1.0  0.49152  0.13743  0.80653  1.0000
  C   C1604     1.0  0.51000  0.14390  0.80238  1.0000
  C   C1605     1.0  0.47658  0.17333  0.78088  1.0000
  C   C1606     1.0  0.45696  0.12256  0.81206  1.0000
  C   C1607     1.0  0.51034  0.11836  0.77093  1.0000
  C   C1608     1.0  0.51597  0.10002  0.76455  1.0000
  C   C1609     1.0  0.51243  0.14976  0.81906  1.0000
  C   C1610     1.0  0.48552  0.18883  0.76828  1.0000
  C   C1611     1.0  0.43656  0.12706  0.82076  1.0000
  H   H2789     1.0  0.47962  0.15380  0.76369  1.0000
  H   H2790     1.0  0.50021  0.15434  0.76896  1.0000
  H   H2791     1.0  0.49067  0.10819  0.79438  1.0000
  H   H2792     1.0  0.48170  0.11932  0.77433  1.0000
  H   H2793     1.0  0.45599  0.14076  0.78562  1.0000
  H   H2794     1.0  0.45641  0.15156  0.80329  1.0000
  H   H2795     1.0  0.48158  0.14578  0.81606  1.0000
  H   H2796     1.0  0.49376  0.12328  0.81504  1.0000
  H   H2797     1.0  0.51125  0.15586  0.79094  1.0000
  H   H2798     1.0  0.52166  0.13254  0.79921  1.0000
  H   H2799     1.0  0.46181  0.17682  0.78017  1.0000
  H   H2800     1.0  0.47748  0.17312  0.79510  1.0000
  H   H2801     1.0  0.46473  0.11861  0.82326  1.0000
  H   H2802     1.0  0.45942  0.11049  0.80566  1.0000
  H   H2803     1.0  0.51105  0.12925  0.75830  1.0000
  H   H2804     1.0  0.52052  0.11871  0.77857  1.0000
  H   H2805     1.0  0.39803  0.15178  0.93577  1.0000
  C   C1612     1.0  0.36886  0.32770  0.77124  1.0000
  H   H2806     1.0  0.61578  0.01403  0.75613  1.0000
  H   H2807     1.0  0.50272  0.16285  0.82114  1.0000
  H   H2808     1.0  0.50992  0.13910  0.83164  1.0000
  H   H2809     1.0  0.52661  0.15186  0.81688  1.0000
  H   H2810     1.0  0.50002  0.18656  0.76945  1.0000
  H   H2811     1.0  0.48513  0.18980  0.75373  1.0000
  H   H2812     1.0  0.60045  0.44651  0.83382  1.0000
  H   H2813     1.0  0.42822  0.13337  0.81007  1.0000
  H   H2814     1.0  0.40168  0.13853  0.74520  1.0000
  C   C1613     1.0  0.60038  0.04222  0.75039  1.0000
  C   C1614     1.0  0.47684  0.24214  0.93041  1.0000
  H   H2815     1.0  0.58951  0.34602  0.77490  1.0000
  H   H2816     1.0  0.47794  0.20205  0.77233  1.0000
  S   S363      1.0  0.54091  0.21315  0.92380  1.0000
  C   C1615     1.0  0.51656  0.16688  0.91886  1.0000
  C   C1616     1.0  0.53223  0.19533  0.92082  1.0000
  H   H2817     1.0  0.41163  0.15282  0.96102  1.0000
  C   C1617     1.0  0.38566  0.13039  0.93332  1.0000
  S   S364      1.0  0.50573  0.14921  0.91951  1.0000
  Fe  Fe180     1.0  0.47586  0.16124  0.92370  1.0000
  H   H2818     1.0  0.56183  0.23688  0.89359  1.0000
  C   C1618     1.0  0.56126  0.26488  0.87620  1.0000
  H   H2819     1.0  0.57217  0.26927  0.88014  1.0000
  H   H2820     1.0  0.50060  0.06747  0.88015  1.0000
  C   C1619     1.0  0.50838  0.18524  0.91294  1.0000
  H   H2821     1.0  0.50991  0.21361  0.90935  1.0000
  N   N91       1.0  0.58285  0.05804  0.77768  1.0000
  H   H2822     1.0  0.56133  0.10896  0.74513  1.0000
  C   C1620     1.0  0.38379  0.29567  0.76481  1.0000
  H   H2823     1.0  0.39430  0.28316  0.76837  1.0000
  H   H2824     1.0  0.49575  0.18853  0.90800  1.0000
  C   C1621     1.0  0.56707  0.23140  0.82964  1.0000
  Fe  Fe181     1.0  0.44822  0.19684  0.91954  1.0000
  H   H2825     1.0  0.62918  0.35670  0.83561  1.0000
  H   H2826     1.0  0.57156  0.00314  0.78169  1.0000
  H   H2827     1.0  0.55156  0.32744  0.86429  1.0000
  H   H2828     1.0  0.61947  0.38924  0.73872  1.0000
  C   C1622     1.0  0.60432  0.39340  0.74222  1.0000
  H   H2829     1.0  0.37593  0.36131  0.75116  1.0000
  H   H2830     1.0  0.58859  0.35661  0.80109  1.0000
  C   C1623     1.0  0.56686  0.05671  0.79378  1.0000
  C   C1624     1.0  0.59931  0.06037  0.78356  1.0000
  H   H2831     1.0  0.49038  0.20623  0.94641  1.0000
  H   H2832     1.0  0.55296  0.29697  0.88614  1.0000
  H   H2833     1.0  0.60604  0.39723  0.76819  1.0000
  H   H2834     1.0  0.64206  0.15265  0.93530  1.0000
  C   C1625     1.0  0.44294  0.11528  0.91109  1.0000
  H   H2835     1.0  0.60495  0.39068  0.79732  1.0000
  H   H2836     1.0  0.37453  0.13228  0.90951  1.0000
  H   H2837     1.0  0.44500  0.19764  0.81996  1.0000
  H   H2838     1.0  0.49797  0.17742  0.95450  1.0000
  H   H2839     1.0  0.55352  0.29955  0.85292  1.0000
  H   H2840     1.0  0.62920  0.19655  0.88442  1.0000
  N   N92       1.0  0.50652  0.06971  0.91470  1.0000
  H   H2841     1.0  0.60272  0.33072  0.87264  1.0000
  H   H2842     1.0  0.50699  0.01179  0.79629  1.0000
  C   C1626     1.0  0.41274  0.11984  0.95721  1.0000
  C   C1627     1.0  0.54078  0.30448  0.86240  1.0000
  H   H2843     1.0  0.53100  0.27214  0.86342  1.0000
  H   H2844     1.0  0.53880  0.33231  0.84638  1.0000
  H   H2845     1.0  0.48002  0.25589  0.92375  1.0000
  H   H2846     1.0  0.48242  0.23297  0.92034  1.0000
  N   N93       1.0  0.54258  0.27339  0.88589  1.0000
  C   C1628     1.0  0.54116  0.29391  0.88242  1.0000
  C   C1629     1.0  0.53937  0.32503  0.86075  1.0000
  H   H2847     1.0  0.44643  0.11985  0.92163  1.0000
  H   H2848     1.0  0.57467  0.21695  0.83009  1.0000
  C   C1630     1.0  0.37564  0.14157  0.91798  1.0000
  H   H2849     1.0  0.50652  0.09934  0.75607  1.0000
  H   H2850     1.0  0.62625  0.46297  0.85000  1.0000
  H   H2851     1.0  0.52895  0.25356  0.88237  1.0000
  H   H2852     1.0  0.36974  0.33138  0.75609  1.0000
  N   N94       1.0  0.59906  0.37053  0.77352  1.0000
  H   H2853     1.0  0.63443  0.05671  0.78971  1.0000
  H   H2854     1.0  0.63639  0.03358  0.80313  1.0000
  H   H2855     1.0  0.37856  0.17341  0.75351  1.0000
  H   H2856     1.0  0.54616  0.06169  0.91783  1.0000
  C   C1631     1.0  0.60129  0.37726  0.80441  1.0000
  C   C1632     1.0  0.52824  0.26869  0.87871  1.0000
  H   H2857     1.0  0.52891  0.30295  0.85769  1.0000
  H   H2858     1.0  0.45635  0.05423  0.93884  1.0000
  C   C1633     1.0  0.64549  0.21169  0.73668  1.0000
  H   H2859     1.0  0.65024  0.24646  0.73753  1.0000
  H   H2860     1.0  0.47809  0.00584  0.81894  1.0000
  H   H2861     1.0  0.65031  0.33811  0.86602  1.0000
  C   C1634     1.0  0.49303  0.05720  0.92371  1.0000
  H   H2862     1.0  0.39868  0.16433  0.81272  1.0000
  C   C1635     1.0  0.45433  0.16509  0.84445  1.0000
  C   C1636     1.0  0.40489  0.18870  0.81764  1.0000
  H   H2863     1.0  0.51699  0.21807  0.74004  1.0000
  H   H2864     1.0  0.47735  0.00570  0.77910  1.0000
  H   H2865     1.0  0.44890  0.22862  0.73822  1.0000
  H   H2866     1.0  0.54418  0.36381  0.76062  1.0000
  H   H2867     1.0  0.57493  0.23867  0.83472  1.0000
  C   C1637     1.0  0.54313  0.07977  0.93611  1.0000
  H   H2868     1.0  0.52673  0.33088  0.86991  1.0000
  H   H2869     1.0  0.48052  0.27849  0.88347  1.0000
  C   C1638     1.0  0.52525  0.98854  0.84363  1.0000
  H   H2870     1.0  0.56051  0.34333  0.76731  1.0000
  C   C1639     1.0  0.48317  0.99968  0.80658  1.0000
  C   C1640     1.0  0.32868  0.48105  0.82949  1.0000
  H   H2871     1.0  0.46416  0.21923  0.81969  1.0000
  H   H2872     1.0  0.48277  0.12684  0.90323  1.0000
  H   H2873     1.0  0.35976  0.16474  0.76960  1.0000
  C   C1641     1.0  0.46465  0.15099  0.85824  1.0000
  C   C1642     1.0  0.53973  0.26616  0.90639  1.0000
  C   C1643     1.0  0.50812  0.27768  0.88610  1.0000
  C   C1644     1.0  0.55570  0.26566  0.91547  1.0000
  C   C1645     1.0  0.49482  0.27203  0.87787  1.0000
  H   H2874     1.0  0.53685  0.25207  0.91000  1.0000
  H   H2875     1.0  0.52878  0.30041  0.89151  1.0000
  H   H2876     1.0  0.56007  0.27904  0.91155  1.0000
  C   C1646     1.0  0.56791  0.36898  0.76729  1.0000
  C   C1647     1.0  0.63995  0.16971  0.89967  1.0000
  C   C1648     1.0  0.37249  0.14951  0.74779  1.0000
  H   H2877     1.0  0.65531  0.27672  0.87607  1.0000
  S   S365      1.0  0.46465  0.18236  0.94111  1.0000
  S   S366      1.0  0.42459  0.15083  0.90105  1.0000
  H   H2878     1.0  0.63835  0.12017  0.98007  1.0000
  H   H2879     1.0  0.50592  0.29290  0.88262  1.0000
  H   H2880     1.0  0.65217  0.25534  0.90588  1.0000
  H   H2881     1.0  0.57967  0.04088  0.81686  1.0000
  H   H2882     1.0  0.50438  0.27330  0.90124  1.0000
  H   H2883     1.0  0.64233  0.43923  0.86855  1.0000
  H   H2884     1.0  0.58866  0.07678  0.75164  1.0000
  H   H2885     1.0  0.54280  0.06891  0.94880  1.0000
  Fe  Fe182     1.0  0.43887  0.16181  0.91693  1.0000
  H   H2886     1.0  0.33561  0.34200  0.89977  1.0000
  H   H2887     1.0  0.52726  0.27458  0.91356  1.0000
  H   H2888     1.0  0.63928  0.11202  0.95084  1.0000
  C   C1649     1.0  0.64939  0.32365  0.87284  1.0000
  H   H2889     1.0  0.36527  0.31188  0.83977  1.0000
  C   C1650     1.0  0.45153  0.22726  0.82701  1.0000
  C   C1651     1.0  0.56428  0.99151  0.78631  1.0000
  H   H2890     1.0  0.54600  0.00430  0.80775  1.0000
  H   H2891     1.0  0.44384  0.23698  0.81686  1.0000
  H   H2892     1.0  0.48801  0.11996  0.88130  1.0000
  H   H2893     1.0  0.64299  0.28838  0.89471  1.0000
  C   C1652     1.0  0.59962  0.46147  0.83227  1.0000
  H   H2894     1.0  0.55367  0.02733  0.83551  1.0000
  S   S367      1.0  0.59857  0.20025  0.74527  1.0000
  H   H2895     1.0  0.64862  0.14674  0.88612  1.0000
  H   H2896     1.0  0.54044  0.03781  0.81792  1.0000
  C   C1653     1.0  0.62790  0.35049  0.75600  1.0000
  H   H2897     1.0  0.56026  0.36936  0.78157  1.0000
  H   H2898     1.0  0.63013  0.44176  0.84286  1.0000
  C   C1654     1.0  0.48118  0.06004  0.94287  1.0000
  H   H2899     1.0  0.59839  0.38319  0.83130  1.0000
  H   H2900     1.0  0.42389  0.21340  0.82162  1.0000
  H   H2901     1.0  0.35005  0.36746  0.78814  1.0000
  H   H2902     1.0  0.61981  0.13440  0.96963  1.0000
  C   C1655     1.0  0.43306  0.20322  0.83011  1.0000
  C   C1656     1.0  0.52575  0.05016  0.86939  1.0000
  C   C1657     1.0  0.58666  0.04143  0.76914  1.0000
  C   C1658     1.0  0.59050  0.37067  0.79356  1.0000
  H   H2903     1.0  0.45309  0.15762  0.83442  1.0000
  C   C1659     1.0  0.35019  0.35581  0.78181  1.0000
  H   H2904     1.0  0.38335  0.15204  0.90889  1.0000
  C   C1660     1.0  0.49401  0.12202  0.89212  1.0000
  H   H2905     1.0  0.56419  0.12272  0.75963  1.0000
  C   C1661     1.0  0.55015  0.26110  0.93639  1.0000
  H   H2906     1.0  0.56210  0.25988  0.94252  1.0000
  H   H2907     1.0  0.50037  0.04253  0.92556  1.0000
  H   H2908     1.0  0.50220  0.13287  0.88598  1.0000
  H   H2909     1.0  0.51919  0.04664  0.85979  1.0000
  H   H2910     1.0  0.41647  0.17373  0.79522  1.0000
  H   H2911     1.0  0.53893  0.27207  0.94148  1.0000
  H   H2912     1.0  0.54555  0.24783  0.94087  1.0000
  C   C1662     1.0  0.43950  0.21456  0.84035  1.0000
  S   S368      1.0  0.56112  0.17856  0.96411  1.0000
  H   H2913     1.0  0.38291  0.15248  0.77057  1.0000
  C   C1663     1.0  0.61319  0.04266  0.78958  1.0000
  H   H2914     1.0  0.44748  0.20576  0.85065  1.0000
  H   H2915     1.0  0.40758  0.18540  0.88204  1.0000
  C   C1664     1.0  0.63185  0.45630  0.83783  1.0000
  H   H2916     1.0  0.53007  0.09864  0.75609  1.0000
  N   N95       1.0  0.42343  0.18815  0.84191  1.0000
  H   H2917     1.0  0.42739  0.22353  0.84717  1.0000
  H   H2918     1.0  0.51874  0.05682  0.93854  1.0000
  H   H2919     1.0  0.63958  0.14354  0.96868  1.0000
  C   C1665     1.0  0.65286  0.19150  0.74440  1.0000
  H   H2920     1.0  0.62136  0.03672  0.77755  1.0000
  C   C1666     1.0  0.32381  0.37710  0.88599  1.0000
  C   C1667     1.0  0.40527  0.19603  0.85325  1.0000
  H   H2921     1.0  0.56541  0.35777  0.74479  1.0000
  H   H2922     1.0  0.58025  0.00003  0.90465  1.0000
  H   H2923     1.0  0.51510  0.20400  0.96182  1.0000
  S   S369      1.0  0.46031  0.18147  0.73655  1.0000
  H   H2924     1.0  0.51799  0.10071  0.88863  1.0000
  H   H2925     1.0  0.53301  0.06147  0.86176  1.0000
  H   H2926     1.0  0.53326  0.23552  0.97866  1.0000
  C   C1668     1.0  0.38843  0.14300  0.94490  1.0000
  H   H2927     1.0  0.45838  0.01361  0.79646  1.0000
  H   H2928     1.0  0.45739  0.13948  0.86474  1.0000
  H   H2929     1.0  0.49094  0.25564  0.73695  1.0000
  H   H2930     1.0  0.39909  0.12306  0.92659  1.0000
  H   H2931     1.0  0.39882  0.20934  0.84533  1.0000
  H   H2932     1.0  0.58409  0.11062  0.74620  1.0000
  H   H2933     1.0  0.47150  0.03436  0.94919  1.0000
  C   C1669     1.0  0.63219  0.32074  0.86785  1.0000
  H   H2934     1.0  0.48825  0.08792  0.89745  1.0000
  H   H2935     1.0  0.58571  0.36647  0.83131  1.0000
  C   C1670     1.0  0.60855  0.24477  0.91802  1.0000
  S   S370      1.0  0.45841  0.13036  0.74603  1.0000
  S   S371      1.0  0.42419  0.18338  0.93385  1.0000
  C   C1671     1.0  0.50638  0.10424  0.89985  1.0000
  H   H2936     1.0  0.61268  0.32873  0.89197  1.0000
  H   H2937     1.0  0.59257  0.27232  0.91664  1.0000
  C   C1672     1.0  0.43520  0.17429  0.85419  1.0000
  H   H2938     1.0  0.46170  0.24365  0.93420  1.0000
  H   H2939     1.0  0.41495  0.16515  0.83731  1.0000
  H   H2940     1.0  0.41608  0.20606  0.87236  1.0000
  C   C1673     1.0  0.49569  0.08852  0.90785  1.0000
  H   H2941     1.0  0.49753  0.27670  0.86271  1.0000
  H   H2942     1.0  0.38366  0.22366  0.87189  1.0000
  H   H2943     1.0  0.58425  0.41867  0.73596  1.0000
  H   H2944     1.0  0.64330  0.08564  0.90609  1.0000
  C   C1674     1.0  0.56927  0.03986  0.80973  1.0000
  C   C1675     1.0  0.34949  0.34382  0.87151  1.0000
  H   H2945     1.0  0.37570  0.20245  0.88257  1.0000
  H   H2946     1.0  0.49607  0.25686  0.88138  1.0000
  H   H2947     1.0  0.48483  0.09341  0.91914  1.0000
  H   H2948     1.0  0.38727  0.30103  0.74977  1.0000
  H   H2949     1.0  0.50443  0.04420  0.89262  1.0000
  C   C1676     1.0  0.55145  0.03925  0.82405  1.0000
  C   C1677     1.0  0.61889  0.36056  0.77228  1.0000
  H   H2950     1.0  0.33108  0.37305  0.89764  1.0000
  C   C1678     1.0  0.64161  0.14909  0.90008  1.0000
  H   H2951     1.0  0.35542  0.32344  0.77705  1.0000
  H   H2952     1.0  0.36684  0.32464  0.88948  1.0000
  H   H2953     1.0  0.39546  0.18670  0.85610  1.0000
  H   H2954     1.0  0.51200  0.17199  0.97115  1.0000
  S   S372      1.0  0.45481  0.14441  0.93802  1.0000
  H   H2955     1.0  0.62753  0.14689  0.90180  1.0000
  H   H2956     1.0  0.53593  0.03791  0.87422  1.0000
  H   H2957     1.0  0.47483  0.07465  0.94307  1.0000
  C   C1679     1.0  0.48518  0.23443  0.94750  1.0000
  C   C1680     1.0  0.40527  0.19891  0.87255  1.0000
  H   H2958     1.0  0.42776  0.16315  0.86215  1.0000
  H   H2959     1.0  0.38862  0.11401  0.76622  1.0000
  H   H2960     1.0  0.52399  0.01479  0.85054  1.0000
  H   H2961     1.0  0.48336  0.05865  0.91457  1.0000
  H   H2962     1.0  0.60340  0.24057  0.93257  1.0000
  H   H2963     1.0  0.46596  0.15741  0.86915  1.0000
  C   C1681     1.0  0.51970  0.06171  0.89904  1.0000
  H   H2964     1.0  0.52867  0.07131  0.89062  1.0000
  H   H2965     1.0  0.47888  0.24417  0.95687  1.0000
  H   H2966     1.0  0.61552  0.34747  0.87231  1.0000
  H   H2967     1.0  0.40259  0.33682  0.74977  1.0000
  C   C1682     1.0  0.48203  0.21472  0.95649  1.0000
  H   H2968     1.0  0.51569  0.08834  0.77649  1.0000
  H   H2969     1.0  0.60615  0.03213  0.79913  1.0000
  S   S373      1.0  0.55646  0.21649  0.73881  1.0000
  H   H2970     1.0  0.63140  0.17343  0.91268  1.0000
  H   H2971     1.0  0.38272  0.17391  0.95890  1.0000
  C   C1683     1.0  0.40158  0.34729  0.75784  1.0000
  H   H2972     1.0  0.50435  0.23703  0.97002  1.0000
  H   H2973     1.0  0.37022  0.29174  0.76842  1.0000
  C   C1684     1.0  0.61858  0.46615  0.82450  1.0000
  H   H2974     1.0  0.56603  0.38315  0.75898  1.0000
  C   C1685     1.0  0.57796  0.99859  0.85658  1.0000
  H   H2975     1.0  0.37760  0.12007  0.94199  1.0000
  H   H2976     1.0  0.60975  0.02531  0.83794  1.0000
  C   C1686     1.0  0.53056  0.22306  0.97589  1.0000
  H   H2977     1.0  0.62502  0.14172  0.93378  1.0000
  H   H2978     1.0  0.42240  0.12714  0.94618  1.0000
  C   C1687     1.0  0.60732  0.00294  0.82698  1.0000
  H   H2979     1.0  0.40178  0.08242  0.77947  1.0000
  H   H2980     1.0  0.37043  0.16078  0.97885  1.0000
  H   H2981     1.0  0.35832  0.31397  0.87573  1.0000
  C   C1688     1.0  0.59001  0.37948  0.82351  1.0000
  Fe  Fe183     1.0  0.43224  0.19711  0.74640  1.0000
  C   C1689     1.0  0.36356  0.32613  0.87584  1.0000
  H   H2982     1.0  0.59542  0.99196  0.92081  1.0000
  H   H2983     1.0  0.65359  0.17307  0.89756  1.0000
  H   H2984     1.0  0.48967  0.05508  0.95353  1.0000
  C   C1690     1.0  0.46579  0.04927  0.94866  1.0000
  H   H2985     1.0  0.49282  0.22327  0.74956  1.0000
  C   C1691     1.0  0.65593  0.43894  0.80502  1.0000
  H   H2986     1.0  0.61415  0.36713  0.80630  1.0000
  H   H2987     1.0  0.62607  0.35941  0.74258  1.0000
  H   H2988     1.0  0.63655  0.11301  0.92168  1.0000
  H   H2989     1.0  0.56654  0.99693  0.86802  1.0000
  H   H2990     1.0  0.40664  0.36803  0.73280  1.0000
  C   C1692     1.0  0.51311  0.99708  0.82905  1.0000
  H   H2991     1.0  0.37501  0.15252  0.94801  1.0000
  H   H2992     1.0  0.48151  0.31299  0.74185  1.0000
  H   H2993     1.0  0.53722  0.22177  0.96155  1.0000
  H   H2994     1.0  0.60559  0.42216  0.73904  1.0000
  C   C1693     1.0  0.64844  0.34332  0.75519  1.0000
  H   H2995     1.0  0.64819  0.47663  0.80541  1.0000
  H   H2996     1.0  0.61688  0.17910  0.88574  1.0000
  H   H2997     1.0  0.64633  0.32343  0.88787  1.0000
  H   H2998     1.0  0.50709  0.00204  0.86530  1.0000
  H   H2999     1.0  0.33325  0.46651  0.82944  1.0000
  H   H3000     1.0  0.59373  0.46544  0.84584  1.0000
  H   H3001     1.0  0.41153  0.10711  0.75436  1.0000
  C   C1694     1.0  0.64809  0.37097  0.84003  1.0000
  C   C1695     1.0  0.64429  0.12452  0.95030  1.0000
  H   H3002     1.0  0.34078  0.34753  0.79201  1.0000
  H   H3003     1.0  0.63912  0.17932  0.87055  1.0000
  C   C1696     1.0  0.55904  0.35775  0.75949  1.0000
  S   S374      1.0  0.64954  0.33724  0.80575  1.0000
  H   H3004     1.0  0.64216  0.43542  0.80920  1.0000
  H   H3005     1.0  0.64161  0.21899  0.74828  1.0000
  C   C1697     1.0  0.59743  0.98942  0.82874  1.0000
  H   H3006     1.0  0.65455  0.33641  0.74332  1.0000
  H   H3007     1.0  0.64211  0.18590  0.75549  1.0000
  C   C1698     1.0  0.52151  0.00085  0.85755  1.0000
  H   H3008     1.0  0.62360  0.46247  0.81082  1.0000
  C   C1699     1.0  0.54488  0.99780  0.79684  1.0000
  S   S375      1.0  0.57616  0.25357  0.74797  1.0000
  H   H3009     1.0  0.65086  0.33312  0.76791  1.0000
  C   C1700     1.0  0.59774  0.39025  0.76334  1.0000
  C   C1701     1.0  0.39946  0.14769  0.97010  1.0000
  H   H3010     1.0  0.45048  0.10565  0.95537  1.0000
  N   N96       1.0  0.48655  0.20672  0.97530  1.0000
  C   C1702     1.0  0.65258  0.11156  0.89500  1.0000
  C   C1703     1.0  0.50617  0.20676  0.97517  1.0000
  C   C1704     1.0  0.38383  0.16479  0.97251  1.0000
  H   H3011     1.0  0.43872  0.08728  0.95789  1.0000
  C   C1705     1.0  0.63003  0.28205  0.73437  1.0000
  H   H3012     1.0  0.52501  0.25501  0.73674  1.0000
  H   H3013     1.0  0.65544  0.35478  0.75358  1.0000
  H   H3014     1.0  0.42636  0.11831  0.97985  1.0000
  C   C1706     1.0  0.65537  0.35166  0.81732  1.0000
  C   C1707     1.0  0.44117  0.09702  0.96509  1.0000
  H   H3015     1.0  0.40024  0.18149  0.97767  1.0000
  Fe  Fe184     1.0  0.58111  0.22780  0.73668  1.0000
  H   H3016     1.0  0.37550  0.10916  0.74262  1.0000
  C   C1708     1.0  0.65413  0.47489  0.81759  1.0000
  H   H3017     1.0  0.59652  0.01680  0.74552  1.0000
  Fe  Fe185     1.0  0.44578  0.15992  0.73580  1.0000
  C   C1709     1.0  0.39163  0.14294  0.73610  1.0000
  C   C1710     1.0  0.65514  0.09088  0.89645  1.0000
  H   H3018     1.0  0.32420  0.37005  0.85423  1.0000
  H   H3019     1.0  0.65595  0.08806  0.88274  1.0000
  C   C1711     1.0  0.58285  0.98707  0.84373  1.0000
  H   H3020     1.0  0.47932  0.15452  0.97403  1.0000
  C   C1712     1.0  0.49333  0.15412  0.97570  1.0000
  C   C1713     1.0  0.39026  0.10998  0.73838  1.0000
  N   N97       1.0  0.65197  0.45689  0.83075  1.0000
  H   H3021     1.0  0.36740  0.48159  0.75039  1.0000
  C   C1714     1.0  0.38073  0.12358  0.97547  1.0000
  H   H3022     1.0  0.36677  0.13100  0.97327  1.0000
  H   H3023     1.0  0.46974  0.18665  0.97963  1.0000
  C   C1715     1.0  0.48385  0.18708  0.98052  1.0000
  C   C1716     1.0  0.42307  0.10903  0.97274  1.0000
  H   H3024     1.0  0.36326  0.15855  0.73867  1.0000
  H   H3025     1.0  0.38232  0.10976  0.97242  1.0000
  H   H3026     1.0  0.42661  0.19585  0.98088  1.0000
  H   H3027     1.0  0.44806  0.08897  0.97654  1.0000
  H   H3028     1.0  0.32576  0.40710  0.89949  1.0000
  H   H3029     1.0  0.65503  0.46903  0.85208  1.0000
  H   H3030     1.0  0.65563  0.45178  0.79445  1.0000
  H   H3031     1.0  0.34736  0.37572  0.75591  1.0000
  C   C1717     1.0  0.34111  0.36415  0.76482  1.0000
  H   H3032     1.0  0.46159  0.25661  0.73247  1.0000
  H   H3033     1.0  0.65609  0.45453  0.88482  1.0000
  C   C1718     1.0  0.59937  0.41375  0.73344  1.0000
  Fe  Fe186     1.0  0.55720  0.83405  0.10016  1.0000
  S   S376      1.0  0.56023  0.80435  0.11466  1.0000
  S   S377      1.0  0.55861  0.84617  0.06984  1.0000
  Fe  Fe187     1.0  0.55107  0.84831  0.13545  1.0000
  S   S378      1.0  0.55373  0.81995  0.15282  1.0000
  S   S379      1.0  0.54052  0.87239  0.14972  1.0000
  Fe  Fe188     1.0  0.57710  0.81194  0.13038  1.0000
  S   S380      1.0  0.60169  0.79302  0.14011  1.0000
  Fe  Fe189     1.0  0.53665  0.81477  0.13603  1.0000
  S   S381      1.0  0.51295  0.80155  0.15130  1.0000
  S   S382      1.0  0.57621  0.84093  0.11427  1.0000
  S   S383      1.0  0.53197  0.84370  0.12025  1.0000
  H   H3034     1.0  0.39546  0.77475  0.09919  1.0000
  H   H3035     1.0  0.42019  0.92659  0.10130  1.0000
  H   H3036     1.0  0.63883  0.80577  0.01734  1.0000
  S   S384      1.0  0.39005  0.77789  0.02592  1.0000
  H   H3037     1.0  0.33888  0.55641  0.15149  1.0000
  Fe  Fe190     1.0  0.40773  0.85081  0.12105  1.0000
  S   S385      1.0  0.42230  0.82388  0.13497  1.0000
  S   S386      1.0  0.40469  0.87796  0.12900  1.0000
  Fe  Fe191     1.0  0.39908  0.83355  0.09295  1.0000
  S   S387      1.0  0.41269  0.80515  0.10497  1.0000
  S   S388      1.0  0.38834  0.84086  0.06666  1.0000
  Fe  Fe192     1.0  0.39902  0.81293  0.13229  1.0000
  S   S389      1.0  0.38482  0.79508  0.15692  1.0000
  Fe  Fe193     1.0  0.43457  0.81870  0.10649  1.0000
  S   S390      1.0  0.46403  0.80822  0.09484  1.0000
  S   S391      1.0  0.38333  0.84033  0.12020  1.0000
  S   S392      1.0  0.42205  0.84666  0.09268  1.0000
  S   S393      1.0  0.43143  0.93653  0.20405  1.0000
  Fe  Fe194     1.0  0.42528  0.90850  0.20787  1.0000
  C   C1719     1.0  0.33018  0.50775  0.19957  1.0000
  S   S394      1.0  0.43900  0.88494  0.19308  1.0000
  H   H3038     1.0  0.59121  0.81458  0.00870  1.0000
  H   H3039     1.0  0.60244  0.78432  0.99634  1.0000
  H   H3040     1.0  0.43076  0.92060  0.07920  1.0000
  S   S395      1.0  0.39471  0.91835  0.21369  1.0000
  Fe  Fe195     1.0  0.57512  0.92225  0.20061  1.0000
  C   C1720     1.0  0.60797  0.77403  0.00764  1.0000
  S   S396      1.0  0.58921  0.91389  0.17349  1.0000
  H   H3041     1.0  0.64829  0.88122  0.15374  1.0000
  H   H3042     1.0  0.39040  0.84610  0.22174  1.0000
  H   H3043     1.0  0.50329  0.78600  0.99016  1.0000
  H   H3044     1.0  0.45171  0.58339  0.21452  1.0000
  H   H3045     1.0  0.50506  0.87117  0.07293  1.0000
  H   H3046     1.0  0.33060  0.63368  0.15386  1.0000
  C   C1721     1.0  0.51084  0.65734  0.22719  1.0000
  S   S397      1.0  0.58448  0.94001  0.21426  1.0000
  S   S398      1.0  0.54535  0.93574  0.20675  1.0000
  H   H3047     1.0  0.55264  0.80903  0.07459  1.0000
  C   C1722     1.0  0.36389  0.61315  0.22806  1.0000
  H   H3048     1.0  0.33872  0.64862  0.08576  1.0000
  H   H3049     1.0  0.49906  0.68257  0.18185  1.0000
  H   H3050     1.0  0.50576  0.86104  0.09631  1.0000
  C   C1723     1.0  0.58230  0.83696  0.17170  1.0000
  H   H3051     1.0  0.62594  0.89560  0.15192  1.0000
  C   C1724     1.0  0.33345  0.57940  0.12881  1.0000
  S   S399      1.0  0.42153  0.80264  0.98387  1.0000
  S   S400      1.0  0.58164  0.71578  0.18034  1.0000
  H   H3052     1.0  0.45738  0.61129  0.19001  1.0000
  C   C1725     1.0  0.37220  0.71338  0.15871  1.0000
  S   S401      1.0  0.43158  0.66763  0.20746  1.0000
  H   H3053     1.0  0.55201  0.79147  0.05172  1.0000
  Fe  Fe196     1.0  0.42288  0.69828  0.20196  1.0000
  S   S402      1.0  0.42657  0.71257  0.17231  1.0000
  Fe  Fe197     1.0  0.33405  0.54707  0.21066  1.0000
  S   S403      1.0  0.36064  0.60493  0.19608  1.0000
  C   C1726     1.0  0.48011  0.81843  0.01485  1.0000
  H   H3054     1.0  0.56100  0.66030  0.17547  1.0000
  H   H3055     1.0  0.61284  0.80514  0.07546  1.0000
  H   H3056     1.0  0.44723  0.85893  0.98606  1.0000
  H   H3057     1.0  0.48701  0.72106  0.21012  1.0000
  C   C1727     1.0  0.55753  0.84214  0.03582  1.0000
  H   H3058     1.0  0.50542  0.87614  0.22828  1.0000
  H   H3059     1.0  0.53290  0.68583  0.16888  1.0000
  H   H3060     1.0  0.51528  0.69930  0.21213  1.0000
  H   H3061     1.0  0.54332  0.85824  0.22227  1.0000
  H   H3062     1.0  0.35690  0.73181  0.13900  1.0000
  H   H3063     1.0  0.45921  0.87754  0.12601  1.0000
  C   C1728     1.0  0.37236  0.73318  0.08212  1.0000
  C   C1729     1.0  0.38496  0.63972  0.20938  1.0000
  C   C1730     1.0  0.37868  0.63015  0.19958  1.0000
  C   C1731     1.0  0.36808  0.61685  0.20888  1.0000
  C   C1732     1.0  0.60389  0.78216  0.02515  1.0000
  H   H3064     1.0  0.63080  0.82998  0.17992  1.0000
  H   H3065     1.0  0.39304  0.64997  0.20207  1.0000
  H   H3066     1.0  0.38200  0.63309  0.18472  1.0000
  C   C1733     1.0  0.48561  0.84667  0.05786  1.0000
  H   H3067     1.0  0.41303  0.84566  0.22455  1.0000
  H   H3068     1.0  0.59728  0.79045  0.08884  1.0000
  H   H3069     1.0  0.37215  0.72288  0.11086  1.0000
  C   C1734     1.0  0.39875  0.75938  0.22296  1.0000
  H   H3070     1.0  0.42996  0.77072  0.08794  1.0000
  H   H3071     1.0  0.59490  0.85878  0.22083  1.0000
  H   H3072     1.0  0.37889  0.74271  0.07024  1.0000
  C   C1735     1.0  0.62899  0.82717  0.16706  1.0000
  Fe  Fe198     1.0  0.34105  0.58521  0.20888  1.0000
  H   H3073     1.0  0.35650  0.63174  0.07545  1.0000
  H   H3074     1.0  0.63923  0.82233  0.13093  1.0000
  H   H3075     1.0  0.63778  0.78979  0.00494  1.0000
  H   H3076     1.0  0.42665  0.60721  0.20580  1.0000
  C   C1736     1.0  0.55532  0.81390  0.02852  1.0000
  H   H3077     1.0  0.49476  0.83110  0.18049  1.0000
  C   C1737     1.0  0.51684  0.71224  0.20185  1.0000
  S   S404      1.0  0.34569  0.51881  0.20383  1.0000
  C   C1738     1.0  0.43182  0.75697  0.09711  1.0000
  C   C1739     1.0  0.47369  0.70101  0.17875  1.0000
  H   H3078     1.0  0.42127  0.62802  0.21400  1.0000
  H   H3079     1.0  0.38214  0.71357  0.16689  1.0000
  H   H3080     1.0  0.40456  0.59617  0.22599  1.0000
  H   H3081     1.0  0.43662  0.89814  0.11717  1.0000
  C   C1740     1.0  0.33914  0.97245  0.22241  1.0000
  C   C1741     1.0  0.59887  0.75759  0.01128  1.0000
  H   H3082     1.0  0.58852  0.81263  0.07589  1.0000
  H   H3083     1.0  0.33066  0.61786  0.09444  1.0000
  H   H3084     1.0  0.48523  0.84770  0.09130  1.0000
  S   S405      1.0  0.38947  0.97513  0.19989  1.0000
  H   H3085     1.0  0.49573  0.77715  0.20668  1.0000
  H   H3086     1.0  0.33712  0.95855  0.22273  1.0000
  H   H3087     1.0  0.61152  0.87264  0.17719  1.0000
  H   H3088     1.0  0.48449  0.57334  0.20122  1.0000
  C   C1742     1.0  0.53420  0.84900  0.23131  1.0000
  C   C1743     1.0  0.38082  0.63595  0.22860  1.0000
  H   H3089     1.0  0.63417  0.89134  0.17275  1.0000
  H   H3090     1.0  0.61778  0.82138  0.11189  1.0000
  H   H3091     1.0  0.61708  0.84422  0.21888  1.0000
  C   C1744     1.0  0.62397  0.85981  0.15288  1.0000
  H   H3092     1.0  0.39333  0.72840  0.09743  1.0000
  C   C1745     1.0  0.39677  0.77233  0.16159  1.0000
  C   C1746     1.0  0.41374  0.76659  0.15059  1.0000
  C   C1747     1.0  0.42267  0.74810  0.15383  1.0000
  C   C1748     1.0  0.41506  0.73552  0.16857  1.0000
  C   C1749     1.0  0.39823  0.74130  0.17980  1.0000
  C   C1750     1.0  0.38898  0.75969  0.17616  1.0000
  H   H3093     1.0  0.41987  0.77633  0.13940  1.0000
  H   H3094     1.0  0.43561  0.74354  0.14503  1.0000
  H   H3095     1.0  0.39223  0.73157  0.19110  1.0000
  H   H3096     1.0  0.37581  0.76413  0.18468  1.0000
  C   C1751     1.0  0.41339  0.87925  0.14768  1.0000
  C   C1752     1.0  0.40934  0.89605  0.15342  1.0000
  C   C1753     1.0  0.41673  0.89782  0.16768  1.0000
  C   C1754     1.0  0.42841  0.88281  0.17615  1.0000
  C   C1755     1.0  0.43222  0.86591  0.17066  1.0000
  C   C1756     1.0  0.42478  0.86413  0.15643  1.0000
  H   H3097     1.0  0.40056  0.90782  0.14669  1.0000
  H   H3098     1.0  0.41370  0.91091  0.17182  1.0000
  H   H3099     1.0  0.44106  0.85421  0.17734  1.0000
  H   H3100     1.0  0.42804  0.85117  0.15209  1.0000
  C   C1757     1.0  0.39012  0.79542  0.03696  1.0000
  C   C1758     1.0  0.38957  0.81359  0.02735  1.0000
  C   C1759     1.0  0.38866  0.82750  0.03664  1.0000
  C   C1760     1.0  0.38890  0.82325  0.05546  1.0000
  C   C1761     1.0  0.38976  0.80508  0.06498  1.0000
  C   C1762     1.0  0.39011  0.79123  0.05582  1.0000
  H   H3101     1.0  0.38921  0.81702  0.01288  1.0000
  H   H3102     1.0  0.38777  0.84158  0.02923  1.0000
  H   H3103     1.0  0.38985  0.80189  0.07942  1.0000
  H   H3104     1.0  0.39066  0.77720  0.06323  1.0000
  C   C1763     1.0  0.59612  0.77161  0.15141  1.0000
  C   C1764     1.0  0.58933  0.76189  0.14240  1.0000
  C   C1765     1.0  0.58526  0.74463  0.15131  1.0000
  C   C1766     1.0  0.58722  0.73733  0.16951  1.0000
  C   C1767     1.0  0.59376  0.74719  0.17863  1.0000
  C   C1768     1.0  0.59851  0.76416  0.16948  1.0000
  H   H3105     1.0  0.58753  0.76755  0.12843  1.0000
  H   H3106     1.0  0.58032  0.73703  0.14415  1.0000
  H   H3107     1.0  0.59533  0.74171  0.19264  1.0000
  H   H3108     1.0  0.60369  0.77166  0.17652  1.0000
  C   C1769     1.0  0.55465  0.88379  0.15558  1.0000
  C   C1770     1.0  0.54825  0.89075  0.17173  1.0000
  C   C1771     1.0  0.55897  0.89964  0.17736  1.0000
  C   C1772     1.0  0.57580  0.90266  0.16632  1.0000
  C   C1773     1.0  0.58195  0.89645  0.14966  1.0000
  C   C1774     1.0  0.57157  0.88663  0.14446  1.0000
  H   H3109     1.0  0.53496  0.88915  0.17997  1.0000
  H   H3110     1.0  0.55405  0.90433  0.19018  1.0000
  H   H3111     1.0  0.59468  0.89928  0.14080  1.0000
  H   H3112     1.0  0.57633  0.88178  0.13167  1.0000
  C   C1775     1.0  0.49982  0.80250  0.13553  1.0000
  C   C1776     1.0  0.50726  0.80542  0.11667  1.0000
  C   C1777     1.0  0.49632  0.80674  0.10417  1.0000
  C   C1778     1.0  0.47790  0.80545  0.11055  1.0000
  C   C1779     1.0  0.47057  0.80239  0.12941  1.0000
  C   C1780     1.0  0.48155  0.80094  0.14189  1.0000
  H   H3113     1.0  0.52140  0.80673  0.11169  1.0000
  H   H3114     1.0  0.50205  0.80908  0.08956  1.0000
  H   H3115     1.0  0.45656  0.80085  0.13438  1.0000
  H   H3116     1.0  0.47592  0.79900  0.15645  1.0000
  C   C1781     1.0  0.55616  0.83376  0.05448  1.0000
  C   C1782     1.0  0.55381  0.81557  0.06023  1.0000
  C   C1783     1.0  0.55343  0.80567  0.04726  1.0000
  C   C1784     1.0  0.60609  0.81317  0.00787  1.0000
  C   C1785     1.0  0.33073  0.62560  0.12037  1.0000
  H   H3117     1.0  0.64643  0.68893  0.20523  1.0000
  H   H3118     1.0  0.48148  0.89180  0.10337  1.0000
  C   C1786     1.0  0.55964  0.66491  0.18843  1.0000
  C   C1787     1.0  0.44202  0.90230  0.10226  1.0000
  H   H3119     1.0  0.65176  0.79211  0.16921  1.0000
  H   H3120     1.0  0.61917  0.61031  0.22462  1.0000
  H   H3121     1.0  0.47592  0.85755  0.19894  1.0000
  C   C1788     1.0  0.36683  0.77062  0.12833  1.0000
  H   H3122     1.0  0.35998  0.74198  0.15644  1.0000
  C   C1789     1.0  0.41439  0.74924  0.10179  1.0000
  H   H3123     1.0  0.62429  0.68732  0.20271  1.0000
  H   H3124     1.0  0.48888  0.69470  0.20036  1.0000
  N   N98       1.0  0.44569  0.83354  0.01965  1.0000
  C   C1790     1.0  0.63794  0.69009  0.19515  1.0000
  C   C1791     1.0  0.44033  0.81803  0.03524  1.0000
  C   C1792     1.0  0.43280  0.85125  0.02357  1.0000
  C   C1793     1.0  0.46496  0.83530  0.01869  1.0000
  H   H3125     1.0  0.63780  0.82973  0.09822  1.0000
  H   H3126     1.0  0.52500  0.84305  0.20984  1.0000
  C   C1794     1.0  0.43168  0.85599  0.04235  1.0000
  C   C1795     1.0  0.44378  0.79866  0.03069  1.0000
  C   C1796     1.0  0.44149  0.78391  0.04816  1.0000
  H   H3127     1.0  0.45258  0.91045  0.10042  1.0000
  H   H3128     1.0  0.49969  0.84305  0.06065  1.0000
  C   C1797     1.0  0.41782  0.87389  0.04472  1.0000
  H   H3129     1.0  0.58377  0.76181  0.01563  1.0000
  S   S406      1.0  0.33237  0.57316  0.18932  1.0000
  H   H3130     1.0  0.44707  0.81678  0.04686  1.0000
  H   H3131     1.0  0.42540  0.82116  0.04113  1.0000
  H   H3132     1.0  0.41859  0.85095  0.02289  1.0000
  H   H3133     1.0  0.43656  0.86326  0.01306  1.0000
  H   H3134     1.0  0.35722  0.73746  0.08378  1.0000
  H   H3135     1.0  0.46632  0.83752  0.03195  1.0000
  H   H3136     1.0  0.37845  0.70296  0.14996  1.0000
  C   C1798     1.0  0.44318  0.83096  0.00162  1.0000
  H   H3137     1.0  0.55542  0.83290  0.18738  1.0000
  C   C1799     1.0  0.44717  0.62308  0.19478  1.0000
  H   H3138     1.0  0.44503  0.85803  0.04346  1.0000
  H   H3139     1.0  0.42742  0.84495  0.05389  1.0000
  H   H3140     1.0  0.43366  0.79850  0.02271  1.0000
  H   H3141     1.0  0.45767  0.79462  0.02249  1.0000
  H   H3142     1.0  0.44303  0.77043  0.04447  1.0000
  H   H3143     1.0  0.45206  0.78275  0.05611  1.0000
  H   H3144     1.0  0.42769  0.78729  0.05683  1.0000
  C   C1800     1.0  0.34031  0.62048  0.10151  1.0000
  H   H3145     1.0  0.62859  0.65773  0.21276  1.0000
  H   H3146     1.0  0.41568  0.96977  0.22278  1.0000
  H   H3147     1.0  0.42841  0.83140  0.00246  1.0000
  H   H3148     1.0  0.36026  0.78971  0.10292  1.0000
  H   H3149     1.0  0.42777  0.64597  0.18224  1.0000
  H   H3150     1.0  0.41691  0.87683  0.05839  1.0000
  H   H3151     1.0  0.42205  0.88558  0.03397  1.0000
  H   H3152     1.0  0.40398  0.87274  0.04390  1.0000
  N   N99       1.0  0.43587  0.78125  0.19769  1.0000
  C   C1801     1.0  0.41813  0.79541  0.19845  1.0000
  C   C1802     1.0  0.43195  0.76457  0.21221  1.0000
  C   C1803     1.0  0.44975  0.78902  0.20257  1.0000
  C   C1804     1.0  0.44235  0.77732  0.17848  1.0000
  C   C1805     1.0  0.45377  0.75773  0.17658  1.0000
  C   C1806     1.0  0.41932  0.81497  0.18689  1.0000
  C   C1807     1.0  0.46927  0.77694  0.20184  1.0000
  C   C1808     1.0  0.41714  0.75541  0.20974  1.0000
  H   H3153     1.0  0.35033  0.80413  0.13896  1.0000
  C   C1809     1.0  0.46455  0.75734  0.15695  1.0000
  C   C1810     1.0  0.40029  0.82633  0.18471  1.0000
  C   C1811     1.0  0.48166  0.78574  0.20815  1.0000
  H   H3154     1.0  0.41190  0.79698  0.21288  1.0000
  H   H3155     1.0  0.40793  0.79069  0.19370  1.0000
  H   H3156     1.0  0.44443  0.75363  0.21297  1.0000
  H   H3157     1.0  0.58004  0.97921  0.21746  1.0000
  H   H3158     1.0  0.44456  0.79232  0.21653  1.0000
  H   H3159     1.0  0.45185  0.80215  0.19291  1.0000
  H   H3160     1.0  0.43059  0.77940  0.17174  1.0000
  H   H3161     1.0  0.45029  0.78763  0.16955  1.0000
  H   H3162     1.0  0.44448  0.74789  0.18009  1.0000
  H   H3163     1.0  0.46368  0.75238  0.18578  1.0000
  H   H3164     1.0  0.42527  0.82239  0.19386  1.0000
  H   H3165     1.0  0.42797  0.81439  0.17303  1.0000
  H   H3166     1.0  0.47578  0.77538  0.18751  1.0000
  C   C1812     1.0  0.49998  0.73137  0.22591  1.0000
  H   H3167     1.0  0.41484  0.75945  0.19554  1.0000
  H   H3168     1.0  0.42207  0.74029  0.21233  1.0000
  H   H3169     1.0  0.34925  0.97640  0.20970  1.0000
  C   C1813     1.0  0.34925  0.63596  0.08868  1.0000
  H   H3170     1.0  0.45682  0.62426  0.22734  1.0000
  H   H3171     1.0  0.45566  0.76422  0.14682  1.0000
  H   H3172     1.0  0.47623  0.76434  0.15396  1.0000
  H   H3173     1.0  0.47009  0.74289  0.15528  1.0000
  H   H3174     1.0  0.39422  0.82032  0.17651  1.0000
  H   H3175     1.0  0.39101  0.82691  0.19831  1.0000
  H   H3176     1.0  0.40126  0.84060  0.17739  1.0000
  H   H3177     1.0  0.62290  0.76928  0.00294  1.0000
  H   H3178     1.0  0.60568  0.82772  0.14375  1.0000
  S   S407      1.0  0.34507  0.55830  0.22917  1.0000
  H   H3179     1.0  0.34585  0.81703  0.11692  1.0000
  Fe  Fe199     1.0  0.55436  0.95198  0.22232  1.0000
  H   H3180     1.0  0.49091  0.86154  0.12501  1.0000
  H   H3181     1.0  0.61365  0.77958  0.06040  1.0000
  H   H3182     1.0  0.33454  0.79817  0.12858  1.0000
  H   H3183     1.0  0.54703  0.75457  0.15548  1.0000
  C   C1814     1.0  0.53653  0.75257  0.14901  1.0000
  N   N100      1.0  0.38018  0.75579  0.11914  1.0000
  H   H3184     1.0  0.35318  0.76682  0.13388  1.0000
  H   H3185     1.0  0.41214  0.74741  0.08872  1.0000
  H   H3186     1.0  0.62534  0.89090  0.21608  1.0000
  H   H3187     1.0  0.54418  0.72200  0.17508  1.0000
  H   H3188     1.0  0.63806  0.67869  0.17210  1.0000
  H   H3189     1.0  0.34020  0.58380  0.11440  1.0000
  C   C1815     1.0  0.55703  0.83228  0.02289  1.0000
  H   H3190     1.0  0.49243  0.84249  0.21083  1.0000
  C   C1816     1.0  0.43252  0.61607  0.21117  1.0000
  H   H3191     1.0  0.44341  0.74765  0.08998  1.0000
  H   H3192     1.0  0.46315  0.83881  0.14985  1.0000
  C   C1817     1.0  0.36687  0.73239  0.14690  1.0000
  H   H3193     1.0  0.47920  0.80698  0.02701  1.0000
  H   H3194     1.0  0.46182  0.84838  0.09414  1.0000
  H   H3195     1.0  0.62439  0.65461  0.19214  1.0000
  H   H3196     1.0  0.47940  0.83429  0.06275  1.0000
  N   N101      1.0  0.65232  0.65664  0.19025  1.0000
  H   H3197     1.0  0.51658  0.82616  0.18728  1.0000
  H   H3198     1.0  0.61125  0.80813  0.18337  1.0000
  H   H3199     1.0  0.32586  0.98233  0.22198  1.0000
  H   H3200     1.0  0.52910  0.76630  0.14310  1.0000
  C   C1818     1.0  0.55096  0.68537  0.18650  1.0000
  H   H3201     1.0  0.46522  0.71405  0.18257  1.0000
  C   C1819     1.0  0.61259  0.83943  0.14086  1.0000
  C   C1820     1.0  0.59766  0.84668  0.17172  1.0000
  C   C1821     1.0  0.43848  0.63404  0.17842  1.0000
  H   H3202     1.0  0.46591  0.68987  0.18532  1.0000
  H   H3203     1.0  0.48666  0.85108  0.04278  1.0000
  H   H3204     1.0  0.53866  0.71630  0.15640  1.0000
  C   C1822     1.0  0.51870  0.84917  0.22217  1.0000
  H   H3205     1.0  0.63275  0.87179  0.20453  1.0000
  H   H3206     1.0  0.39279  0.72715  0.12804  1.0000
  N   N102      1.0  0.49008  0.87133  0.21060  1.0000
  C   C1823     1.0  0.48715  0.88922  0.19679  1.0000
  H   H3207     1.0  0.51144  0.73845  0.22393  1.0000
  C   C1824     1.0  0.50787  0.86907  0.21666  1.0000
  H   H3208     1.0  0.64808  0.71387  0.17698  1.0000
  C   C1825     1.0  0.48492  0.90704  0.20394  1.0000
  H   H3209     1.0  0.40301  0.87671  0.23137  1.0000
  H   H3210     1.0  0.64288  0.82590  0.15803  1.0000
  C   C1826     1.0  0.48624  0.92366  0.18814  1.0000
  H   H3211     1.0  0.47483  0.89066  0.19109  1.0000
  H   H3212     1.0  0.49887  0.88930  0.18480  1.0000
  C   C1827     1.0  0.41004  0.98426  0.21935  1.0000
  H   H3213     1.0  0.51763  0.87623  0.20569  1.0000
  S   S408      1.0  0.44036  0.70268  0.21911  1.0000
  C   C1828     1.0  0.59854  0.79716  0.22449  1.0000
  H   H3214     1.0  0.61298  0.80926  0.99439  1.0000
  H   H3215     1.0  0.47124  0.91013  0.21299  1.0000
  H   H3216     1.0  0.49565  0.90576  0.21169  1.0000
  H   H3217     1.0  0.49734  0.86525  0.17179  1.0000
  H   H3218     1.0  0.51653  0.85866  0.18289  1.0000
  H   H3219     1.0  0.61634  0.84573  0.10252  1.0000
  H   H3220     1.0  0.60964  0.88530  0.20562  1.0000
  Fe  Fe200     1.0  0.44749  0.67198  0.22614  1.0000
  H   H3221     1.0  0.48397  0.93622  0.19378  1.0000
  H   H3222     1.0  0.50003  0.92187  0.17900  1.0000
  H   H3223     1.0  0.47561  0.92560  0.18001  1.0000
  H   H3224     1.0  0.47015  0.85774  0.15468  1.0000
  H   H3225     1.0  0.60912  0.78830  0.21591  1.0000
  H   H3226     1.0  0.55931  0.85622  0.03129  1.0000
  H   H3227     1.0  0.37990  0.87756  0.22939  1.0000
  C   C1829     1.0  0.39771  0.76270  0.11047  1.0000
  S   S409      1.0  0.55708  0.80044  0.01236  1.0000
  H   H3228     1.0  0.51346  0.89931  0.07663  1.0000
  N   N103      1.0  0.52068  0.70893  0.18250  1.0000
  H   H3229     1.0  0.44916  0.63930  0.16699  1.0000
  H   H3230     1.0  0.45167  0.89058  0.07812  1.0000
  H   H3231     1.0  0.35670  0.75451  0.10908  1.0000
  C   C1830     1.0  0.47404  0.59205  0.22041  1.0000
  C   C1831     1.0  0.51595  0.88596  0.08637  1.0000
  H   H3232     1.0  0.59214  0.81536  0.04079  1.0000
  C   C1832     1.0  0.36342  0.79013  0.11609  1.0000
  H   H3233     1.0  0.47975  0.87471  0.06108  1.0000
  C   C1833     1.0  0.50352  0.71092  0.17554  1.0000
  H   H3234     1.0  0.46834  0.84762  0.00829  1.0000
  C   C1834     1.0  0.48737  0.57534  0.21396  1.0000
  H   H3235     1.0  0.48630  0.84155  0.12001  1.0000
  C   C1835     1.0  0.48226  0.88453  0.09225  1.0000
  S   S410      1.0  0.54090  0.98180  0.22328  1.0000
  H   H3236     1.0  0.62565  0.71216  0.17502  1.0000
  H   H3237     1.0  0.61511  0.81432  0.04186  1.0000
  C   C1836     1.0  0.37190  0.75245  0.10474  1.0000
  H   H3238     1.0  0.48698  0.74063  0.23073  1.0000
  C   C1837     1.0  0.49921  0.82273  0.01102  1.0000
  H   H3239     1.0  0.51856  0.74904  0.17518  1.0000
  C   C1838     1.0  0.62510  0.83290  0.10861  1.0000
  C   C1839     1.0  0.60015  0.80060  0.07586  1.0000
  C   C1840     1.0  0.42606  0.91496  0.09400  1.0000
  H   H3240     1.0  0.51473  0.88847  0.10030  1.0000
  H   H3241     1.0  0.37426  0.76295  0.09188  1.0000
  H   H3242     1.0  0.60296  0.85149  0.13462  1.0000
  H   H3243     1.0  0.63819  0.85692  0.14478  1.0000
  H   H3244     1.0  0.46902  0.76321  0.21082  1.0000
  C   C1841     1.0  0.62095  0.87937  0.21324  1.0000
  C   C1842     1.0  0.63476  0.65062  0.20101  1.0000
  H   H3245     1.0  0.60107  0.83863  0.01853  1.0000
  C   C1843     1.0  0.62375  0.80811  0.17239  1.0000
  H   H3246     1.0  0.60917  0.63368  0.22713  1.0000
  N   N104      1.0  0.46758  0.87318  0.09796  1.0000
  H   H3247     1.0  0.39191  0.77398  0.21965  1.0000
  H   H3248     1.0  0.37566  0.79629  0.11310  1.0000
  H   H3249     1.0  0.45991  0.86531  0.06421  1.0000
  H   H3250     1.0  0.59121  0.86153  0.16899  1.0000
  C   C1844     1.0  0.63487  0.71005  0.18472  1.0000
  C   C1845     1.0  0.48027  0.85358  0.12659  1.0000
  H   H3251     1.0  0.46952  0.72463  0.98884  1.0000
  H   H3252     1.0  0.55064  0.68961  0.19939  1.0000
  H   H3253     1.0  0.50125  0.83357  0.99844  1.0000
  H   H3254     1.0  0.60799  0.77066  0.03629  1.0000
  C   C1846     1.0  0.52308  0.74204  0.16337  1.0000
  C   C1847     1.0  0.53146  0.68948  0.18242  1.0000
  H   H3255     1.0  0.63378  0.85810  0.17799  1.0000
  H   H3256     1.0  0.64119  0.78311  0.04530  1.0000
  H   H3257     1.0  0.58873  0.78618  0.02934  1.0000
  H   H3258     1.0  0.64388  0.62603  0.22107  1.0000
  H   H3259     1.0  0.46102  0.87454  0.22182  1.0000
  H   H3260     1.0  0.54338  0.74527  0.13753  1.0000
  C   C1848     1.0  0.50243  0.87427  0.08682  1.0000
  H   H3261     1.0  0.50714  0.71047  0.16062  1.0000
  C   C1849     1.0  0.63399  0.88505  0.16129  1.0000
  H   H3262     1.0  0.47611  0.70243  0.16362  1.0000
  H   H3263     1.0  0.49441  0.72455  0.17645  1.0000
  C   C1850     1.0  0.37831  0.73318  0.09964  1.0000
  C   C1851     1.0  0.48986  0.85610  0.20159  1.0000
  H   H3264     1.0  0.55126  0.65661  0.19985  1.0000
  C   C1852     1.0  0.44988  0.88521  0.09319  1.0000
  C   C1853     1.0  0.47231  0.85712  0.08843  1.0000
  C   C1854     1.0  0.50342  0.85518  0.18295  1.0000
  C   C1855     1.0  0.60353  0.84589  0.98941  1.0000
  H   H3265     1.0  0.56083  0.85399  0.18844  1.0000
  S   S411      1.0  0.57310  0.89960  0.22538  1.0000
  N   N105      1.0  0.61238  0.79835  0.02347  1.0000
  H   H3266     1.0  0.61066  0.82072  0.21301  1.0000
  H   H3267     1.0  0.52888  0.71610  0.20427  1.0000
  H   H3268     1.0  0.60424  0.74642  0.02210  1.0000
  Fe  Fe201     1.0  0.57872  0.70824  0.21105  1.0000
  H   H3269     1.0  0.58882  0.84686  0.98977  1.0000
  C   C1856     1.0  0.61760  0.62490  0.21727  1.0000
  H   H3270     1.0  0.35983  0.70928  0.16836  1.0000
  C   C1857     1.0  0.56654  0.83922  0.18824  1.0000
  H   H3271     1.0  0.49810  0.73954  0.19751  1.0000
  H   H3272     1.0  0.43217  0.62519  0.17350  1.0000
  C   C1858     1.0  0.61481  0.86660  0.23136  1.0000
  H   H3273     1.0  0.61031  0.62678  0.20598  1.0000
  H   H3274     1.0  0.62148  0.80416  0.16040  1.0000
  H   H3275     1.0  0.57662  0.84331  0.15909  1.0000
  H   H3276     1.0  0.34801  0.55115  0.12897  1.0000
  H   H3277     1.0  0.47978  0.89572  0.08015  1.0000
  C   C1859     1.0  0.49953  0.72664  0.20785  1.0000
  C   C1860     1.0  0.60929  0.83272  0.00647  1.0000
  C   C1861     1.0  0.47382  0.86228  0.06729  1.0000
  C   C1862     1.0  0.47445  0.84628  0.14711  1.0000
  H   H3278     1.0  0.43898  0.87699  0.09688  1.0000
  H   H3279     1.0  0.56008  0.69275  0.17500  1.0000
  H   H3280     1.0  0.57351  0.66247  0.19144  1.0000
  Fe  Fe202     1.0  0.40106  0.94587  0.21250  1.0000
  H   H3281     1.0  0.53018  0.87858  0.08180  1.0000
  H   H3282     1.0  0.62832  0.71934  0.19458  1.0000
  H   H3283     1.0  0.35940  0.63901  0.09489  1.0000
  H   H3284     1.0  0.57128  0.83237  0.20124  1.0000
  C   C1863     1.0  0.60243  0.79181  0.05943  1.0000
  C   C1864     1.0  0.53244  0.72168  0.16929  1.0000
  H   H3285     1.0  0.39845  0.87630  0.20964  1.0000
  H   H3286     1.0  0.61609  0.87091  0.14372  1.0000
  H   H3287     1.0  0.48247  0.79965  0.19958  1.0000
  C   C1865     1.0  0.64265  0.77816  0.03252  1.0000
  H   H3288     1.0  0.62391  0.83253  0.00555  1.0000
  H   H3289     1.0  0.43540  0.75820  0.10981  1.0000
  H   H3290     1.0  0.35145  0.60819  0.10333  1.0000
  C   C1866     1.0  0.62525  0.86815  0.16883  1.0000
  Fe  Fe203     1.0  0.40559  0.78034  0.99644  1.0000
  C   C1867     1.0  0.34562  0.56184  0.13720  1.0000
  H   H3291     1.0  0.51129  0.74328  0.15705  1.0000
  C   C1868     1.0  0.63000  0.83526  0.12582  1.0000
  H   H3292     1.0  0.58720  0.82209  0.17185  1.0000
  H   H3293     1.0  0.64987  0.64103  0.17129  1.0000
  H   H3294     1.0  0.48625  0.83654  0.15215  1.0000
  H   H3295     1.0  0.41714  0.73570  0.11108  1.0000
  H   H3296     1.0  0.47608  0.60427  0.20946  1.0000
  C   C1869     1.0  0.50758  0.83610  0.17845  1.0000
  H   H3297     1.0  0.45247  0.85840  0.12248  1.0000
  H   H3298     1.0  0.58964  0.78691  0.06090  1.0000
  H   H3299     1.0  0.37150  0.77193  0.14044  1.0000
  C   C1870     1.0  0.63303  0.79353  0.01871  1.0000
  H   H3300     1.0  0.50979  0.81016  0.00885  1.0000
  C   C1871     1.0  0.49182  0.69616  0.18522  1.0000
  C   C1872     1.0  0.64738  0.67678  0.18170  1.0000
  H   H3301     1.0  0.39200  0.74163  0.14280  1.0000
  H   H3302     1.0  0.55841  0.83877  0.00851  1.0000
  C   C1873     1.0  0.46387  0.86604  0.11847  1.0000
  N   N106      1.0  0.61568  0.84287  0.15825  1.0000
  H   H3303     1.0  0.60001  0.84373  0.18598  1.0000
  H   H3304     1.0  0.63707  0.76551  0.03585  1.0000
  C   C1874     1.0  0.60570  0.80585  0.04098  1.0000
  H   H3305     1.0  0.41506  0.90737  0.09559  1.0000
  H   H3306     1.0  0.34290  0.59585  0.14228  1.0000
  H   H3307     1.0  0.37663  0.71915  0.07904  1.0000
  C   C1875     1.0  0.38397  0.73898  0.13392  1.0000
  H   H3308     1.0  0.51472  0.83675  0.16388  1.0000
  H   H3309     1.0  0.45430  0.63208  0.19842  1.0000
  S   S412      1.0  0.39748  0.69841  0.22419  1.0000
  H   H3310     1.0  0.60176  0.75222  0.99847  1.0000
  H   H3311     1.0  0.52402  0.67949  0.19284  1.0000
  C   C1876     1.0  0.33507  0.48880  0.19973  1.0000
  C   C1877     1.0  0.32952  0.59453  0.14025  1.0000
  S   S413      1.0  0.58190  0.67844  0.22516  1.0000
  H   H3312     1.0  0.40199  0.76769  0.12077  1.0000
  C   C1878     1.0  0.34752  0.80308  0.12580  1.0000
  H   H3313     1.0  0.64401  0.62097  0.19951  1.0000
  H   H3314     1.0  0.47653  0.78673  0.22282  1.0000
  C   C1879     1.0  0.63649  0.62977  0.20959  1.0000
  C   C1880     1.0  0.47404  0.87227  0.22664  1.0000
  C   C1881     1.0  0.63891  0.79317  0.17985  1.0000
  S   S414      1.0  0.47697  0.65672  0.22249  1.0000
  C   C1882     1.0  0.39461  0.87156  0.22476  1.0000
  S   S415      1.0  0.59561  0.71577  0.22666  1.0000
  C   C1883     1.0  0.39817  0.85060  0.22952  1.0000
  H   H3315     1.0  0.35909  0.56450  0.13734  1.0000
  H   H3316     1.0  0.34197  0.62596  0.12683  1.0000
  H   H3317     1.0  0.33023  0.61064  0.16658  1.0000
  H   H3318     1.0  0.63762  0.84657  0.12139  1.0000
  H   H3319     1.0  0.47874  0.81388  0.00287  1.0000
  C   C1884     1.0  0.45392  0.58925  0.22545  1.0000
  H   H3320     1.0  0.63465  0.77970  0.18368  1.0000
  H   H3321     1.0  0.42807  0.76799  0.22615  1.0000
  S   S416      1.0  0.42963  0.75736  0.99123  1.0000
  H   H3322     1.0  0.45035  0.81720  0.99869  1.0000
  H   H3323     1.0  0.58662  0.80292  0.21771  1.0000
  H   H3324     1.0  0.50163  0.57750  0.21095  1.0000
  H   H3325     1.0  0.45097  0.81983  0.22968  1.0000
  C   C1885     1.0  0.60650  0.81253  0.22691  1.0000
  H   H3326     1.0  0.62208  0.94780  0.22445  1.0000
  H   H3327     1.0  0.60554  0.85985  0.98884  1.0000
  H   H3328     1.0  0.51611  0.64779  0.21796  1.0000
  H   H3329     1.0  0.64154  0.79614  0.19226  1.0000
  H   H3330     1.0  0.38962  0.75084  0.22173  1.0000
  H   H3331     1.0  0.50126  0.82726  0.02285  1.0000
  C   C1886     1.0  0.45033  0.84461  0.98411  1.0000
  C   C1887     1.0  0.60615  0.85172  0.22843  1.0000
  S   S417      1.0  0.55215  0.71719  0.22970  1.0000
  H   H3332     1.0  0.50995  0.83999  0.23177  1.0000
  S   S418      1.0  0.47186  0.77667  0.98489  1.0000
  H   H3333     1.0  0.42295  0.57659  0.22963  1.0000
  Fe  Fe204     1.0  0.40765  0.66779  0.23124  1.0000
  H   H3334     1.0  0.53632  0.75820  0.98282  1.0000
  N   N107      1.0  0.43894  0.60589  0.22870  1.0000
  H   H3335     1.0  0.55423  0.73783  0.98270  1.0000
  C   C1888     1.0  0.49190  0.66417  0.23168  1.0000
  H   H3336     1.0  0.48628  0.56274  0.22480  1.0000
  H   H3337     1.0  0.53748  0.65656  0.23208  1.0000
  H   H3338     1.0  0.64382  0.93978  0.23153  1.0000
  H   H3339     1.0  0.36332  0.81549  0.28450  1.0000
  H   H3340     1.0  0.54778  0.75048  0.33442  1.0000
  Fe  Fe205     1.0  0.57507  0.82313  0.33160  1.0000
  S   S419      1.0  0.60487  0.81411  0.31973  1.0000
  S   S420      1.0  0.55841  0.85178  0.32604  1.0000
  Fe  Fe206     1.0  0.56954  0.78500  0.34984  1.0000
  S   S421      1.0  0.59892  0.77245  0.33978  1.0000
  S   S422      1.0  0.55102  0.76625  0.36800  1.0000
  Fe  Fe207     1.0  0.60600  0.79580  0.34746  1.0000
  S   S423      1.0  0.63179  0.78808  0.35923  1.0000
  Fe  Fe208     1.0  0.59576  0.79156  0.31295  1.0000
  S   S424      1.0  0.60871  0.78174  0.28637  1.0000
  S   S425      1.0  0.57673  0.80671  0.36009  1.0000
  S   S426      1.0  0.56577  0.80213  0.32234  1.0000
  Fe  Fe209     1.0  0.45445  0.77574  0.34069  1.0000
  S   S427      1.0  0.46284  0.79051  0.31182  1.0000
  S   S428      1.0  0.47391  0.75862  0.35895  1.0000
  Fe  Fe210     1.0  0.41379  0.78633  0.34017  1.0000
  S   S429      1.0  0.41908  0.80170  0.31089  1.0000
  S   S430      1.0  0.38356  0.78861  0.35298  1.0000
  Fe  Fe211     1.0  0.44222  0.77820  0.30546  1.0000
  S   S431      1.0  0.45014  0.76888  0.27827  1.0000
  Fe  Fe212     1.0  0.43892  0.81291  0.31945  1.0000
  S   S432      1.0  0.44161  0.84263  0.31039  1.0000
  S   S433      1.0  0.43538  0.76155  0.33395  1.0000
  S   S434      1.0  0.43224  0.79920  0.34914  1.0000
  H   H3341     1.0  0.35563  0.86389  0.41838  1.0000
  S   S435      1.0  0.35103  0.75854  0.43702  1.0000
  H   H3342     1.0  0.38715  0.80750  0.43073  1.0000
  H   H3343     1.0  0.38247  0.85887  0.29099  1.0000
  C   C1889     1.0  0.56089  0.73040  0.31635  1.0000
  H   H3344     1.0  0.35883  0.96130  0.23958  1.0000
  H   H3345     1.0  0.55996  0.75995  0.31246  1.0000
  S   S436      1.0  0.40446  0.71846  0.26297  1.0000
  H   H3346     1.0  0.40581  0.83847  0.30804  1.0000
  H   H3347     1.0  0.36414  0.87610  0.39569  1.0000
  S   S437      1.0  0.42438  0.66954  0.25072  1.0000
  C   C1890     1.0  0.59783  0.95254  0.29120  1.0000
  C   C1891     1.0  0.43724  0.75509  0.27405  1.0000
  C   C1892     1.0  0.44411  0.74629  0.25902  1.0000
  C   C1893     1.0  0.43431  0.73482  0.25556  1.0000
  C   C1894     1.0  0.41741  0.73241  0.26693  1.0000
  C   C1895     1.0  0.41038  0.74157  0.28170  1.0000
  C   C1896     1.0  0.42034  0.75274  0.28537  1.0000
  H   H3348     1.0  0.34241  0.89670  0.41536  1.0000
  H   H3349     1.0  0.58754  0.95649  0.30339  1.0000
  H   H3350     1.0  0.39729  0.73977  0.29052  1.0000
  H   H3351     1.0  0.41493  0.75950  0.29698  1.0000
  C   C1897     1.0  0.37511  0.77920  0.37620  1.0000
  C   C1898     1.0  0.38656  0.76769  0.38781  1.0000
  C   C1899     1.0  0.37909  0.76106  0.40640  1.0000
  C   C1900     1.0  0.36030  0.76645  0.41359  1.0000
  C   C1901     1.0  0.34899  0.77808  0.40197  1.0000
  C   C1902     1.0  0.35627  0.78398  0.38330  1.0000
  H   H3352     1.0  0.40111  0.76386  0.38247  1.0000
  H   H3353     1.0  0.38795  0.75205  0.41529  1.0000
  H   H3354     1.0  0.33456  0.78237  0.40729  1.0000
  H   H3355     1.0  0.34728  0.79259  0.37438  1.0000
  C   C1903     1.0  0.52904  0.76616  0.36504  1.0000
  C   C1904     1.0  0.52104  0.77775  0.35057  1.0000
  C   C1905     1.0  0.50378  0.77610  0.34859  1.0000
  C   C1906     1.0  0.49476  0.76273  0.36094  1.0000
  C   C1907     1.0  0.50281  0.75143  0.37534  1.0000
  C   C1908     1.0  0.51968  0.75326  0.37747  1.0000
  H   H3356     1.0  0.52832  0.78761  0.34079  1.0000
  H   H3357     1.0  0.49767  0.78474  0.33736  1.0000
  H   H3358     1.0  0.49591  0.74115  0.38497  1.0000
  H   H3359     1.0  0.52554  0.74447  0.38883  1.0000
  H   H3360     1.0  0.52283  0.74832  0.32171  1.0000
  H   H3361     1.0  0.34514  0.85340  0.35817  1.0000
  C   C1909     1.0  0.62619  0.81648  0.37765  1.0000
  H   H3362     1.0  0.34363  0.66116  0.26077  1.0000
  H   H3363     1.0  0.61225  0.82011  0.37557  1.0000
  H   H3364     1.0  0.60509  0.67896  0.28541  1.0000
  H   H3365     1.0  0.45040  0.68730  0.29524  1.0000
  C   C1910     1.0  0.50055  0.92710  0.23986  1.0000
  C   C1911     1.0  0.57169  0.75739  0.26551  1.0000
  C   C1912     1.0  0.56436  0.77273  0.27376  1.0000
  C   C1913     1.0  0.57570  0.78038  0.28006  1.0000
  C   C1914     1.0  0.59448  0.77301  0.27768  1.0000
  C   C1915     1.0  0.60201  0.75841  0.26837  1.0000
  C   C1916     1.0  0.59058  0.75037  0.26258  1.0000
  H   H3366     1.0  0.56987  0.79190  0.28683  1.0000
  H   H3367     1.0  0.61661  0.75287  0.26625  1.0000
  H   H3368     1.0  0.59634  0.73863  0.25607  1.0000
  H   H3369     1.0  0.33295  0.85439  0.40669  1.0000
  C   C1917     1.0  0.39703  0.88100  0.28131  1.0000
  C   C1918     1.0  0.41219  0.88734  0.28227  1.0000
  C   C1919     1.0  0.42542  0.87575  0.29192  1.0000
  C   C1920     1.0  0.42364  0.85773  0.30052  1.0000
  C   C1921     1.0  0.40782  0.85191  0.30066  1.0000
  C   C1922     1.0  0.39448  0.86355  0.29117  1.0000
  C   C1923     1.0  0.59698  0.75948  0.39402  1.0000
  H   H3370     1.0  0.43733  0.88061  0.29220  1.0000
  C   C1924     1.0  0.60191  0.98233  0.27103  1.0000
  C   C1925     1.0  0.57304  0.97268  0.27552  1.0000
  C   C1926     1.0  0.45430  0.70094  0.29011  1.0000
  H   H3371     1.0  0.65033  0.76561  0.39286  1.0000
  C   C1927     1.0  0.58290  0.84893  0.25711  1.0000
  H   H3372     1.0  0.57227  0.69490  0.32580  1.0000
  H   H3373     1.0  0.49948  0.97892  0.27560  1.0000
  C   C1928     1.0  0.62256  0.80353  0.44423  1.0000
  C   C1929     1.0  0.59208  0.73272  0.31632  1.0000
  H   H3374     1.0  0.47650  0.97525  0.28581  1.0000
  N   N108      1.0  0.57742  0.72158  0.32491  1.0000
  H   H3375     1.0  0.62754  0.79537  0.45681  1.0000
  H   H3376     1.0  0.57168  0.84344  0.28667  1.0000
  H   H3377     1.0  0.54544  0.87954  0.29733  1.0000
  H   H3378     1.0  0.58581  0.67396  0.30341  1.0000
  Fe  Fe213     1.0  0.55660  0.68825  0.24544  1.0000
  H   H3379     1.0  0.54980  0.77840  0.27573  1.0000
  H   H3380     1.0  0.64654  0.83020  0.26594  1.0000
  C   C1930     1.0  0.60023  0.92047  0.31142  1.0000
  C   C1931     1.0  0.48798  0.97373  0.27385  1.0000
  H   H3381     1.0  0.32424  0.85173  0.37499  1.0000
  H   H3382     1.0  0.60768  0.78400  0.44305  1.0000
  S   S438      1.0  0.52493  0.89477  0.24505  1.0000
  C   C1932     1.0  0.63227  0.74491  0.43597  1.0000
  C   C1933     1.0  0.55986  0.87914  0.29571  1.0000
  H   H3383     1.0  0.45718  0.74810  0.25025  1.0000
  H   H3384     1.0  0.37726  0.82741  0.31287  1.0000
  H   H3385     1.0  0.60892  0.72584  0.33725  1.0000
  C   C1934     1.0  0.61668  0.83737  0.27092  1.0000
  C   C1935     1.0  0.37109  0.97843  0.26010  1.0000
  H   H3386     1.0  0.38863  0.82266  0.36776  1.0000
  H   H3387     1.0  0.41796  0.79922  0.25603  1.0000
  C   C1936     1.0  0.58726  0.89040  0.27849  1.0000
  H   H3388     1.0  0.40823  0.83540  0.33952  1.0000
  C   C1937     1.0  0.35188  0.70115  0.45776  1.0000
  C   C1938     1.0  0.43013  0.82180  0.25471  1.0000
  C   C1939     1.0  0.59723  0.87814  0.29109  1.0000
  H   H3389     1.0  0.39877  0.85024  0.25772  1.0000
  C   C1940     1.0  0.56866  0.89057  0.28071  1.0000
  S   S439      1.0  0.65592  0.83182  0.40588  1.0000
  C   C1941     1.0  0.45712  0.85781  0.25758  1.0000
  H   H3390     1.0  0.45171  0.79883  0.24698  1.0000
  H   H3391     1.0  0.54293  0.72243  0.35257  1.0000
  H   H3392     1.0  0.53347  0.95651  0.27928  1.0000
  H   H3393     1.0  0.60537  0.83574  0.28303  1.0000
  H   H3394     1.0  0.33715  0.60723  0.26361  1.0000
  H   H3395     1.0  0.39318  0.78780  0.42004  1.0000
  S   S440      1.0  0.42804  0.90107  0.23732  1.0000
  N   N109      1.0  0.59914  0.83853  0.24551  1.0000
  H   H3396     1.0  0.64462  0.77252  0.43755  1.0000
  C   C1942     1.0  0.57327  0.83705  0.27482  1.0000
  H   H3397     1.0  0.46285  0.61715  0.27476  1.0000
  H   H3398     1.0  0.61578  0.71010  0.32179  1.0000
  H   H3399     1.0  0.62587  0.74920  0.39058  1.0000
  N   N110      1.0  0.63378  0.76126  0.42033  1.0000
  H   H3400     1.0  0.38972  0.58880  0.25929  1.0000
  C   C1943     1.0  0.35196  0.87132  0.40503  1.0000
  C   C1944     1.0  0.33545  0.71320  0.44991  1.0000
  C   C1945     1.0  0.61058  0.72473  0.32276  1.0000
  C   C1946     1.0  0.49726  0.68115  0.25182  1.0000
  H   H3401     1.0  0.61272  0.79989  0.42192  1.0000
  H   H3402     1.0  0.32826  0.69324  0.43957  1.0000
  H   H3403     1.0  0.58451  0.71243  0.35168  1.0000
  H   H3404     1.0  0.55426  0.72348  0.38045  1.0000
  H   H3405     1.0  0.37730  0.84963  0.25425  1.0000
  Fe  Fe214     1.0  0.59742  0.68643  0.24206  1.0000
  H   H3406     1.0  0.62207  0.83683  0.39406  1.0000
  C   C1947     1.0  0.60106  0.95749  0.25691  1.0000
  H   H3407     1.0  0.48949  0.88518  0.25827  1.0000
  S   S441      1.0  0.55007  0.93163  0.24889  1.0000
  H   H3408     1.0  0.62771  0.82641  0.24590  1.0000
  S   S442      1.0  0.40003  0.94002  0.24275  1.0000
  S   S443      1.0  0.32736  0.80472  0.45183  1.0000
  H   H3409     1.0  0.60455  0.77098  0.42080  1.0000
  H   H3410     1.0  0.53536  0.75424  0.29841  1.0000
  C   C1948     1.0  0.59822  0.68002  0.29981  1.0000
  H   H3411     1.0  0.37198  0.83793  0.41307  1.0000
  H   H3412     1.0  0.33902  0.86830  0.38471  1.0000
  S   S444      1.0  0.59800  0.90529  0.25986  1.0000
  H   H3413     1.0  0.51163  0.77162  0.27456  1.0000
  H   H3414     1.0  0.65067  0.74224  0.40307  1.0000
  C   C1949     1.0  0.54150  0.96726  0.27721  1.0000
  H   H3415     1.0  0.58371  0.70766  0.29199  1.0000
  C   C1950     1.0  0.63860  0.80210  0.37026  1.0000
  H   H3416     1.0  0.36997  0.97847  0.28911  1.0000
  C   C1951     1.0  0.38250  0.80021  0.42255  1.0000
  C   C1952     1.0  0.62296  0.63629  0.25743  1.0000
  H   H3417     1.0  0.40746  0.96528  0.26538  1.0000
  C   C1953     1.0  0.56978  0.86676  0.30819  1.0000
  C   C1954     1.0  0.48516  0.67643  0.24370  1.0000
  H   H3418     1.0  0.59560  0.96678  0.24503  1.0000
  C   C1955     1.0  0.41534  0.81425  0.25011  1.0000
  S   S445      1.0  0.62596  0.67297  0.24695  1.0000
  C   C1956     1.0  0.61434  0.82856  0.25575  1.0000
  C   C1957     1.0  0.38411  0.79429  0.25670  1.0000
  H   H3419     1.0  0.59410  0.78836  0.23798  1.0000
  H   H3420     1.0  0.58152  0.82302  0.27840  1.0000
  H   H3421     1.0  0.33548  0.86498  0.45379  1.0000
  H   H3422     1.0  0.54779  0.82771  0.28706  1.0000
  S   S446      1.0  0.57257  0.69349  0.26369  1.0000
  H   H3423     1.0  0.59469  0.73488  0.30111  1.0000
  H   H3424     1.0  0.49194  0.69009  0.26161  1.0000
  Fe  Fe215     1.0  0.32513  0.77727  0.44846  1.0000
  H   H3425     1.0  0.33845  0.82564  0.39489  1.0000
  H   H3426     1.0  0.34669  0.58484  0.29079  1.0000
  H   H3427     1.0  0.41381  0.90115  0.27543  1.0000
  Fe  Fe216     1.0  0.56930  0.72207  0.24680  1.0000
  C   C1958     1.0  0.63463  0.82807  0.27736  1.0000
  C   C1959     1.0  0.37169  0.82361  0.28769  1.0000
  C   C1960     1.0  0.48296  0.93786  0.24002  1.0000
  H   H3428     1.0  0.49989  0.94622  0.28691  1.0000
  H   H3429     1.0  0.45458  0.63723  0.25873  1.0000
  S   S447      1.0  0.55675  0.74675  0.26001  1.0000
  C   C1961     1.0  0.37985  0.97964  0.27577  1.0000
  H   H3430     1.0  0.56475  0.73169  0.30118  1.0000
  C   C1962     1.0  0.65062  0.75567  0.40613  1.0000
  C   C1963     1.0  0.61429  0.75235  0.40208  1.0000
  H   H3431     1.0  0.65354  0.53396  0.27533  1.0000
  H   H3432     1.0  0.60836  0.64103  0.25824  1.0000
  C   C1964     1.0  0.64959  0.61106  0.25973  1.0000
  H   H3433     1.0  0.36808  0.79334  0.23735  1.0000
  H   H3434     1.0  0.47292  0.97615  0.25302  1.0000
  H   H3435     1.0  0.61167  0.87781  0.28940  1.0000
  H   H3436     1.0  0.59515  0.74909  0.38723  1.0000
  C   C1965     1.0  0.47458  0.85554  0.24284  1.0000
  S   S448      1.0  0.53059  0.67804  0.26002  1.0000
  N   N111      1.0  0.49982  0.84659  0.32013  1.0000
  C   C1966     1.0  0.51330  0.83344  0.33104  1.0000
  C   C1967     1.0  0.50065  0.84028  0.30270  1.0000
  C   C1968     1.0  0.50562  0.86494  0.31451  1.0000
  C   C1969     1.0  0.48049  0.84928  0.33132  1.0000
  C   C1970     1.0  0.47315  0.83167  0.34177  1.0000
  C   C1971     1.0  0.51379  0.83835  0.34930  1.0000
  C   C1972     1.0  0.49415  0.88035  0.30211  1.0000
  C   C1973     1.0  0.50466  0.81928  0.30349  1.0000
  C   C1974     1.0  0.50246  0.81519  0.28579  1.0000
  C   C1975     1.0  0.45495  0.83642  0.35504  1.0000
  C   C1976     1.0  0.52522  0.82254  0.36074  1.0000
  C   C1977     1.0  0.50225  0.89767  0.29589  1.0000
  H   H3437     1.0  0.52746  0.83230  0.32249  1.0000
  H   H3438     1.0  0.51065  0.81931  0.33459  1.0000
  H   H3439     1.0  0.48766  0.84640  0.29759  1.0000
  H   H3440     1.0  0.51163  0.84541  0.29143  1.0000
  H   H3441     1.0  0.52028  0.86320  0.30722  1.0000
  H   H3442     1.0  0.50489  0.87052  0.32675  1.0000
  H   H3443     1.0  0.47901  0.85795  0.34146  1.0000
  H   H3444     1.0  0.47060  0.85729  0.32242  1.0000
  H   H3445     1.0  0.48264  0.82183  0.35008  1.0000
  H   H3446     1.0  0.47058  0.82472  0.33196  1.0000
  H   H3447     1.0  0.52006  0.85053  0.34650  1.0000
  H   H3448     1.0  0.49990  0.84132  0.35793  1.0000
  H   H3449     1.0  0.47987  0.88418  0.30970  1.0000
  H   H3450     1.0  0.49372  0.87596  0.28959  1.0000
  H   H3451     1.0  0.51901  0.81307  0.30512  1.0000
  H   H3452     1.0  0.49538  0.81233  0.31504  1.0000
  H   H3453     1.0  0.48810  0.82053  0.28386  1.0000
  H   H3454     1.0  0.51192  0.82150  0.27372  1.0000
  H   H3455     1.0  0.50573  0.80009  0.28668  1.0000
  H   H3456     1.0  0.44461  0.84601  0.34751  1.0000
  H   H3457     1.0  0.44971  0.82368  0.36201  1.0000
  H   H3458     1.0  0.45682  0.84281  0.36571  1.0000
  H   H3459     1.0  0.52634  0.82680  0.37312  1.0000
  H   H3460     1.0  0.51876  0.81032  0.36528  1.0000
  H   H3461     1.0  0.53923  0.81874  0.35262  1.0000
  H   H3462     1.0  0.49337  0.90868  0.28771  1.0000
  H   H3463     1.0  0.50318  0.90269  0.30790  1.0000
  H   H3464     1.0  0.51610  0.89488  0.28705  1.0000
  H   H3465     1.0  0.32774  0.64072  0.25362  1.0000
  H   H3466     1.0  0.33342  0.56954  0.28829  1.0000
  C   C1978     1.0  0.46092  0.62237  0.26039  1.0000
  H   H3467     1.0  0.56094  0.89939  0.27085  1.0000
  H   H3468     1.0  0.32408  0.82191  0.36809  1.0000
  H   H3469     1.0  0.35508  0.82249  0.31528  1.0000
  H   H3470     1.0  0.35498  0.79505  0.26022  1.0000
  H   H3471     1.0  0.39965  0.82663  0.28268  1.0000
  H   H3472     1.0  0.63228  0.73261  0.43081  1.0000
  H   H3473     1.0  0.48363  0.94687  0.27349  1.0000
  H   H3474     1.0  0.34747  0.69485  0.47244  1.0000
  H   H3475     1.0  0.62893  0.94663  0.26267  1.0000
  C   C1979     1.0  0.33054  0.85199  0.45640  1.0000
  H   H3476     1.0  0.36887  0.86312  0.36761  1.0000
  H   H3477     1.0  0.57257  0.85696  0.24866  1.0000
  C   C1980     1.0  0.44472  0.61918  0.23653  1.0000
  H   H3478     1.0  0.36577  0.83842  0.28353  1.0000
  H   H3479     1.0  0.45760  0.84551  0.26891  1.0000
  H   H3480     1.0  0.50639  0.95091  0.26220  1.0000
  H   H3481     1.0  0.33330  0.89682  0.39592  1.0000
  H   H3482     1.0  0.42686  0.59143  0.25536  1.0000
  H   H3483     1.0  0.61890  0.77940  0.40021  1.0000
  C   C1981     1.0  0.48187  0.98410  0.25556  1.0000
  H   H3484     1.0  0.53538  0.97542  0.28813  1.0000
  C   C1982     1.0  0.65318  0.64278  0.25200  1.0000
  C   C1983     1.0  0.33734  0.84366  0.36842  1.0000
  C   C1984     1.0  0.37937  0.81262  0.40417  1.0000
  H   H3485     1.0  0.61230  0.92204  0.31582  1.0000
  H   H3486     1.0  0.36887  0.82277  0.25345  1.0000
  H   H3487     1.0  0.42991  0.81782  0.26969  1.0000
  C   C1985     1.0  0.36976  0.81919  0.30857  1.0000
  C   C1986     1.0  0.32881  0.59694  0.27108  1.0000
  C   C1987     1.0  0.36827  0.78880  0.25223  1.0000
  C   C1988     1.0  0.44928  0.81403  0.24466  1.0000
  C   C1989     1.0  0.38426  0.83724  0.36140  1.0000
  H   H3488     1.0  0.36970  0.79559  0.43055  1.0000
  H   H3489     1.0  0.47057  0.68173  0.24725  1.0000
  N   N112      1.0  0.49274  0.72200  0.29719  1.0000
  C   C1990     1.0  0.49114  0.71551  0.31763  1.0000
  C   C1991     1.0  0.50951  0.71017  0.28783  1.0000
  C   C1992     1.0  0.49403  0.74204  0.29210  1.0000
  C   C1993     1.0  0.47624  0.72020  0.29109  1.0000
  C   C1994     1.0  0.47044  0.70128  0.29807  1.0000
  C   C1995     1.0  0.47395  0.72534  0.32964  1.0000
  C   C1996     1.0  0.50018  0.74979  0.27131  1.0000
  C   C1997     1.0  0.52822  0.71170  0.29093  1.0000
  C   C1998     1.0  0.53727  0.69427  0.30281  1.0000
  H   H3490     1.0  0.38321  0.78976  0.27173  1.0000
  C   C1999     1.0  0.47282  0.71646  0.34997  1.0000
  C   C2000     1.0  0.50112  0.77005  0.26783  1.0000
  H   H3491     1.0  0.50314  0.71752  0.32189  1.0000
  H   H3492     1.0  0.49171  0.70042  0.32158  1.0000
  H   H3493     1.0  0.50848  0.69546  0.29200  1.0000
  H   H3494     1.0  0.51019  0.71310  0.27274  1.0000
  H   H3495     1.0  0.50322  0.74492  0.29959  1.0000
  H   H3496     1.0  0.48051  0.75076  0.29682  1.0000
  H   H3497     1.0  0.46407  0.73080  0.29532  1.0000
  H   H3498     1.0  0.47863  0.72310  0.27582  1.0000
  H   H3499     1.0  0.46605  0.69833  0.31324  1.0000
  H   H3500     1.0  0.48178  0.68993  0.29408  1.0000
  H   H3501     1.0  0.47454  0.73998  0.32794  1.0000
  H   H3502     1.0  0.46114  0.72476  0.32597  1.0000
  H   H3503     1.0  0.49045  0.74858  0.26345  1.0000
  H   H3504     1.0  0.51407  0.74241  0.26571  1.0000
  H   H3505     1.0  0.53757  0.71404  0.27733  1.0000
  H   H3506     1.0  0.52740  0.72349  0.29709  1.0000
  H   H3507     1.0  0.55071  0.69595  0.30416  1.0000
  H   H3508     1.0  0.52857  0.69150  0.31672  1.0000
  H   H3509     1.0  0.53969  0.68226  0.29627  1.0000
  N   N113      1.0  0.39574  0.82300  0.25712  1.0000
  N   N114      1.0  0.59347  0.96579  0.27385  1.0000
  H   H3510     1.0  0.62178  0.60743  0.26481  1.0000
  H   H3511     1.0  0.47174  0.70185  0.35249  1.0000
  H   H3512     1.0  0.48506  0.71732  0.35460  1.0000
  H   H3513     1.0  0.46047  0.72388  0.35828  1.0000
  H   H3514     1.0  0.33642  0.63086  0.27456  1.0000
  H   H3515     1.0  0.50508  0.77532  0.25283  1.0000
  H   H3516     1.0  0.48761  0.77836  0.27313  1.0000
  H   H3517     1.0  0.58643  0.81496  0.25164  1.0000
  H   H3518     1.0  0.57098  0.73480  0.34831  1.0000
  H   H3519     1.0  0.61237  0.81446  0.26272  1.0000
  N   N115      1.0  0.35842  0.84260  0.39028  1.0000
  H   H3520     1.0  0.40208  0.96454  0.28976  1.0000
  H   H3521     1.0  0.45802  0.70334  0.27487  1.0000
  H   H3522     1.0  0.38423  0.85155  0.38248  1.0000
  C   C2001     1.0  0.49488  0.95319  0.27405  1.0000
  H   H3523     1.0  0.58755  0.92480  0.32139  1.0000
  H   H3524     1.0  0.35325  0.82664  0.41789  1.0000
  H   H3525     1.0  0.62555  0.92759  0.24240  1.0000
  C   C2002     1.0  0.55411  0.83571  0.27383  1.0000
  C   C2003     1.0  0.62542  0.73516  0.31115  1.0000
  H   H3526     1.0  0.56671  0.94996  0.26708  1.0000
  H   H3527     1.0  0.54529  0.84966  0.27146  1.0000
  C   C2004     1.0  0.61749  0.76686  0.41114  1.0000
  C   C2005     1.0  0.55111  0.74992  0.31969  1.0000
  C   C2006     1.0  0.33250  0.83140  0.35827  1.0000
  H   H3528     1.0  0.59371  0.69391  0.33053  1.0000
  C   C2007     1.0  0.40130  0.84418  0.34974  1.0000
  H   H3529     1.0  0.59630  0.85650  0.31540  1.0000
  H   H3530     1.0  0.39268  0.95043  0.28069  1.0000
  C   C2008     1.0  0.63615  0.77742  0.42680  1.0000
  H   H3531     1.0  0.32445  0.84004  0.34791  1.0000
  H   H3532     1.0  0.45814  0.90437  0.25857  1.0000
  H   H3533     1.0  0.51227  0.93353  0.23461  1.0000
  H   H3534     1.0  0.56144  0.94890  0.29162  1.0000
  H   H3535     1.0  0.60990  0.81363  0.44834  1.0000
  H   H3536     1.0  0.50174  0.71874  0.23674  1.0000
  C   C2009     1.0  0.34116  0.58055  0.28088  1.0000
  H   H3537     1.0  0.55056  0.72149  0.32106  1.0000
  H   H3538     1.0  0.55622  0.69942  0.35320  1.0000
  H   H3539     1.0  0.37539  0.83766  0.35190  1.0000
  C   C2010     1.0  0.57280  0.72088  0.34534  1.0000
  C   C2011     1.0  0.58856  0.86607  0.30578  1.0000
  H   H3540     1.0  0.44224  0.71161  0.29435  1.0000
  H   H3541     1.0  0.62703  0.96661  0.24446  1.0000
  H   H3542     1.0  0.61176  0.92627  0.28265  1.0000
  H   H3543     1.0  0.52848  0.85365  0.24457  1.0000
  C   C2012     1.0  0.58392  0.70215  0.32163  1.0000
  C   C2013     1.0  0.39205  0.81890  0.27783  1.0000
  H   H3544     1.0  0.63308  0.81124  0.43540  1.0000
  C   C2014     1.0  0.55562  0.71298  0.35616  1.0000
  H   H3545     1.0  0.52773  0.77103  0.31280  1.0000
  H   H3546     1.0  0.39758  0.80417  0.28324  1.0000
  C   C2015     1.0  0.61848  0.79100  0.43383  1.0000
  H   H3547     1.0  0.63853  0.72893  0.31585  1.0000
  H   H3548     1.0  0.37488  0.80453  0.39679  1.0000
  H   H3549     1.0  0.61728  0.75704  0.45977  1.0000
  C   C2016     1.0  0.59920  0.93177  0.29211  1.0000
  H   H3550     1.0  0.45545  0.59699  0.25827  1.0000
  H   H3551     1.0  0.58737  0.74681  0.31932  1.0000
  H   H3552     1.0  0.54246  0.83483  0.23401  1.0000
  C   C2017     1.0  0.39651  0.96402  0.27798  1.0000
  H   H3553     1.0  0.62762  0.73456  0.29643  1.0000
  C   C2018     1.0  0.34613  0.97210  0.23943  1.0000
  H   H3554     1.0  0.61120  0.95347  0.29358  1.0000
  H   H3555     1.0  0.39275  0.81598  0.39639  1.0000
  C   C2019     1.0  0.63058  0.61730  0.26117  1.0000
  C   C2020     1.0  0.61570  0.74727  0.45210  1.0000
  H   H3556     1.0  0.45586  0.87006  0.26333  1.0000
  C   C2021     1.0  0.53318  0.75620  0.31270  1.0000
  H   H3557     1.0  0.54079  0.70632  0.38427  1.0000
  Fe  Fe217     1.0  0.41584  0.70019  0.24202  1.0000
  C   C2022     1.0  0.55396  0.71044  0.37685  1.0000
  C   C2023     1.0  0.63434  0.64906  0.25264  1.0000
  C   C2024     1.0  0.38333  0.81529  0.25007  1.0000
  H   H3558     1.0  0.64395  0.78628  0.41532  1.0000
  H   H3559     1.0  0.64461  0.74100  0.44218  1.0000
  H   H3560     1.0  0.34514  0.82327  0.35105  1.0000
  C   C2025     1.0  0.59305  0.70019  0.30151  1.0000
  C   C2026     1.0  0.62875  0.94144  0.23641  1.0000
  H   H3561     1.0  0.37513  0.80434  0.31348  1.0000
  C   C2027     1.0  0.34833  0.83216  0.38332  1.0000
  H   H3562     1.0  0.36753  0.96461  0.26383  1.0000
  H   H3563     1.0  0.58681  0.85973  0.26165  1.0000
  H   H3564     1.0  0.36706  0.61960  0.25272  1.0000
  Fe  Fe218     1.0  0.39776  0.91162  0.24314  1.0000
  H   H3565     1.0  0.33741  0.97644  0.27655  1.0000
  H   H3566     1.0  0.60502  0.87518  0.24065  1.0000
  C   C2028     1.0  0.51617  0.67408  0.24759  1.0000
  H   H3567     1.0  0.60583  0.70566  0.29675  1.0000
  H   H3568     1.0  0.55477  0.82862  0.26270  1.0000
  H   H3569     1.0  0.41107  0.84342  0.35844  1.0000
  H   H3570     1.0  0.56539  0.69958  0.38150  1.0000
  C   C2029     1.0  0.56148  0.95816  0.27796  1.0000
  H   H3571     1.0  0.60788  0.67196  0.30887  1.0000
  S   S449      1.0  0.38200  0.89418  0.26683  1.0000
  H   H3572     1.0  0.61260  0.73946  0.41224  1.0000
  C   C2030     1.0  0.34476  0.85899  0.39645  1.0000
  H   H3573     1.0  0.59813  0.77231  0.38355  1.0000
  H   H3574     1.0  0.58742  0.92916  0.28817  1.0000
  C   C2031     1.0  0.64961  0.82071  0.39164  1.0000
  C   C2032     1.0  0.37393  0.84936  0.37580  1.0000
  C   C2033     1.0  0.36516  0.83048  0.40704  1.0000
  H   H3575     1.0  0.61648  0.85225  0.26644  1.0000
  H   H3576     1.0  0.61686  0.97791  0.27090  1.0000
  H   H3577     1.0  0.58466  0.76226  0.40495  1.0000
  H   H3578     1.0  0.39759  0.85855  0.34222  1.0000
  H   H3579     1.0  0.33836  0.84109  0.46571  1.0000
  H   H3580     1.0  0.35783  0.82048  0.37773  1.0000
  H   H3581     1.0  0.59633  0.94462  0.25846  1.0000
  C   C2034     1.0  0.42268  0.59955  0.24235  1.0000
  H   H3582     1.0  0.60256  0.75219  0.44732  1.0000
  H   H3583     1.0  0.61245  0.71875  0.45899  1.0000
  H   H3584     1.0  0.56708  0.97931  0.28761  1.0000
  C   C2035     1.0  0.50290  0.90812  0.24631  1.0000
  H   H3585     1.0  0.33302  0.84753  0.44315  1.0000
  H   H3586     1.0  0.60159  0.90570  0.31147  1.0000
  C   C2036     1.0  0.47001  0.91065  0.25332  1.0000
  S   S450      1.0  0.38915  0.64678  0.24173  1.0000
  C   C2037     1.0  0.61458  0.72904  0.46572  1.0000
  H   H3587     1.0  0.47460  0.62064  0.25105  1.0000
  C   C2038     1.0  0.37019  0.62269  0.23786  1.0000
  H   H3588     1.0  0.38673  0.81776  0.23481  1.0000
  H   H3589     1.0  0.32516  0.74506  0.39700  1.0000
  H   H3590     1.0  0.54050  0.97639  0.26362  1.0000
  Fe  Fe219     1.0  0.57938  0.91836  0.23979  1.0000
  H   H3591     1.0  0.43558  0.61315  0.26646  1.0000
  H   H3592     1.0  0.36183  0.70975  0.45681  1.0000
  Fe  Fe220     1.0  0.43011  0.93022  0.23438  1.0000
  C   C2039     1.0  0.59219  0.82473  0.23948  1.0000
  C   C2040     1.0  0.62225  0.95351  0.25082  1.0000
  H   H3593     1.0  0.63519  0.81308  0.28252  1.0000
  H   H3594     1.0  0.42800  0.83697  0.25070  1.0000
  H   H3595     1.0  0.45971  0.81765  0.24999  1.0000
  H   H3596     1.0  0.39715  0.78648  0.24976  1.0000
  C   C2041     1.0  0.44871  0.61174  0.25620  1.0000
  H   H3597     1.0  0.43982  0.72781  0.24418  1.0000
  C   C2042     1.0  0.63175  0.82586  0.38819  1.0000
  C   C2043     1.0  0.46775  0.92961  0.24666  1.0000
  H   H3598     1.0  0.32474  0.88403  0.41840  1.0000
  H   H3599     1.0  0.36979  0.77361  0.25600  1.0000
  H   H3600     1.0  0.40755  0.56838  0.26223  1.0000
  H   H3601     1.0  0.35886  0.69015  0.44984  1.0000
  C   C2044     1.0  0.48766  0.89987  0.25324  1.0000
  H   H3602     1.0  0.48612  0.85436  0.24952  1.0000
  C   C2045     1.0  0.39218  0.84362  0.25051  1.0000
  H   H3603     1.0  0.62156  0.74973  0.31257  1.0000
  H   H3604     1.0  0.33559  0.96810  0.25164  1.0000
  H   H3605     1.0  0.44483  0.85948  0.25182  1.0000
  C   C2046     1.0  0.32585  0.64150  0.26821  1.0000
  C   C2047     1.0  0.52298  0.66242  0.23501  1.0000
  H   H3606     1.0  0.49433  0.98288  0.24434  1.0000
  H   H3607     1.0  0.35283  0.57486  0.27061  1.0000
  H   H3608     1.0  0.35607  0.60269  0.23526  1.0000
  H   H3609     1.0  0.63556  0.83410  0.28872  1.0000
  H   H3610     1.0  0.32933  0.72415  0.45800  1.0000
  C   C2048     1.0  0.33717  0.88824  0.40888  1.0000
  H   H3611     1.0  0.38204  0.97832  0.24748  1.0000
  C   C2049     1.0  0.39984  0.57834  0.25222  1.0000
  H   H3612     1.0  0.47811  0.59392  0.23256  1.0000
  H   H3613     1.0  0.62729  0.86014  0.23710  1.0000
  S   S451      1.0  0.44601  0.94315  0.24636  1.0000
  H   H3614     1.0  0.39224  0.57083  0.24710  1.0000
  H   H3615     1.0  0.47590  0.84261  0.23830  1.0000
  H   H3616     1.0  0.34083  0.71963  0.43551  1.0000
  H   H3617     1.0  0.62732  0.72357  0.47126  1.0000
  C   C2050     1.0  0.32946  0.66011  0.26840  1.0000
  H   H3618     1.0  0.40059  0.75583  0.23738  1.0000
  H   H3619     1.0  0.41210  0.61157  0.24628  1.0000
  H   H3620     1.0  0.41802  0.81524  0.23500  1.0000
  H   H3621     1.0  0.32816  0.66162  0.28271  1.0000
  H   H3622     1.0  0.45324  0.57799  0.23788  1.0000
  H   H3623     1.0  0.43379  0.63185  0.23724  1.0000
  H   H3624     1.0  0.48115  0.95250  0.23463  1.0000
  H   H3625     1.0  0.47277  0.88421  0.23280  1.0000
  C   C2051     1.0  0.41293  0.58752  0.23607  1.0000
  H   H3626     1.0  0.32450  0.59211  0.26068  1.0000
  H   H3627     1.0  0.57022  0.98357  0.26329  1.0000
  H   H3628     1.0  0.44628  0.98076  0.27166  1.0000
  H   H3629     1.0  0.60284  0.73119  0.47739  1.0000
  H   H3630     1.0  0.58066  0.83182  0.23228  1.0000
  H   H3631     1.0  0.61890  0.80599  0.23281  1.0000
  Fe  Fe221     1.0  0.54424  0.91412  0.23271  1.0000
  H   H3632     1.0  0.59192  0.98645  0.29965  1.0000
  H   H3633     1.0  0.59842  0.79582  0.64329  1.0000
  S   S452      1.0  0.59216  0.80627  0.70625  1.0000
  C   C2052     1.0  0.37761  0.82338  0.65979  1.0000
  H   H3634     1.0  0.63230  0.84598  0.60879  1.0000
  S   S453      1.0  0.58087  0.84792  0.71525  1.0000
  C   C2053     1.0  0.57973  0.85119  0.65215  1.0000
  Fe  Fe222     1.0  0.56635  0.82693  0.71307  1.0000
  S   S454      1.0  0.54388  0.83771  0.69690  1.0000
  Fe  Fe223     1.0  0.60645  0.82634  0.71078  1.0000
  S   S455      1.0  0.63160  0.83603  0.69243  1.0000
  N   N116      1.0  0.58314  0.83442  0.64396  1.0000
  H   H3635     1.0  0.33175  0.71675  0.53094  1.0000
  H   H3636     1.0  0.33615  0.72405  0.49664  1.0000
  C   C2054     1.0  0.60718  0.90707  0.72824  1.0000
  H   H3637     1.0  0.37739  0.86354  0.68914  1.0000
  Fe  Fe224     1.0  0.46068  0.80027  0.70511  1.0000
  S   S456      1.0  0.44624  0.82769  0.69182  1.0000
  H   H3638     1.0  0.60111  0.86258  0.61961  1.0000
  H   H3639     1.0  0.43272  0.77033  0.60971  1.0000
  Fe  Fe225     1.0  0.42144  0.81477  0.69925  1.0000
  S   S457      1.0  0.40196  0.82592  0.67918  1.0000
  S   S458      1.0  0.43665  0.78643  0.71056  1.0000
  H   H3640     1.0  0.35030  0.76120  0.53565  1.0000
  H   H3641     1.0  0.32772  0.80958  0.55861  1.0000
  C   C2055     1.0  0.38956  0.81362  0.67172  1.0000
  C   C2056     1.0  0.39137  0.79456  0.67720  1.0000
  C   C2057     1.0  0.38140  0.78537  0.67070  1.0000
  H   H3642     1.0  0.40049  0.78689  0.68638  1.0000
  H   H3643     1.0  0.38295  0.77060  0.67496  1.0000
  C   C2058     1.0  0.33943  0.78411  0.54934  1.0000
  C   C2059     1.0  0.52941  0.82338  0.69677  1.0000
  C   C2060     1.0  0.51377  0.83127  0.68923  1.0000
  C   C2061     1.0  0.50173  0.82041  0.68901  1.0000
  C   C2062     1.0  0.50549  0.80149  0.69594  1.0000
  Fe  Fe226     1.0  0.33924  0.79389  0.62963  1.0000
  C   C2063     1.0  0.53330  0.80443  0.70365  1.0000
  H   H3644     1.0  0.51076  0.84591  0.68378  1.0000
  H   H3645     1.0  0.48955  0.82667  0.68339  1.0000
  H   H3646     1.0  0.53761  0.82367  0.63090  1.0000
  H   H3647     1.0  0.62636  0.87227  0.70282  1.0000
  C   C2064     1.0  0.64074  0.82940  0.67105  1.0000
  C   C2065     1.0  0.63518  0.81545  0.66651  1.0000
  C   C2066     1.0  0.64262  0.81062  0.64925  1.0000
  C   C2067     1.0  0.62680  0.88271  0.71032  1.0000
  H   H3648     1.0  0.50268  0.85280  0.71805  1.0000
  C   C2068     1.0  0.34122  0.73177  0.50408  1.0000
  H   H3649     1.0  0.62533  0.80824  0.67635  1.0000
  H   H3650     1.0  0.63824  0.79985  0.64575  1.0000
  H   H3651     1.0  0.60215  0.87158  0.67352  1.0000
  C   C2069     1.0  0.48390  0.83462  0.72954  1.0000
  H   H3652     1.0  0.40306  0.82025  0.62509  1.0000
  H   H3653     1.0  0.62381  0.83502  0.59533  1.0000
  H   H3654     1.0  0.37615  0.83813  0.65545  1.0000
  H   H3655     1.0  0.52056  0.83503  0.64751  1.0000
  H   H3656     1.0  0.33566  0.73891  0.53048  1.0000
  H   H3657     1.0  0.44519  0.73098  0.60255  1.0000
  H   H3658     1.0  0.65063  0.78454  0.72511  1.0000
  C   C2070     1.0  0.60063  0.83297  0.62958  1.0000
  H   H3659     1.0  0.54380  0.84683  0.65527  1.0000
  H   H3660     1.0  0.45675  0.74993  0.59139  1.0000
  H   H3661     1.0  0.51214  0.87852  0.71261  1.0000
  H   H3662     1.0  0.37750  0.90456  0.70253  1.0000
  C   C2071     1.0  0.53389  0.83563  0.63774  1.0000
  C   C2072     1.0  0.34162  0.77474  0.53516  1.0000
  C   C2073     1.0  0.36951  0.79511  0.65873  1.0000
  C   C2074     1.0  0.58687  0.78329  0.67062  1.0000
  C   C2075     1.0  0.36760  0.81420  0.65334  1.0000
  H   H3663     1.0  0.34737  0.92874  0.70315  1.0000
  H   H3664     1.0  0.59929  0.78191  0.67609  1.0000
  H   H3665     1.0  0.45462  0.74120  0.61576  1.0000
  H   H3666     1.0  0.33606  0.91476  0.69568  1.0000
  S   S459      1.0  0.34744  0.80831  0.60029  1.0000
  C   C2076     1.0  0.60252  0.85019  0.61405  1.0000
  C   C2077     1.0  0.65396  0.83829  0.65837  1.0000
  H   H3667     1.0  0.59742  0.81591  0.66441  1.0000
  C   C2078     1.0  0.58595  0.79905  0.65390  1.0000
  H   H3668     1.0  0.35853  0.82186  0.64411  1.0000
  S   S460      1.0  0.35782  0.78274  0.65049  1.0000
  H   H3669     1.0  0.57492  0.94654  0.71895  1.0000
  C   C2079     1.0  0.59552  0.85300  0.66030  1.0000
  Fe  Fe227     1.0  0.43772  0.83368  0.72017  1.0000
  H   H3670     1.0  0.59766  0.84171  0.67232  1.0000
  H   H3671     1.0  0.60862  0.85265  0.65008  1.0000
  H   H3672     1.0  0.60223  0.82138  0.62268  1.0000
  C   C2080     1.0  0.52146  0.79346  0.70299  1.0000
  C   C2081     1.0  0.59106  0.87111  0.66691  1.0000
  H   H3673     1.0  0.56538  0.84918  0.62499  1.0000
  H   H3674     1.0  0.57338  0.81928  0.67117  1.0000
  C   C2082     1.0  0.32872  0.80184  0.54834  1.0000
  N   N117      1.0  0.40053  0.77449  0.59429  1.0000
  C   C2083     1.0  0.38801  0.76666  0.61151  1.0000
  C   C2084     1.0  0.40152  0.79392  0.59450  1.0000
  C   C2085     1.0  0.39224  0.77540  0.57817  1.0000
  C   C2086     1.0  0.41947  0.76252  0.59160  1.0000
  C   C2087     1.0  0.42944  0.75777  0.60783  1.0000
  C   C2088     1.0  0.38494  0.74714  0.61272  1.0000
  C   C2089     1.0  0.40247  0.78408  0.55900  1.0000
  C   C2090     1.0  0.39968  0.79867  0.61345  1.0000
  C   C2091     1.0  0.40459  0.81727  0.61130  1.0000
  H   H3675     1.0  0.59198  0.85291  0.60567  1.0000
  C   C2092     1.0  0.37573  0.73902  0.63217  1.0000
  C   C2093     1.0  0.39154  0.78654  0.54421  1.0000
  H   H3676     1.0  0.37425  0.77592  0.61298  1.0000
  H   H3677     1.0  0.39282  0.76628  0.62406  1.0000
  H   H3678     1.0  0.41445  0.79752  0.58549  1.0000
  H   H3679     1.0  0.39030  0.80410  0.58854  1.0000
  H   H3680     1.0  0.37782  0.78326  0.58031  1.0000
  H   H3681     1.0  0.39145  0.76146  0.57709  1.0000
  H   H3682     1.0  0.41916  0.74947  0.58798  1.0000
  H   H3683     1.0  0.42866  0.76926  0.57956  1.0000
  H   H3684     1.0  0.42117  0.75139  0.62080  1.0000
  H   H3685     1.0  0.58752  0.77017  0.66664  1.0000
  H   H3686     1.0  0.37585  0.74774  0.60336  1.0000
  H   H3687     1.0  0.39801  0.73745  0.60909  1.0000
  H   H3688     1.0  0.41594  0.77504  0.55500  1.0000
  H   H3689     1.0  0.40480  0.79780  0.55882  1.0000
  H   H3690     1.0  0.38524  0.79959  0.62092  1.0000
  H   H3691     1.0  0.40842  0.78826  0.62213  1.0000
  C   C2094     1.0  0.62132  0.84746  0.60123  1.0000
  H   H3692     1.0  0.41902  0.81713  0.60396  1.0000
  H   H3693     1.0  0.39530  0.82840  0.60368  1.0000
  C   C2095     1.0  0.56738  0.83592  0.63501  1.0000
  S   S461      1.0  0.49047  0.78783  0.69555  1.0000
  C   C2096     1.0  0.33226  0.78274  0.52059  1.0000
  H   H3694     1.0  0.37320  0.72533  0.63251  1.0000
  H   H3695     1.0  0.38461  0.73738  0.64206  1.0000
  H   H3696     1.0  0.36239  0.74805  0.63661  1.0000
  H   H3697     1.0  0.39937  0.79218  0.53056  1.0000
  H   H3698     1.0  0.38884  0.77316  0.54368  1.0000
  H   H3699     1.0  0.37824  0.79629  0.54704  1.0000
  C   C2097     1.0  0.58484  0.81760  0.65912  1.0000
  C   C2098     1.0  0.37559  0.86032  0.70437  1.0000
  H   H3700     1.0  0.59007  0.88294  0.65514  1.0000
  H   H3701     1.0  0.61274  0.82942  0.63605  1.0000
  H   H3702     1.0  0.54908  0.82215  0.65879  1.0000
  H   H3703     1.0  0.57793  0.87232  0.67714  1.0000
  S   S462      1.0  0.34938  0.77338  0.56863  1.0000
  H   H3704     1.0  0.62213  0.85957  0.58976  1.0000
  H   H3705     1.0  0.54547  0.79822  0.70930  1.0000
  H   H3706     1.0  0.57379  0.79924  0.64860  1.0000
  H   H3707     1.0  0.53220  0.84858  0.62729  1.0000
  H   H3708     1.0  0.57626  0.92805  0.70855  1.0000
  H   H3709     1.0  0.57613  0.86399  0.64197  1.0000
  C   C2099     1.0  0.54851  0.83501  0.64821  1.0000
  H   H3710     1.0  0.57449  0.78570  0.68162  1.0000
  H   H3711     1.0  0.61033  0.94393  0.70475  1.0000
  H   H3712     1.0  0.56753  0.85133  0.66357  1.0000
  H   H3713     1.0  0.57055  0.82512  0.62669  1.0000
  C   C2100     1.0  0.44760  0.74413  0.60406  1.0000
  H   H3714     1.0  0.40658  0.86472  0.67724  1.0000
  C   C2101     1.0  0.32987  0.73130  0.52362  1.0000
  H   H3715     1.0  0.50154  0.75949  0.72692  1.0000
  Fe  Fe228     1.0  0.33625  0.78768  0.59257  1.0000
  S   S463      1.0  0.33069  0.77165  0.62140  1.0000
  C   C2102     1.0  0.33964  0.91743  0.70775  1.0000
  H   H3716     1.0  0.42993  0.88220  0.65975  1.0000
  H   H3717     1.0  0.35903  0.49432  0.72999  1.0000
  H   H3718     1.0  0.61851  0.91430  0.72092  1.0000
  H   H3719     1.0  0.51334  0.89585  0.72383  1.0000
  H   H3720     1.0  0.36317  0.82764  0.71109  1.0000
  H   H3721     1.0  0.32672  0.92192  0.71737  1.0000
  C   C2103     1.0  0.58427  0.93379  0.71514  1.0000
  H   H3722     1.0  0.54770  0.88686  0.71697  1.0000
  H   H3723     1.0  0.47832  0.83736  0.71693  1.0000
  H   H3724     1.0  0.34062  0.74617  0.49632  1.0000
  H   H3725     1.0  0.63497  0.89255  0.70077  1.0000
  H   H3726     1.0  0.64824  0.77159  0.70960  1.0000
  C   C2104     1.0  0.60731  0.89261  0.71724  1.0000
  H   H3727     1.0  0.40931  0.86175  0.70864  1.0000
  C   C2105     1.0  0.40642  0.87748  0.68164  1.0000
  H   H3728     1.0  0.53770  0.89472  0.69680  1.0000
  N   N118      1.0  0.38061  0.87491  0.71106  1.0000
  H   H3729     1.0  0.38512  0.84695  0.70771  1.0000
  C   C2106     1.0  0.53905  0.88363  0.70915  1.0000
  H   H3730     1.0  0.48643  0.74929  0.70747  1.0000
  H   H3731     1.0  0.60507  0.95878  0.67363  1.0000
  H   H3732     1.0  0.34602  0.86895  0.70573  1.0000
  C   C2107     1.0  0.35582  0.85698  0.71161  1.0000
  H   H3733     1.0  0.60788  0.92782  0.69282  1.0000
  H   H3734     1.0  0.33369  0.77541  0.50984  1.0000
  H   H3735     1.0  0.43572  0.87016  0.68155  1.0000
  C   C2108     1.0  0.36949  0.89372  0.70465  1.0000
  C   C2109     1.0  0.42577  0.88136  0.67483  1.0000
  H   H3736     1.0  0.42629  0.89459  0.67787  1.0000
  H   H3737     1.0  0.39694  0.88902  0.67476  1.0000
  C   C2110     1.0  0.40066  0.87488  0.70287  1.0000
  H   H3738     1.0  0.35578  0.72535  0.50458  1.0000
  C   C2111     1.0  0.59334  0.95530  0.68479  1.0000
  C   C2112     1.0  0.60035  0.93952  0.69959  1.0000
  H   H3739     1.0  0.35667  0.84232  0.69038  1.0000
  H   H3740     1.0  0.36672  0.89462  0.69088  1.0000
  C   C2113     1.0  0.35369  0.84023  0.70561  1.0000
  C   C2114     1.0  0.49114  0.85120  0.72995  1.0000
  C   C2115     1.0  0.48736  0.74129  0.72154  1.0000
  H   H3741     1.0  0.35203  0.85437  0.72681  1.0000
  H   H3742     1.0  0.33943  0.83804  0.71087  1.0000
  H   H3743     1.0  0.40499  0.88594  0.70669  1.0000
  H   H3744     1.0  0.54602  0.87063  0.70448  1.0000
  H   H3745     1.0  0.60066  0.89906  0.70529  1.0000
  H   H3746     1.0  0.52458  0.77877  0.70809  1.0000
  H   H3747     1.0  0.63363  0.87555  0.72204  1.0000
  H   H3748     1.0  0.58636  0.96774  0.69064  1.0000
  C   C2116     1.0  0.52006  0.88201  0.72093  1.0000
  H   H3749     1.0  0.58365  0.95130  0.67875  1.0000
  S   S464      1.0  0.43915  0.86084  0.72543  1.0000
  H   H3750     1.0  0.64543  0.79631  0.70308  1.0000
  C   C2117     1.0  0.65327  0.78362  0.71043  1.0000
  H   H3751     1.0  0.34250  0.88942  0.72228  1.0000
  H   H3752     1.0  0.49955  0.72988  0.72051  1.0000
  S   S465      1.0  0.41198  0.82292  0.72684  1.0000
  C   C2118     1.0  0.35095  0.90003  0.71747  1.0000
  H   H3753     1.0  0.35335  0.90324  0.72984  1.0000
  H   H3754     1.0  0.59976  0.88195  0.72618  1.0000
  H   H3755     1.0  0.47976  0.86329  0.72839  1.0000
  H   H3756     1.0  0.57260  0.90218  0.73035  1.0000
  H   H3757     1.0  0.49498  0.82210  0.72962  1.0000
  H   H3758     1.0  0.60207  0.95393  0.73053  1.0000
  C   C2119     1.0  0.65566  0.81970  0.63647  1.0000
  H   H3759     1.0  0.47478  0.73552  0.72742  1.0000
  C   C2120     1.0  0.37854  0.86965  0.73170  1.0000
  H   H3760     1.0  0.32304  0.55336  0.72302  1.0000
  Fe  Fe229     1.0  0.44470  0.91370  0.82987  1.0000
  S   S466      1.0  0.47136  0.90277  0.83915  1.0000
  Fe  Fe230     1.0  0.44590  0.87828  0.81779  1.0000
  S   S467      1.0  0.47302  0.86498  0.82553  1.0000
  S   S468      1.0  0.43289  0.85908  0.80962  1.0000
  Fe  Fe231     1.0  0.46124  0.87648  0.85099  1.0000
  S   S469      1.0  0.46913  0.85727  0.87642  1.0000
  Fe  Fe232     1.0  0.48078  0.89208  0.81303  1.0000
  S   S470      1.0  0.50896  0.89351  0.79631  1.0000
  S   S471      1.0  0.43339  0.88822  0.84428  1.0000
  S   S472      1.0  0.45478  0.90472  0.80263  1.0000
  Fe  Fe233     1.0  0.57202  0.92155  0.83611  1.0000
  S   S473      1.0  0.58151  0.93604  0.80713  1.0000
  S   S474      1.0  0.54399  0.91653  0.84965  1.0000
  Fe  Fe234     1.0  0.60956  0.91121  0.84495  1.0000
  S   S475      1.0  0.62250  0.92430  0.81675  1.0000
  S   S476      1.0  0.62746  0.89846  0.86562  1.0000
  Fe  Fe235     1.0  0.59820  0.94751  0.81991  1.0000
  S   S477      1.0  0.60297  0.97652  0.81137  1.0000
  Fe  Fe236     1.0  0.60476  0.91144  0.80678  1.0000
  S   S478      1.0  0.61640  0.89610  0.78349  1.0000
  S   S479      1.0  0.58646  0.93526  0.84885  1.0000
  S   S480      1.0  0.59403  0.89627  0.83481  1.0000
  C   C2121     1.0  0.56155  0.93016  0.89864  1.0000
  S   S481      1.0  0.56137  0.81536  0.74322  1.0000
  S   S482      1.0  0.54891  0.84161  0.97008  1.0000
  H   H3761     1.0  0.45202  0.71993  0.76176  1.0000
  Fe  Fe237     1.0  0.58245  0.80470  0.94409  1.0000
  S   S483      1.0  0.57061  0.83256  0.92906  1.0000
  S   S484      1.0  0.60225  0.78323  0.92950  1.0000
  Fe  Fe238     1.0  0.57632  0.84302  0.95131  1.0000
  S   S485      1.0  0.58968  0.86706  0.94658  1.0000
  Fe  Fe239     1.0  0.54436  0.82854  0.94907  1.0000
  S   S486      1.0  0.51750  0.83655  0.93971  1.0000
  S   S487      1.0  0.59041  0.81547  0.96489  1.0000
  S   S488      1.0  0.55588  0.79964  0.96230  1.0000
  Fe  Fe240     1.0  0.41476  0.80169  0.95743  1.0000
  S   S489      1.0  0.40549  0.82709  0.93707  1.0000
  S   S490      1.0  0.60494  0.81471  0.74101  1.0000
  H   H3762     1.0  0.55149  0.92376  0.90995  1.0000
  Fe  Fe241     1.0  0.42235  0.76028  0.96398  1.0000
  S   S491      1.0  0.42640  0.73428  0.95326  1.0000
  S   S492      1.0  0.44001  0.78077  0.94947  1.0000
  Fe  Fe242     1.0  0.58205  0.71580  0.88137  1.0000
  S   S493      1.0  0.57938  0.68726  0.88157  1.0000
  S   S494      1.0  0.56540  0.73243  0.90266  1.0000
  Fe  Fe243     1.0  0.60670  0.71970  0.84395  1.0000
  S   S495      1.0  0.60665  0.69157  0.84057  1.0000
  S   S496      1.0  0.62069  0.74081  0.82301  1.0000
  Fe  Fe244     1.0  0.57644  0.69803  0.85233  1.0000
  S   S497      1.0  0.55779  0.69126  0.83763  1.0000
  Fe  Fe245     1.0  0.60984  0.68223  0.86992  1.0000
  S   S498      1.0  0.62575  0.65404  0.88143  1.0000
  S   S499      1.0  0.57628  0.72708  0.85303  1.0000
  S   S500      1.0  0.61265  0.71001  0.87242  1.0000
  H   H3763     1.0  0.45616  0.80271  0.79509  1.0000
  H   H3764     1.0  0.58345  0.73743  0.78137  1.0000
  H   H3765     1.0  0.46213  0.91255  0.75556  1.0000
  C   C2122     1.0  0.34062  0.72222  0.90878  1.0000
  H   H3766     1.0  0.42950  0.86874  0.88170  1.0000
  S   S501      1.0  0.41846  0.78268  0.76699  1.0000
  H   H3767     1.0  0.46939  0.75010  0.96142  1.0000
  H   H3768     1.0  0.57121  0.94042  0.91714  1.0000
  Fe  Fe246     1.0  0.42187  0.66783  0.86066  1.0000
  S   S502      1.0  0.45055  0.66149  0.84389  1.0000
  S   S503      1.0  0.40032  0.64978  0.87196  1.0000
  Fe  Fe247     1.0  0.42662  0.70522  0.86472  1.0000
  S   S504      1.0  0.45513  0.70201  0.84785  1.0000
  S   S505      1.0  0.41438  0.73181  0.87521  1.0000
  Fe  Fe248     1.0  0.44418  0.69112  0.82937  1.0000
  S   S506      1.0  0.45261  0.70008  0.79872  1.0000
  Fe  Fe249     1.0  0.45938  0.67310  0.86365  1.0000
  S   S507      1.0  0.48417  0.66269  0.87693  1.0000
  S   S508      1.0  0.41506  0.69678  0.84472  1.0000
  S   S509      1.0  0.43136  0.67685  0.88190  1.0000
  C   C2123     1.0  0.42763  0.75955  0.77549  1.0000
  C   C2124     1.0  0.43740  0.74761  0.76365  1.0000
  C   C2125     1.0  0.44465  0.72922  0.77092  1.0000
  C   C2126     1.0  0.44252  0.72284  0.78998  1.0000
  C   C2127     1.0  0.43277  0.73481  0.80180  1.0000
  C   C2128     1.0  0.42527  0.75310  0.79456  1.0000
  H   H3769     1.0  0.43099  0.72995  0.81650  1.0000
  H   H3770     1.0  0.41767  0.76230  0.80374  1.0000
  H   H3771     1.0  0.40745  0.82647  0.83529  1.0000
  C   C2129     1.0  0.37674  0.62919  0.86978  1.0000
  C   C2130     1.0  0.34279  0.71275  0.89259  1.0000
  H   H3772     1.0  0.62452  0.81156  0.92742  1.0000
  C   C2131     1.0  0.39119  0.63821  0.86011  1.0000
  C   C2132     1.0  0.39793  0.63768  0.84150  1.0000
  C   C2133     1.0  0.39058  0.62789  0.83283  1.0000
  H   H3773     1.0  0.40896  0.64461  0.83384  1.0000
  H   H3774     1.0  0.39614  0.62731  0.81852  1.0000
  C   C2134     1.0  0.53706  0.68408  0.84915  1.0000
  C   C2135     1.0  0.52503  0.68316  0.83863  1.0000
  C   C2136     1.0  0.50847  0.67729  0.84708  1.0000
  C   C2137     1.0  0.50414  0.67161  0.86615  1.0000
  C   C2138     1.0  0.51623  0.67243  0.87675  1.0000
  C   C2139     1.0  0.53251  0.67895  0.86830  1.0000
  H   H3775     1.0  0.52872  0.68675  0.82382  1.0000
  H   H3776     1.0  0.49937  0.67642  0.83883  1.0000
  H   H3777     1.0  0.51300  0.66796  0.89152  1.0000
  H   H3778     1.0  0.54171  0.67956  0.87656  1.0000
  C   C2140     1.0  0.61303  0.74692  0.80221  1.0000
  C   C2141     1.0  0.61935  0.76100  0.78833  1.0000
  H   H3779     1.0  0.40870  0.76187  0.89331  1.0000
  C   C2142     1.0  0.37632  0.61864  0.84255  1.0000
  C   C2143     1.0  0.60015  0.73837  0.79962  1.0000
  H   H3780     1.0  0.62952  0.76743  0.79019  1.0000
  C   C2144     1.0  0.36297  0.73910  0.86172  1.0000
  H   H3781     1.0  0.59530  0.72741  0.81021  1.0000
  C   C2145     1.0  0.64589  0.64167  0.86939  1.0000
  C   C2146     1.0  0.45401  0.98118  0.85050  1.0000
  H   H3782     1.0  0.63825  0.86866  0.81608  1.0000
  H   H3783     1.0  0.60918  0.95452  0.85804  1.0000
  H   H3784     1.0  0.64406  0.64334  0.80775  1.0000
  H   H3785     1.0  0.42454  0.98256  0.82357  1.0000
  H   H3786     1.0  0.61619  0.95785  0.75407  1.0000
  H   H3787     1.0  0.59726  0.97520  0.88638  1.0000
  C   C2147     1.0  0.45269  0.52471  0.85885  1.0000
  H   H3788     1.0  0.32855  0.52255  0.79125  1.0000
  C   C2148     1.0  0.42259  0.73411  0.93162  1.0000
  C   C2149     1.0  0.41640  0.75027  0.91967  1.0000
  C   C2150     1.0  0.41363  0.74941  0.90248  1.0000
  C   C2151     1.0  0.41743  0.73246  0.89704  1.0000
  C   C2152     1.0  0.42378  0.71638  0.90894  1.0000
  C   C2153     1.0  0.42616  0.71719  0.92622  1.0000
  H   H3789     1.0  0.42680  0.70325  0.90495  1.0000
  H   H3790     1.0  0.43089  0.70464  0.93544  1.0000
  C   C2154     1.0  0.59202  0.76916  0.92198  1.0000
  C   C2155     1.0  0.57328  0.77368  0.92190  1.0000
  C   C2156     1.0  0.56539  0.76236  0.91578  1.0000
  C   C2157     1.0  0.57608  0.74644  0.90975  1.0000
  C   C2158     1.0  0.59488  0.74208  0.90951  1.0000
  C   C2159     1.0  0.60281  0.75340  0.91567  1.0000
  H   H3791     1.0  0.56490  0.78599  0.92640  1.0000
  H   H3792     1.0  0.55106  0.76622  0.91524  1.0000
  H   H3793     1.0  0.60326  0.72985  0.90487  1.0000
  H   H3794     1.0  0.61732  0.74985  0.91569  1.0000
  C   C2160     1.0  0.50360  0.82117  0.95297  1.0000
  C   C2161     1.0  0.50865  0.80925  0.96868  1.0000
  H   H3795     1.0  0.57691  0.94031  0.74980  1.0000
  H   H3796     1.0  0.34715  0.52861  0.77266  1.0000
  C   C2162     1.0  0.47776  0.80673  0.95763  1.0000
  C   C2163     1.0  0.48790  0.82018  0.94760  1.0000
  H   H3797     1.0  0.51985  0.81083  0.97369  1.0000
  H   H3798     1.0  0.33404  0.49099  0.75787  1.0000
  H   H3799     1.0  0.46580  0.80569  0.95341  1.0000
  H   H3800     1.0  0.48379  0.82956  0.93557  1.0000
  H   H3801     1.0  0.48600  0.78933  0.77736  1.0000
  C   C2164     1.0  0.41002  0.84438  0.85995  1.0000
  H   H3802     1.0  0.58970  0.82657  0.79169  1.0000
  H   H3803     1.0  0.52968  0.72822  0.89702  1.0000
  H   H3804     1.0  0.40170  0.87762  0.73725  1.0000
  C   C2165     1.0  0.58445  0.88360  0.78967  1.0000
  H   H3805     1.0  0.55902  0.87534  0.79229  1.0000
  H   H3806     1.0  0.57864  0.89272  0.79929  1.0000
  C   C2166     1.0  0.61658  0.88918  0.88774  1.0000
  H   H3807     1.0  0.46386  0.51792  0.84891  1.0000
  C   C2167     1.0  0.61811  0.87688  0.91976  1.0000
  C   C2168     1.0  0.59996  0.87472  0.92369  1.0000
  C   C2169     1.0  0.59007  0.87975  0.90959  1.0000
  C   C2170     1.0  0.59831  0.88731  0.89162  1.0000
  Fe  Fe250     1.0  0.56244  0.81312  0.98198  1.0000
  H   H3808     1.0  0.54502  0.76459  0.75849  1.0000
  H   H3809     1.0  0.57592  0.87838  0.91267  1.0000
  H   H3810     1.0  0.59051  0.89180  0.88085  1.0000
  C   C2171     1.0  0.62650  0.88374  0.90177  1.0000
  C   C2172     1.0  0.33462  0.50986  0.83248  1.0000
  H   H3811     1.0  0.41795  0.85183  0.84734  1.0000
  H   H3812     1.0  0.38348  0.68225  0.88636  1.0000
  C   C2173     1.0  0.52216  0.75456  0.95427  1.0000
  H   H3813     1.0  0.61889  0.93356  0.73719  1.0000
  H   H3814     1.0  0.38695  0.85374  0.84570  1.0000
  H   H3815     1.0  0.40469  0.85647  0.90555  1.0000
  C   C2174     1.0  0.34217  0.50167  0.75560  1.0000
  H   H3816     1.0  0.58738  0.96111  0.92822  1.0000
  C   C2175     1.0  0.43453  0.85998  0.78616  1.0000
  C   C2176     1.0  0.43126  0.84512  0.78086  1.0000
  C   C2177     1.0  0.43265  0.84532  0.76224  1.0000
  C   C2178     1.0  0.43713  0.86049  0.74883  1.0000
  C   C2179     1.0  0.44003  0.87552  0.75414  1.0000
  C   C2180     1.0  0.43883  0.87524  0.77278  1.0000
  H   H3817     1.0  0.42770  0.83338  0.79117  1.0000
  H   H3818     1.0  0.43013  0.83377  0.75829  1.0000
  C   C2181     1.0  0.45123  0.85004  0.89382  1.0000
  C   C2182     1.0  0.43290  0.85761  0.89285  1.0000
  C   C2183     1.0  0.41888  0.85069  0.90637  1.0000
  C   C2184     1.0  0.42318  0.83621  0.92088  1.0000
  C   C2185     1.0  0.44150  0.82901  0.92209  1.0000
  C   C2186     1.0  0.45549  0.83598  0.90862  1.0000
  H   H3819     1.0  0.44486  0.81815  0.93345  1.0000
  H   H3820     1.0  0.46965  0.83043  0.90954  1.0000
  C   C2187     1.0  0.52154  0.89647  0.81088  1.0000
  C   C2188     1.0  0.51693  0.88991  0.82981  1.0000
  C   C2189     1.0  0.52431  0.89561  0.84178  1.0000
  C   C2190     1.0  0.53660  0.90746  0.83478  1.0000
  C   C2191     1.0  0.54229  0.91276  0.81581  1.0000
  C   C2192     1.0  0.53468  0.90736  0.80385  1.0000
  H   H3821     1.0  0.50729  0.88086  0.83526  1.0000
  H   H3822     1.0  0.52025  0.89114  0.85637  1.0000
  H   H3823     1.0  0.55164  0.92197  0.81029  1.0000
  H   H3824     1.0  0.53818  0.91250  0.78929  1.0000
  C   C2193     1.0  0.55507  0.92020  0.74790  1.0000
  H   H3825     1.0  0.45523  0.93559  0.85439  1.0000
  N   N119      1.0  0.48653  0.90049  0.89897  1.0000
  C   C2194     1.0  0.49219  0.88289  0.89174  1.0000
  C   C2195     1.0  0.46727  0.91033  0.89653  1.0000
  C   C2196     1.0  0.49946  0.91294  0.88766  1.0000
  C   C2197     1.0  0.48803  0.89709  0.91879  1.0000
  C   C2198     1.0  0.47763  0.88271  0.93241  1.0000
  C   C2199     1.0  0.51136  0.87097  0.89410  1.0000
  C   C2200     1.0  0.49551  0.93222  0.89256  1.0000
  C   C2201     1.0  0.45354  0.89842  0.89712  1.0000
  C   C2202     1.0  0.43415  0.90992  0.89737  1.0000
  C   C2203     1.0  0.48197  0.87918  0.95148  1.0000
  C   C2204     1.0  0.51483  0.85310  0.88725  1.0000
  C   C2205     1.0  0.50716  0.94474  0.87837  1.0000
  H   H3826     1.0  0.49160  0.88594  0.87689  1.0000
  H   H3827     1.0  0.48240  0.87369  0.89858  1.0000
  H   H3828     1.0  0.46082  0.91925  0.90682  1.0000
  H   H3829     1.0  0.46764  0.91992  0.88289  1.0000
  H   H3830     1.0  0.49937  0.91495  0.87277  1.0000
  H   H3831     1.0  0.51385  0.90664  0.88900  1.0000
  H   H3832     1.0  0.50269  0.89298  0.92000  1.0000
  H   H3833     1.0  0.48274  0.91003  0.92415  1.0000
  H   H3834     1.0  0.48148  0.86928  0.92807  1.0000
  H   H3835     1.0  0.46264  0.88785  0.93376  1.0000
  H   H3836     1.0  0.52257  0.87821  0.88637  1.0000
  H   H3837     1.0  0.51241  0.86714  0.90874  1.0000
  H   H3838     1.0  0.49885  0.93096  0.90611  1.0000
  H   H3839     1.0  0.48096  0.93924  0.89314  1.0000
  H   H3840     1.0  0.45763  0.89258  0.88452  1.0000
  H   H3841     1.0  0.45304  0.88699  0.90924  1.0000
  H   H3842     1.0  0.43387  0.92125  0.88506  1.0000
  H   H3843     1.0  0.42484  0.90107  0.89720  1.0000
  H   H3844     1.0  0.42898  0.91579  0.90998  1.0000
  H   H3845     1.0  0.49688  0.87375  0.95094  1.0000
  H   H3846     1.0  0.47770  0.89201  0.95701  1.0000
  H   H3847     1.0  0.47454  0.86876  0.96097  1.0000
  H   H3848     1.0  0.52844  0.84470  0.88936  1.0000
  H   H3849     1.0  0.50428  0.84495  0.89509  1.0000
  H   H3850     1.0  0.51454  0.85608  0.87239  1.0000
  H   H3851     1.0  0.52197  0.93893  0.87806  1.0000
  H   H3852     1.0  0.50433  0.94641  0.86452  1.0000
  H   H3853     1.0  0.50375  0.95852  0.88196  1.0000
  C   C2206     1.0  0.60283  0.88209  0.78070  1.0000
  H   H3854     1.0  0.32562  0.49545  0.87257  1.0000
  H   H3855     1.0  0.64082  0.61495  0.82145  1.0000
  C   C2207     1.0  0.49698  0.94178  0.82004  1.0000
  H   H3856     1.0  0.41624  0.53714  0.87135  1.0000
  C   C2208     1.0  0.39594  0.57213  0.86897  1.0000
  C   C2209     1.0  0.50873  0.95608  0.81050  1.0000
  H   H3857     1.0  0.48236  0.94865  0.82310  1.0000
  C   C2210     1.0  0.47650  0.91459  0.75141  1.0000
  H   H3858     1.0  0.35234  0.70959  0.85756  1.0000
  H   H3859     1.0  0.51099  0.76809  0.77029  1.0000
  H   H3860     1.0  0.38596  0.58391  0.86306  1.0000
  H   H3861     1.0  0.55087  0.93268  0.73768  1.0000
  H   H3862     1.0  0.53165  0.82414  0.79923  1.0000
  H   H3863     1.0  0.55501  0.92442  0.76070  1.0000
  H   H3864     1.0  0.58450  0.95282  0.88205  1.0000
  H   H3865     1.0  0.45619  0.72249  0.97368  1.0000
  H   H3866     1.0  0.49562  0.74208  0.97492  1.0000
  C   C2211     1.0  0.63387  0.82663  0.89984  1.0000
  H   H3867     1.0  0.55441  0.94379  0.89206  1.0000
  C   C2212     1.0  0.40428  0.55566  0.82399  1.0000
  H   H3868     1.0  0.36227  0.56085  0.90779  1.0000
  H   H3869     1.0  0.62182  0.83599  0.92573  1.0000
  N   N120      1.0  0.40895  0.56346  0.85368  1.0000
  S   S510      1.0  0.58938  0.76651  0.75013  1.0000
  C   C2213     1.0  0.62367  0.94464  0.88132  1.0000
  H   H3870     1.0  0.62098  0.82295  0.79636  1.0000
  C   C2214     1.0  0.38491  0.55927  0.88428  1.0000
  H   H3871     1.0  0.34248  0.49652  0.89551  1.0000
  H   H3872     1.0  0.36195  0.73513  0.84916  1.0000
  H   H3873     1.0  0.53627  0.97432  0.79373  1.0000
  N   N121      1.0  0.60684  0.94623  0.89658  1.0000
  H   H3874     1.0  0.60812  0.84466  0.89730  1.0000
  H   H3875     1.0  0.57211  0.98026  0.79529  1.0000
  C   C2215     1.0  0.60529  0.62752  0.85614  1.0000
  Fe  Fe251     1.0  0.44498  0.77972  0.97721  1.0000
  H   H3876     1.0  0.49830  0.93227  0.81082  1.0000
  C   C2216     1.0  0.64798  0.65242  0.92194  1.0000
  C   C2217     1.0  0.39340  0.54497  0.81792  1.0000
  H   H3877     1.0  0.37995  0.84652  0.87006  1.0000
  C   C2218     1.0  0.63000  0.77936  0.87250  1.0000
  C   C2219     1.0  0.61228  0.76702  0.77220  1.0000
  H   H3878     1.0  0.44518  0.78724  0.78962  1.0000
  C   C2220     1.0  0.39051  0.68039  0.92067  1.0000
  H   H3879     1.0  0.45486  0.80446  0.77166  1.0000
  H   H3880     1.0  0.38234  0.89617  0.73510  1.0000
  H   H3881     1.0  0.39888  0.66883  0.91400  1.0000
  H   H3882     1.0  0.39920  0.68447  0.92787  1.0000
  H   H3883     1.0  0.37879  0.67567  0.93100  1.0000
  H   H3884     1.0  0.41356  0.84790  0.87162  1.0000
  H   H3885     1.0  0.60457  0.78732  0.81147  1.0000
  H   H3886     1.0  0.53222  0.83922  0.76658  1.0000
  H   H3887     1.0  0.57509  0.97671  0.84518  1.0000
  C   C2221     1.0  0.58602  0.63441  0.82312  1.0000
  H   H3888     1.0  0.42119  0.81735  0.88824  1.0000
  N   N122      1.0  0.47224  0.74375  0.87650  1.0000
  C   C2222     1.0  0.46409  0.73992  0.86231  1.0000
  C   C2223     1.0  0.47119  0.72857  0.89346  1.0000
  C   C2224     1.0  0.46077  0.76141  0.88203  1.0000
  C   C2225     1.0  0.49166  0.74651  0.86889  1.0000
  C   C2226     1.0  0.50568  0.73066  0.86089  1.0000
  C   C2227     1.0  0.46236  0.75533  0.84491  1.0000
  C   C2228     1.0  0.46416  0.76603  0.89929  1.0000
  C   C2229     1.0  0.47352  0.70869  0.89076  1.0000
  C   C2230     1.0  0.47604  0.69480  0.90858  1.0000
  C   C2231     1.0  0.52403  0.73641  0.85186  1.0000
  C   C2232     1.0  0.45371  0.74994  0.83175  1.0000
  C   C2233     1.0  0.45368  0.78533  0.90166  1.0000
  H   H3889     1.0  0.45015  0.73721  0.86875  1.0000
  H   H3890     1.0  0.47191  0.72715  0.85754  1.0000
  H   H3891     1.0  0.48123  0.72855  0.90161  1.0000
  H   H3892     1.0  0.45748  0.73111  0.90272  1.0000
  H   H3893     1.0  0.44591  0.76122  0.88468  1.0000
  H   H3894     1.0  0.46303  0.77335  0.87064  1.0000
  H   H3895     1.0  0.49187  0.75926  0.85809  1.0000
  H   H3896     1.0  0.49751  0.74880  0.87973  1.0000
  H   H3897     1.0  0.50103  0.72656  0.85029  1.0000
  H   H3898     1.0  0.50838  0.71856  0.87202  1.0000
  H   H3899     1.0  0.45335  0.76820  0.84854  1.0000
  H   H3900     1.0  0.47602  0.75814  0.83740  1.0000
  H   H3901     1.0  0.47885  0.76552  0.89817  1.0000
  H   H3902     1.0  0.45946  0.75627  0.91200  1.0000
  H   H3903     1.0  0.46106  0.70720  0.88697  1.0000
  H   H3904     1.0  0.48529  0.70493  0.87978  1.0000
  H   H3905     1.0  0.47579  0.68088  0.90709  1.0000
  H   H3906     1.0  0.48940  0.69430  0.91184  1.0000
  H   H3907     1.0  0.46483  0.69844  0.92021  1.0000
  H   H3908     1.0  0.52983  0.73999  0.86203  1.0000
  H   H3909     1.0  0.53394  0.72484  0.84637  1.0000
  H   H3910     1.0  0.52244  0.74831  0.84025  1.0000
  H   H3911     1.0  0.44016  0.74648  0.83883  1.0000
  H   H3912     1.0  0.45152  0.76157  0.82002  1.0000
  H   H3913     1.0  0.46276  0.73796  0.82628  1.0000
  H   H3914     1.0  0.45755  0.78913  0.91290  1.0000
  H   H3915     1.0  0.45719  0.79563  0.88906  1.0000
  H   H3916     1.0  0.43868  0.78591  0.90512  1.0000
  C   C2234     1.0  0.43580  0.81934  0.85228  1.0000
  C   C2235     1.0  0.44873  0.82796  0.85862  1.0000
  C   C2236     1.0  0.46882  0.82024  0.85095  1.0000
  H   H3917     1.0  0.43798  0.82386  0.83702  1.0000
  H   H3918     1.0  0.44105  0.80422  0.85506  1.0000
  H   H3919     1.0  0.41835  0.79841  0.88108  1.0000
  H   H3920     1.0  0.42520  0.79370  0.84136  1.0000
  H   H3921     1.0  0.44674  0.82527  0.87375  1.0000
  H   H3922     1.0  0.44626  0.84308  0.85367  1.0000
  H   H3923     1.0  0.47160  0.82325  0.83569  1.0000
  H   H3924     1.0  0.47777  0.82679  0.85545  1.0000
  H   H3925     1.0  0.47234  0.80518  0.85604  1.0000
  H   H3926     1.0  0.42890  0.55338  0.87117  1.0000
  Fe  Fe252     1.0  0.33756  0.55138  0.84017  1.0000
  C   C2237     1.0  0.49899  0.79545  0.97824  1.0000
  H   H3927     1.0  0.49482  0.97132  0.83253  1.0000
  H   H3928     1.0  0.65194  0.66559  0.92107  1.0000
  H   H3929     1.0  0.44996  0.59233  0.82324  1.0000
  C   C2238     1.0  0.63895  0.86520  0.83087  1.0000
  H   H3930     1.0  0.54446  0.89544  0.76242  1.0000
  C   C2239     1.0  0.51070  0.72754  0.92354  1.0000
  H   H3931     1.0  0.40683  0.58893  0.83372  1.0000
  H   H3932     1.0  0.61732  0.92466  0.94975  1.0000
  C   C2240     1.0  0.43920  0.95760  0.83805  1.0000
  H   H3933     1.0  0.44332  0.88736  0.74381  1.0000
  H   H3934     1.0  0.53005  0.85451  0.73536  1.0000
  H   H3935     1.0  0.62344  0.64837  0.79875  1.0000
  C   C2241     1.0  0.43889  0.53883  0.84858  1.0000
  C   C2242     1.0  0.50749  0.77957  0.92345  1.0000
  H   H3936     1.0  0.62489  0.81384  0.85411  1.0000
  C   C2243     1.0  0.62691  0.85130  0.84128  1.0000
  H   H3937     1.0  0.48582  0.88588  0.73613  1.0000
  H   H3938     1.0  0.50337  0.96397  0.79812  1.0000
  H   H3939     1.0  0.62445  0.86891  0.76137  1.0000
  C   C2244     1.0  0.59025  0.64429  0.86125  1.0000
  C   C2245     1.0  0.45151  0.95028  0.84990  1.0000
  H   H3940     1.0  0.44528  0.60901  0.83755  1.0000
  H   H3941     1.0  0.46845  0.95624  0.86516  1.0000
  H   H3942     1.0  0.64062  0.88519  0.89880  1.0000
  C   C2246     1.0  0.63794  0.95123  0.84722  1.0000
  H   H3943     1.0  0.50569  0.72232  0.96513  1.0000
  C   C2247     1.0  0.47858  0.73660  0.95999  1.0000
  H   H3944     1.0  0.63227  0.83888  0.83516  1.0000
  H   H3945     1.0  0.35968  0.57984  0.88869  1.0000
  C   C2248     1.0  0.42802  0.58875  0.84744  1.0000
  H   H3946     1.0  0.63981  0.93663  0.84629  1.0000
  H   H3947     1.0  0.64450  0.61666  0.88974  1.0000
  C   C2249     1.0  0.39779  0.55583  0.84482  1.0000
  H   H3948     1.0  0.38351  0.56406  0.84600  1.0000
  H   H3949     1.0  0.39406  0.54945  0.89303  1.0000
  H   H3950     1.0  0.51397  0.76478  0.96280  1.0000
  C   C2250     1.0  0.59183  0.94082  0.89089  1.0000
  C   C2251     1.0  0.52374  0.71800  0.90852  1.0000
  C   C2252     1.0  0.33575  0.54806  0.79010  1.0000
  H   H3951     1.0  0.62573  0.87312  0.93065  1.0000
  C   C2253     1.0  0.63445  0.59649  0.84743  1.0000
  H   H3952     1.0  0.36988  0.50510  0.74162  1.0000
  H   H3953     1.0  0.56682  0.92115  0.88838  1.0000
  H   H3954     1.0  0.52961  0.87229  0.74625  1.0000
  H   H3955     1.0  0.58784  0.63176  0.79506  1.0000
  H   H3956     1.0  0.61565  0.91866  0.91108  1.0000
  H   H3957     1.0  0.59159  0.92038  0.75961  1.0000
  H   H3958     1.0  0.63504  0.65564  0.91682  1.0000
  H   H3959     1.0  0.50010  0.73787  0.91706  1.0000
  H   H3960     1.0  0.42980  0.61063  0.82294  1.0000
  C   C2254     1.0  0.60141  0.96592  0.89898  1.0000
  H   H3961     1.0  0.53000  0.74443  0.92171  1.0000
  C   C2255     1.0  0.44201  0.84482  0.96797  1.0000
  C   C2256     1.0  0.60575  0.94914  0.75809  1.0000
  H   H3962     1.0  0.54443  0.73013  0.95799  1.0000
  H   H3963     1.0  0.47680  0.77944  0.75434  1.0000
  H   H3964     1.0  0.51623  0.71073  0.90305  1.0000
  H   H3965     1.0  0.37576  0.75891  0.86727  1.0000
  C   C2257     1.0  0.65341  0.58422  0.84316  1.0000
  C   C2258     1.0  0.52131  0.86756  0.73907  1.0000
  H   H3966     1.0  0.44648  0.54885  0.83856  1.0000
  H   H3967     1.0  0.61341  0.97061  0.90041  1.0000
  C   C2259     1.0  0.43892  0.60088  0.83178  1.0000
  H   H3968     1.0  0.63588  0.95999  0.83369  1.0000
  H   H3969     1.0  0.63416  0.87808  0.83627  1.0000
  C   C2260     1.0  0.62694  0.84661  0.86216  1.0000
  H   H3970     1.0  0.52294  0.94878  0.80581  1.0000
  H   H3971     1.0  0.54275  0.76531  0.73543  1.0000
  N   N123      1.0  0.50951  0.74797  0.94633  1.0000
  H   H3972     1.0  0.34454  0.50186  0.76914  1.0000
  H   H3973     1.0  0.64157  0.84241  0.86342  1.0000
  H   H3974     1.0  0.62189  0.85955  0.86755  1.0000
  Fe  Fe253     1.0  0.58848  0.79632  0.73689  1.0000
  H   H3975     1.0  0.57843  0.89828  0.75210  1.0000
  H   H3976     1.0  0.37422  0.72797  0.88598  1.0000
  C   C2261     1.0  0.37206  0.72240  0.87489  1.0000
  N   N124      1.0  0.57540  0.79725  0.81849  1.0000
  C   C2262     1.0  0.59463  0.80072  0.81158  1.0000
  C   C2263     1.0  0.57436  0.78361  0.83662  1.0000
  C   C2264     1.0  0.57111  0.78888  0.80462  1.0000
  C   C2265     1.0  0.56135  0.81484  0.82000  1.0000
  C   C2266     1.0  0.55412  0.77967  0.81117  1.0000
  C   C2267     1.0  0.58643  0.78447  0.84968  1.0000
  C   C2268     1.0  0.58145  0.77260  0.86863  1.0000
  C   C2269     1.0  0.54779  0.77693  0.79491  1.0000
  H   H3977     1.0  0.59837  0.80738  0.82095  1.0000
  H   H3978     1.0  0.55988  0.78463  0.84427  1.0000
  H   H3979     1.0  0.57909  0.76926  0.83415  1.0000
  H   H3980     1.0  0.58291  0.77810  0.80013  1.0000
  H   H3981     1.0  0.56912  0.79942  0.79193  1.0000
  H   H3982     1.0  0.56144  0.82407  0.80624  1.0000
  H   H3983     1.0  0.54736  0.81190  0.82457  1.0000
  H   H3984     1.0  0.54230  0.78783  0.81924  1.0000
  H   H3985     1.0  0.55764  0.76591  0.82001  1.0000
  H   H3986     1.0  0.60107  0.77905  0.84405  1.0000
  H   H3987     1.0  0.58526  0.79858  0.85149  1.0000
  H   H3988     1.0  0.56692  0.77732  0.87511  1.0000
  H   H3989     1.0  0.58374  0.75798  0.86763  1.0000
  H   H3990     1.0  0.59028  0.77352  0.87760  1.0000
  H   H3991     1.0  0.55911  0.76862  0.78641  1.0000
  H   H3992     1.0  0.53624  0.76957  0.80000  1.0000
  H   H3993     1.0  0.54313  0.79041  0.78615  1.0000
  N   N125      1.0  0.49223  0.75337  0.76648  1.0000
  C   C2270     1.0  0.49000  0.74302  0.75317  1.0000
  C   C2271     1.0  0.49138  0.74114  0.78545  1.0000
  C   C2272     1.0  0.47630  0.76957  0.76769  1.0000
  H   H3994     1.0  0.36747  0.76597  0.84609  1.0000
  C   C2273     1.0  0.52106  0.73638  0.93268  1.0000
  C   C2274     1.0  0.63168  0.67181  0.80188  1.0000
  C   C2275     1.0  0.47509  0.78115  0.78207  1.0000
  C   C2276     1.0  0.49864  0.72014  0.78657  1.0000
  C   C2277     1.0  0.49834  0.70996  0.80641  1.0000
  H   H3995     1.0  0.44596  0.51397  0.86887  1.0000
  C   C2278     1.0  0.45669  0.79467  0.78473  1.0000
  H   H3996     1.0  0.47729  0.73748  0.75867  1.0000
  H   H3997     1.0  0.34067  0.55980  0.77993  1.0000
  H   H3998     1.0  0.49867  0.74576  0.79370  1.0000
  H   H3999     1.0  0.47686  0.74224  0.79310  1.0000
  H   H4000     1.0  0.46315  0.76482  0.77065  1.0000
  H   H4001     1.0  0.33884  0.68377  0.87869  1.0000
  H   H4002     1.0  0.56485  0.63696  0.80817  1.0000
  C   C2279     1.0  0.62125  0.95639  0.86207  1.0000
  H   H4003     1.0  0.57841  0.61403  0.81273  1.0000
  H   H4004     1.0  0.39772  0.54567  0.80287  1.0000
  H   H4005     1.0  0.53066  0.72472  0.93931  1.0000
  H   H4006     1.0  0.59796  0.93017  0.88231  1.0000
  H   H4007     1.0  0.47660  0.77246  0.79571  1.0000
  H   H4008     1.0  0.48973  0.71434  0.78117  1.0000
  H   H4009     1.0  0.51280  0.71695  0.77862  1.0000
  H   H4010     1.0  0.48409  0.71170  0.81452  1.0000
  H   H4011     1.0  0.50366  0.69505  0.80666  1.0000
  H   H4012     1.0  0.50698  0.71503  0.81280  1.0000
  H   H4013     1.0  0.52779  0.73830  0.74699  1.0000
  C   C2280     1.0  0.57336  0.87373  0.78572  1.0000
  H   H4014     1.0  0.43919  0.75249  0.74893  1.0000
  H   H4015     1.0  0.41361  0.76333  0.92380  1.0000
  H   H4016     1.0  0.44844  0.85354  0.95532  1.0000
  H   H4017     1.0  0.61287  0.85732  0.83878  1.0000
  S   S511      1.0  0.34939  0.52201  0.83651  1.0000
  H   H4018     1.0  0.62442  0.58993  0.84476  1.0000
  H   H4019     1.0  0.41899  0.54944  0.82032  1.0000
  N   N126      1.0  0.41562  0.82384  0.86082  1.0000
  C   C2281     1.0  0.59345  0.74406  0.78329  1.0000
  H   H4020     1.0  0.44433  0.83078  0.96539  1.0000
  C   C2282     1.0  0.58057  0.86241  0.77276  1.0000
  H   H4021     1.0  0.39220  0.78826  0.90713  1.0000
  C   C2283     1.0  0.41296  0.81338  0.88047  1.0000
  H   H4022     1.0  0.40814  0.78845  0.86184  1.0000
  H   H4023     1.0  0.50424  0.71686  0.93393  1.0000
  C   C2284     1.0  0.41062  0.79752  0.84809  1.0000
  C   C2285     1.0  0.56265  0.82621  0.83339  1.0000
  C   C2286     1.0  0.40536  0.81811  0.84958  1.0000
  C   C2287     1.0  0.61020  0.87021  0.76826  1.0000
  C   C2288     1.0  0.62994  0.65170  0.80849  1.0000
  H   H4024     1.0  0.50114  0.80620  0.90568  1.0000
  S   S512      1.0  0.56610  0.85111  0.76730  1.0000
  H   H4025     1.0  0.54844  0.85189  0.84237  1.0000
  H   H4026     1.0  0.38815  0.87441  0.87478  1.0000
  H   H4027     1.0  0.40155  0.80192  0.82233  1.0000
  C   C2289     1.0  0.59905  0.86055  0.76412  1.0000
  H   H4028     1.0  0.64290  0.81402  0.89560  1.0000
  H   H4029     1.0  0.39582  0.70173  0.89717  1.0000
  H   H4030     1.0  0.53405  0.84092  0.83556  1.0000
  H   H4031     1.0  0.39434  0.88168  0.85005  1.0000
  H   H4032     1.0  0.51266  0.82864  0.77705  1.0000
  C   C2290     1.0  0.53445  0.73968  0.96625  1.0000
  H   H4033     1.0  0.36369  0.68223  0.90421  1.0000
  C   C2291     1.0  0.38972  0.85365  0.85924  1.0000
  C   C2292     1.0  0.39929  0.79347  0.83646  1.0000
  H   H4034     1.0  0.64147  0.92480  0.94376  1.0000
  H   H4035     1.0  0.43780  0.57913  0.85557  1.0000
  H   H4036     1.0  0.58086  0.64994  0.85155  1.0000
  C   C2293     1.0  0.54799  0.84398  0.83233  1.0000
  H   H4037     1.0  0.57623  0.83003  0.83010  1.0000
  H   H4038     1.0  0.55992  0.81843  0.84774  1.0000
  C   C2294     1.0  0.39322  0.81621  0.89203  1.0000
  C   C2295     1.0  0.38563  0.87363  0.86140  1.0000
  H   H4039     1.0  0.38306  0.81511  0.88466  1.0000
  H   H4040     1.0  0.38447  0.79632  0.84283  1.0000
  H   H4041     1.0  0.52720  0.91609  0.75900  1.0000
  H   H4042     1.0  0.64070  0.93381  0.91105  1.0000
  H   H4043     1.0  0.47261  0.83214  0.74157  1.0000
  H   H4044     1.0  0.42702  0.85046  0.97083  1.0000
  C   C2296     1.0  0.59919  0.75866  0.76973  1.0000
  C   C2297     1.0  0.59868  0.81278  0.79217  1.0000
  H   H4045     1.0  0.44108  0.88687  0.77682  1.0000
  C   C2298     1.0  0.39161  0.80189  0.90994  1.0000
  H   H4046     1.0  0.39036  0.82116  0.85492  1.0000
  H   H4047     1.0  0.40275  0.80077  0.91716  1.0000
  C   C2299     1.0  0.49458  0.79424  0.91262  1.0000
  H   H4048     1.0  0.38611  0.71730  0.86742  1.0000
  H   H4049     1.0  0.56806  0.65151  0.88372  1.0000
  H   H4050     1.0  0.32671  0.55341  0.75707  1.0000
  H   H4051     1.0  0.62537  0.65239  0.83733  1.0000
  H   H4052     1.0  0.62618  0.78078  0.85914  1.0000
  H   H4053     1.0  0.48775  0.77189  0.94782  1.0000
  H   H4054     1.0  0.48860  0.76106  0.93001  1.0000
  H   H4055     1.0  0.49160  0.78874  0.90193  1.0000
  C   C2300     1.0  0.35362  0.67521  0.85365  1.0000
  H   H4056     1.0  0.38955  0.82996  0.89577  1.0000
  H   H4057     1.0  0.40351  0.77873  0.83546  1.0000
  C   C2301     1.0  0.53510  0.98132  0.80515  1.0000
  H   H4058     1.0  0.38710  0.88538  0.76716  1.0000
  H   H4059     1.0  0.34801  0.73371  0.90478  1.0000
  H   H4060     1.0  0.39576  0.53030  0.82501  1.0000
  H   H4061     1.0  0.37850  0.55096  0.82107  1.0000
  C   C2302     1.0  0.38064  0.87736  0.76136  1.0000
  C   C2303     1.0  0.52290  0.83788  0.79569  1.0000
  H   H4062     1.0  0.53021  0.84857  0.79588  1.0000
  H   H4063     1.0  0.50995  0.83893  0.80618  1.0000
  C   C2304     1.0  0.33082  0.50783  0.89225  1.0000
  H   H4064     1.0  0.63863  0.67575  0.81089  1.0000
  C   C2305     1.0  0.54556  0.74861  0.97411  1.0000
  C   C2306     1.0  0.57721  0.93220  0.90634  1.0000
  H   H4065     1.0  0.58745  0.63495  0.89089  1.0000
  H   H4066     1.0  0.59666  0.80636  0.78165  1.0000
  H   H4067     1.0  0.55997  0.84841  0.87196  1.0000
  Fe  Fe254     1.0  0.34583  0.58891  0.84015  1.0000
  H   H4068     1.0  0.60967  0.93757  0.76934  1.0000
  S   S513      1.0  0.36923  0.60469  0.83140  1.0000
  H   H4069     1.0  0.37829  0.80591  0.91922  1.0000
  H   H4070     1.0  0.65345  0.85945  0.83208  1.0000
  C   C2307     1.0  0.49806  0.73680  0.96204  1.0000
  C   C2308     1.0  0.51901  0.84023  0.77663  1.0000
  H   H4071     1.0  0.60680  0.82121  0.90238  1.0000
  H   H4072     1.0  0.58354  0.91822  0.91303  1.0000
  H   H4073     1.0  0.48158  0.79908  0.92189  1.0000
  H   H4074     1.0  0.41820  0.59796  0.85621  1.0000
  H   H4075     1.0  0.55025  0.85277  0.81840  1.0000
  H   H4076     1.0  0.37105  0.87992  0.86093  1.0000
  C   C2309     1.0  0.45891  0.96202  0.85605  1.0000
  H   H4077     1.0  0.47837  0.73398  0.94655  1.0000
  C   C2310     1.0  0.63402  0.61632  0.83582  1.0000
  N   N127      1.0  0.36210  0.70665  0.88252  1.0000
  H   H4078     1.0  0.48592  0.89366  0.77314  1.0000
  H   H4079     1.0  0.61959  0.97122  0.86190  1.0000
  H   H4080     1.0  0.33432  0.72202  0.88283  1.0000
  H   H4081     1.0  0.34601  0.54156  0.79888  1.0000
  H   H4082     1.0  0.51179  0.86944  0.77432  1.0000
  H   H4083     1.0  0.37841  0.55126  0.87857  1.0000
  C   C2311     1.0  0.61852  0.81532  0.78701  1.0000
  H   H4084     1.0  0.39639  0.54162  0.85224  1.0000
  H   H4085     1.0  0.50898  0.77145  0.74720  1.0000
  H   H4086     1.0  0.42716  0.57293  0.82820  1.0000
  H   H4087     1.0  0.57232  0.96939  0.91190  1.0000
  H   H4088     1.0  0.60563  0.79739  0.88347  1.0000
  H   H4089     1.0  0.51899  0.77348  0.91338  1.0000
  H   H4090     1.0  0.61511  0.62561  0.86523  1.0000
  C   C2312     1.0  0.49747  0.76480  0.93717  1.0000
  C   C2313     1.0  0.50604  0.85889  0.77137  1.0000
  H   H4091     1.0  0.49260  0.85863  0.78120  1.0000
  H   H4092     1.0  0.50121  0.93367  0.83299  1.0000
  H   H4093     1.0  0.38542  0.85506  0.73579  1.0000
  H   H4094     1.0  0.61797  0.68098  0.80178  1.0000
  C   C2314     1.0  0.33339  0.53389  0.78050  1.0000
  H   H4095     1.0  0.60528  0.65842  0.82833  1.0000
  C   C2315     1.0  0.61843  0.64832  0.82835  1.0000
  H   H4096     1.0  0.62888  0.92998  0.87999  1.0000
  H   H4097     1.0  0.38817  0.74877  0.84763  1.0000
  C   C2316     1.0  0.61533  0.83117  0.89361  1.0000
  H   H4098     1.0  0.33638  0.51887  0.88149  1.0000
  C   C2317     1.0  0.50873  0.96844  0.82370  1.0000
  C   C2318     1.0  0.36920  0.61963  0.86104  1.0000
  H   H4099     1.0  0.59682  0.65554  0.86128  1.0000
  C   C2319     1.0  0.50961  0.76081  0.76007  1.0000
  H   H4100     1.0  0.53018  0.73747  0.77007  1.0000
  H   H4101     1.0  0.62818  0.80179  0.78767  1.0000
  C   C2320     1.0  0.36969  0.57033  0.89670  1.0000
  H   H4102     1.0  0.63999  0.67384  0.78768  1.0000
  H   H4103     1.0  0.59976  0.93285  0.92524  1.0000
  H   H4104     1.0  0.62133  0.82332  0.77275  1.0000
  C   C2321     1.0  0.48348  0.79425  0.97280  1.0000
  S   S514      1.0  0.42966  0.94314  0.83012  1.0000
  Fe  Fe255     1.0  0.42894  0.79580  0.73761  1.0000
  H   H4105     1.0  0.37550  0.57843  0.90307  1.0000
  H   H4106     1.0  0.45886  0.53150  0.86625  1.0000
  H   H4107     1.0  0.58962  0.82552  0.87916  1.0000
  S   S515      1.0  0.34486  0.56251  0.86114  1.0000
  H   H4108     1.0  0.52240  0.97497  0.85139  1.0000
  H   H4109     1.0  0.61143  0.89939  0.74131  1.0000
  C   C2322     1.0  0.57869  0.63932  0.88045  1.0000
  N   N128      1.0  0.50338  0.86407  0.75175  1.0000
  H   H4110     1.0  0.47749  0.92567  0.75781  1.0000
  C   C2323     1.0  0.62655  0.81387  0.86807  1.0000
  H   H4111     1.0  0.58115  0.85464  0.88874  1.0000
  H   H4112     1.0  0.60341  0.60864  0.83117  1.0000
  H   H4113     1.0  0.34569  0.71200  0.92038  1.0000
  H   H4114     1.0  0.51294  0.78679  0.93109  1.0000
  H   H4115     1.0  0.64513  0.77724  0.87042  1.0000
  H   H4116     1.0  0.47858  0.70806  0.97393  1.0000
  H   H4117     1.0  0.36784  0.67256  0.84550  1.0000
  H   H4118     1.0  0.60471  0.85185  0.75410  1.0000
  C   C2324     1.0  0.48961  0.89689  0.75793  1.0000
  H   H4119     1.0  0.50927  0.83599  0.74781  1.0000
  H   H4120     1.0  0.48641  0.84384  0.75951  1.0000
  C   C2325     1.0  0.54060  0.90842  0.75256  1.0000
  H   H4121     1.0  0.57139  0.86154  0.85092  1.0000
  H   H4122     1.0  0.36138  0.66998  0.87965  1.0000
  H   H4123     1.0  0.36552  0.88137  0.76561  1.0000
  H   H4124     1.0  0.32864  0.51806  0.73396  1.0000
  C   C2326     1.0  0.48788  0.88063  0.75044  1.0000
  C   C2327     1.0  0.49771  0.84814  0.74808  1.0000
  C   C2328     1.0  0.57893  0.62887  0.80888  1.0000
  H   H4125     1.0  0.47478  0.87661  0.75833  1.0000
  N   N129      1.0  0.61654  0.83194  0.87354  1.0000
  C   C2329     1.0  0.59731  0.83606  0.87016  1.0000
  C   C2330     1.0  0.58532  0.85489  0.87376  1.0000
  C   C2331     1.0  0.38364  0.69681  0.90635  1.0000
  C   C2332     1.0  0.65582  0.64983  0.85274  1.0000
  H   H4126     1.0  0.63502  0.94898  0.88450  1.0000
  C   C2333     1.0  0.56788  0.85952  0.86615  1.0000
  H   H4127     1.0  0.62472  0.79391  0.89425  1.0000
  C   C2334     1.0  0.62064  0.79633  0.88087  1.0000
  H   H4128     1.0  0.59756  0.83502  0.85590  1.0000
  H   H4129     1.0  0.62562  0.76698  0.88190  1.0000
  N   N130      1.0  0.61536  0.62900  0.83631  1.0000
  H   H4130     1.0  0.37135  0.62958  0.88416  1.0000
  C   C2335     1.0  0.37281  0.69131  0.89478  1.0000
  C   C2336     1.0  0.36075  0.49536  0.74359  1.0000
  C   C2337     1.0  0.60509  0.94182  0.74156  1.0000
  H   H4131     1.0  0.46547  0.84035  0.98009  1.0000
  C   C2338     1.0  0.58998  0.93040  0.74649  1.0000
  H   H4132     1.0  0.55915  0.87254  0.86984  1.0000
  H   H4133     1.0  0.33605  0.70078  0.89856  1.0000
  H   H4134     1.0  0.53173  0.76183  0.94321  1.0000
  H   H4135     1.0  0.57165  0.62815  0.88117  1.0000
  C   C2339     1.0  0.43419  0.97679  0.83260  1.0000
  H   H4136     1.0  0.59266  0.86624  0.86723  1.0000
  H   H4137     1.0  0.34908  0.74523  0.86866  1.0000
  C   C2340     1.0  0.37431  0.75409  0.85534  1.0000
  H   H4138     1.0  0.63309  0.90818  0.93695  1.0000
  C   C2341     1.0  0.61174  0.93294  0.91364  1.0000
  H   H4139     1.0  0.50125  0.73082  0.75181  1.0000
  H   H4140     1.0  0.53892  0.90506  0.73997  1.0000
  H   H4141     1.0  0.40331  0.57791  0.87615  1.0000
  C   C2342     1.0  0.42296  0.54830  0.86209  1.0000
  S   S516      1.0  0.39650  0.78119  0.97046  1.0000
  H   H4142     1.0  0.65116  0.66413  0.84682  1.0000
  H   H4143     1.0  0.51756  0.95964  0.83332  1.0000
  C   C2343     1.0  0.35328  0.68145  0.87115  1.0000
  H   H4144     1.0  0.53507  0.70772  0.91408  1.0000
  H   H4145     1.0  0.63129  0.59667  0.86233  1.0000
  S   S517      1.0  0.34151  0.57646  0.81828  1.0000
  H   H4146     1.0  0.59914  0.61506  0.86068  1.0000
  H   H4147     1.0  0.61187  0.84121  0.97671  1.0000
  H   H4148     1.0  0.43358  0.53132  0.84118  1.0000
  H   H4149     1.0  0.37551  0.70792  0.91360  1.0000
  H   H4150     1.0  0.40198  0.56997  0.81589  1.0000
  H   H4151     1.0  0.37498  0.69636  0.85753  1.0000
  H   H4152     1.0  0.57619  0.63180  0.83638  1.0000
  C   C2344     1.0  0.63086  0.82370  0.92074  1.0000
  C   C2345     1.0  0.62993  0.92259  0.93895  1.0000
  H   H4153     1.0  0.58584  0.64934  0.81872  1.0000
  H   H4154     1.0  0.59226  0.95756  0.76328  1.0000
  C   C2346     1.0  0.47030  0.72201  0.97505  1.0000
  C   C2347     1.0  0.60534  0.62293  0.82511  1.0000
  H   H4155     1.0  0.61710  0.77797  0.76164  1.0000
  Fe  Fe256     1.0  0.57803  0.83465  0.74498  1.0000
  C   C2348     1.0  0.41758  0.57836  0.83996  1.0000
  C   C2349     1.0  0.57437  0.90932  0.74052  1.0000
  H   H4156     1.0  0.35821  0.61266  0.86869  1.0000
  H   H4157     1.0  0.61380  0.62225  0.81112  1.0000
  C   C2350     1.0  0.36108  0.69924  0.86641  1.0000
  C   C2351     1.0  0.33204  0.52063  0.74623  1.0000
  H   H4158     1.0  0.38522  0.86253  0.76710  1.0000
  H   H4159     1.0  0.64322  0.62230  0.84068  1.0000
  H   H4160     1.0  0.34842  0.66225  0.85730  1.0000
  H   H4161     1.0  0.64534  0.64513  0.93651  1.0000
  H   H4162     1.0  0.54325  0.97105  0.81469  1.0000
  H   H4163     1.0  0.36401  0.87015  0.73869  1.0000
  C   C2352     1.0  0.38653  0.88123  0.74043  1.0000
  H   H4164     1.0  0.50379  0.89935  0.75387  1.0000
  H   H4165     1.0  0.55469  0.75630  0.96285  1.0000
  H   H4166     1.0  0.64421  0.82125  0.92486  1.0000
  H   H4167     1.0  0.34482  0.68579  0.84505  1.0000
  H   H4168     1.0  0.34211  0.52981  0.74050  1.0000
  C   C2353     1.0  0.58529  0.97037  0.91498  1.0000
  C   C2354     1.0  0.54405  0.75624  0.74901  1.0000
  H   H4169     1.0  0.55700  0.74583  0.74715  1.0000
  C   C2355     1.0  0.52778  0.74663  0.75685  1.0000
  C   C2356     1.0  0.34050  0.49103  0.83213  1.0000
  H   H4170     1.0  0.65364  0.57040  0.85222  1.0000
  H   H4171     1.0  0.65051  0.95337  0.85022  1.0000
  H   H4172     1.0  0.47895  0.98626  0.80987  1.0000
  C   C2357     1.0  0.65219  0.62311  0.87694  1.0000
  S   S518      1.0  0.45399  0.80728  0.73288  1.0000
  H   H4173     1.0  0.64113  0.83823  0.89384  1.0000
  H   H4174     1.0  0.64624  0.48656  0.82442  1.0000
  H   H4175     1.0  0.52621  0.73158  0.97798  1.0000
  H   H4176     1.0  0.64160  0.81198  0.86688  1.0000
  H   H4177     1.0  0.62452  0.95021  0.92357  1.0000
  C   C2358     1.0  0.62745  0.93610  0.92092  1.0000
  H   H4178     1.0  0.48006  0.91899  0.73624  1.0000
  H   H4179     1.0  0.32379  0.51339  0.90481  1.0000
  N   N131      1.0  0.51532  0.98608  0.81459  1.0000
  H   H4180     1.0  0.47678  0.76519  0.73330  1.0000
  C   C2359     1.0  0.48901  0.75384  0.73341  1.0000
  N   N132      1.0  0.58919  0.92041  0.73218  1.0000
  Fe  Fe257     1.0  0.82826  0.43060  0.06215  1.0000
  S   S519      1.0  0.81020  0.45835  0.06361  1.0000
  S   S520      1.0  0.83878  0.41937  0.03596  1.0000
  Fe  Fe258     1.0  0.83507  0.42457  0.10099  1.0000
  S   S521      1.0  0.81747  0.45170  0.10556  1.0000
  S   S522      1.0  0.84872  0.40714  0.12429  1.0000
  Fe  Fe259     1.0  0.79796  0.44520  0.09215  1.0000
  S   S523      1.0  0.76798  0.45515  0.10332  1.0000
  Fe  Fe260     1.0  0.83090  0.46274  0.07685  1.0000
  H   H4181     1.0  0.71674  0.36294  0.17651  1.0000
  S   S524      1.0  0.81429  0.41675  0.08990  1.0000
  S   S525      1.0  0.85028  0.43617  0.07318  1.0000
  H   H4182     1.0  0.81044  0.40967  0.13834  1.0000
  H   H4183     1.0  0.75319  0.35637  0.21200  1.0000
  C   C2360     1.0  0.79180  0.47593  0.16725  1.0000
  C   C2361     1.0  0.70055  0.39607  0.12700  1.0000
  H   H4184     1.0  0.69991  0.35460  0.14381  1.0000
  H   H4185     1.0  0.85078  0.42277  0.18091  1.0000
  C   C2362     1.0  0.70096  0.38646  0.14721  1.0000
  C   C2363     1.0  0.68714  0.37028  0.17721  1.0000
  Fe  Fe261     1.0  0.90425  0.44616  0.17364  1.0000
  S   S526      1.0  0.88526  0.45059  0.20027  1.0000
  S   S527      1.0  0.89350  0.45325  0.14741  1.0000
  Fe  Fe262     1.0  0.90437  0.46704  0.20245  1.0000
  H   H4186     1.0  0.75089  0.35849  0.18878  1.0000
  C   C2364     1.0  0.82400  0.47592  0.01249  1.0000
  C   C2365     1.0  0.77602  0.47292  0.03276  1.0000
  C   C2366     1.0  0.81973  0.48433  0.18437  1.0000
  H   H4187     1.0  0.65907  0.36668  0.14136  1.0000
  H   H4188     1.0  0.79445  0.39219  0.12692  1.0000
  H   H4189     1.0  0.84958  0.46916  0.02194  1.0000
  H   H4190     1.0  0.67518  0.36412  0.18531  1.0000
  H   H4191     1.0  0.96312  0.41741  0.21837  1.0000
  H   H4192     1.0  0.71585  0.41297  0.10420  1.0000
  H   H4193     1.0  0.78334  0.43418  0.14288  1.0000
  S   S528      1.0  0.92170  0.46509  0.17470  1.0000
  H   H4194     1.0  0.84408  0.37925  0.22921  1.0000
  H   H4195     1.0  0.98214  0.46327  0.22793  1.0000
  H   H4196     1.0  0.72974  0.39637  0.11892  1.0000
  Fe  Fe263     1.0  0.71747  0.40617  0.19361  1.0000
  S   S529      1.0  0.73449  0.39629  0.16804  1.0000
  S   S530      1.0  0.68708  0.41723  0.19776  1.0000
  C   C2367     1.0  0.81326  0.37181  0.17755  1.0000
  H   H4197     1.0  0.77505  0.37097  0.16271  1.0000
  S   S531      1.0  0.72331  0.42555  0.20794  1.0000
  C   C2368     1.0  0.71639  0.40617  0.11870  1.0000
  H   H4198     1.0  0.81238  0.48036  0.14292  1.0000
  H   H4199     1.0  0.70212  0.38573  0.11863  1.0000
  Fe  Fe264     1.0  0.93872  0.44006  0.18921  1.0000
  H   H4200     1.0  0.78339  0.36450  0.20130  1.0000
  H   H4201     1.0  0.91761  0.47817  0.11902  1.0000
  S   S532      1.0  0.71552  0.38364  0.21858  1.0000
  H   H4202     1.0  0.70224  0.39661  0.15466  1.0000
  C   C2369     1.0  0.67110  0.23310  0.09089  1.0000
  H   H4203     1.0  0.80369  0.37535  0.10187  1.0000
  C   C2370     1.0  0.77230  0.45418  0.04360  1.0000
  H   H4204     1.0  0.93249  0.48017  0.20379  1.0000
  H   H4205     1.0  0.76474  0.44853  0.03652  1.0000
  H   H4206     1.0  0.85919  0.36845  0.17891  1.0000
  H   H4207     1.0  0.68043  0.34969  0.16082  1.0000
  H   H4208     1.0  0.84150  0.41605  0.21817  1.0000
  C   C2371     1.0  0.78585  0.47219  0.01256  1.0000
  C   C2372     1.0  0.68994  0.48090  0.21519  1.0000
  H   H4209     1.0  0.78426  0.47736  0.04003  1.0000
  C   C2373     1.0  0.68555  0.36081  0.14967  1.0000
  S   S533      1.0  0.96927  0.43918  0.18120  1.0000
  H   H4210     1.0  0.81132  0.47263  0.98256  1.0000
  H   H4211     1.0  0.70814  0.34517  0.17210  1.0000
  H   H4212     1.0  0.68706  0.38166  0.18376  1.0000
  H   H4213     1.0  0.77933  0.47983  0.14366  1.0000
  H   H4214     1.0  0.82395  0.37722  0.10831  1.0000
  Fe  Fe265     1.0  0.90475  0.42677  0.21316  1.0000
  C   C2374     1.0  0.80863  0.39467  0.22963  1.0000
  H   H4215     1.0  0.82245  0.37969  0.13982  1.0000
  H   H4216     1.0  0.66443  0.40463  0.17984  1.0000
  C   C2375     1.0  0.70495  0.35594  0.18034  1.0000
  H   H4217     1.0  0.69237  0.24485  0.06992  1.0000
  H   H4218     1.0  0.83097  0.47142  0.99937  1.0000
  C   C2376     1.0  0.81045  0.43115  0.98723  1.0000
  H   H4219     1.0  0.81606  0.35577  0.11553  1.0000
  H   H4220     1.0  0.76829  0.34051  0.19830  1.0000
  C   C2377     1.0  0.85331  0.38790  0.22976  1.0000
  H   H4221     1.0  0.79701  0.45981  0.01240  1.0000
  H   H4222     1.0  0.68769  0.40638  0.12577  1.0000
  H   H4223     1.0  0.87620  0.37380  0.21182  1.0000
  H   H4224     1.0  0.83927  0.38028  0.19257  1.0000
  H   H4225     1.0  0.67669  0.37553  0.12354  1.0000
  C   C2378     1.0  0.79038  0.39674  0.22416  1.0000
  H   H4226     1.0  0.78781  0.40928  0.21339  1.0000
  H   H4227     1.0  0.83245  0.44745  0.19529  1.0000
  C   C2379     1.0  0.97594  0.42187  0.21572  1.0000
  C   C2380     1.0  0.65884  0.23423  0.07736  1.0000
  C   C2381     1.0  0.84440  0.36888  0.18498  1.0000
  C   C2382     1.0  0.75803  0.43894  0.12096  1.0000
  C   C2383     1.0  0.76275  0.42034  0.12003  1.0000
  C   C2384     1.0  0.75492  0.40746  0.13432  1.0000
  C   C2385     1.0  0.74288  0.41303  0.14987  1.0000
  C   C2386     1.0  0.73805  0.43164  0.15079  1.0000
  C   C2387     1.0  0.74543  0.44463  0.13620  1.0000
  H   H4228     1.0  0.77226  0.41594  0.10817  1.0000
  H   H4229     1.0  0.75843  0.39310  0.13347  1.0000
  H   H4230     1.0  0.72864  0.43604  0.16271  1.0000
  H   H4231     1.0  0.74172  0.45904  0.13691  1.0000
  C   C2388     1.0  0.86270  0.41885  0.13012  1.0000
  C   C2389     1.0  0.86620  0.43558  0.11911  1.0000
  C   C2390     1.0  0.87663  0.44532  0.12413  1.0000
  C   C2391     1.0  0.88300  0.43889  0.14058  1.0000
  C   C2392     1.0  0.87998  0.42189  0.15145  1.0000
  C   C2393     1.0  0.86997  0.41179  0.14611  1.0000
  H   H4232     1.0  0.86091  0.44106  0.10665  1.0000
  H   H4233     1.0  0.87931  0.45822  0.11540  1.0000
  H   H4234     1.0  0.88515  0.41667  0.16400  1.0000
  H   H4235     1.0  0.86753  0.39873  0.15456  1.0000
  C   C2394     1.0  0.66445  0.40812  0.16497  1.0000
  H   H4236     1.0  0.67449  0.33472  0.13774  1.0000
  C   C2395     1.0  0.83666  0.43057  0.99966  1.0000
  C   C2396     1.0  0.82713  0.42507  0.01762  1.0000
  C   C2397     1.0  0.80923  0.42250  0.02034  1.0000
  C   C2398     1.0  0.80087  0.42566  0.00520  1.0000
  Fe  Fe266     1.0  0.69261  0.43483  0.21452  1.0000
  H   H4237     1.0  0.85065  0.43219  0.99741  1.0000
  H   H4238     1.0  0.80208  0.41747  0.03405  1.0000
  H   H4239     1.0  0.78710  0.42348  0.00740  1.0000
  C   C2399     1.0  0.81161  0.37097  0.11301  1.0000
  H   H4240     1.0  0.86211  0.39326  0.19987  1.0000
  H   H4241     1.0  0.65990  0.19745  0.08740  1.0000
  H   H4242     1.0  0.81699  0.35757  0.14774  1.0000
  H   H4243     1.0  0.69649  0.21995  0.07482  1.0000
  N   N133      1.0  0.68513  0.37727  0.15745  1.0000
  C   C2400     1.0  0.66689  0.39054  0.15740  1.0000
  H   H4244     1.0  0.66405  0.39539  0.14335  1.0000
  H   H4245     1.0  0.80303  0.44063  0.14595  1.0000
  C   C2401     1.0  0.70909  0.47730  0.21114  1.0000
  C   C2402     1.0  0.78547  0.36649  0.17151  1.0000
  H   H4246     1.0  0.81321  0.35738  0.18518  1.0000
  N   N134      1.0  0.80053  0.37737  0.16404  1.0000
  H   H4247     1.0  0.69954  0.23189  0.09086  1.0000
  H   H4248     1.0  0.78793  0.37008  0.13455  1.0000
  H   H4249     1.0  0.66668  0.24549  0.09706  1.0000
  C   C2403     1.0  0.81078  0.37255  0.14575  1.0000
  H   H4250     1.0  0.69975  0.35647  0.20949  1.0000
  H   H4251     1.0  0.67547  0.41583  0.15777  1.0000
  C   C2404     1.0  0.83393  0.37207  0.16968  1.0000
  C   C2405     1.0  0.82833  0.43372  0.98456  1.0000
  H   H4252     1.0  0.65698  0.18496  0.12073  1.0000
  H   H4253     1.0  0.69281  0.33778  0.20455  1.0000
  H   H4254     1.0  0.77583  0.46948  0.00592  1.0000
  H   H4255     1.0  0.78021  0.40076  0.15476  1.0000
  H   H4256     1.0  0.81094  0.47520  0.19410  1.0000
  H   H4257     1.0  0.66884  0.34915  0.11667  1.0000
  C   C2406     1.0  0.76090  0.35501  0.19791  1.0000
  S   S534      1.0  0.92251  0.42064  0.18616  1.0000
  H   H4258     1.0  0.76620  0.38217  0.19151  1.0000
  H   H4259     1.0  0.71549  0.41690  0.12645  1.0000
  C   C2407     1.0  0.83417  0.45993  0.16606  1.0000
  N   N135      1.0  0.82475  0.47995  0.16539  1.0000
  H   H4260     1.0  0.84031  0.36093  0.16179  1.0000
  H   H4261     1.0  0.85182  0.47353  0.13373  1.0000
  H   H4262     1.0  0.71417  0.37628  0.14694  1.0000
  C   C2408     1.0  0.80415  0.41129  0.15266  1.0000
  C   C2409     1.0  0.82777  0.44573  0.18341  1.0000
  C   C2410     1.0  0.83597  0.42608  0.18067  1.0000
  H   H4263     1.0  0.66536  0.22331  0.06920  1.0000
  H   H4264     1.0  0.81944  0.46405  0.02265  1.0000
  H   H4265     1.0  0.76401  0.45552  0.05751  1.0000
  C   C2411     1.0  0.67767  0.34673  0.12679  1.0000
  C   C2412     1.0  0.79963  0.37715  0.13045  1.0000
  H   H4266     1.0  0.83312  0.45536  0.15375  1.0000
  H   H4267     1.0  0.84920  0.45811  0.16517  1.0000
  H   H4268     1.0  0.80829  0.38042  0.18821  1.0000
  C   C2413     1.0  0.79157  0.39747  0.16223  1.0000
  H   H4269     1.0  0.83731  0.44374  0.22723  1.0000
  C   C2414     1.0  0.83829  0.48126  0.01961  1.0000
  C   C2415     1.0  0.79342  0.43106  0.15183  1.0000
  H   H4270     1.0  0.79539  0.46093  0.16799  1.0000
  H   H4271     1.0  0.76379  0.47708  0.16562  1.0000
  C   C2416     1.0  0.67391  0.36385  0.13496  1.0000
  H   H4272     1.0  0.84296  0.35562  0.19465  1.0000
  H   H4273     1.0  0.93320  0.47877  0.13264  1.0000
  H   H4274     1.0  0.81273  0.44729  0.18715  1.0000
  H   H4275     1.0  0.81489  0.40949  0.16044  1.0000
  H   H4276     1.0  0.82910  0.41630  0.19184  1.0000
  H   H4277     1.0  0.83421  0.42427  0.16739  1.0000
  H   H4278     1.0  0.83612  0.38521  0.16038  1.0000
  H   H4279     1.0  0.71664  0.46426  0.20781  1.0000
  C   C2417     1.0  0.86823  0.38800  0.21225  1.0000
  H   H4280     1.0  0.78498  0.40078  0.17599  1.0000
  C   C2418     1.0  0.77437  0.36802  0.19124  1.0000
  C   C2419     1.0  0.70343  0.34628  0.20049  1.0000
  H   H4281     1.0  0.79124  0.35164  0.17131  1.0000
  C   C2420     1.0  0.69107  0.23241  0.08093  1.0000
  H   H4282     1.0  0.78609  0.43339  0.16576  1.0000
  S   S535      1.0  0.92271  0.44367  0.21717  1.0000
  H   H4283     1.0  0.78541  0.44444  0.04535  1.0000
  C   C2421     1.0  0.98701  0.41595  0.22896  1.0000
  C   C2422     1.0  0.80841  0.48463  0.15645  1.0000
  H   H4284     1.0  0.71676  0.33718  0.20263  1.0000
  H   H4285     1.0  0.81957  0.39296  0.21730  1.0000
  H   H4286     1.0  0.83236  0.48154  0.19002  1.0000
  H   H4287     1.0  0.78707  0.47878  0.18132  1.0000
  H   H4288     1.0  0.87785  0.39674  0.21182  1.0000
  C   C2423     1.0  0.77563  0.48334  0.15751  1.0000
  H   H4289     1.0  0.76260  0.48270  0.03313  1.0000
  S   S536      1.0  0.67773  0.46442  0.21483  1.0000
  H   H4290     1.0  0.80948  0.42318  0.22410  1.0000
  H   H4291     1.0  0.79050  0.38456  0.21884  1.0000
  H   H4292     1.0  0.67080  0.22061  0.10191  1.0000
  H   H4293     1.0  0.81273  0.44886  0.22940  1.0000
  H   H4294     1.0  0.69223  0.34355  0.11964  1.0000
  C   C2424     1.0  0.98182  0.43300  0.19884  1.0000
  Fe  Fe267     1.0  0.68534  0.39561  0.22369  1.0000
  H   H4295     1.0  0.65982  0.24732  0.06720  1.0000
  C   C2425     1.0  0.80158  0.48612  0.98238  1.0000
  H   H4296     1.0  0.83213  0.48579  0.03287  1.0000
  H   H4297     1.0  0.66203  0.33975  0.23121  1.0000
  C   C2426     1.0  0.84313  0.40772  0.23198  1.0000
  H   H4298     1.0  0.70387  0.12010  0.43974  1.0000
  H   H4299     1.0  0.85317  0.41339  0.23597  1.0000
  H   H4300     1.0  0.67824  0.12092  0.36038  1.0000
  H   H4301     1.0  0.92267  0.46174  0.27075  1.0000
  Fe  Fe268     1.0  0.82027  0.04257  0.45172  1.0000
  S   S537      1.0  0.79006  0.05472  0.45645  1.0000
  S   S538      1.0  0.83253  0.01200  0.45413  1.0000
  Fe  Fe269     1.0  0.83064  0.07993  0.44716  1.0000
  S   S539      1.0  0.80130  0.09459  0.45209  1.0000
  S   S540      1.0  0.85316  0.09629  0.43800  1.0000
  H   H4302     1.0  0.69433  0.48440  0.25425  1.0000
  C   C2427     1.0  0.71228  0.45904  0.26102  1.0000
  Fe  Fe270     1.0  0.79774  0.07803  0.43359  1.0000
  S   S541      1.0  0.78184  0.09500  0.41218  1.0000
  S   S542      1.0  0.82637  0.05667  0.47124  1.0000
  S   S543      1.0  0.82746  0.06466  0.42712  1.0000
  H   H4303     1.0  0.85880  0.39933  0.39005  1.0000
  H   H4304     1.0  0.65901  0.19672  0.32603  1.0000
  S   S544      1.0  0.87961  0.18311  0.47177  1.0000
  H   H4305     1.0  0.70053  0.24220  0.36760  1.0000
  H   H4306     1.0  0.66346  0.16333  0.34039  1.0000
  C   C2428     1.0  0.70038  0.44625  0.26019  1.0000
  Fe  Fe271     1.0  0.90290  0.18542  0.44760  1.0000
  S   S545      1.0  0.89903  0.20017  0.41933  1.0000
  H   H4307     1.0  0.77715  0.44228  0.40252  1.0000
  Fe  Fe272     1.0  0.81842  0.28370  0.43050  1.0000
  S   S546      1.0  0.82294  0.30844  0.43789  1.0000
  S   S547      1.0  0.83531  0.26983  0.40752  1.0000
  Fe  Fe273     1.0  0.78142  0.28392  0.45640  1.0000
  S   S548      1.0  0.78281  0.30826  0.46683  1.0000
  S   S549      1.0  0.75715  0.27000  0.46631  1.0000
  Fe  Fe274     1.0  0.79321  0.32026  0.43709  1.0000
  S   S550      1.0  0.77990  0.34957  0.42585  1.0000
  H   H4308     1.0  0.79478  0.45009  0.38388  1.0000
  S   S551      1.0  0.78981  0.29678  0.42698  1.0000
  S   S552      1.0  0.80987  0.26899  0.45932  1.0000
  Fe  Fe275     1.0  0.79609  0.42044  0.33102  1.0000
  S   S553      1.0  0.80964  0.42665  0.30118  1.0000
  S   S554      1.0  0.80280  0.38981  0.34295  1.0000
  Fe  Fe276     1.0  0.78062  0.46113  0.33128  1.0000
  S   S555      1.0  0.79301  0.47023  0.30173  1.0000
  H   H4309     1.0  0.72833  0.34189  0.37832  1.0000
  Fe  Fe277     1.0  0.78364  0.44670  0.29712  1.0000
  S   S556      1.0  0.77292  0.45235  0.27106  1.0000
  Fe  Fe278     1.0  0.81790  0.44938  0.30817  1.0000
  S   S557      1.0  0.84581  0.45594  0.29642  1.0000
  S   S558      1.0  0.76911  0.43888  0.32637  1.0000
  S   S559      1.0  0.80638  0.44206  0.33828  1.0000
  H   H4310     1.0  0.67870  0.23846  0.38154  1.0000
  H   H4311     1.0  0.85823  0.42951  0.40759  1.0000
  H   H4312     1.0  0.79592  0.41591  0.24571  1.0000
  H   H4313     1.0  0.79687  0.38981  0.26980  1.0000
  H   H4314     1.0  0.69587  0.48562  0.30027  1.0000
  S   S560      1.0  0.73635  0.39458  0.25487  1.0000
  H   H4315     1.0  0.71279  0.45479  0.29926  1.0000
  H   H4316     1.0  0.76943  0.29920  0.39999  1.0000
  H   H4317     1.0  0.84633  0.39603  0.32950  1.0000
  Fe  Fe279     1.0  0.70785  0.17557  0.44484  1.0000
  S   S561      1.0  0.70809  0.19276  0.41636  1.0000
  S   S562      1.0  0.71553  0.14516  0.45510  1.0000
  Fe  Fe280     1.0  0.69122  0.20771  0.46386  1.0000
  S   S563      1.0  0.68881  0.22777  0.43719  1.0000
  H   H4318     1.0  0.94900  0.22293  0.39320  1.0000
  Fe  Fe281     1.0  0.67950  0.20622  0.42844  1.0000
  H   H4319     1.0  0.68349  0.15108  0.43520  1.0000
  Fe  Fe282     1.0  0.71728  0.21301  0.42708  1.0000
  S   S564      1.0  0.73895  0.22972  0.41235  1.0000
  S   S565      1.0  0.67875  0.18780  0.45639  1.0000
  S   S566      1.0  0.72019  0.19410  0.45408  1.0000
  H   H4320     1.0  0.68022  0.20173  0.34630  1.0000
  H   H4321     1.0  0.87138  0.03273  0.45991  1.0000
  H   H4322     1.0  0.83392  0.45915  0.25296  1.0000
  C   C2429     1.0  0.91785  0.24014  0.38440  1.0000
  C   C2430     1.0  0.96203  0.21040  0.42579  1.0000
  H   H4323     1.0  0.70982  0.14690  0.41441  1.0000
  H   H4324     1.0  0.66535  0.14485  0.26357  1.0000
  H   H4325     1.0  0.74159  0.30727  0.36480  1.0000
  C   C2431     1.0  0.84569  0.42825  0.38560  1.0000
  H   H4326     1.0  0.66618  0.14185  0.43096  1.0000
  S   S567      1.0  0.96196  0.15030  0.46915  1.0000
  C   C2432     1.0  0.89833  0.07625  0.48162  1.0000
  H   H4327     1.0  0.74805  0.33887  0.41176  1.0000
  H   H4328     1.0  0.69080  0.13779  0.37577  1.0000
  C   C2433     1.0  0.77982  0.31393  0.37277  1.0000
  H   H4329     1.0  0.69100  0.45323  0.25057  1.0000
  C   C2434     1.0  0.80647  0.39387  0.27590  1.0000
  H   H4330     1.0  0.79537  0.37976  0.30318  1.0000
  S   S568      1.0  0.89144  0.40795  0.23760  1.0000
  C   C2435     1.0  0.87494  0.04271  0.44698  1.0000
  C   C2436     1.0  0.73680  0.30720  0.39446  1.0000
  C   C2437     1.0  0.74230  0.29738  0.37801  1.0000
  N   N136      1.0  0.90377  0.06709  0.46516  1.0000
  H   H4331     1.0  0.83551  0.39499  0.26973  1.0000
  C   C2438     1.0  0.84459  0.40763  0.39250  1.0000
  H   H4332     1.0  0.87574  0.07063  0.46274  1.0000
  H   H4333     1.0  0.93268  0.11675  0.43083  1.0000
  H   H4334     1.0  0.68601  0.20700  0.31327  1.0000
  H   H4335     1.0  0.96244  0.44150  0.28573  1.0000
  H   H4336     1.0  0.70733  0.22260  0.28861  1.0000
  H   H4337     1.0  0.84322  0.34189  0.42393  1.0000
  H   H4338     1.0  0.89122  0.09076  0.47776  1.0000
  C   C2439     1.0  0.76305  0.43601  0.26677  1.0000
  C   C2440     1.0  0.75754  0.43931  0.24998  1.0000
  C   C2441     1.0  0.74911  0.42681  0.24630  1.0000
  C   C2442     1.0  0.74641  0.41079  0.25929  1.0000
  C   C2443     1.0  0.75239  0.40727  0.27587  1.0000
  C   C2444     1.0  0.76052  0.41995  0.27970  1.0000
  C   C2445     1.0  0.66976  0.13451  0.45876  1.0000
  C   C2446     1.0  0.70514  0.14228  0.40405  1.0000
  H   H4339     1.0  0.75048  0.39482  0.28589  1.0000
  H   H4340     1.0  0.76475  0.41731  0.29268  1.0000
  C   C2447     1.0  0.74375  0.24137  0.42708  1.0000
  C   C2448     1.0  0.75746  0.25179  0.42071  1.0000
  C   C2449     1.0  0.76181  0.26053  0.43262  1.0000
  C   C2450     1.0  0.75223  0.25917  0.45089  1.0000
  C   C2451     1.0  0.73845  0.24885  0.45714  1.0000
  C   C2452     1.0  0.73423  0.24000  0.44532  1.0000
  H   H4341     1.0  0.76485  0.25294  0.40659  1.0000
  H   H4342     1.0  0.77263  0.26819  0.42766  1.0000
  S   S569      1.0  0.68825  0.41406  0.24094  1.0000
  H   H4343     1.0  0.72350  0.23218  0.45038  1.0000
  C   C2453     1.0  0.78588  0.36034  0.40262  1.0000
  C   C2454     1.0  0.77749  0.37874  0.39680  1.0000
  C   C2455     1.0  0.78236  0.38795  0.37850  1.0000
  C   C2456     1.0  0.79560  0.37875  0.36588  1.0000
  C   C2457     1.0  0.80370  0.36024  0.37162  1.0000
  C   C2458     1.0  0.79894  0.35107  0.38994  1.0000
  H   H4344     1.0  0.76734  0.38596  0.40656  1.0000
  H   H4345     1.0  0.77594  0.40217  0.37419  1.0000
  H   H4346     1.0  0.81392  0.35303  0.36190  1.0000
  H   H4347     1.0  0.80549  0.33692  0.39429  1.0000
  C   C2459     1.0  0.88042  0.21887  0.41732  1.0000
  C   C2460     1.0  0.87580  0.22584  0.40008  1.0000
  C   C2461     1.0  0.86179  0.24130  0.39747  1.0000
  C   C2462     1.0  0.85215  0.24994  0.41208  1.0000
  C   C2463     1.0  0.85633  0.24276  0.42957  1.0000
  C   C2464     1.0  0.87052  0.22717  0.43220  1.0000
  H   H4348     1.0  0.88327  0.21940  0.38860  1.0000
  H   H4349     1.0  0.85857  0.24674  0.38397  1.0000
  H   H4350     1.0  0.84895  0.24944  0.44091  1.0000
  H   H4351     1.0  0.87406  0.22187  0.44555  1.0000
  C   C2465     1.0  0.73442  0.13206  0.44279  1.0000
  C   C2466     1.0  0.74437  0.13968  0.42586  1.0000
  C   C2467     1.0  0.75889  0.12828  0.41615  1.0000
  C   C2468     1.0  0.76367  0.10949  0.42370  1.0000
  C   C2469     1.0  0.75390  0.10209  0.44074  1.0000
  C   C2470     1.0  0.73906  0.11326  0.45003  1.0000
  H   H4352     1.0  0.74077  0.15421  0.42020  1.0000
  H   H4353     1.0  0.76661  0.13401  0.40300  1.0000
  H   H4354     1.0  0.75752  0.08759  0.44657  1.0000
  H   H4355     1.0  0.73108  0.10724  0.46280  1.0000
  C   C2471     1.0  0.85692  0.10854  0.45273  1.0000
  C   C2472     1.0  0.85072  0.10412  0.47174  1.0000
  C   C2473     1.0  0.88815  0.05944  0.46354  1.0000
  C   C2474     1.0  0.86832  0.12440  0.47604  1.0000
  C   C2475     1.0  0.87380  0.12949  0.45701  1.0000
  C   C2476     1.0  0.86806  0.12160  0.44538  1.0000
  H   H4356     1.0  0.76442  0.12891  0.46705  1.0000
  C   C2477     1.0  0.73934  0.31451  0.42931  1.0000
  H   H4357     1.0  0.88304  0.13894  0.45124  1.0000
  H   H4358     1.0  0.87291  0.12504  0.43067  1.0000
  C   C2478     1.0  0.78522  0.14418  0.46290  1.0000
  H   H4359     1.0  0.88143  0.26824  0.47878  1.0000
  C   C2479     1.0  0.80158  0.00328  0.44943  1.0000
  C   C2480     1.0  0.81967  0.99693  0.45176  1.0000
  H   H4360     1.0  0.66681  0.24667  0.31772  1.0000
  C   C2481     1.0  0.85095  0.40702  0.35110  1.0000
  C   C2482     1.0  0.92099  0.09377  0.44817  1.0000
  H   H4361     1.0  0.79545  0.01772  0.44834  1.0000
  H   H4362     1.0  0.95704  0.23657  0.45129  1.0000
  C   C2483     1.0  0.72053  0.46519  0.29917  1.0000
  C   C2484     1.0  0.82544  0.38471  0.39871  1.0000
  H   H4363     1.0  0.73137  0.47223  0.31954  1.0000
  H   H4364     1.0  0.70887  0.46649  0.32801  1.0000
  H   H4365     1.0  0.68003  0.25906  0.36390  1.0000
  C   C2485     1.0  0.71003  0.48464  0.29196  1.0000
  H   H4366     1.0  0.90515  0.25051  0.38233  1.0000
  C   C2486     1.0  0.98612  0.19256  0.46632  1.0000
  C   C2487     1.0  0.65744  0.15904  0.26417  1.0000
  C   C2488     1.0  0.71768  0.10875  0.40947  1.0000
  C   C2489     1.0  0.87913  0.42086  0.25442  1.0000
  C   C2490     1.0  0.88034  0.43921  0.25190  1.0000
  C   C2491     1.0  0.87066  0.44958  0.26519  1.0000
  C   C2492     1.0  0.85891  0.44203  0.28073  1.0000
  C   C2493     1.0  0.85752  0.42366  0.28331  1.0000
  C   C2494     1.0  0.86782  0.41301  0.27028  1.0000
  H   H4367     1.0  0.97439  0.47726  0.28060  1.0000
  H   H4368     1.0  0.87214  0.46357  0.26315  1.0000
  H   H4369     1.0  0.84882  0.41756  0.29549  1.0000
  H   H4370     1.0  0.86696  0.39876  0.27241  1.0000
  H   H4371     1.0  0.88873  0.44556  0.23970  1.0000
  H   H4372     1.0  0.66645  0.17578  0.41125  1.0000
  C   C2495     1.0  0.74338  0.33748  0.37776  1.0000
  H   H4373     1.0  0.75618  0.38012  0.35841  1.0000
  Fe  Fe283     1.0  0.89411  0.15373  0.47825  1.0000
  H   H4374     1.0  0.89416  0.05998  0.43372  1.0000
  H   H4375     1.0  0.81479  0.36588  0.29077  1.0000
  Fe  Fe284     1.0  0.71866  0.40391  0.23345  1.0000
  C   C2496     1.0  0.95662  0.47121  0.25828  1.0000
  H   H4376     1.0  0.72729  0.30806  0.43204  1.0000
  N   N137      1.0  0.82494  0.41001  0.24548  1.0000
  H   H4377     1.0  0.73732  0.47517  0.26154  1.0000
  H   H4378     1.0  0.68074  0.13132  0.46673  1.0000
  C   C2497     1.0  0.98588  0.41955  0.28794  1.0000
  H   H4379     1.0  0.92728  0.25552  0.39849  1.0000
  H   H4380     1.0  0.66700  0.16870  0.25859  1.0000
  H   H4381     1.0  0.86299  0.05421  0.44537  1.0000
  H   H4382     1.0  0.93953  0.01584  0.46728  1.0000
  C   C2498     1.0  0.73774  0.32302  0.44575  1.0000
  S   S570      1.0  0.66668  0.37469  0.23415  1.0000
  H   H4383     1.0  0.93218  0.05856  0.46757  1.0000
  N   N138      1.0  0.74721  0.32174  0.39354  1.0000
  H   H4384     1.0  0.82060  0.35007  0.41891  1.0000
  C   C2499     1.0  0.76745  0.31369  0.39225  1.0000
  H   H4385     1.0  0.97754  0.17311  0.42823  1.0000
  C   C2500     1.0  0.92104  0.05257  0.46614  1.0000
  H   H4386     1.0  0.75636  0.28888  0.37751  1.0000
  C   C2501     1.0  0.96252  0.24234  0.40758  1.0000
  C   C2502     1.0  0.80924  0.41182  0.23636  1.0000
  H   H4387     1.0  0.81040  0.38197  0.24030  1.0000
  H   H4388     1.0  0.82816  0.36112  0.43301  1.0000
  H   H4389     1.0  0.86003  0.38115  0.24166  1.0000
  H   H4390     1.0  0.78146  0.32815  0.36591  1.0000
  H   H4391     1.0  0.72892  0.44869  0.32416  1.0000
  C   C2503     1.0  0.75169  0.36755  0.35813  1.0000
  H   H4392     1.0  0.80852  0.40976  0.37209  1.0000
  H   H4393     1.0  0.77102  0.22914  0.47688  1.0000
  C   C2504     1.0  0.68604  0.12069  0.40334  1.0000
  N   N139      1.0  0.70048  0.12345  0.41188  1.0000
  H   H4394     1.0  0.71933  0.13789  0.37582  1.0000
  C   C2505     1.0  0.82254  0.46168  0.24561  1.0000
  H   H4395     1.0  0.90975  0.11747  0.42881  1.0000
  H   H4396     1.0  0.96803  0.25546  0.42720  1.0000
  H   H4397     1.0  0.95342  0.45929  0.23620  1.0000
  H   H4398     1.0  0.92276  0.45176  0.25201  1.0000
  C   C2506     1.0  0.73419  0.07535  0.41487  1.0000
  H   H4399     1.0  0.86090  0.44763  0.38756  1.0000
  H   H4400     1.0  0.72558  0.33728  0.41135  1.0000
  H   H4401     1.0  0.95009  0.47083  0.27303  1.0000
  H   H4402     1.0  0.91502  0.22626  0.38614  1.0000
  C   C2507     1.0  0.78765  0.43846  0.39045  1.0000
  H   H4403     1.0  0.93373  0.21341  0.41267  1.0000
  H   H4404     1.0  0.71526  0.29182  0.38042  1.0000
  H   H4405     1.0  0.75950  0.45172  0.23991  1.0000
  H   H4406     1.0  0.83262  0.42610  0.26066  1.0000
  H   H4407     1.0  0.80879  0.43067  0.26120  1.0000
  C   C2508     1.0  0.68629  0.22130  0.31356  1.0000
  H   H4408     1.0  0.68428  0.23113  0.28476  1.0000
  H   H4409     1.0  0.67300  0.13045  0.40679  1.0000
  C   C2509     1.0  0.67772  0.13855  0.43814  1.0000
  H   H4410     1.0  0.91626  0.23918  0.46979  1.0000
  H   H4411     1.0  0.85224  0.37101  0.40620  1.0000
  H   H4412     1.0  0.84518  0.47834  0.33037  1.0000
  C   C2510     1.0  0.92967  0.24339  0.46677  1.0000
  C   C2511     1.0  0.97283  0.18214  0.46843  1.0000
  Fe  Fe285     1.0  0.79656  0.07007  0.47437  1.0000
  H   H4413     1.0  0.78056  0.43625  0.38052  1.0000
  H   H4414     1.0  0.73022  0.27362  0.39302  1.0000
  H   H4415     1.0  0.72353  0.10858  0.39473  1.0000
  C   C2512     1.0  0.80123  0.42097  0.39664  1.0000
  H   H4416     1.0  0.85447  0.38194  0.37055  1.0000
  H   H4417     1.0  0.92779  0.25843  0.46129  1.0000
  H   H4418     1.0  0.67377  0.10425  0.38132  1.0000
  H   H4419     1.0  0.96866  0.19739  0.40170  1.0000
  N   N140      1.0  0.97721  0.46784  0.25559  1.0000
  C   C2513     1.0  0.93723  0.23642  0.43465  1.0000
  H   H4420     1.0  0.81515  0.38021  0.39393  1.0000
  C   C2514     1.0  0.98195  0.47957  0.26608  1.0000
  H   H4421     1.0  0.78720  0.15671  0.46623  1.0000
  H   H4422     1.0  0.92254  0.47591  0.24797  1.0000
  H   H4423     1.0  0.74473  0.42956  0.23342  1.0000
  H   H4424     1.0  0.72142  0.45138  0.27058  1.0000
  H   H4425     1.0  0.87438  0.42481  0.38675  1.0000
  N   N141      1.0  0.80599  0.20629  0.43239  1.0000
  C   C2515     1.0  0.79895  0.19243  0.42655  1.0000
  C   C2516     1.0  0.82438  0.19772  0.43783  1.0000
  C   C2517     1.0  0.79244  0.21172  0.44914  1.0000
  C   C2518     1.0  0.80724  0.22345  0.41774  1.0000
  C   C2519     1.0  0.81971  0.22081  0.39895  1.0000
  C   C2520     1.0  0.78001  0.19911  0.42090  1.0000
  C   C2521     1.0  0.79747  0.22535  0.45802  1.0000
  C   C2522     1.0  0.83721  0.18247  0.42783  1.0000
  C   C2523     1.0  0.85575  0.17644  0.43360  1.0000
  C   C2524     1.0  0.81727  0.23857  0.38451  1.0000
  C   C2525     1.0  0.77496  0.18411  0.41445  1.0000
  H   H4426     1.0  0.79564  0.13218  0.46780  1.0000
  H   H4427     1.0  0.79803  0.18012  0.43787  1.0000
  H   H4428     1.0  0.80865  0.18717  0.41475  1.0000
  H   H4429     1.0  0.83232  0.20853  0.43616  1.0000
  H   H4430     1.0  0.82243  0.19111  0.45269  1.0000
  H   H4431     1.0  0.79020  0.19917  0.45984  1.0000
  H   H4432     1.0  0.77879  0.21862  0.44583  1.0000
  H   H4433     1.0  0.79337  0.23094  0.41552  1.0000
  H   H4434     1.0  0.81265  0.23330  0.42235  1.0000
  H   H4435     1.0  0.81660  0.21005  0.39366  1.0000
  H   H4436     1.0  0.83429  0.21712  0.40020  1.0000
  H   H4437     1.0  0.76891  0.20267  0.43262  1.0000
  H   H4438     1.0  0.78008  0.21126  0.40945  1.0000
  H   H4439     1.0  0.92629  0.04758  0.45299  1.0000
  H   H4440     1.0  0.68999  0.21942  0.35772  1.0000
  H   H4441     1.0  0.83108  0.17006  0.43145  1.0000
  H   H4442     1.0  0.83970  0.18714  0.41271  1.0000
  H   H4443     1.0  0.86264  0.18825  0.43034  1.0000
  H   H4444     1.0  0.85405  0.17052  0.44856  1.0000
  H   H4445     1.0  0.86473  0.16576  0.42605  1.0000
  H   H4446     1.0  0.82017  0.24999  0.38903  1.0000
  H   H4447     1.0  0.82695  0.23660  0.37138  1.0000
  H   H4448     1.0  0.80307  0.24243  0.38204  1.0000
  H   H4449     1.0  0.77385  0.17185  0.42569  1.0000
  H   H4450     1.0  0.76145  0.18938  0.41034  1.0000
  H   H4451     1.0  0.78532  0.18005  0.40240  1.0000
  H   H4452     1.0  0.80773  0.30300  0.35988  1.0000
  H   H4453     1.0  0.95391  0.25582  0.40269  1.0000
  C   C2526     1.0  0.82241  0.42762  0.25212  1.0000
  H   H4454     1.0  0.83896  0.18058  0.47968  1.0000
  C   C2527     1.0  0.94892  0.45796  0.25132  1.0000
  H   H4455     1.0  0.73424  0.13711  0.39043  1.0000
  C   C2528     1.0  0.97585  0.24662  0.41722  1.0000
  H   H4456     1.0  0.69138  0.23997  0.33997  1.0000
  C   C2529     1.0  0.70033  0.47714  0.26655  1.0000
  C   C2530     1.0  0.78581  0.22579  0.47731  1.0000
  C   C2531     1.0  0.68578  0.24411  0.36748  1.0000
  H   H4457     1.0  0.98033  0.41404  0.30257  1.0000
  H   H4458     1.0  0.73450  0.46209  0.29077  1.0000
  H   H4459     1.0  0.91372  0.07521  0.43576  1.0000
  H   H4460     1.0  0.79836  0.28771  0.38008  1.0000
  H   H4461     1.0  0.77750  0.99612  0.44623  1.0000
  H   H4462     1.0  0.72520  0.17049  0.38831  1.0000
  H   H4463     1.0  0.97001  0.21142  0.43546  1.0000
  H   H4464     1.0  0.69264  0.15261  0.40110  1.0000
  H   H4465     1.0  0.75175  0.30345  0.42862  1.0000
  C   C2532     1.0  0.72080  0.14412  0.38670  1.0000
  H   H4466     1.0  0.75605  0.15311  0.46626  1.0000
  C   C2533     1.0  0.75050  0.35490  0.37708  1.0000
  H   H4467     1.0  0.68254  0.10696  0.40940  1.0000
  H   H4468     1.0  0.76423  0.35127  0.38057  1.0000
  C   C2534     1.0  0.81575  0.41483  0.38006  1.0000
  H   H4469     1.0  0.68383  0.17198  0.33774  1.0000
  H   H4470     1.0  0.90343  0.03831  0.44732  1.0000
  C   C2535     1.0  0.69022  0.12323  0.38219  1.0000
  H   H4471     1.0  0.73812  0.37174  0.35414  1.0000
  H   H4472     1.0  0.73848  0.07558  0.39988  1.0000
  H   H4473     1.0  0.87790  0.03566  0.43527  1.0000
  C   C2536     1.0  0.66934  0.17269  0.34508  1.0000
  H   H4474     1.0  0.73276  0.06116  0.42212  1.0000
  H   H4475     1.0  0.70848  0.17214  0.37479  1.0000
  H   H4476     1.0  0.77418  0.30868  0.36372  1.0000
  C   C2537     1.0  0.84263  0.39317  0.36757  1.0000
  N   N142      1.0  0.83228  0.40048  0.38465  1.0000
  H   H4477     1.0  0.72841  0.11199  0.41479  1.0000
  H   H4478     1.0  0.73264  0.16511  0.36579  1.0000
  H   H4479     1.0  0.92884  0.10159  0.41831  1.0000
  C   C2538     1.0  0.92316  0.10823  0.43041  1.0000
  H   H4480     1.0  0.74980  0.32918  0.44397  1.0000
  H   H4481     1.0  0.86821  0.38585  0.33622  1.0000
  H   H4482     1.0  0.97060  0.23770  0.39475  1.0000
  H   H4483     1.0  0.73736  0.31219  0.45846  1.0000
  H   H4484     1.0  0.92477  0.23035  0.43840  1.0000
  H   H4485     1.0  0.80778  0.42352  0.40680  1.0000
  H   H4486     1.0  0.74105  0.36285  0.38723  1.0000
  H   H4487     1.0  0.86284  0.41044  0.35420  1.0000
  C   C2539     1.0  0.92796  0.46219  0.25582  1.0000
  H   H4488     1.0  0.79321  0.41009  0.40364  1.0000
  H   H4489     1.0  0.73405  0.27703  0.36840  1.0000
  H   H4490     1.0  0.69620  0.22055  0.32201  1.0000
  N   N143      1.0  0.95067  0.22885  0.41883  1.0000
  H   H4491     1.0  0.95342  0.44341  0.25786  1.0000
  Fe  Fe286     1.0  0.93202  0.16351  0.46934  1.0000
  S   S571      1.0  0.91617  0.15541  0.45280  1.0000
  H   H4492     1.0  0.72097  0.46224  0.24712  1.0000
  H   H4493     1.0  0.93479  0.08534  0.44938  1.0000
  S   S572      1.0  0.92054  0.19370  0.46184  1.0000
  H   H4494     1.0  0.84090  0.41983  0.34770  1.0000
  H   H4495     1.0  0.79479  0.23946  0.44959  1.0000
  H   H4496     1.0  0.70925  0.43390  0.25524  1.0000
  C   C2540     1.0  0.94370  0.23283  0.45306  1.0000
  H   H4497     1.0  0.84483  0.35955  0.39240  1.0000
  C   C2541     1.0  0.93982  0.22584  0.40634  1.0000
  C   C2542     1.0  0.84020  0.36735  0.40370  1.0000
  H   H4498     1.0  0.98582  0.20919  0.40260  1.0000
  C   C2543     1.0  0.82396  0.44530  0.23707  1.0000
  C   C2544     1.0  0.72963  0.28421  0.38015  1.0000
  C   C2545     1.0  0.71595  0.08875  0.41914  1.0000
  C   C2546     1.0  0.69272  0.12199  0.43226  1.0000
  H   H4499     1.0  0.94522  0.21806  0.45950  1.0000
  Fe  Fe287     1.0  0.81226  0.29467  0.46682  1.0000
  H   H4500     1.0  0.72181  0.31320  0.39643  1.0000
  C   C2547     1.0  0.83252  0.35437  0.42095  1.0000
  H   H4501     1.0  0.93229  0.25151  0.43038  1.0000
  H   H4502     1.0  0.80926  0.46427  0.25542  1.0000
  H   H4503     1.0  0.84847  0.43228  0.37044  1.0000
  H   H4504     1.0  0.73101  0.24751  0.47119  1.0000
  C   C2548     1.0  0.92372  0.24185  0.40135  1.0000
  H   H4505     1.0  0.80556  0.30756  0.38229  1.0000
  H   H4506     1.0  0.92874  0.24253  0.37196  1.0000
  H   H4507     1.0  0.79972  0.40730  0.27965  1.0000
  H   H4508     1.0  0.73863  0.29585  0.40656  1.0000
  C   C2549     1.0  0.80889  0.37990  0.29365  1.0000
  H   H4509     1.0  0.95285  0.20082  0.43396  1.0000
  H   H4510     1.0  0.84221  0.09397  0.47750  1.0000
  H   H4511     1.0  0.76191  0.36057  0.34765  1.0000
  H   H4512     1.0  0.82950  0.38085  0.25837  1.0000
  C   C2550     1.0  0.72248  0.46313  0.31893  1.0000
  H   H4513     1.0  0.68862  0.47369  0.27781  1.0000
  H   H4514     1.0  0.93454  0.24029  0.47986  1.0000
  H   H4515     1.0  0.95847  0.18848  0.47045  1.0000
  H   H4516     1.0  0.83256  0.43713  0.39089  1.0000
  H   H4517     1.0  0.77362  0.32120  0.39897  1.0000
  H   H4518     1.0  0.74510  0.07895  0.41955  1.0000
  H   H4519     1.0  0.81206  0.22186  0.45910  1.0000
  H   H4520     1.0  0.88396  0.04921  0.47597  1.0000
  H   H4521     1.0  0.86448  0.40875  0.32245  1.0000
  H   H4522     1.0  0.70558  0.08431  0.41450  1.0000
  C   C2551     1.0  0.90770  0.08158  0.44803  1.0000
  C   C2552     1.0  0.97585  0.20060  0.41093  1.0000
  C   C2553     1.0  0.67502  0.11879  0.37561  1.0000
  C   C2554     1.0  0.89160  0.05009  0.44692  1.0000
  H   H4523     1.0  0.69221  0.44168  0.27403  1.0000
  C   C2555     1.0  0.97817  0.16345  0.46792  1.0000
  H   H4524     1.0  0.72505  0.33377  0.44742  1.0000
  H   H4525     1.0  0.71217  0.08740  0.43429  1.0000
  H   H4526     1.0  0.70328  0.11413  0.37718  1.0000
  H   H4527     1.0  0.78740  0.14597  0.44775  1.0000
  C   C2556     1.0  0.86075  0.43274  0.39233  1.0000
  H   H4528     1.0  0.91591  0.10129  0.45965  1.0000
  H   H4529     1.0  0.89468  0.09096  0.44519  1.0000
  C   C2557     1.0  0.79900  0.30233  0.37388  1.0000
  C   C2558     1.0  0.79137  0.99095  0.44835  1.0000
  H   H4530     1.0  0.81800  0.38365  0.30062  1.0000
  S   S573      1.0  0.76244  0.48124  0.34858  1.0000
  C   C2559     1.0  0.82511  0.39452  0.26217  1.0000
  H   H4531     1.0  0.84020  0.40573  0.40774  1.0000
  C   C2560     1.0  0.73982  0.32911  0.41111  1.0000
  H   H4532     1.0  0.91164  0.24153  0.41292  1.0000
  C   C2561     1.0  0.72174  0.16424  0.37843  1.0000
  H   H4533     1.0  0.70870  0.30008  0.46362  1.0000
  H   H4534     1.0  0.83357  0.38691  0.36277  1.0000
  C   C2562     1.0  0.85791  0.39882  0.33381  1.0000
  H   H4535     1.0  0.81987  0.42732  0.37082  1.0000
  H   H4536     1.0  0.81815  0.38922  0.41183  1.0000
  C   C2563     1.0  0.97752  0.44002  0.28297  1.0000
  H   H4537     1.0  0.74906  0.33315  0.36437  1.0000
  H   H4538     1.0  0.68662  0.10953  0.43796  1.0000
  C   C2564     1.0  0.69361  0.23057  0.29388  1.0000
  H   H4539     1.0  0.77901  0.39753  0.23633  1.0000
  H   H4540     1.0  0.82347  0.47415  0.23461  1.0000
  H   H4541     1.0  0.66878  0.16786  0.36007  1.0000
  H   H4542     1.0  0.98092  0.44705  0.29226  1.0000
  H   H4543     1.0  0.66273  0.12274  0.46243  1.0000
  C   C2565     1.0  0.68365  0.23408  0.35353  1.0000
  C   C2566     1.0  0.76588  0.14089  0.47175  1.0000
  C   C2567     1.0  0.66508  0.20566  0.34867  1.0000
  H   H4544     1.0  0.69496  0.24475  0.29342  1.0000
  C   C2568     1.0  0.98524  0.44802  0.26262  1.0000
  C   C2569     1.0  0.98505  0.47261  0.23531  1.0000
  H   H4545     1.0  0.98253  0.40708  0.24187  1.0000
  H   H4546     1.0  0.98254  0.41179  0.27924  1.0000
  H   H4547     1.0  0.98367  0.43917  0.25395  1.0000
  H   H4548     1.0  0.65964  0.14678  0.46266  1.0000
  H   H4549     1.0  0.70541  0.27700  0.47340  1.0000
  H   H4550     1.0  0.98191  0.20706  0.46657  1.0000
  H   H4551     1.0  0.74752  0.00492  0.47558  1.0000
  H   H4552     1.0  0.68635  0.29627  0.47616  1.0000
  C   C2570     1.0  0.70131  0.29139  0.47555  1.0000
  H   H4553     1.0  0.95124  0.48533  0.25105  1.0000
  C   C2571     1.0  0.66677  0.23169  0.32109  1.0000
  C   C2572     1.0  0.74886  0.98989  0.48095  1.0000
  H   H4554     1.0  0.66055  0.20251  0.36389  1.0000
  C   C2573     1.0  0.66322  0.23682  0.35277  1.0000
  C   C2574     1.0  0.65826  0.19232  0.34107  1.0000
  H   H4555     1.0  0.98220  0.27035  0.39595  1.0000
  H   H4556     1.0  0.94934  0.02661  0.47986  1.0000
  C   C2575     1.0  0.98683  0.18238  0.41967  1.0000
  C   C2576     1.0  0.93732  0.02100  0.48011  1.0000
  H   H4557     1.0  0.98397  0.23402  0.42436  1.0000
  H   H4558     1.0  0.65790  0.23002  0.31244  1.0000
  C   C2577     1.0  0.98949  0.25730  0.40339  1.0000
  H   H4559     1.0  0.66166  0.12799  0.37980  1.0000
  S   S574      1.0  0.65637  0.21498  0.41234  1.0000
  N   N144      1.0  0.65874  0.22588  0.34127  1.0000
  H   H4560     1.0  0.65880  0.25180  0.34768  1.0000
  Fe  Fe288     1.0  0.82595  0.09166  0.56655  1.0000
  S   S575      1.0  0.85471  0.07895  0.56986  1.0000
  S   S576      1.0  0.82111  0.10781  0.53900  1.0000
  Fe  Fe289     1.0  0.81038  0.08308  0.60730  1.0000
  S   S577      1.0  0.83796  0.06959  0.61426  1.0000
  S   S578      1.0  0.78482  0.08853  0.62880  1.0000
  Fe  Fe290     1.0  0.84833  0.09334  0.59359  1.0000
  S   S579      1.0  0.85897  0.11726  0.59670  1.0000
  Fe  Fe291     1.0  0.84196  0.05633  0.58997  1.0000
  S   S580      1.0  0.82025  0.10732  0.58873  1.0000
  S   S581      1.0  0.81354  0.06823  0.58460  1.0000
  H   H4561     1.0  0.91541  0.22878  0.71283  1.0000
  Fe  Fe292     1.0  0.95181  0.18817  0.56997  1.0000
  S   S582      1.0  0.96971  0.16084  0.57820  1.0000
  S   S583      1.0  0.95652  0.20286  0.54047  1.0000
  Fe  Fe293     1.0  0.93083  0.18897  0.60855  1.0000
  S   S584      1.0  0.94718  0.16172  0.62029  1.0000
  S   S585      1.0  0.90690  0.20425  0.62635  1.0000
  Fe  Fe294     1.0  0.97155  0.17228  0.60159  1.0000
  H   H4562     1.0  0.80993  0.02983  0.56782  1.0000
  Fe  Fe295     1.0  0.94392  0.15254  0.59597  1.0000
  S   S586      1.0  0.93923  0.12422  0.59713  1.0000
  S   S587      1.0  0.95548  0.20032  0.59205  1.0000
  S   S588      1.0  0.92577  0.17901  0.58560  1.0000
  H   H4563     1.0  0.91803  0.03992  0.49536  1.0000
  Fe  Fe296     1.0  0.73821  0.19113  0.61134  1.0000
  S   S589      1.0  0.71679  0.18390  0.60099  1.0000
  S   S590      1.0  0.75325  0.17230  0.63271  1.0000
  Fe  Fe297     1.0  0.73314  0.23010  0.58944  1.0000
  S   S591      1.0  0.71112  0.22637  0.57730  1.0000
  S   S592      1.0  0.74372  0.25640  0.57985  1.0000
  Fe  Fe298     1.0  0.70033  0.21159  0.60587  1.0000
  C   C2578     1.0  0.86430  0.48313  0.68526  1.0000
  Fe  Fe299     1.0  0.72924  0.19919  0.57349  1.0000
  S   S593      1.0  0.73776  0.18897  0.54683  1.0000
  S   S594      1.0  0.72085  0.21778  0.61832  1.0000
  S   S595      1.0  0.75215  0.20401  0.58358  1.0000
  Fe  Fe300     1.0  0.84845  0.29805  0.59971  1.0000
  S   S596      1.0  0.83080  0.29518  0.62808  1.0000
  S   S597      1.0  0.87907  0.28810  0.59274  1.0000
  Fe  Fe301     1.0  0.81653  0.31794  0.58096  1.0000
  S   S598      1.0  0.79631  0.31700  0.60782  1.0000
  S   S599      1.0  0.80658  0.33210  0.55461  1.0000
  Fe  Fe302     1.0  0.81740  0.32464  0.61858  1.0000
  S   S600      1.0  0.80708  0.34703  0.63568  1.0000
  Fe  Fe303     1.0  0.81136  0.28789  0.61482  1.0000
  S   S601      1.0  0.79776  0.26347  0.62643  1.0000
  S   S602      1.0  0.83643  0.32802  0.59093  1.0000
  S   S603      1.0  0.83025  0.28828  0.58731  1.0000
  H   H4564     1.0  0.94983  0.19560  0.68842  1.0000
  S   S604      1.0  0.82108  0.43134  0.67733  1.0000
  S   S605      1.0  0.85595  0.38583  0.66326  1.0000
  H   H4565     1.0  0.91073  0.07703  0.48608  1.0000
  H   H4566     1.0  0.84677  0.01625  0.54726  1.0000
  H   H4567     1.0  0.98754  0.20788  0.55259  1.0000
  H   H4568     1.0  0.93845  0.26552  0.50202  1.0000
  C   C2579     1.0  0.88719  0.26831  0.50501  1.0000
  H   H4569     1.0  0.98143  0.24757  0.55813  1.0000
  H   H4570     1.0  0.67489  0.14564  0.67611  1.0000
  C   C2580     1.0  0.97616  0.09209  0.57038  1.0000
  H   H4571     1.0  0.67189  0.21923  0.72712  1.0000
  H   H4572     1.0  0.72229  0.20118  0.48649  1.0000
  H   H4573     1.0  0.88428  0.28350  0.50196  1.0000
  N   N145      1.0  0.95738  0.13685  0.53699  1.0000
  H   H4574     1.0  0.92407  0.16680  0.65682  1.0000
  H   H4575     1.0  0.86283  0.98918  0.58348  1.0000
  C   C2581     1.0  0.82079  0.35687  0.64427  1.0000
  C   C2582     1.0  0.83939  0.34940  0.64390  1.0000
  C   C2583     1.0  0.84994  0.35820  0.65011  1.0000
  C   C2584     1.0  0.84192  0.37428  0.65715  1.0000
  C   C2585     1.0  0.82316  0.38135  0.65816  1.0000
  C   C2586     1.0  0.81274  0.37284  0.65148  1.0000
  H   H4576     1.0  0.84565  0.33693  0.63871  1.0000
  H   H4577     1.0  0.86442  0.35255  0.64944  1.0000
  H   H4578     1.0  0.81686  0.39377  0.66346  1.0000
  H   H4579     1.0  0.79843  0.37886  0.65155  1.0000
  C   C2587     1.0  0.74344  0.11542  0.49729  1.0000
  H   H4580     1.0  0.98728  0.14531  0.50755  1.0000
  H   H4581     1.0  0.68672  0.20281  0.64929  1.0000
  C   C2588     1.0  0.75819  0.25853  0.59328  1.0000
  C   C2589     1.0  0.76338  0.24410  0.60745  1.0000
  C   C2590     1.0  0.77530  0.24584  0.61775  1.0000
  C   C2591     1.0  0.78226  0.26191  0.61380  1.0000
  C   C2592     1.0  0.77710  0.27631  0.59960  1.0000
  C   C2593     1.0  0.76502  0.27465  0.58943  1.0000
  H   H4582     1.0  0.75820  0.23160  0.61050  1.0000
  H   H4583     1.0  0.77925  0.23468  0.62871  1.0000
  H   H4584     1.0  0.78244  0.28873  0.59641  1.0000
  H   H4585     1.0  0.76108  0.28586  0.57850  1.0000
  C   C2594     1.0  0.69838  0.20886  0.50677  1.0000
  C   C2595     1.0  0.71698  0.20174  0.50074  1.0000
  C   C2596     1.0  0.72886  0.19547  0.51318  1.0000
  C   C2597     1.0  0.72236  0.19667  0.53170  1.0000
  C   C2598     1.0  0.70383  0.20395  0.53778  1.0000
  C   C2599     1.0  0.69189  0.21002  0.52534  1.0000
  H   H4586     1.0  0.67557  0.16541  0.65830  1.0000
  H   H4587     1.0  0.74320  0.18995  0.50837  1.0000
  H   H4588     1.0  0.69864  0.20471  0.55210  1.0000
  H   H4589     1.0  0.67751  0.21540  0.53015  1.0000
  C   C2600     1.0  0.82074  0.30119  0.50745  1.0000
  C   C2601     1.0  0.80788  0.31776  0.50679  1.0000
  C   C2602     1.0  0.80335  0.32707  0.52147  1.0000
  C   C2603     1.0  0.81134  0.31962  0.53698  1.0000
  C   C2604     1.0  0.82356  0.30266  0.53786  1.0000
  C   C2605     1.0  0.82844  0.29366  0.52305  1.0000
  H   H4590     1.0  0.88910  0.05302  0.50295  1.0000
  H   H4591     1.0  0.79383  0.34017  0.52073  1.0000
  H   H4592     1.0  0.82965  0.29674  0.54971  1.0000
  H   H4593     1.0  0.83831  0.28086  0.52362  1.0000
  C   C2606     1.0  0.89937  0.22762  0.61711  1.0000
  C   C2607     1.0  0.91099  0.23746  0.60329  1.0000
  C   C2608     1.0  0.90485  0.25620  0.59639  1.0000
  C   C2609     1.0  0.88677  0.26495  0.60255  1.0000
  C   C2610     1.0  0.87502  0.25501  0.61609  1.0000
  C   C2611     1.0  0.88143  0.23648  0.62360  1.0000
  H   H4594     1.0  0.92477  0.23073  0.59809  1.0000
  H   H4595     1.0  0.91400  0.26383  0.58592  1.0000
  H   H4596     1.0  0.86103  0.26163  0.62090  1.0000
  H   H4597     1.0  0.87233  0.22891  0.63421  1.0000
  H   H4598     1.0  0.95732  0.16462  0.52116  1.0000
  C   C2612     1.0  0.70568  0.29404  0.53120  1.0000
  H   H4599     1.0  0.96070  0.21450  0.68005  1.0000
  H   H4600     1.0  0.74172  0.09313  0.52157  1.0000
  C   C2613     1.0  0.90698  0.20652  0.51687  1.0000
  C   C2614     1.0  0.90460  0.20819  0.53506  1.0000
  C   C2615     1.0  0.91981  0.20737  0.54229  1.0000
  C   C2616     1.0  0.93737  0.20536  0.53117  1.0000
  H   H4601     1.0  0.89109  0.20959  0.54369  1.0000
  H   H4602     1.0  0.91796  0.20840  0.55642  1.0000
  C   C2617     1.0  0.77625  0.11200  0.62915  1.0000
  C   C2618     1.0  0.77548  0.12533  0.61291  1.0000
  C   C2619     1.0  0.76818  0.14397  0.61373  1.0000
  C   C2620     1.0  0.76206  0.14925  0.63080  1.0000
  C   C2621     1.0  0.76303  0.13594  0.64694  1.0000
  C   C2622     1.0  0.76976  0.11737  0.64613  1.0000
  H   H4603     1.0  0.78008  0.12121  0.59975  1.0000
  H   H4604     1.0  0.76732  0.15419  0.60121  1.0000
  H   H4605     1.0  0.75833  0.13996  0.66015  1.0000
  H   H4606     1.0  0.77028  0.10712  0.65869  1.0000
  C   C2623     1.0  0.91704  0.12216  0.59673  1.0000
  C   C2624     1.0  0.90232  0.13708  0.59800  1.0000
  C   C2625     1.0  0.88479  0.13533  0.59750  1.0000
  C   C2626     1.0  0.88165  0.11857  0.59613  1.0000
  C   C2627     1.0  0.89637  0.10359  0.59472  1.0000
  C   C2628     1.0  0.91405  0.10540  0.59502  1.0000
  H   H4607     1.0  0.90440  0.14996  0.59951  1.0000
  H   H4608     1.0  0.87362  0.14702  0.59830  1.0000
  H   H4609     1.0  0.89410  0.09059  0.59367  1.0000
  H   H4610     1.0  0.92538  0.09375  0.59413  1.0000
  H   H4611     1.0  0.81625  0.02846  0.60381  1.0000
  C   C2629     1.0  0.80237  0.02240  0.51098  1.0000
  C   C2630     1.0  0.77034  0.35127  0.70256  1.0000
  C   C2631     1.0  0.81031  0.10237  0.51032  1.0000
  C   C2632     1.0  0.80777  0.09907  0.52941  1.0000
  C   C2633     1.0  0.79502  0.08861  0.54038  1.0000
  C   C2634     1.0  0.78537  0.08088  0.53207  1.0000
  H   H4612     1.0  0.79637  0.00606  0.60891  1.0000
  H   H4613     1.0  0.91220  0.45956  0.69273  1.0000
  H   H4614     1.0  0.79261  0.08652  0.55517  1.0000
  H   H4615     1.0  0.77551  0.07277  0.54045  1.0000
  N   N146      1.0  0.80509  0.24538  0.53932  1.0000
  C   C2635     1.0  0.81642  0.24860  0.52009  1.0000
  C   C2636     1.0  0.79060  0.26251  0.54188  1.0000
  C   C2637     1.0  0.81761  0.24271  0.55249  1.0000
  C   C2638     1.0  0.79658  0.22868  0.54371  1.0000
  C   C2639     1.0  0.79145  0.22370  0.52755  1.0000
  C   C2640     1.0  0.83424  0.23406  0.51608  1.0000
  C   C2641     1.0  0.80815  0.24129  0.57307  1.0000
  C   C2642     1.0  0.77665  0.26876  0.52904  1.0000
  C   C2643     1.0  0.76497  0.28773  0.53112  1.0000
  C   C2644     1.0  0.78132  0.20778  0.53439  1.0000
  H   H4616     1.0  0.78622  0.03822  0.53073  1.0000
  C   C2645     1.0  0.82209  0.23483  0.58553  1.0000
  H   H4617     1.0  0.82068  0.26191  0.51717  1.0000
  H   H4618     1.0  0.80829  0.25009  0.50962  1.0000
  H   H4619     1.0  0.78207  0.26068  0.55599  1.0000
  H   H4620     1.0  0.79726  0.27426  0.54046  1.0000
  H   H4621     1.0  0.82509  0.25424  0.54871  1.0000
  H   H4622     1.0  0.82832  0.22997  0.55155  1.0000
  H   H4623     1.0  0.80597  0.21619  0.54953  1.0000
  H   H4624     1.0  0.78398  0.23021  0.55474  1.0000
  H   H4625     1.0  0.80388  0.21934  0.51738  1.0000
  H   H4626     1.0  0.78269  0.23546  0.52017  1.0000
  H   H4627     1.0  0.84516  0.23654  0.52167  1.0000
  H   H4628     1.0  0.83201  0.22001  0.52261  1.0000
  H   H4629     1.0  0.79856  0.23169  0.57736  1.0000
  H   H4630     1.0  0.80040  0.25504  0.57549  1.0000
  H   H4631     1.0  0.78335  0.26982  0.51435  1.0000
  H   H4632     1.0  0.76716  0.25907  0.53284  1.0000
  H   H4633     1.0  0.88166  0.33260  0.58896  1.0000
  H   H4634     1.0  0.75489  0.29183  0.52203  1.0000
  H   H4635     1.0  0.76809  0.21186  0.54374  1.0000
  H   H4636     1.0  0.77833  0.20396  0.52261  1.0000
  H   H4637     1.0  0.78967  0.19557  0.54186  1.0000
  S   S606      1.0  0.83385  0.47731  0.67682  1.0000
  H   H4638     1.0  0.96424  0.23431  0.56139  1.0000
  C   C2646     1.0  0.74331  0.23595  0.51375  1.0000
  H   H4639     1.0  0.81480  0.23354  0.60013  1.0000
  H   H4640     1.0  0.83078  0.22124  0.58358  1.0000
  H   H4641     1.0  0.83082  0.24511  0.58272  1.0000
  N   N147      1.0  0.84936  0.38565  0.58928  1.0000
  C   C2647     1.0  0.83219  0.38961  0.58164  1.0000
  C   C2648     1.0  0.86458  0.39314  0.57483  1.0000
  C   C2649     1.0  0.85542  0.36499  0.59413  1.0000
  C   C2650     1.0  0.84591  0.39313  0.60649  1.0000
  C   C2651     1.0  0.83927  0.41419  0.60451  1.0000
  C   C2652     1.0  0.81561  0.38193  0.59461  1.0000
  C   C2653     1.0  0.87415  0.35758  0.60022  1.0000
  H   H4642     1.0  0.91341  0.16224  0.68079  1.0000
  S   S607      1.0  0.68283  0.21603  0.49167  1.0000
  C   C2654     1.0  0.83377  0.41979  0.62320  1.0000
  C   C2655     1.0  0.93672  0.19782  0.65729  1.0000
  C   C2656     1.0  0.87966  0.33667  0.60234  1.0000
  C   C2657     1.0  0.82400  0.98849  0.53878  1.0000
  H   H4643     1.0  0.82714  0.40457  0.57733  1.0000
  H   H4644     1.0  0.87487  0.39534  0.58154  1.0000
  N   N148      1.0  0.74494  0.13197  0.50373  1.0000
  H   H4645     1.0  0.85611  0.35888  0.58219  1.0000
  H   H4646     1.0  0.84526  0.35893  0.60561  1.0000
  H   H4647     1.0  0.83603  0.38629  0.61760  1.0000
  H   H4648     1.0  0.85861  0.38970  0.61207  1.0000
  H   H4649     1.0  0.82720  0.41937  0.59797  1.0000
  H   H4650     1.0  0.85058  0.42118  0.59632  1.0000
  H   H4651     1.0  0.79451  0.40278  0.58246  1.0000
  H   H4652     1.0  0.81150  0.38710  0.60761  1.0000
  H   H4653     1.0  0.87335  0.36088  0.61368  1.0000
  H   H4654     1.0  0.88535  0.36344  0.59013  1.0000
  H   H4655     1.0  0.70809  0.24273  0.68334  1.0000
  H   H4656     1.0  0.78130  0.00859  0.50995  1.0000
  H   H4657     1.0  0.80424  0.09581  0.48734  1.0000
  H   H4658     1.0  0.92717  0.12852  0.52493  1.0000
  C   C2658     1.0  0.94089  0.11934  0.52313  1.0000
  H   H4659     1.0  0.84521  0.41461  0.63073  1.0000
  H   H4660     1.0  0.83025  0.43501  0.62130  1.0000
  H   H4661     1.0  0.82156  0.41434  0.63159  1.0000
  H   H4662     1.0  0.88675  0.30404  0.52123  1.0000
  H   H4663     1.0  0.85105  0.31579  0.54825  1.0000
  H   H4664     1.0  0.67914  0.25254  0.52968  1.0000
  H   H4665     1.0  0.67665  0.27951  0.54581  1.0000
  H   H4666     1.0  0.89272  0.33156  0.60733  1.0000
  H   H4667     1.0  0.86901  0.32989  0.61241  1.0000
  C   C2659     1.0  0.80062  0.34997  0.70804  1.0000
  H   H4668     1.0  0.77372  0.29816  0.52713  1.0000
  C   C2660     1.0  0.84086  0.01048  0.59305  1.0000
  H   H4669     1.0  0.77250  0.36604  0.67370  1.0000
  C   C2661     1.0  0.76493  0.34048  0.67608  1.0000
  H   H4670     1.0  0.89675  0.07289  0.51965  1.0000
  H   H4671     1.0  0.76941  0.40586  0.66839  1.0000
  H   H4672     1.0  0.71985  0.10770  0.51909  1.0000
  H   H4673     1.0  0.83957  0.18177  0.63855  1.0000
  C   C2662     1.0  0.88346  0.07663  0.51514  1.0000
  C   C2663     1.0  0.73312  0.10116  0.51145  1.0000
  H   H4674     1.0  0.76817  0.32580  0.68296  1.0000
  Fe  Fe304     1.0  0.80953  0.42207  0.70718  1.0000
  H   H4675     1.0  0.87286  0.07163  0.52682  1.0000
  C   C2664     1.0  0.86420  0.31792  0.53876  1.0000
  S   S608      1.0  0.77918  0.42401  0.71777  1.0000
  H   H4676     1.0  0.77245  0.05665  0.57655  1.0000
  S   S609      1.0  0.77923  0.07137  0.50254  1.0000
  H   H4677     1.0  0.75463  0.24360  0.50911  1.0000
  N   N149      1.0  0.69858  0.14274  0.65368  1.0000
  C   C2665     1.0  0.70185  0.14205  0.63360  1.0000
  C   C2666     1.0  0.67848  0.15011  0.66090  1.0000
  C   C2667     1.0  0.70933  0.15605  0.65521  1.0000
  C   C2668     1.0  0.70525  0.12429  0.66517  1.0000
  H   H4678     1.0  0.70532  0.09027  0.68884  1.0000
  C   C2669     1.0  0.72205  0.13561  0.62413  1.0000
  C   C2670     1.0  0.70695  0.15958  0.67482  1.0000
  H   H4679     1.0  0.97139  0.12837  0.55969  1.0000
  H   H4680     1.0  0.92106  0.43803  0.70687  1.0000
  C   C2671     1.0  0.72341  0.13242  0.60493  1.0000
  C   C2672     1.0  0.71686  0.17457  0.67453  1.0000
  H   H4681     1.0  0.69668  0.15593  0.62570  1.0000
  H   H4682     1.0  0.69380  0.13300  0.63142  1.0000
  H   H4683     1.0  0.72807  0.31389  0.53831  1.0000
  H   H4684     1.0  0.70577  0.16956  0.64586  1.0000
  H   H4685     1.0  0.72425  0.15106  0.65062  1.0000
  H   H4686     1.0  0.72053  0.12076  0.66228  1.0000
  H   H4687     1.0  0.70125  0.12488  0.68002  1.0000
  H   H4688     1.0  0.70092  0.10628  0.64892  1.0000
  H   H4689     1.0  0.93620  0.00924  0.49194  1.0000
  H   H4690     1.0  0.72994  0.14631  0.62245  1.0000
  H   H4691     1.0  0.72875  0.12261  0.63212  1.0000
  H   H4692     1.0  0.71284  0.14695  0.68394  1.0000
  H   H4693     1.0  0.69233  0.16390  0.68111  1.0000
  H   H4694     1.0  0.72933  0.15163  0.48490  1.0000
  C   C2673     1.0  0.69892  0.24384  0.67389  1.0000
  H   H4695     1.0  0.83144  0.23132  0.48936  1.0000
  H   H4696     1.0  0.83538  0.38393  0.56892  1.0000
  C   C2674     1.0  0.85900  0.41106  0.56087  1.0000
  H   H4697     1.0  0.71655  0.12107  0.60576  1.0000
  H   H4698     1.0  0.71706  0.14511  0.59619  1.0000
  H   H4699     1.0  0.73808  0.12855  0.59833  1.0000
  H   H4700     1.0  0.73190  0.16992  0.67026  1.0000
  H   H4701     1.0  0.71224  0.18744  0.66493  1.0000
  H   H4702     1.0  0.69694  0.17193  0.51439  1.0000
  N   N150      1.0  0.78112  0.36081  0.70972  1.0000
  H   H4703     1.0  0.75537  0.35685  0.70626  1.0000
  H   H4704     1.0  0.75247  0.99022  0.50733  1.0000
  H   H4705     1.0  0.66520  0.23312  0.55788  1.0000
  C   C2675     1.0  0.80078  0.03284  0.55790  1.0000
  C   C2676     1.0  0.96406  0.10385  0.55696  1.0000
  C   C2677     1.0  0.87641  0.28351  0.54515  1.0000
  C   C2678     1.0  0.88941  0.25141  0.55612  1.0000
  C   C2679     1.0  0.87074  0.24740  0.56794  1.0000
  C   C2680     1.0  0.87316  0.22858  0.58089  1.0000
  H   H4706     1.0  0.91209  0.27601  0.54108  1.0000
  H   H4707     1.0  0.86236  0.28116  0.55173  1.0000
  H   H4708     1.0  0.88167  0.28681  0.55591  1.0000
  H   H4709     1.0  0.89672  0.25459  0.56530  1.0000
  H   H4710     1.0  0.89756  0.23829  0.55239  1.0000
  H   H4711     1.0  0.92625  0.24421  0.54114  1.0000
  H   H4712     1.0  0.86112  0.24765  0.55930  1.0000
  H   H4713     1.0  0.86441  0.25792  0.57658  1.0000
  H   H4714     1.0  0.86120  0.33017  0.52782  1.0000
  H   H4715     1.0  0.87635  0.21739  0.57314  1.0000
  H   H4716     1.0  0.88444  0.22674  0.58812  1.0000
  H   H4717     1.0  0.86041  0.22738  0.59142  1.0000
  H   H4718     1.0  0.91831  0.24405  0.52110  1.0000
  C   C2681     1.0  0.74593  0.12695  0.52384  1.0000
  H   H4719     1.0  0.98367  0.11899  0.53996  1.0000
  C   C2682     1.0  0.70987  0.14453  0.50933  1.0000
  C   C2683     1.0  0.74760  0.14251  0.53249  1.0000
  C   C2684     1.0  0.69546  0.16224  0.50660  1.0000
  C   C2685     1.0  0.74807  0.13554  0.55289  1.0000
  H   H4720     1.0  0.73371  0.12177  0.53247  1.0000
  H   H4721     1.0  0.78898  0.38716  0.70449  1.0000
  H   H4722     1.0  0.70864  0.13933  0.52433  1.0000
  H   H4723     1.0  0.70648  0.13454  0.50314  1.0000
  H   H4724     1.0  0.76036  0.14769  0.52577  1.0000
  H   H4725     1.0  0.73568  0.15414  0.53149  1.0000
  C   C2686     1.0  0.78073  0.46963  0.73032  1.0000
  H   H4726     1.0  0.66493  0.21051  0.71116  1.0000
  H   H4727     1.0  0.86226  0.03132  0.51646  1.0000
  H   H4728     1.0  0.74893  0.14696  0.55888  1.0000
  H   H4729     1.0  0.73539  0.13050  0.56049  1.0000
  H   H4730     1.0  0.76020  0.12427  0.55474  1.0000
  N   N151      1.0  0.83916  0.15781  0.53423  1.0000
  C   C2687     1.0  0.84725  0.16561  0.51462  1.0000
  C   C2688     1.0  0.84986  0.13847  0.53950  1.0000
  C   C2689     1.0  0.81982  0.15644  0.53458  1.0000
  C   C2690     1.0  0.83871  0.16944  0.54758  1.0000
  C   C2691     1.0  0.85453  0.17999  0.54324  1.0000
  C   C2692     1.0  0.83785  0.18551  0.50669  1.0000
  C   C2693     1.0  0.80792  0.15040  0.55376  1.0000
  C   C2694     1.0  0.86987  0.13659  0.54133  1.0000
  C   C2695     1.0  0.87972  0.11651  0.54508  1.0000
  C   C2696     1.0  0.85557  0.18634  0.56018  1.0000
  C   C2697     1.0  0.78915  0.08299  0.51295  1.0000
  C   C2698     1.0  0.78851  0.15042  0.55231  1.0000
  H   H4731     1.0  0.84728  0.15631  0.50558  1.0000
  H   H4732     1.0  0.86196  0.16568  0.51278  1.0000
  H   H4733     1.0  0.84307  0.13132  0.55298  1.0000
  H   H4734     1.0  0.85017  0.13012  0.52940  1.0000
  H   H4735     1.0  0.82009  0.14684  0.52573  1.0000
  H   H4736     1.0  0.81191  0.16984  0.52857  1.0000
  H   H4737     1.0  0.82591  0.18017  0.54859  1.0000
  H   H4738     1.0  0.83815  0.16073  0.56167  1.0000
  H   H4739     1.0  0.85226  0.19237  0.53232  1.0000
  H   H4740     1.0  0.86804  0.17174  0.53825  1.0000
  H   H4741     1.0  0.82758  0.19213  0.51728  1.0000
  Fe  Fe305     1.0  0.84639  0.41404  0.71818  1.0000
  H   H4742     1.0  0.80678  0.15960  0.56319  1.0000
  H   H4743     1.0  0.81378  0.13632  0.56015  1.0000
  H   H4744     1.0  0.87809  0.14345  0.52864  1.0000
  H   H4745     1.0  0.86993  0.14242  0.55314  1.0000
  H   H4746     1.0  0.87310  0.10927  0.55856  1.0000
  H   H4747     1.0  0.87956  0.10956  0.53410  1.0000
  H   H4748     1.0  0.89419  0.11572  0.54553  1.0000
  C   C2699     1.0  0.82541  0.03021  0.53102  1.0000
  H   H4749     1.0  0.96629  0.22343  0.62103  1.0000
  H   H4750     1.0  0.84243  0.19535  0.56520  1.0000
  C   C2700     1.0  0.68203  0.23586  0.68426  1.0000
  H   H4751     1.0  0.92968  0.17129  0.54044  1.0000
  H   H4752     1.0  0.72276  0.08717  0.66837  1.0000
  H   H4753     1.0  0.78889  0.14095  0.54336  1.0000
  H   H4754     1.0  0.78051  0.14562  0.56619  1.0000
  H   H4755     1.0  0.78138  0.16445  0.54668  1.0000
  C   C2701     1.0  0.78869  0.16011  0.68108  1.0000
  H   H4756     1.0  0.78771  0.17491  0.68059  1.0000
  H   H4757     1.0  0.79909  0.15167  0.68918  1.0000
  C   C2702     1.0  0.96547  0.15396  0.53040  1.0000
  H   H4758     1.0  0.85017  0.05361  0.52160  1.0000
  C   C2703     1.0  0.88121  0.26030  0.52579  1.0000
  H   H4759     1.0  0.69264  0.30453  0.53146  1.0000
  C   C2704     1.0  0.94302  0.11102  0.50643  1.0000
  H   H4760     1.0  0.78270  0.16460  0.65441  1.0000
  N   N152      1.0  0.88870  0.26644  0.53911  1.0000
  H   H4761     1.0  0.87117  0.46985  0.68196  1.0000
  H   H4762     1.0  0.87315  0.32070  0.54658  1.0000
  C   C2705     1.0  0.93966  0.20458  0.51273  1.0000
  H   H4763     1.0  0.94163  0.19191  0.64464  1.0000
  C   C2706     1.0  0.90788  0.26992  0.53146  1.0000
  C   C2707     1.0  0.92293  0.25267  0.52790  1.0000
  H   H4764     1.0  0.77609  0.03330  0.50251  1.0000
  H   H4765     1.0  0.92341  0.18805  0.68596  1.0000
  H   H4766     1.0  0.86415  0.18043  0.60027  1.0000
  C   C2708     1.0  0.78966  0.48325  0.71454  1.0000
  H   H4767     1.0  0.74343  0.22786  0.52792  1.0000
  C   C2709     1.0  0.66460  0.19811  0.67268  1.0000
  H   H4768     1.0  0.77517  0.15659  0.68812  1.0000
  C   C2710     1.0  0.87365  0.30111  0.53013  1.0000
  H   H4769     1.0  0.69483  0.25849  0.66729  1.0000
  C   C2711     1.0  0.78186  0.02941  0.56966  1.0000
  H   H4770     1.0  0.74550  0.22632  0.50443  1.0000
  H   H4771     1.0  0.79924  0.04783  0.55211  1.0000
  C   C2712     1.0  0.67071  0.24640  0.69968  1.0000
  H   H4772     1.0  0.79379  0.14148  0.66298  1.0000
  H   H4773     1.0  0.88515  0.24509  0.52715  1.0000
  H   H4774     1.0  0.86600  0.26329  0.52931  1.0000
  H   H4775     1.0  0.90261  0.43965  0.69571  1.0000
  H   H4776     1.0  0.95322  0.20309  0.50406  1.0000
  H   H4777     1.0  0.71395  0.17759  0.68850  1.0000
  H   H4778     1.0  0.83544  0.33165  0.71410  1.0000
  C   C2713     1.0  0.79371  0.15622  0.66168  1.0000
  H   H4779     1.0  0.75744  0.28751  0.54556  1.0000
  N   N153      1.0  0.81863  0.15815  0.63178  1.0000
  H   H4780     1.0  0.70293  0.30730  0.49419  1.0000
  S   S610      1.0  0.85517  0.02651  0.58839  1.0000
  C   C2714     1.0  0.82212  0.01507  0.60040  1.0000
  H   H4781     1.0  0.79230  0.16850  0.62408  1.0000
  H   H4782     1.0  0.78532  0.17990  0.59313  1.0000
  H   H4783     1.0  0.89027  0.43994  0.72824  1.0000
  C   C2715     1.0  0.72494  0.24924  0.51307  1.0000
  H   H4784     1.0  0.92617  0.15833  0.52588  1.0000
  H   H4785     1.0  0.71413  0.24111  0.51676  1.0000
  H   H4786     1.0  0.79295  0.20010  0.59382  1.0000
  H   H4787     1.0  0.94217  0.12199  0.49392  1.0000
  H   H4788     1.0  0.67212  0.24458  0.57192  1.0000
  H   H4789     1.0  0.97031  0.16793  0.65858  1.0000
  C   C2716     1.0  0.81256  0.16094  0.65133  1.0000
  H   H4790     1.0  0.81155  0.17557  0.65173  1.0000
  H   H4791     1.0  0.80350  0.18594  0.62368  1.0000
  H   H4792     1.0  0.83243  0.02297  0.51956  1.0000
  H   H4793     1.0  0.66742  0.26105  0.69290  1.0000
  C   C2717     1.0  0.85576  0.03911  0.52764  1.0000
  H   H4794     1.0  0.77148  0.03226  0.56108  1.0000
  H   H4795     1.0  0.86227  0.26643  0.49779  1.0000
  H   H4796     1.0  0.85879  0.17428  0.57125  1.0000
  H   H4797     1.0  0.81880  0.36672  0.59786  1.0000
  C   C2718     1.0  0.80605  0.17206  0.62042  1.0000
  C   C2719     1.0  0.79731  0.18656  0.58960  1.0000
  C   C2720     1.0  0.81088  0.00233  0.60335  1.0000
  H   H4798     1.0  0.94075  0.10808  0.53534  1.0000
  C   C2721     1.0  0.69536  0.28140  0.51039  1.0000
  C   C2722     1.0  0.72154  0.26317  0.52572  1.0000
  H   H4799     1.0  0.72386  0.25522  0.53953  1.0000
  H   H4800     1.0  0.82303  0.15301  0.65958  1.0000
  H   H4801     1.0  0.80298  0.13774  0.63343  1.0000
  H   H4802     1.0  0.82476  0.12432  0.65737  1.0000
  H   H4803     1.0  0.93182  0.10353  0.50867  1.0000
  H   H4804     1.0  0.78591  0.01445  0.53822  1.0000
  C   C2723     1.0  0.70775  0.08980  0.67406  1.0000
  H   H4805     1.0  0.80229  0.18884  0.57452  1.0000
  C   C2724     1.0  0.96975  0.12260  0.54838  1.0000
  C   C2725     1.0  0.90848  0.44716  0.70266  1.0000
  H   H4806     1.0  0.69567  0.23952  0.54353  1.0000
  H   H4807     1.0  0.87146  0.43121  0.53930  1.0000
  H   H4808     1.0  0.94859  0.24850  0.60185  1.0000
  C   C2726     1.0  0.82872  0.18636  0.49093  1.0000
  N   N154      1.0  0.70321  0.27646  0.52752  1.0000
  H   H4809     1.0  0.81369  0.01045  0.50906  1.0000
  C   C2727     1.0  0.81235  0.17412  0.59928  1.0000
  H   H4810     1.0  0.69473  0.26514  0.55649  1.0000
  H   H4811     1.0  0.78745  0.38168  0.59511  1.0000
  H   H4812     1.0  0.95120  0.24505  0.51420  1.0000
  H   H4813     1.0  0.93113  0.25327  0.62166  1.0000
  H   H4814     1.0  0.74190  0.08144  0.49321  1.0000
  C   C2728     1.0  0.81752  0.13918  0.63051  1.0000
  C   C2729     1.0  0.82811  0.12286  0.64285  1.0000
  H   H4815     1.0  0.86396  0.19453  0.61584  1.0000
  C   C2730     1.0  0.80144  0.09391  0.50210  1.0000
  H   H4816     1.0  0.95375  0.14206  0.50890  1.0000
  H   H4817     1.0  0.67375  0.23686  0.67403  1.0000
  C   C2731     1.0  0.68941  0.26881  0.54359  1.0000
  C   C2732     1.0  0.81516  0.00224  0.55173  1.0000
  C   C2733     1.0  0.68387  0.25118  0.54250  1.0000
  C   C2734     1.0  0.94597  0.24788  0.61688  1.0000
  H   H4818     1.0  0.84341  0.15716  0.61081  1.0000
  H   H4819     1.0  0.81566  0.16067  0.59506  1.0000
  H   H4820     1.0  0.82464  0.18036  0.59427  1.0000
  H   H4821     1.0  0.83236  0.09306  0.65005  1.0000
  H   H4822     1.0  0.91896  0.21977  0.68309  1.0000
  H   H4823     1.0  0.93187  0.13013  0.55434  1.0000
  C   C2735     1.0  0.94896  0.20914  0.67891  1.0000
  H   H4824     1.0  0.77484  0.41710  0.68375  1.0000
  H   H4825     1.0  0.72388  0.07636  0.51272  1.0000
  H   H4826     1.0  0.76890  0.34127  0.66098  1.0000
  H   H4827     1.0  0.90208  0.26348  0.50012  1.0000
  C   C2736     1.0  0.83821  0.16043  0.62476  1.0000
  H   H4828     1.0  0.84312  0.12169  0.63773  1.0000
  C   C2737     1.0  0.77561  0.35177  0.68159  1.0000
  C   C2738     1.0  0.93113  0.22197  0.68680  1.0000
  H   H4829     1.0  0.68112  0.28963  0.51300  1.0000
  C   C2739     1.0  0.82351  0.10478  0.64254  1.0000
  H   H4830     1.0  0.82304  0.13691  0.61623  1.0000
  H   H4831     1.0  0.83257  0.19092  0.61689  1.0000
  H   H4832     1.0  0.82586  0.10305  0.62818  1.0000
  C   C2740     1.0  0.84834  0.99285  0.58913  1.0000
  C   C2741     1.0  0.71702  0.31005  0.55009  1.0000
  H   H4833     1.0  0.87100  0.07115  0.49566  1.0000
  C   C2742     1.0  0.95156  0.22800  0.62675  1.0000
  H   H4834     1.0  0.94353  0.21956  0.62353  1.0000
  H   H4835     1.0  0.77205  0.33649  0.70943  1.0000
  H   H4836     1.0  0.84728  0.15026  0.63343  1.0000
  C   C2743     1.0  0.76268  0.39308  0.69738  1.0000
  H   H4837     1.0  0.70129  0.28917  0.56145  1.0000
  H   H4838     1.0  0.94971  0.10536  0.56467  1.0000
  H   H4839     1.0  0.95751  0.23441  0.65019  1.0000
  H   H4840     1.0  0.93404  0.23426  0.65180  1.0000
  C   C2744     1.0  0.84177  0.17958  0.62434  1.0000
  Fe  Fe306     1.0  0.89837  0.18867  0.48675  1.0000
  C   C2745     1.0  0.76264  0.13775  0.49307  1.0000
  C   C2746     1.0  0.88493  0.06809  0.49874  1.0000
  H   H4841     1.0  0.72129  0.28769  0.49202  1.0000
  C   C2747     1.0  0.94829  0.22655  0.64778  1.0000
  H   H4842     1.0  0.75780  0.11535  0.52601  1.0000
  H   H4843     1.0  0.87138  0.16998  0.62188  1.0000
  H   H4844     1.0  0.80896  0.10449  0.64918  1.0000
  H   H4845     1.0  0.95405  0.25676  0.61938  1.0000
  C   C2748     1.0  0.97867  0.23344  0.56207  1.0000
  H   H4846     1.0  0.92386  0.20796  0.65511  1.0000
  H   H4847     1.0  0.93219  0.23659  0.68120  1.0000
  C   C2749     1.0  0.86152  0.18115  0.61499  1.0000
  H   H4848     1.0  0.71599  0.30013  0.51986  1.0000
  H   H4849     1.0  0.68152  0.15917  0.51182  1.0000
  H   H4850     1.0  0.73702  0.12002  0.48504  1.0000
  H   H4851     1.0  0.69677  0.16887  0.49182  1.0000
  C   C2750     1.0  0.67213  0.20351  0.65392  1.0000
  H   H4852     1.0  0.92579  0.20477  0.71414  1.0000
  C   C2751     1.0  0.70626  0.29257  0.49321  1.0000
  H   H4853     1.0  0.95637  0.10124  0.50420  1.0000
  H   H4854     1.0  0.89689  0.17114  0.54345  1.0000
  H   H4855     1.0  0.84948  0.42198  0.56762  1.0000
  C   C2752     1.0  0.93890  0.14190  0.54918  1.0000
  Fe  Fe307     1.0  0.83691  0.44651  0.68732  1.0000
  H   H4856     1.0  0.88761  0.40507  0.71702  1.0000
  C   C2753     1.0  0.92562  0.15855  0.54033  1.0000
  S   S611      1.0  0.91099  0.15907  0.49538  1.0000
  C   C2754     1.0  0.92788  0.21896  0.70772  1.0000
  H   H4857     1.0  0.76357  0.15085  0.49611  1.0000
  H   H4858     1.0  0.75654  0.39793  0.71050  1.0000
  H   H4859     1.0  0.81966  0.11098  0.50186  1.0000
  H   H4860     1.0  0.93971  0.22129  0.71196  1.0000
  Fe  Fe308     1.0  0.84411  0.40696  0.68161  1.0000
  S   S612      1.0  0.86128  0.42291  0.68917  1.0000
  H   H4861     1.0  0.87223  0.38290  0.56610  1.0000
  H   H4862     1.0  0.84839  0.19412  0.50126  1.0000
  H   H4863     1.0  0.86662  0.19424  0.55659  1.0000
  C   C2755     1.0  0.79896  0.38758  0.58558  1.0000
  H   H4864     1.0  0.87942  0.09183  0.51149  1.0000
  H   H4865     1.0  0.82469  0.00105  0.56081  1.0000
  H   H4866     1.0  0.85210  0.40813  0.55118  1.0000
  H   H4867     1.0  0.98039  0.22755  0.57641  1.0000
  H   H4868     1.0  0.76118  0.03911  0.59214  1.0000
  H   H4869     1.0  0.94596  0.26624  0.52234  1.0000
  C   C2756     1.0  0.66827  0.24630  0.55850  1.0000
  H   H4870     1.0  0.79287  0.01928  0.48790  1.0000
  H   H4871     1.0  0.78294  0.01502  0.57743  1.0000
  H   H4872     1.0  0.78963  0.37960  0.68457  1.0000
  H   H4873     1.0  0.66630  0.13083  0.65281  1.0000
  H   H4874     1.0  0.69390  0.26894  0.50654  1.0000
  H   H4875     1.0  0.72548  0.25650  0.49862  1.0000
  S   S613      1.0  0.66972  0.21615  0.61736  1.0000
  H   H4876     1.0  0.92648  0.20366  0.49164  1.0000
  C   C2757     1.0  0.77452  0.04197  0.58364  1.0000
  H   H4877     1.0  0.80326  0.99690  0.56108  1.0000
  H   H4878     1.0  0.73297  0.27077  0.52017  1.0000
  H   H4879     1.0  0.67345  0.19336  0.68253  1.0000
  H   H4880     1.0  0.77451  0.12725  0.49746  1.0000
  H   H4881     1.0  0.80216  0.38223  0.57272  1.0000
  H   H4882     1.0  0.88280  0.42260  0.55849  1.0000
  C   C2758     1.0  0.94070  0.25780  0.51585  1.0000
  C   C2759     1.0  0.97009  0.19737  0.65255  1.0000
  H   H4883     1.0  0.75291  0.38636  0.69450  1.0000
  H   H4884     1.0  0.88558  0.40841  0.54196  1.0000
  H   H4885     1.0  0.88230  0.46164  0.71438  1.0000
  C   C2760     1.0  0.76475  0.40996  0.68197  1.0000
  H   H4886     1.0  0.81753  0.17853  0.49571  1.0000
  H   H4887     1.0  0.78420  0.03955  0.59293  1.0000
  N   N155      1.0  0.80933  0.02208  0.54276  1.0000
  H   H4888     1.0  0.67996  0.24600  0.70888  1.0000
  C   C2761     1.0  0.79519  0.02425  0.53142  1.0000
  H   H4889     1.0  0.66495  0.15317  0.63806  1.0000
  H   H4890     1.0  0.86471  0.29973  0.52151  1.0000
  C   C2762     1.0  0.69823  0.10780  0.66339  1.0000
  H   H4891     1.0  0.96468  0.16028  0.54220  1.0000
  H   H4892     1.0  0.97221  0.17589  0.67806  1.0000
  H   H4893     1.0  0.83770  0.35325  0.69820  1.0000
  C   C2763     1.0  0.66074  0.20980  0.64112  1.0000
  H   H4894     1.0  0.80189  0.32369  0.49477  1.0000
  H   H4895     1.0  0.80759  0.03486  0.50297  1.0000
  H   H4896     1.0  0.90853  0.28032  0.51848  1.0000
  H   H4897     1.0  0.80790  0.35205  0.69336  1.0000
  S   S614      1.0  0.82365  0.43873  0.71680  1.0000
  C   C2764     1.0  0.78155  0.38004  0.69869  1.0000
  C   C2765     1.0  0.92451  0.20482  0.50570  1.0000
  C   C2766     1.0  0.72933  0.14786  0.49985  1.0000
  S   S615      1.0  0.83123  0.39657  0.71080  1.0000
  H   H4898     1.0  0.82292  0.20090  0.48541  1.0000
  H   H4899     1.0  0.86637  0.03900  0.53513  1.0000
  H   H4900     1.0  0.79041  0.34600  0.67733  1.0000
  H   H4901     1.0  0.74996  0.34591  0.67972  1.0000
  C   C2767     1.0  0.72921  0.08760  0.50213  1.0000
  H   H4902     1.0  0.75136  0.41975  0.68217  1.0000
  H   H4903     1.0  0.70227  0.07819  0.67290  1.0000
  C   C2768     1.0  0.93072  0.18237  0.67353  1.0000
  C   C2769     1.0  0.97626  0.17748  0.66296  1.0000
  C   C2770     1.0  0.91749  0.17318  0.66897  1.0000
  C   C2771     1.0  0.90587  0.15959  0.55091  1.0000
  H   H4904     1.0  0.97200  0.19600  0.63807  1.0000
  C   C2772     1.0  0.87579  0.41872  0.54949  1.0000
  C   C2773     1.0  0.87732  0.26203  0.49353  1.0000
  H   H4905     1.0  0.91958  0.40491  0.71825  1.0000
  H   H4906     1.0  0.82036  0.04472  0.52431  1.0000
  C   C2774     1.0  0.66001  0.22008  0.72094  1.0000
  H   H4907     1.0  0.70668  0.23608  0.66294  1.0000
  S   S616      1.0  0.88814  0.20575  0.50848  1.0000
  C   C2775     1.0  0.71222  0.29220  0.54923  1.0000
  H   H4908     1.0  0.75730  0.10725  0.49257  1.0000
  H   H4909     1.0  0.72454  0.28107  0.55036  1.0000
  S   S617      1.0  0.87779  0.13155  0.49093  1.0000
  H   H4910     1.0  0.68335  0.10939  0.66930  1.0000
  H   H4911     1.0  0.90494  0.18339  0.66608  1.0000
  H   H4912     1.0  0.94063  0.14545  0.56172  1.0000
  H   H4913     1.0  0.73115  0.16046  0.50317  1.0000
  H   H4914     1.0  0.68694  0.22113  0.68994  1.0000
  H   H4915     1.0  0.90130  0.14665  0.55221  1.0000
  H   H4916     1.0  0.90458  0.16224  0.56477  1.0000
  C   C2776     1.0  0.95618  0.13023  0.52047  1.0000
  H   H4917     1.0  0.72193  0.30815  0.56299  1.0000
  H   H4918     1.0  0.70477  0.32142  0.55000  1.0000
  C   C2777     1.0  0.78716  0.02079  0.50239  1.0000
  C   C2778     1.0  0.84049  0.03040  0.54103  1.0000
  N   N156      1.0  0.95083  0.20730  0.65937  1.0000
  C   C2779     1.0  0.66415  0.14567  0.65257  1.0000
  C   C2780     1.0  0.84127  0.23507  0.49541  1.0000
  C   C2781     1.0  0.89113  0.40411  0.73003  1.0000
  H   H4919     1.0  0.83555  0.99302  0.52812  1.0000
  H   H4920     1.0  0.83497  0.03863  0.55194  1.0000
  H   H4921     1.0  0.94251  0.17156  0.67715  1.0000
  H   H4922     1.0  0.71872  0.09467  0.49371  1.0000
  H   H4923     1.0  0.85214  0.10811  0.49812  1.0000
  H   H4924     1.0  0.78864  0.48086  0.70120  1.0000
  C   C2782     1.0  0.90221  0.46255  0.72983  1.0000
  H   H4925     1.0  0.85466  0.22544  0.49286  1.0000
  C   C2783     1.0  0.90920  0.40402  0.73075  1.0000
  H   H4926     1.0  0.80444  0.48136  0.71459  1.0000
  H   H4927     1.0  0.88088  0.24683  0.49514  1.0000
  H   H4928     1.0  0.78871  0.23650  0.48290  1.0000
  H   H4929     1.0  0.73495  0.98689  0.48686  1.0000
  C   C2784     1.0  0.89438  0.45255  0.71942  1.0000
  H   H4930     1.0  0.80107  0.33491  0.71219  1.0000
  C   C2785     1.0  0.98560  0.15159  0.51956  1.0000
  H   H4931     1.0  0.98011  0.20565  0.65243  1.0000
  H   H4932     1.0  0.78741  0.45568  0.72804  1.0000
  S   S618      1.0  0.82831  0.28965  0.48894  1.0000
  H   H4933     1.0  0.77321  0.98921  0.49001  1.0000
  H   H4934     1.0  0.84327  0.24916  0.48836  1.0000
  C   C2786     1.0  0.85640  0.11208  0.48337  1.0000
  H   H4935     1.0  0.84094  0.34989  0.72128  1.0000
  H   H4936     1.0  0.81349  0.98676  0.53219  1.0000
  H   H4937     1.0  0.90513  0.47519  0.71977  1.0000
  H   H4938     1.0  0.96960  0.12173  0.51510  1.0000
  H   H4939     1.0  0.78887  0.21229  0.48666  1.0000
  H   H4940     1.0  0.96593  0.09609  0.54602  1.0000
  H   H4941     1.0  0.76620  0.47168  0.72931  1.0000
  H   H4942     1.0  0.97461  0.09900  0.58193  1.0000
  H   H4943     1.0  0.81070  0.36948  0.71777  1.0000
  H   H4944     1.0  0.75800  0.37021  0.73032  1.0000
  H   H4945     1.0  0.98236  0.17971  0.50376  1.0000
  C   C2787     1.0  0.81251  0.35451  0.71916  1.0000
  C   C2788     1.0  0.83287  0.34679  0.71275  1.0000
  C   C2789     1.0  0.77223  0.36197  0.72939  1.0000
  H   H4946     1.0  0.97195  0.07865  0.57619  1.0000
  H   H4947     1.0  0.65705  0.27470  0.71851  1.0000
  H   H4948     1.0  0.98883  0.20591  0.60241  1.0000
  H   H4949     1.0  0.98931  0.22856  0.53508  1.0000
  H   H4950     1.0  0.90489  0.98825  0.62774  1.0000
  H   H4951     1.0  0.90826  0.02926  0.48266  1.0000
  H   H4952     1.0  0.90762  0.98684  0.60412  1.0000
  C   C2790     1.0  0.91975  0.03573  0.48212  1.0000
  Fe  Fe309     1.0  0.93167  0.43843  0.79861  1.0000
  S   S619      1.0  0.95353  0.43281  0.77407  1.0000
  S   S620      1.0  0.91744  0.46769  0.79931  1.0000
  Fe  Fe310     1.0  0.93406  0.39827  0.81571  1.0000
  S   S621      1.0  0.95626  0.38925  0.79257  1.0000
  S   S622      1.0  0.92308  0.37617  0.83788  1.0000
  Fe  Fe311     1.0  0.96848  0.41214  0.79450  1.0000
  Fe  Fe312     1.0  0.93935  0.41061  0.77442  1.0000
  S   S623      1.0  0.93547  0.40662  0.74766  1.0000
  S   S624      1.0  0.94756  0.41947  0.81927  1.0000
  S   S625      1.0  0.91620  0.41795  0.79747  1.0000
  S   S626      1.0  0.84443  0.44274  0.88905  1.0000
  S   S627      1.0  0.79955  0.44328  0.87713  1.0000
  Fe  Fe313     1.0  0.85000  0.42051  0.91329  1.0000
  S   S628      1.0  0.87345  0.39626  0.91181  1.0000
  Fe  Fe314     1.0  0.73292  0.39794  0.85467  1.0000
  S   S629      1.0  0.74744  0.41108  0.82729  1.0000
  S   S630      1.0  0.74594  0.39183  0.87941  1.0000
  Fe  Fe315     1.0  0.70006  0.39673  0.83921  1.0000
  S   S631      1.0  0.71221  0.41068  0.81086  1.0000
  H   H4953     1.0  0.65916  0.12049  0.95014  1.0000
  Fe  Fe316     1.0  0.73840  0.39139  0.81623  1.0000
  S   S632      1.0  0.75903  0.37547  0.79657  1.0000
  Fe  Fe317     1.0  0.71994  0.42910  0.82505  1.0000
  S   S633      1.0  0.71939  0.45945  0.81393  1.0000
  S   S634      1.0  0.72602  0.37641  0.84385  1.0000
  S   S635      1.0  0.70564  0.41694  0.85305  1.0000
  C   C2791     1.0  0.83961  0.48512  0.73980  1.0000
  C   C2792     1.0  0.89400  0.48444  0.90401  1.0000
  H   H4954     1.0  0.67482  0.27784  0.82860  1.0000
  H   H4955     1.0  0.86164  0.43840  0.80570  1.0000
  N   N157      1.0  0.83991  0.39501  0.84346  1.0000
  H   H4956     1.0  0.80856  0.34854  0.73400  1.0000
  H   H4957     1.0  0.85489  0.39818  0.81507  1.0000
  H   H4958     1.0  0.78388  0.33316  0.74134  1.0000
  C   C2793     1.0  0.70530  0.47015  0.84727  1.0000
  C   C2794     1.0  0.89233  0.46815  0.96522  1.0000
  H   H4959     1.0  0.66036  0.42758  0.83221  1.0000
  C   C2795     1.0  0.69803  0.34170  0.87350  1.0000
  H   H4960     1.0  0.85063  0.47417  0.93694  1.0000
  H   H4961     1.0  0.70129  0.45703  0.85219  1.0000
  C   C2796     1.0  0.86442  0.46096  0.83497  1.0000
  C   C2797     1.0  0.76444  0.38905  0.77474  1.0000
  C   C2798     1.0  0.75095  0.40263  0.76716  1.0000
  C   C2799     1.0  0.75549  0.41311  0.74946  1.0000
  H   H4962     1.0  0.78235  0.47380  0.97504  1.0000
  C   C2800     1.0  0.87761  0.40351  0.74612  1.0000
  C   C2801     1.0  0.78246  0.38615  0.76473  1.0000
  H   H4963     1.0  0.73697  0.40478  0.77478  1.0000
  H   H4964     1.0  0.66445  0.42643  0.85989  1.0000
  H   H4965     1.0  0.76198  0.48492  0.89085  1.0000
  H   H4966     1.0  0.79294  0.37571  0.77061  1.0000
  H   H4967     1.0  0.77061  0.44655  0.94274  1.0000
  S   S636      1.0  0.80808  0.46020  0.91728  1.0000
  C   C2802     1.0  0.87325  0.47631  0.83645  1.0000
  N   N158      1.0  0.89020  0.46727  0.74756  1.0000
  H   H4968     1.0  0.97092  0.36820  0.89462  1.0000
  C   C2803     1.0  0.84467  0.38610  0.86207  1.0000
  C   C2804     1.0  0.78192  0.47254  0.74924  1.0000
  C   C2805     1.0  0.78468  0.42879  0.87832  1.0000
  C   C2806     1.0  0.77509  0.43242  0.86414  1.0000
  C   C2807     1.0  0.76309  0.42127  0.86451  1.0000
  C   C2808     1.0  0.76081  0.40616  0.87888  1.0000
  C   C2809     1.0  0.77038  0.40255  0.89313  1.0000
  C   C2810     1.0  0.78222  0.41390  0.89292  1.0000
  H   H4969     1.0  0.74501  0.42343  0.74349  1.0000
  H   H4970     1.0  0.75534  0.42465  0.85384  1.0000
  H   H4971     1.0  0.76859  0.39096  0.90437  1.0000
  H   H4972     1.0  0.78951  0.41103  0.90396  1.0000
  H   H4973     1.0  0.66214  0.42982  0.89127  1.0000
  H   H4974     1.0  0.66539  0.31755  0.83901  1.0000
  H   H4975     1.0  0.82675  0.38996  0.82400  1.0000
  H   H4976     1.0  0.97624  0.46913  0.82768  1.0000
  H   H4977     1.0  0.78868  0.42798  0.79379  1.0000
  H   H4978     1.0  0.90595  0.45504  0.91384  1.0000
  C   C2811     1.0  0.91366  0.40363  0.74745  1.0000
  H   H4979     1.0  0.82796  0.47834  0.74173  1.0000
  C   C2812     1.0  0.77074  0.34328  0.74277  1.0000
  H   H4980     1.0  0.71120  0.46625  0.91283  1.0000
  C   C2813     1.0  0.88235  0.40185  0.76295  1.0000
  C   C2814     1.0  0.90035  0.40185  0.76363  1.0000
  C   C2815     1.0  0.72581  0.46183  0.76489  1.0000
  C   C2816     1.0  0.78817  0.48641  0.97025  1.0000
  H   H4981     1.0  0.87196  0.40096  0.77543  1.0000
  H   H4982     1.0  0.90389  0.40062  0.77661  1.0000
  C   C2817     1.0  0.90734  0.38291  0.85711  1.0000
  C   C2818     1.0  0.90252  0.40120  0.85929  1.0000
  C   C2819     1.0  0.89118  0.40573  0.87575  1.0000
  C   C2820     1.0  0.88509  0.39185  0.89006  1.0000
  C   C2821     1.0  0.88975  0.37368  0.88765  1.0000
  C   C2822     1.0  0.90053  0.36928  0.87112  1.0000
  H   H4983     1.0  0.90802  0.41168  0.84853  1.0000
  H   H4984     1.0  0.88789  0.41972  0.87777  1.0000
  H   H4985     1.0  0.88521  0.36291  0.89874  1.0000
  H   H4986     1.0  0.90421  0.35514  0.86946  1.0000
  C   C2823     1.0  0.68481  0.28701  0.82480  1.0000
  C   C2824     1.0  0.97773  0.36506  0.88080  1.0000
  C   C2825     1.0  0.92562  0.46273  0.83303  1.0000
  H   H4987     1.0  0.98348  0.47111  0.87460  1.0000
  C   C2826     1.0  0.79602  0.37950  0.84138  1.0000
  C   C2827     1.0  0.97177  0.35926  0.85254  1.0000
  H   H4988     1.0  0.93443  0.45825  0.85855  1.0000
  H   H4989     1.0  0.92191  0.44947  0.83600  1.0000
  H   H4990     1.0  0.95453  0.39694  0.88891  1.0000
  H   H4991     1.0  0.87647  0.37085  0.84295  1.0000
  C   C2828     1.0  0.94554  0.39865  0.87916  1.0000
  H   H4992     1.0  0.87949  0.48472  0.91122  1.0000
  H   H4993     1.0  0.88279  0.37733  0.80090  1.0000
  H   H4994     1.0  0.80893  0.37580  0.86398  1.0000
  H   H4995     1.0  0.95926  0.33071  0.87473  1.0000
  H   H4996     1.0  0.76019  0.33741  0.74001  1.0000
  H   H4997     1.0  0.86563  0.40375  0.83029  1.0000
  H   H4998     1.0  0.92617  0.33264  0.88875  1.0000
  C   C2829     1.0  0.93647  0.32961  0.89748  1.0000
  C   C2830     1.0  0.80831  0.38548  0.85059  1.0000
  H   H4999     1.0  0.92761  0.47100  0.91333  1.0000
  H   H5000     1.0  0.85100  0.46455  0.76048  1.0000
  C   C2831     1.0  0.90280  0.46453  0.90106  1.0000
  C   C2832     1.0  0.68292  0.33056  0.87950  1.0000
  H   H5001     1.0  0.80727  0.44920  0.83627  1.0000
  H   H5002     1.0  0.68455  0.28602  0.87985  1.0000
  C   C2833     1.0  0.79240  0.44073  0.76390  1.0000
  H   H5003     1.0  0.87981  0.44201  0.75644  1.0000
  H   H5004     1.0  0.69033  0.28032  0.85192  1.0000
  H   H5005     1.0  0.69629  0.31176  0.86147  1.0000
  H   H5006     1.0  0.73160  0.46055  0.93328  1.0000
  H   H5007     1.0  0.68561  0.32021  0.89201  1.0000
  H   H5008     1.0  0.70283  0.44212  0.90108  1.0000
  C   C2834     1.0  0.95594  0.48617  0.91222  1.0000
  H   H5009     1.0  0.88423  0.43940  0.84791  1.0000
  H   H5010     1.0  0.76277  0.46217  0.88965  1.0000
  H   H5011     1.0  0.83028  0.45190  0.82483  1.0000
  H   H5012     1.0  0.75614  0.44173  0.77841  1.0000
  H   H5013     1.0  0.79411  0.38923  0.82826  1.0000
  C   C2835     1.0  0.78711  0.39710  0.74735  1.0000
  H   H5014     1.0  0.89267  0.48016  0.76863  1.0000
  H   H5015     1.0  0.86400  0.36399  0.82984  1.0000
  H   H5016     1.0  0.89721  0.36186  0.81577  1.0000
  C   C2836     1.0  0.66204  0.44054  0.82214  1.0000
  H   H5017     1.0  0.78231  0.37942  0.85058  1.0000
  H   H5018     1.0  0.67592  0.25597  0.89608  1.0000
  C   C2837     1.0  0.66023  0.45592  0.84692  1.0000
  H   H5019     1.0  0.80112  0.39507  0.73996  1.0000
  C   C2838     1.0  0.87233  0.48002  0.74417  1.0000
  C   C2839     1.0  0.68265  0.32108  0.86394  1.0000
  H   H5020     1.0  0.79056  0.45880  0.78703  1.0000
  H   H5021     1.0  0.93015  0.33561  0.90994  1.0000
  H   H5022     1.0  0.69266  0.47955  0.87262  1.0000
  H   H5023     1.0  0.85939  0.46423  0.82200  1.0000
  H   H5024     1.0  0.71782  0.47461  0.88908  1.0000
  H   H5025     1.0  0.66796  0.08341  0.90126  1.0000
  H   H5026     1.0  0.74364  0.44428  0.88936  1.0000
  C   C2840     1.0  0.97046  0.45815  0.79795  1.0000
  H   H5027     1.0  0.84865  0.37816  0.89889  1.0000
  C   C2841     1.0  0.74921  0.48254  0.86970  1.0000
  H   H5028     1.0  0.66432  0.11624  0.88491  1.0000
  H   H5029     1.0  0.85774  0.43523  0.78465  1.0000
  H   H5030     1.0  0.80958  0.47507  0.94910  1.0000
  C   C2842     1.0  0.74344  0.46399  0.92221  1.0000
  H   H5031     1.0  0.91288  0.46228  0.94162  1.0000
  C   C2843     1.0  0.67400  0.47803  0.81017  1.0000
  H   H5032     1.0  0.85297  0.45875  0.84684  1.0000
  S   S637      1.0  0.82119  0.41567  0.92248  1.0000
  H   H5033     1.0  0.67708  0.43993  0.81871  1.0000
  H   H5034     1.0  0.98207  0.34645  0.85588  1.0000
  H   H5035     1.0  0.75215  0.35607  0.76487  1.0000
  H   H5036     1.0  0.71355  0.47315  0.76599  1.0000
  C   C2844     1.0  0.92389  0.47474  0.81625  1.0000
  H   H5037     1.0  0.68729  0.12066  0.89360  1.0000
  H   H5038     1.0  0.66505  0.19008  0.75022  1.0000
  C   C2845     1.0  0.95537  0.38807  0.86344  1.0000
  H   H5039     1.0  0.88696  0.46546  0.88088  1.0000
  H   H5040     1.0  0.82451  0.38231  0.90887  1.0000
  H   H5041     1.0  0.84098  0.42239  0.84509  1.0000
  C   C2846     1.0  0.94001  0.41921  0.87156  1.0000
  H   H5042     1.0  0.74964  0.45552  0.95760  1.0000
  H   H5043     1.0  0.72115  0.42420  0.89328  1.0000
  C   C2847     1.0  0.93764  0.48474  0.84189  1.0000
  H   H5044     1.0  0.75931  0.47902  0.81375  1.0000
  C   C2848     1.0  0.68361  0.13537  0.89459  1.0000
  H   H5045     1.0  0.74483  0.47161  0.86577  1.0000
  Fe  Fe318     1.0  0.83770  0.46173  0.90877  1.0000
  C   C2849     1.0  0.66393  0.44182  0.87983  1.0000
  H   H5046     1.0  0.77972  0.41762  0.78049  1.0000
  H   H5047     1.0  0.74459  0.48016  0.75488  1.0000
  N   N159      1.0  0.73704  0.47522  0.90502  1.0000
  H   H5048     1.0  0.72817  0.45771  0.75148  1.0000
  N   N160      1.0  0.66742  0.31073  0.86749  1.0000
  H   H5049     1.0  0.93049  0.42170  0.86210  1.0000
  S   S638      1.0  0.79958  0.43503  0.96852  1.0000
  C   C2850     1.0  0.88729  0.37519  0.81404  1.0000
  C   C2851     1.0  0.89017  0.45669  0.89400  1.0000
  C   C2852     1.0  0.77672  0.46308  0.78347  1.0000
  H   H5050     1.0  0.91363  0.46726  0.75835  1.0000
  H   H5051     1.0  0.78285  0.48178  0.80781  1.0000
  H   H5052     1.0  0.81922  0.41709  0.85408  1.0000
  H   H5053     1.0  0.79288  0.43533  0.75163  1.0000
  H   H5054     1.0  0.94232  0.36392  0.89372  1.0000
  H   H5055     1.0  0.80149  0.39940  0.85313  1.0000
  C   C2853     1.0  0.73041  0.44606  0.89921  1.0000
  H   H5056     1.0  0.80601  0.44438  0.76174  1.0000
  H   H5057     1.0  0.76094  0.44617  0.75411  1.0000
  H   H5058     1.0  0.76760  0.45564  0.79512  1.0000
  C   C2854     1.0  0.88748  0.44970  0.76118  1.0000
  H   H5059     1.0  0.83414  0.36417  0.89625  1.0000
  H   H5060     1.0  0.66375  0.26777  0.91473  1.0000
  H   H5061     1.0  0.77941  0.36963  0.73483  1.0000
  H   H5062     1.0  0.68258  0.42712  0.79000  1.0000
  H   H5063     1.0  0.69798  0.34844  0.88472  1.0000
  H   H5064     1.0  0.76733  0.47586  0.91972  1.0000
  C   C2855     1.0  0.70145  0.14120  0.89355  1.0000
  H   H5065     1.0  0.81656  0.39268  0.87882  1.0000
  C   C2856     1.0  0.66890  0.42358  0.79595  1.0000
  S   S639      1.0  0.85454  0.40553  0.74574  1.0000
  Fe  Fe319     1.0  0.81523  0.43941  0.89942  1.0000
  H   H5066     1.0  0.72305  0.44995  0.77619  1.0000
  N   N161      1.0  0.77725  0.45758  0.76566  1.0000
  C   C2857     1.0  0.85587  0.47095  0.74599  1.0000
  H   H5067     1.0  0.81231  0.40521  0.76525  1.0000
  C   C2858     1.0  0.76505  0.34562  0.76274  1.0000
  H   H5068     1.0  0.87177  0.43156  0.83557  1.0000
  C   C2859     1.0  0.95339  0.33739  0.88676  1.0000
  C   C2860     1.0  0.82791  0.38488  0.83867  1.0000
  C   C2861     1.0  0.77362  0.41048  0.73964  1.0000
  H   H5069     1.0  0.82040  0.41480  0.78010  1.0000
  H   H5070     1.0  0.87775  0.47506  0.96890  1.0000
  C   C2862     1.0  0.90065  0.47673  0.75528  1.0000
  C   C2863     1.0  0.67828  0.36703  0.82061  1.0000
  C   C2864     1.0  0.77091  0.48380  0.78429  1.0000
  C   C2865     1.0  0.76150  0.45926  0.94679  1.0000
  C   C2866     1.0  0.71680  0.43926  0.89251  1.0000
  C   C2867     1.0  0.74246  0.46834  0.76635  1.0000
  H   H5071     1.0  0.96093  0.35487  0.84838  1.0000
  C   C2868     1.0  0.67012  0.13771  0.91297  1.0000
  C   C2869     1.0  0.81851  0.44627  0.82442  1.0000
  H   H5072     1.0  0.87847  0.42300  0.79270  1.0000
  C   C2870     1.0  0.80882  0.40945  0.77872  1.0000
  H   H5073     1.0  0.95229  0.42503  0.86408  1.0000
  C   C2871     1.0  0.75951  0.45251  0.76606  1.0000
  H   H5074     1.0  0.89445  0.38625  0.81339  1.0000
  C   C2872     1.0  0.79113  0.42406  0.78031  1.0000
  H   H5075     1.0  0.94518  0.38949  0.85491  1.0000
  H   H5076     1.0  0.93695  0.36183  0.87329  1.0000
  H   H5077     1.0  0.67536  0.45445  0.84263  1.0000
  H   H5078     1.0  0.87719  0.45581  0.90426  1.0000
  H   H5079     1.0  0.69766  0.30071  0.83735  1.0000
  H   H5080     1.0  0.88972  0.46226  0.94037  1.0000
  C   C2873     1.0  0.87773  0.45213  0.78106  1.0000
  H   H5081     1.0  0.69197  0.36985  0.81634  1.0000
  C   C2874     1.0  0.71488  0.47456  0.82924  1.0000
  H   H5082     1.0  0.96347  0.33335  0.89584  1.0000
  H   H5083     1.0  0.89377  0.45347  0.97227  1.0000
  H   H5084     1.0  0.77665  0.44406  0.85294  1.0000
  C   C2875     1.0  0.94830  0.35863  0.88081  1.0000
  C   C2876     1.0  0.85764  0.39397  0.82922  1.0000
  H   H5085     1.0  0.93291  0.42645  0.88305  1.0000
  Fe  Fe320     1.0  0.81693  0.43684  0.93964  1.0000
  H   H5086     1.0  0.79591  0.47465  0.74837  1.0000
  C   C2877     1.0  0.67043  0.29432  0.88289  1.0000
  H   H5087     1.0  0.68283  0.46677  0.80339  1.0000
  H   H5088     1.0  0.85779  0.38927  0.86284  1.0000
  H   H5089     1.0  0.96042  0.45544  0.81097  1.0000
  H   H5090     1.0  0.81207  0.42076  0.82421  1.0000
  C   C2878     1.0  0.70052  0.48291  0.85884  1.0000
  H   H5091     1.0  0.76280  0.33236  0.77197  1.0000
  H   H5092     1.0  0.84720  0.37086  0.86396  1.0000
  H   H5093     1.0  0.88973  0.44384  0.82311  1.0000
  H   H5094     1.0  0.98461  0.35032  0.88355  1.0000
  C   C2879     1.0  0.75347  0.47588  0.88931  1.0000
  H   H5095     1.0  0.90097  0.44017  0.76206  1.0000
  H   H5096     1.0  0.83435  0.37006  0.83968  1.0000
  H   H5097     1.0  0.97985  0.44500  0.79561  1.0000
  H   H5098     1.0  0.83209  0.40564  0.88046  1.0000
  H   H5099     1.0  0.71171  0.33269  0.87021  1.0000
  H   H5100     1.0  0.80198  0.36543  0.83865  1.0000
  C   C2880     1.0  0.72334  0.46637  0.90135  1.0000
  H   H5101     1.0  0.71111  0.13889  0.88049  1.0000
  H   H5102     1.0  0.94044  0.31446  0.90187  1.0000
  H   H5103     1.0  0.67660  0.12750  0.92374  1.0000
  H   H5104     1.0  0.67789  0.14376  0.88256  1.0000
  H   H5105     1.0  0.88796  0.45280  0.78864  1.0000
  H   H5106     1.0  0.96579  0.39574  0.85433  1.0000
  H   H5107     1.0  0.69570  0.35261  0.86121  1.0000
  H   H5108     1.0  0.73239  0.43703  0.91264  1.0000
  N   N162      1.0  0.96367  0.36798  0.86924  1.0000
  H   H5109     1.0  0.81353  0.45339  0.81158  1.0000
  H   H5110     1.0  0.83476  0.42355  0.81242  1.0000
  C   C2881     1.0  0.66816  0.30507  0.84982  1.0000
  H   H5111     1.0  0.68278  0.34980  0.80094  1.0000
  H   H5112     1.0  0.74701  0.48544  0.93470  1.0000
  C   C2882     1.0  0.83488  0.37826  0.89684  1.0000
  H   H5113     1.0  0.68208  0.33194  0.85118  1.0000
  C   C2883     1.0  0.93261  0.46770  0.84579  1.0000
  H   H5114     1.0  0.70803  0.13302  0.90518  1.0000
  H   H5115     1.0  0.71655  0.44593  0.87798  1.0000
  H   H5116     1.0  0.86728  0.46507  0.78116  1.0000
  C   C2884     1.0  0.89836  0.46950  0.94444  1.0000
  C   C2885     1.0  0.75507  0.47261  0.93013  1.0000
  C   C2886     1.0  0.68642  0.29296  0.84177  1.0000
  H   H5117     1.0  0.67871  0.44234  0.87590  1.0000
  S   S640      1.0  0.67180  0.38928  0.84608  1.0000
  H   H5118     1.0  0.80709  0.39713  0.78976  1.0000
  H   H5119     1.0  0.66968  0.29891  0.89572  1.0000
  H   H5120     1.0  0.96297  0.46372  0.78650  1.0000
  H   H5121     1.0  0.91572  0.45395  0.73240  1.0000
  H   H5122     1.0  0.75202  0.45046  0.91961  1.0000
  H   H5123     1.0  0.77599  0.34993  0.76664  1.0000
  C   C2887     1.0  0.67302  0.35565  0.81190  1.0000
  S   S641      1.0  0.84626  0.43978  0.93221  1.0000
  H   H5124     1.0  0.69832  0.27933  0.81863  1.0000
  C   C2888     1.0  0.86834  0.43618  0.79164  1.0000
  C   C2889     1.0  0.83092  0.39185  0.87930  1.0000
  C   C2890     1.0  0.87841  0.44284  0.83537  1.0000
  C   C2891     1.0  0.82424  0.42560  0.82493  1.0000
  C   C2892     1.0  0.87090  0.37486  0.83019  1.0000
  H   H5125     1.0  0.82843  0.48076  0.84417  1.0000
  C   C2893     1.0  0.66584  0.37477  0.83474  1.0000
  H   H5126     1.0  0.93276  0.39381  0.88678  1.0000
  H   H5127     1.0  0.76931  0.46570  0.95275  1.0000
  C   C2894     1.0  0.83124  0.41511  0.84275  1.0000
  H   H5128     1.0  0.68037  0.29919  0.81432  1.0000
  H   H5129     1.0  0.69878  0.15605  0.89388  1.0000
  C   C2895     1.0  0.66257  0.26409  0.90205  1.0000
  H   H5130     1.0  0.66980  0.34021  0.88321  1.0000
  H   H5131     1.0  0.67993  0.47907  0.82148  1.0000
  H   H5132     1.0  0.77761  0.47545  0.85534  1.0000
  H   H5133     1.0  0.83584  0.43803  0.97087  1.0000
  H   H5134     1.0  0.81881  0.47691  0.87749  1.0000
  H   H5135     1.0  0.67002  0.15130  0.91571  1.0000
  H   H5136     1.0  0.66339  0.42175  0.78467  1.0000
  C   C2896     1.0  0.98871  0.46654  0.81673  1.0000
  H   H5137     1.0  0.98451  0.41534  0.82742  1.0000
  H   H5138     1.0  0.67039  0.41035  0.80605  1.0000
  H   H5139     1.0  0.87812  0.47161  0.84963  1.0000
  H   H5140     1.0  0.84985  0.48491  0.86414  1.0000
  H   H5141     1.0  0.88588  0.47667  0.82565  1.0000
  H   H5142     1.0  0.85941  0.46006  0.73787  1.0000
  H   H5143     1.0  0.90097  0.47458  0.97027  1.0000
  H   H5144     1.0  0.91579  0.46453  0.89061  1.0000
  C   C2897     1.0  0.98068  0.37130  0.83468  1.0000
  H   H5145     1.0  0.89696  0.44265  0.89163  1.0000
  H   H5146     1.0  0.96987  0.38191  0.82868  1.0000
  H   H5147     1.0  0.98176  0.35283  0.81685  1.0000
  H   H5148     1.0  0.95924  0.47093  0.91608  1.0000
  C   C2898     1.0  0.98133  0.47186  0.79871  1.0000
  H   H5149     1.0  0.73908  0.47318  0.77942  1.0000
  H   H5150     1.0  0.66049  0.10609  0.92146  1.0000
  H   H5151     1.0  0.98785  0.39080  0.86881  1.0000
  H   H5152     1.0  0.65662  0.18325  0.73352  1.0000
  C   C2899     1.0  0.65702  0.43982  0.86359  1.0000
  H   H5153     1.0  0.65720  0.29759  0.85132  1.0000
  C   C2900     1.0  0.65664  0.28135  0.88812  1.0000
  H   H5154     1.0  0.97195  0.48553  0.79815  1.0000
  H   H5155     1.0  0.77266  0.48599  0.75065  1.0000
  C   C2901     1.0  0.92388  0.48617  0.90940  1.0000
  Fe  Fe321     1.0  0.81458  0.55925  0.12752  1.0000
  S   S642      1.0  0.84487  0.55751  0.12036  1.0000
  S   S643      1.0  0.80158  0.53525  0.13115  1.0000
  Fe  Fe322     1.0  0.80621  0.60027  0.12629  1.0000
  S   S644      1.0  0.83599  0.60207  0.11814  1.0000
  S   S645      1.0  0.78383  0.62535  0.12914  1.0000
  Fe  Fe323     1.0  0.83806  0.58311  0.09911  1.0000
  S   S646      1.0  0.85311  0.58359  0.06944  1.0000
  Fe  Fe324     1.0  0.83967  0.57638  0.13999  1.0000
  S   S647      1.0  0.85290  0.56941  0.16467  1.0000
  S   S648      1.0  0.80798  0.58363  0.10556  1.0000
  S   S649      1.0  0.80972  0.57577  0.14905  1.0000
  Fe  Fe325     1.0  0.93609  0.58874  0.18980  1.0000
  H   H5156     1.0  0.65768  0.65952  0.21554  1.0000
  S   S650      1.0  0.92265  0.59882  0.16499  1.0000
  Fe  Fe326     1.0  0.97160  0.58630  0.20286  1.0000
  H   H5157     1.0  0.77418  0.55663  0.15432  1.0000
  H   H5158     1.0  0.74648  0.57392  0.02990  1.0000
  C   C2902     1.0  0.76413  0.53805  0.98729  1.0000
  H   H5159     1.0  0.90014  0.50886  0.12333  1.0000
  Fe  Fe327     1.0  0.81318  0.58801  0.98334  1.0000
  H   H5160     1.0  0.70273  0.57970  0.16516  1.0000
  S   S651      1.0  0.96336  0.56929  0.18773  1.0000
  S   S652      1.0  0.94534  0.60745  0.20230  1.0000
  Fe  Fe328     1.0  0.71036  0.59195  0.20959  1.0000
  H   H5161     1.0  0.77123  0.53382  0.16579  1.0000
  S   S653      1.0  0.70920  0.61389  0.18403  1.0000
  C   C2903     1.0  0.81208  0.49963  0.09740  1.0000
  C   C2904     1.0  0.75442  0.58054  0.12969  1.0000
  H   H5162     1.0  0.84843  0.51119  0.18003  1.0000
  H   H5163     1.0  0.78886  0.54589  0.18074  1.0000
  H   H5164     1.0  0.81679  0.60569  0.06671  1.0000
  H   H5165     1.0  0.76294  0.57034  0.12139  1.0000
  H   H5166     1.0  0.79114  0.55042  0.08973  1.0000
  C   C2905     1.0  0.78213  0.57690  0.07415  1.0000
  H   H5167     1.0  0.74388  0.59786  0.10583  1.0000
  C   C2906     1.0  0.77064  0.50308  0.06913  1.0000
  C   C2907     1.0  0.71852  0.49074  0.21103  1.0000
  C   C2908     1.0  0.92398  0.48740  0.12334  1.0000
  H   H5168     1.0  0.68074  0.55907  0.16831  1.0000
  H   H5169     1.0  0.90047  0.61044  0.02736  1.0000
  H   H5170     1.0  0.82279  0.61143  0.22054  1.0000
  C   C2909     1.0  0.77374  0.55052  0.18308  1.0000
  C   C2910     1.0  0.73622  0.57497  0.14091  1.0000
  H   H5171     1.0  0.76720  0.53021  0.10949  1.0000
  H   H5172     1.0  0.77141  0.49850  0.15608  1.0000
  C   C2911     1.0  0.66318  0.77294  0.02476  1.0000
  C   C2912     1.0  0.78180  0.52374  0.98910  1.0000
  S   S654      1.0  0.96184  0.57021  0.23087  1.0000
  H   H5173     1.0  0.71891  0.53794  0.16817  1.0000
  S   S655      1.0  0.68874  0.57501  0.21877  1.0000
  C   C2913     1.0  0.75823  0.57213  0.01818  1.0000
  H   H5174     1.0  0.80159  0.49637  0.02327  1.0000
  H   H5175     1.0  0.74036  0.54464  0.18123  1.0000
  H   H5176     1.0  0.88568  0.55344  0.09756  1.0000
  C   C2914     1.0  0.83584  0.51746  0.08688  1.0000
  C   C2915     1.0  0.91735  0.51367  0.14009  1.0000
  C   C2916     1.0  0.82200  0.59922  0.05491  1.0000
  H   H5177     1.0  0.84562  0.61776  0.99978  1.0000
  N   N163      1.0  0.73756  0.55597  0.15291  1.0000
  H   H5178     1.0  0.74195  0.60975  0.12399  1.0000
  H   H5179     1.0  0.66561  0.76735  0.01214  1.0000
  H   H5180     1.0  0.79061  0.52931  0.99482  1.0000
  H   H5181     1.0  0.75317  0.57020  0.00665  1.0000
  C   C2917     1.0  0.76351  0.62214  0.14511  1.0000
  C   C2918     1.0  0.76320  0.60708  0.15984  1.0000
  C   C2919     1.0  0.74664  0.60467  0.17211  1.0000
  C   C2920     1.0  0.73031  0.61713  0.16955  1.0000
  C   C2921     1.0  0.73068  0.63235  0.15501  1.0000
  C   C2922     1.0  0.74726  0.63496  0.14296  1.0000
  H   H5182     1.0  0.77572  0.59742  0.16191  1.0000
  H   H5183     1.0  0.74658  0.59325  0.18356  1.0000
  H   H5184     1.0  0.71817  0.64220  0.15307  1.0000
  H   H5185     1.0  0.74746  0.64673  0.13169  1.0000
  C   C2923     1.0  0.87177  0.57842  0.16458  1.0000
  C   C2924     1.0  0.87983  0.58984  0.14901  1.0000
  C   C2925     1.0  0.89530  0.59622  0.14936  1.0000
  C   C2926     1.0  0.90278  0.59119  0.16523  1.0000
  C   C2927     1.0  0.89458  0.57983  0.18077  1.0000
  C   C2928     1.0  0.87916  0.57347  0.18044  1.0000
  H   H5186     1.0  0.87423  0.59370  0.13670  1.0000
  H   H5187     1.0  0.90156  0.60500  0.13728  1.0000
  H   H5188     1.0  0.90020  0.57579  0.19302  1.0000
  H   H5189     1.0  0.87307  0.56452  0.19249  1.0000
  C   C2929     1.0  0.83942  0.58784  0.05285  1.0000
  C   C2930     1.0  0.84618  0.58001  0.03714  1.0000
  C   C2931     1.0  0.83539  0.58317  0.02391  1.0000
  H   H5190     1.0  0.85967  0.57124  0.03538  1.0000
  H   H5191     1.0  0.84050  0.57687  0.01208  1.0000
  H   H5192     1.0  0.72956  0.58560  0.14941  1.0000
  C   C2932     1.0  0.82709  0.52798  0.10032  1.0000
  C   C2933     1.0  0.81140  0.52368  0.11294  1.0000
  C   C2934     1.0  0.81128  0.60244  0.04162  1.0000
  H   H5193     1.0  0.83273  0.53918  0.10100  1.0000
  H   H5194     1.0  0.77753  0.58388  0.06113  1.0000
  H   H5195     1.0  0.67692  0.56964  0.18767  1.0000
  C   C2935     1.0  0.76699  0.54855  0.16678  1.0000
  H   H5196     1.0  0.72739  0.53563  0.13051  1.0000
  H   H5197     1.0  0.97220  0.51763  0.17181  1.0000
  H   H5198     1.0  0.66969  0.63220  0.18101  1.0000
  H   H5199     1.0  0.93231  0.51832  0.16828  1.0000
  C   C2936     1.0  0.68318  0.65987  0.19564  1.0000
  H   H5200     1.0  0.76752  0.54196  0.19599  1.0000
  C   C2937     1.0  0.90819  0.51799  0.22091  1.0000
  C   C2938     1.0  0.82848  0.50309  0.08560  1.0000
  H   H5201     1.0  0.65967  0.68196  0.17316  1.0000
  H   H5202     1.0  0.95822  0.49196  0.20709  1.0000
  C   C2939     1.0  0.84625  0.48821  0.13385  1.0000
  H   H5203     1.0  0.79665  0.52044  0.20711  1.0000
  H   H5204     1.0  0.74087  0.61716  0.22882  1.0000
  H   H5205     1.0  0.88365  0.61991  0.00176  1.0000
  H   H5206     1.0  0.85692  0.51348  0.12418  1.0000
  S   S656      1.0  0.72173  0.52405  0.21477  1.0000
  H   H5207     1.0  0.66984  0.76219  0.03509  1.0000
  C   C2940     1.0  0.75074  0.59899  0.11646  1.0000
  H   H5208     1.0  0.86971  0.60348  0.01071  1.0000
  H   H5209     1.0  0.76237  0.58234  0.13900  1.0000
  H   H5210     1.0  0.81344  0.50412  0.00100  1.0000
  H   H5211     1.0  0.67112  0.63484  0.14127  1.0000
  H   H5212     1.0  0.79690  0.49632  0.21511  1.0000
  H   H5213     1.0  0.68652  0.66398  0.22159  1.0000
  S   S657      1.0  0.92378  0.57275  0.21679  1.0000
  H   H5214     1.0  0.89507  0.57794  0.01424  1.0000
  C   C2941     1.0  0.74072  0.54009  0.12583  1.0000
  H   H5215     1.0  0.68088  0.67483  0.18981  1.0000
  Fe  Fe329     1.0  0.71142  0.55088  0.22482  1.0000
  H   H5216     1.0  0.88358  0.59639  0.03862  1.0000
  H   H5217     1.0  0.79779  0.61121  0.04344  1.0000
  H   H5218     1.0  0.76536  0.50245  0.99878  1.0000
  H   H5219     1.0  0.83205  0.50646  0.15212  1.0000
  C   C2942     1.0  0.71838  0.55239  0.16027  1.0000
  H   H5220     1.0  0.80352  0.49977  0.15323  1.0000
  H   H5221     1.0  0.77039  0.56510  0.18448  1.0000
  S   S658      1.0  0.80341  0.59782  0.01039  1.0000
  H   H5222     1.0  0.79149  0.50644  0.12083  1.0000
  Fe  Fe330     1.0  0.95180  0.55463  0.21568  1.0000
  C   C2943     1.0  0.80915  0.50417  0.18600  1.0000
  H   H5223     1.0  0.76618  0.50240  0.05672  1.0000
  H   H5224     1.0  0.91175  0.59225  0.00266  1.0000
  C   C2944     1.0  0.80781  0.55585  0.21143  1.0000
  H   H5225     1.0  0.74174  0.56811  0.17368  1.0000
  N   N164      1.0  0.79862  0.60824  0.21310  1.0000
  C   C2945     1.0  0.80456  0.61576  0.19284  1.0000
  C   C2946     1.0  0.74822  0.54114  0.14237  1.0000
  H   H5226     1.0  0.81796  0.58322  0.22141  1.0000
  H   H5227     1.0  0.74801  0.52527  0.10358  1.0000
  C   C2947     1.0  0.80452  0.57651  0.20355  1.0000
  C   C2948     1.0  0.82557  0.61358  0.18551  1.0000
  H   H5228     1.0  0.84189  0.52742  0.00527  1.0000
  C   C2949     1.0  0.90900  0.50103  0.13317  1.0000
  H   H5229     1.0  0.80944  0.54836  0.20032  1.0000
  H   H5230     1.0  0.80544  0.63178  0.21865  1.0000
  C   C2950     1.0  0.83026  0.61726  0.16453  1.0000
  H   H5231     1.0  0.77264  0.50852  0.01599  1.0000
  H   H5232     1.0  0.79849  0.63073  0.18949  1.0000
  H   H5233     1.0  0.79920  0.60946  0.18434  1.0000
  C   C2951     1.0  0.80400  0.58750  0.21817  1.0000
  H   H5234     1.0  0.72704  0.57691  0.13121  1.0000
  H   H5235     1.0  0.81712  0.51464  0.17762  1.0000
  H   H5236     1.0  0.92439  0.50453  0.15103  1.0000
  C   C2952     1.0  0.86224  0.51173  0.18133  1.0000
  C   C2953     1.0  0.80374  0.50968  0.11128  1.0000
  H   H5237     1.0  0.81588  0.57891  0.19161  1.0000
  H   H5238     1.0  0.70745  0.66059  0.20463  1.0000
  H   H5239     1.0  0.83079  0.62365  0.18991  1.0000
  H   H5240     1.0  0.83303  0.59959  0.19079  1.0000
  C   C2954     1.0  0.92970  0.49251  0.20920  1.0000
  H   H5241     1.0  0.84852  0.50623  0.22455  1.0000
  H   H5242     1.0  0.77014  0.61218  0.19391  1.0000
  C   C2955     1.0  0.89730  0.59664  0.02948  1.0000
  C   C2956     1.0  0.74601  0.61947  0.21371  1.0000
  H   H5243     1.0  0.71138  0.55382  0.14886  1.0000
  C   C2957     1.0  0.68032  0.49802  0.21941  1.0000
  C   C2958     1.0  0.94080  0.51528  0.21785  1.0000
  C   C2959     1.0  0.88296  0.60570  0.00146  1.0000
  C   C2960     1.0  0.68139  0.64056  0.14472  1.0000
  H   H5244     1.0  0.82613  0.60697  0.15938  1.0000
  H   H5245     1.0  0.82320  0.63126  0.15869  1.0000
  H   H5246     1.0  0.84527  0.61621  0.15965  1.0000
  H   H5247     1.0  0.84830  0.52047  0.07749  1.0000
  H   H5248     1.0  0.76391  0.60337  0.10952  1.0000
  H   H5249     1.0  0.68819  0.54579  0.18917  1.0000
  N   N165      1.0  0.79622  0.54370  0.04558  1.0000
  C   C2961     1.0  0.78051  0.55832  0.03952  1.0000
  C   C2962     1.0  0.80178  0.54868  0.06091  1.0000
  C   C2963     1.0  0.81229  0.54354  0.02938  1.0000
  C   C2964     1.0  0.79186  0.52473  0.05108  1.0000
  C   C2965     1.0  0.77540  0.52172  0.06705  1.0000
  C   C2966     1.0  0.77305  0.55555  0.02376  1.0000
  C   C2967     1.0  0.83099  0.53167  0.03341  1.0000
  C   C2968     1.0  0.78638  0.55599  0.07656  1.0000
  C   C2969     1.0  0.91164  0.50189  0.21420  1.0000
  C   C2970     1.0  0.84595  0.53201  0.01598  1.0000
  H   H5250     1.0  0.78472  0.57185  0.03512  1.0000
  H   H5251     1.0  0.76854  0.56005  0.05094  1.0000
  H   H5252     1.0  0.81059  0.53647  0.06774  1.0000
  H   H5253     1.0  0.81073  0.55902  0.05526  1.0000
  H   H5254     1.0  0.81443  0.55777  0.02313  1.0000
  H   H5255     1.0  0.80953  0.53833  0.01831  1.0000
  H   H5256     1.0  0.78973  0.52067  0.03902  1.0000
  H   H5257     1.0  0.80369  0.51433  0.05554  1.0000
  H   H5258     1.0  0.76298  0.53243  0.06502  1.0000
  C   C2971     1.0  0.74586  0.55473  0.16918  1.0000
  H   H5259     1.0  0.76697  0.54312  0.02812  1.0000
  H   H5260     1.0  0.83003  0.51713  0.03882  1.0000
  H   H5261     1.0  0.83570  0.53661  0.04345  1.0000
  H   H5262     1.0  0.77341  0.55147  0.07868  1.0000
  H   H5263     1.0  0.79443  0.58162  0.07443  1.0000
  C   C2972     1.0  0.77748  0.50552  0.00191  1.0000
  H   H5264     1.0  0.66868  0.63823  0.20915  1.0000
  H   H5265     1.0  0.78396  0.55420  0.01139  1.0000
  H   H5266     1.0  0.84878  0.54601  0.01054  1.0000
  H   H5267     1.0  0.85878  0.52256  0.01921  1.0000
  N   N166      1.0  0.90431  0.52992  0.14709  1.0000
  C   C2973     1.0  0.89383  0.54228  0.13288  1.0000
  C   C2974     1.0  0.89113  0.52375  0.16460  1.0000
  C   C2975     1.0  0.91566  0.54111  0.15142  1.0000
  C   C2976     1.0  0.80492  0.50651  0.20596  1.0000
  H   H5268     1.0  0.74890  0.52745  0.15184  1.0000
  C   C2977     1.0  0.90547  0.55069  0.11451  1.0000
  C   C2978     1.0  0.92443  0.53252  0.16859  1.0000
  C   C2979     1.0  0.87289  0.51999  0.16270  1.0000
  H   H5269     1.0  0.90578  0.56861  0.98818  1.0000
  C   C2980     1.0  0.68667  0.55954  0.17989  1.0000
  C   C2981     1.0  0.89326  0.56216  0.10108  1.0000
  C   C2982     1.0  0.93750  0.54389  0.16992  1.0000
  H   H5270     1.0  0.88431  0.55392  0.13872  1.0000
  H   H5271     1.0  0.88483  0.53509  0.12933  1.0000
  H   H5272     1.0  0.89813  0.51128  0.17317  1.0000
  H   H5273     1.0  0.88666  0.53454  0.17311  1.0000
  H   H5274     1.0  0.90720  0.55480  0.15356  1.0000
  H   H5275     1.0  0.92706  0.54403  0.13959  1.0000
  H   H5276     1.0  0.73713  0.61455  0.20751  1.0000
  H   H5277     1.0  0.69102  0.62911  0.15159  1.0000
  H   H5278     1.0  0.73900  0.55356  0.11617  1.0000
  H   H5279     1.0  0.69181  0.65225  0.18496  1.0000
  H   H5280     1.0  0.91323  0.55999  0.11677  1.0000
  H   H5281     1.0  0.91522  0.53977  0.10783  1.0000
  C   C2983     1.0  0.70524  0.56526  0.17280  1.0000
  H   H5282     1.0  0.91370  0.53217  0.18136  1.0000
  H   H5283     1.0  0.86399  0.53303  0.15730  1.0000
  H   H5284     1.0  0.86904  0.58164  0.99476  1.0000
  S   S659      1.0  0.73308  0.56766  0.21338  1.0000
  C   C2984     1.0  0.76581  0.60908  0.20904  1.0000
  C   C2985     1.0  0.88950  0.55107  0.98559  1.0000
  H   H5285     1.0  0.71093  0.56476  0.18482  1.0000
  H   H5286     1.0  0.78263  0.49180  0.07145  1.0000
  H   H5287     1.0  0.94319  0.53785  0.18251  1.0000
  H   H5288     1.0  0.90180  0.56841  0.08819  1.0000
  H   H5289     1.0  0.66965  0.78507  0.02147  1.0000
  H   H5290     1.0  0.88326  0.57343  0.10709  1.0000
  H   H5291     1.0  0.94902  0.54420  0.15781  1.0000
  H   H5292     1.0  0.93019  0.55816  0.17078  1.0000
  H   H5293     1.0  0.75930  0.50092  0.08120  1.0000
  C   C2986     1.0  0.66490  0.65321  0.20344  1.0000
  C   C2987     1.0  0.81784  0.59430  0.02615  1.0000
  H   H5294     1.0  0.68935  0.64743  0.13177  1.0000
  H   H5295     1.0  0.68255  0.66053  0.15929  1.0000
  C   C2988     1.0  0.66074  0.64528  0.17549  1.0000
  H   H5296     1.0  0.90762  0.58629  0.03649  1.0000
  H   H5297     1.0  0.77114  0.58107  0.08568  1.0000
  H   H5298     1.0  0.66263  0.66557  0.14949  1.0000
  H   H5299     1.0  0.79591  0.50723  0.18152  1.0000
  H   H5300     1.0  0.77915  0.52159  0.08008  1.0000
  Fe  Fe331     1.0  0.93480  0.58994  0.22932  1.0000
  H   H5301     1.0  0.69706  0.64127  0.21680  1.0000
  H   H5302     1.0  0.76393  0.58486  0.01347  1.0000
  H   H5303     1.0  0.84486  0.60510  0.98335  1.0000
  H   H5304     1.0  0.76265  0.54256  0.13700  1.0000
  H   H5305     1.0  0.92858  0.51832  0.12891  1.0000
  C   C2989     1.0  0.67192  0.65444  0.15712  1.0000
  C   C2990     1.0  0.80766  0.61655  0.22346  1.0000
  C   C2991     1.0  0.75379  0.52604  0.11514  1.0000
  H   H5306     1.0  0.86061  0.52031  0.19155  1.0000
  C   C2992     1.0  0.70895  0.50783  0.21521  1.0000
  C   C2993     1.0  0.92278  0.52467  0.22271  1.0000
  S   S660      1.0  0.95903  0.52383  0.21981  1.0000
  H   H5307     1.0  0.76579  0.59418  0.21385  1.0000
  H   H5308     1.0  0.88309  0.54847  0.00044  1.0000
  C   C2994     1.0  0.89779  0.59203  0.01111  1.0000
  H   H5309     1.0  0.74500  0.63443  0.20812  1.0000
  H   H5310     1.0  0.79168  0.58042  0.19832  1.0000
  C   C2995     1.0  0.94429  0.49915  0.21114  1.0000
  H   H5311     1.0  0.75585  0.51217  0.12414  1.0000
  H   H5312     1.0  0.80577  0.48926  0.09581  1.0000
  H   H5313     1.0  0.92000  0.53685  0.22829  1.0000
  H   H5314     1.0  0.82056  0.55128  0.21699  1.0000
  C   C2996     1.0  0.77817  0.61471  0.21878  1.0000
  H   H5315     1.0  0.81782  0.50483  0.21070  1.0000
  H   H5316     1.0  0.77480  0.63000  0.21692  1.0000
  H   H5317     1.0  0.87503  0.51060  0.15327  1.0000
  C   C2997     1.0  0.69416  0.65619  0.21065  1.0000
  H   H5318     1.0  0.89427  0.52534  0.22467  1.0000
  H   H5319     1.0  0.75560  0.53969  0.00101  1.0000
  C   C2998     1.0  0.68979  0.51142  0.21958  1.0000
  C   C2999     1.0  0.86166  0.49856  0.12414  1.0000
  H   H5320     1.0  0.79600  0.55236  0.22248  1.0000
  S   S661      1.0  0.89334  0.49355  0.21221  1.0000
  H   H5321     1.0  0.68228  0.52455  0.22285  1.0000
  H   H5322     1.0  0.93217  0.49477  0.11090  1.0000
  H   H5323     1.0  0.66550  0.50089  0.22256  1.0000
  H   H5324     1.0  0.82031  0.63237  0.98348  1.0000
  C   C3000     1.0  0.80758  0.49225  0.00982  1.0000
  H   H5325     1.0  0.83553  0.49286  0.12557  1.0000
  H   H5326     1.0  0.86620  0.49677  0.10965  1.0000
  H   H5327     1.0  0.86950  0.49754  0.18632  1.0000
  H   H5328     1.0  0.79472  0.58218  0.23107  1.0000
  C   C3001     1.0  0.98728  0.51301  0.17011  1.0000
  H   H5329     1.0  0.98902  0.53176  0.18568  1.0000
  H   H5330     1.0  0.73335  0.48785  0.20770  1.0000
  H   H5331     1.0  0.84417  0.49246  0.00944  1.0000
  H   H5332     1.0  0.90103  0.49277  0.14502  1.0000
  C   C3002     1.0  0.83832  0.49155  0.15370  1.0000
  H   H5333     1.0  0.87355  0.49289  0.13096  1.0000
  N   N167      1.0  0.79308  0.48904  0.00167  1.0000
  H   H5334     1.0  0.85014  0.48925  0.16046  1.0000
  S   S662      1.0  0.83969  0.48976  0.06907  1.0000
  C   C3003     1.0  0.84814  0.61778  0.98493  1.0000
  H   H5335     1.0  0.97811  0.48657  0.22926  1.0000
  H   H5336     1.0  0.90155  0.53978  0.98306  1.0000
  H   H5337     1.0  0.98951  0.63843  0.22615  1.0000
  N   N168      1.0  0.88314  0.60414  0.98221  1.0000
  C   C3004     1.0  0.87911  0.58588  0.98213  1.0000
  Fe  Fe332     1.0  0.94954  0.78259  0.45381  1.0000
  S   S663      1.0  0.93670  0.81257  0.44850  1.0000
  Fe  Fe333     1.0  0.91219  0.77119  0.46672  1.0000
  S   S664      1.0  0.89650  0.80044  0.46369  1.0000
  C   C3005     1.0  0.97762  0.50061  0.25862  1.0000
  Fe  Fe334     1.0  0.91657  0.80444  0.43702  1.0000
  S   S665      1.0  0.90722  0.81964  0.41085  1.0000
  H   H5338     1.0  0.86043  0.49125  0.27092  1.0000
  H   H5339     1.0  0.76485  0.88247  0.39285  1.0000
  S   S666      1.0  0.93137  0.77485  0.43937  1.0000
  H   H5340     1.0  0.67394  0.50652  0.28956  1.0000
  Fe  Fe335     1.0  0.81764  0.89401  0.43346  1.0000
  S   S667      1.0  0.79217  0.91434  0.42703  1.0000
  S   S668      1.0  0.84096  0.88817  0.40989  1.0000
  H   H5341     1.0  0.82804  0.61201  0.25027  1.0000
  H   H5342     1.0  0.76698  0.50802  0.28841  1.0000
  N   N169      1.0  0.72976  0.54677  0.31690  1.0000
  Fe  Fe336     1.0  0.77739  0.89448  0.44863  1.0000
  S   S669      1.0  0.75004  0.88873  0.44881  1.0000
  Fe  Fe337     1.0  0.79400  0.92649  0.45009  1.0000
  S   S670      1.0  0.80265  0.87312  0.45328  1.0000
  S   S671      1.0  0.82066  0.90781  0.45474  1.0000
  H   H5343     1.0  0.67157  0.50488  0.26739  1.0000
  S   S672      1.0  0.70866  0.55408  0.25370  1.0000
  S   S673      1.0  0.75594  0.56544  0.25105  1.0000
  H   H5344     1.0  0.75963  0.54393  0.33432  1.0000
  Fe  Fe338     1.0  0.83347  0.57328  0.32097  1.0000
  S   S674      1.0  0.82166  0.60350  0.31494  1.0000
  S   S675      1.0  0.85977  0.55767  0.30620  1.0000
  Fe  Fe339     1.0  0.80133  0.56538  0.35144  1.0000
  S   S676      1.0  0.78705  0.59524  0.34847  1.0000
  S   S677      1.0  0.78845  0.54292  0.37171  1.0000
  Fe  Fe340     1.0  0.79495  0.59524  0.31823  1.0000
  S   S678      1.0  0.77430  0.61032  0.30032  1.0000
  Fe  Fe341     1.0  0.81482  0.60135  0.34574  1.0000
  S   S679      1.0  0.82076  0.62588  0.35367  1.0000
  S   S680      1.0  0.80738  0.56513  0.32152  1.0000
  S   S681      1.0  0.82849  0.57134  0.35147  1.0000
  Fe  Fe342     1.0  0.85419  0.69528  0.43566  1.0000
  S   S682      1.0  0.83050  0.71362  0.45001  1.0000
  S   S683      1.0  0.88112  0.70482  0.42641  1.0000
  Fe  Fe343     1.0  0.83084  0.66829  0.43585  1.0000
  S   S684      1.0  0.80538  0.68467  0.45105  1.0000
  S   S685      1.0  0.82875  0.64165  0.42890  1.0000
  Fe  Fe344     1.0  0.81468  0.70910  0.43152  1.0000
  S   S686      1.0  0.79806  0.73448  0.41709  1.0000
  H   H5345     1.0  0.77336  0.60930  0.23364  1.0000
  C   C3006     1.0  0.71329  0.50319  0.34936  1.0000
  S   S687      1.0  0.83896  0.69285  0.41526  1.0000
  S   S688      1.0  0.84837  0.66914  0.45518  1.0000
  Fe  Fe345     1.0  0.71689  0.81409  0.42575  1.0000
  S   S689      1.0  0.71598  0.78997  0.44905  1.0000
  S   S690      1.0  0.74343  0.82422  0.41572  1.0000
  Fe  Fe346     1.0  0.67837  0.81575  0.42127  1.0000
  S   S691      1.0  0.67419  0.79176  0.44464  1.0000
  H   H5346     1.0  0.79087  0.78012  0.44150  1.0000
  Fe  Fe347     1.0  0.68772  0.80470  0.45942  1.0000
  H   H5347     1.0  0.70137  0.51476  0.25272  1.0000
  Fe  Fe348     1.0  0.70285  0.77901  0.43241  1.0000
  S   S692      1.0  0.71180  0.74894  0.43140  1.0000
  S   S693      1.0  0.68933  0.82995  0.43721  1.0000
  S   S694      1.0  0.70614  0.80195  0.40788  1.0000
  C   C3007     1.0  0.77417  0.73765  0.42136  1.0000
  C   C3008     1.0  0.76425  0.75495  0.41465  1.0000
  C   C3009     1.0  0.74515  0.75828  0.41779  1.0000
  C   C3010     1.0  0.73582  0.74420  0.42722  1.0000
  C   C3011     1.0  0.74570  0.72671  0.43379  1.0000
  C   C3012     1.0  0.76493  0.72349  0.43103  1.0000
  H   H5348     1.0  0.77136  0.76592  0.40712  1.0000
  H   H5349     1.0  0.73767  0.77180  0.41271  1.0000
  H   H5350     1.0  0.73848  0.71584  0.44128  1.0000
  H   H5351     1.0  0.77257  0.71013  0.43629  1.0000
  H   H5352     1.0  0.74506  0.58379  0.34002  1.0000
  H   H5353     1.0  0.72506  0.57235  0.32633  1.0000
  H   H5354     1.0  0.68650  0.87107  0.41063  1.0000
  H   H5355     1.0  0.83697  0.50160  0.27531  1.0000
  H   H5356     1.0  0.90724  0.87880  0.45151  1.0000
  C   C3013     1.0  0.82352  0.62953  0.37471  1.0000
  C   C3014     1.0  0.82951  0.64545  0.37455  1.0000
  C   C3015     1.0  0.83141  0.64928  0.39091  1.0000
  C   C3016     1.0  0.82724  0.63726  0.40771  1.0000
  C   C3017     1.0  0.82160  0.62118  0.40780  1.0000
  C   C3018     1.0  0.81972  0.61733  0.39142  1.0000
  H   H5357     1.0  0.83265  0.65492  0.36167  1.0000
  H   H5358     1.0  0.83620  0.66146  0.39055  1.0000
  H   H5359     1.0  0.81850  0.61169  0.42068  1.0000
  H   H5360     1.0  0.81518  0.60499  0.39179  1.0000
  C   C3019     1.0  0.76048  0.57826  0.26473  1.0000
  C   C3020     1.0  0.74910  0.59498  0.26794  1.0000
  C   C3021     1.0  0.75345  0.60482  0.27885  1.0000
  C   C3022     1.0  0.76891  0.59776  0.28689  1.0000
  C   C3023     1.0  0.78002  0.58091  0.28386  1.0000
  C   C3024     1.0  0.77595  0.57130  0.27265  1.0000
  H   H5361     1.0  0.73707  0.60038  0.26194  1.0000
  H   H5362     1.0  0.74478  0.61787  0.28118  1.0000
  H   H5363     1.0  0.79195  0.57543  0.28990  1.0000
  H   H5364     1.0  0.78479  0.55837  0.27020  1.0000
  C   C3025     1.0  0.67769  0.51188  0.27460  1.0000
  H   H5365     1.0  0.87327  0.84990  0.45761  1.0000
  H   H5366     1.0  0.67181  0.53831  0.25590  1.0000
  C   C3026     1.0  0.90806  0.50855  0.27132  1.0000
  H   H5367     1.0  0.90986  0.52085  0.26031  1.0000
  H   H5368     1.0  0.76612  0.48879  0.24800  1.0000
  H   H5369     1.0  0.72372  0.85037  0.39026  1.0000
  H   H5370     1.0  0.76982  0.53850  0.30621  1.0000
  C   C3027     1.0  0.79900  0.97208  0.44984  1.0000
  C   C3028     1.0  0.72878  0.48923  0.26002  1.0000
  S   S695      1.0  0.77706  0.90815  0.47125  1.0000
  H   H5371     1.0  0.76113  0.51785  0.31774  1.0000
  C   C3029     1.0  0.96419  0.85199  0.47610  1.0000
  H   H5372     1.0  0.89335  0.55952  0.34764  1.0000
  H   H5373     1.0  0.67106  0.74369  0.42393  1.0000
  H   H5374     1.0  0.89726  0.77360  0.38358  1.0000
  H   H5375     1.0  0.68453  0.75714  0.38250  1.0000
  Fe  Fe349     1.0  0.91790  0.80571  0.47553  1.0000
  C   C3030     1.0  0.76727  0.51816  0.37546  1.0000
  C   C3031     1.0  0.78171  0.52615  0.36415  1.0000
  C   C3032     1.0  0.79055  0.52026  0.34761  1.0000
  H   H5376     1.0  0.73300  0.87448  0.40622  1.0000
  H   H5377     1.0  0.85671  0.91309  0.42571  1.0000
  H   H5378     1.0  0.76038  0.52258  0.38823  1.0000
  C   C3033     1.0  0.95700  0.84494  0.46295  1.0000
  H   H5379     1.0  0.67160  0.87866  0.44151  1.0000
  C   C3034     1.0  0.74976  0.86881  0.44172  1.0000
  C   C3035     1.0  0.76440  0.86113  0.42910  1.0000
  C   C3036     1.0  0.76268  0.84682  0.42170  1.0000
  C   C3037     1.0  0.74654  0.83987  0.42729  1.0000
  C   C3038     1.0  0.73252  0.84660  0.44099  1.0000
  C   C3039     1.0  0.73399  0.86127  0.44794  1.0000
  H   H5380     1.0  0.77664  0.86685  0.42433  1.0000
  H   H5381     1.0  0.77363  0.84155  0.41119  1.0000
  H   H5382     1.0  0.72025  0.84097  0.44572  1.0000
  H   H5383     1.0  0.72272  0.86704  0.45787  1.0000
  C   C3040     1.0  0.81722  0.96571  0.45186  1.0000
  H   H5384     1.0  0.72329  0.86496  0.36861  1.0000
  C   C3041     1.0  0.75604  0.57150  0.33789  1.0000
  C   C3042     1.0  0.89311  0.73552  0.46459  1.0000
  H   H5385     1.0  0.85685  0.78527  0.47708  1.0000
  C   C3043     1.0  0.87500  0.71646  0.45902  1.0000
  C   C3044     1.0  0.88594  0.71606  0.44148  1.0000
  C   C3045     1.0  0.90077  0.72504  0.43572  1.0000
  C   C3046     1.0  0.90431  0.73482  0.44721  1.0000
  H   H5386     1.0  0.68290  0.89026  0.45168  1.0000
  H   H5387     1.0  0.86380  0.70927  0.46374  1.0000
  H   H5388     1.0  0.90942  0.72459  0.42225  1.0000
  H   H5389     1.0  0.91569  0.74179  0.44261  1.0000
  C   C3047     1.0  0.88795  0.83783  0.41134  1.0000
  C   C3048     1.0  0.87341  0.83868  0.42664  1.0000
  C   C3049     1.0  0.85859  0.85395  0.42644  1.0000
  C   C3050     1.0  0.85841  0.86826  0.41093  1.0000
  C   C3051     1.0  0.87269  0.86702  0.39558  1.0000
  C   C3052     1.0  0.88730  0.85185  0.39574  1.0000
  H   H5390     1.0  0.87364  0.82767  0.43858  1.0000
  H   H5391     1.0  0.84740  0.85477  0.43820  1.0000
  H   H5392     1.0  0.87255  0.87795  0.38352  1.0000
  H   H5393     1.0  0.89835  0.85120  0.38381  1.0000
  N   N170      1.0  0.70973  0.48958  0.27173  1.0000
  C   C3053     1.0  0.68520  0.74727  0.39577  1.0000
  C   C3054     1.0  0.84828  0.74454  0.39883  1.0000
  H   H5394     1.0  0.82849  0.49454  0.30473  1.0000
  H   H5395     1.0  0.89608  0.54666  0.28573  1.0000
  C   C3055     1.0  0.87029  0.58972  0.28590  1.0000
  C   C3056     1.0  0.87501  0.57056  0.29035  1.0000
  H   H5396     1.0  0.85692  0.59680  0.29174  1.0000
  C   C3057     1.0  0.90361  0.85844  0.43840  1.0000
  C   C3058     1.0  0.84815  0.49980  0.23926  1.0000
  H   H5397     1.0  0.91965  0.49710  0.26822  1.0000
  H   H5398     1.0  0.87286  0.55385  0.34527  1.0000
  H   H5399     1.0  0.88243  0.84230  0.47776  1.0000
  C   C3059     1.0  0.66953  0.75376  0.41097  1.0000
  C   C3060     1.0  0.93574  0.70939  0.48001  1.0000
  C   C3061     1.0  0.68516  0.88027  0.44269  1.0000
  H   H5400     1.0  0.72337  0.75126  0.46266  1.0000
  C   C3062     1.0  0.90033  0.59073  0.26607  1.0000
  C   C3063     1.0  0.69823  0.74850  0.48176  1.0000
  C   C3064     1.0  0.82921  0.56737  0.26559  1.0000
  Fe  Fe350     1.0  0.72909  0.57236  0.24172  1.0000
  C   C3065     1.0  0.69625  0.88725  0.42376  1.0000
  H   H5401     1.0  0.77287  0.72883  0.47996  1.0000
  C   C3066     1.0  0.77602  0.78020  0.44660  1.0000
  C   C3067     1.0  0.71230  0.57290  0.29476  1.0000
  C   C3068     1.0  0.85338  0.50571  0.30052  1.0000
  H   H5402     1.0  0.72639  0.89737  0.39475  1.0000
  C   C3069     1.0  0.69885  0.50906  0.26778  1.0000
  H   H5403     1.0  0.81020  0.72323  0.38156  1.0000
  C   C3070     1.0  0.71963  0.51542  0.33092  1.0000
  H   H5404     1.0  0.97860  0.52608  0.26530  1.0000
  H   H5405     1.0  0.80174  0.52632  0.33884  1.0000
  H   H5406     1.0  0.84160  0.97314  0.45433  1.0000
  C   C3071     1.0  0.81348  0.61898  0.25387  1.0000
  C   C3072     1.0  0.77333  0.51915  0.28926  1.0000
  H   H5407     1.0  0.88852  0.49165  0.28458  1.0000
  C   C3073     1.0  0.88301  0.59980  0.27394  1.0000
  H   H5408     1.0  0.77345  0.88385  0.36856  1.0000
  C   C3074     1.0  0.88987  0.50320  0.27270  1.0000
  H   H5409     1.0  0.70338  0.51816  0.27413  1.0000
  C   C3075     1.0  0.75756  0.50267  0.24889  1.0000
  H   H5410     1.0  0.83322  0.57895  0.25457  1.0000
  S   S696      1.0  0.89653  0.74838  0.47900  1.0000
  C   C3076     1.0  0.71186  0.55574  0.31070  1.0000
  Fe  Fe351     1.0  0.68764  0.57984  0.24664  1.0000
  H   H5411     1.0  0.81740  0.56358  0.26274  1.0000
  N   N171      1.0  0.71095  0.87858  0.39180  1.0000
  C   C3077     1.0  0.71500  0.86227  0.38272  1.0000
  H   H5412     1.0  0.73127  0.50691  0.32287  1.0000
  C   C3078     1.0  0.69951  0.89532  0.38192  1.0000
  C   C3079     1.0  0.70700  0.90170  0.36119  1.0000
  C   C3080     1.0  0.69812  0.85545  0.38147  1.0000
  H   H5413     1.0  0.75682  0.90277  0.37675  1.0000
  C   C3081     1.0  0.69325  0.91760  0.35261  1.0000
  C   C3082     1.0  0.70368  0.84141  0.36903  1.0000
  C   C3083     1.0  0.77061  0.49824  0.35420  1.0000
  S   S697      1.0  0.97994  0.77210  0.45326  1.0000
  H   H5414     1.0  0.68533  0.89327  0.38369  1.0000
  H   H5415     1.0  0.69779  0.90734  0.38823  1.0000
  H   H5416     1.0  0.70970  0.89053  0.35352  1.0000
  H   H5417     1.0  0.71972  0.90681  0.35919  1.0000
  H   H5418     1.0  0.69166  0.84858  0.39527  1.0000
  H   H5419     1.0  0.68770  0.86687  0.37586  1.0000
  H   H5420     1.0  0.76970  0.68052  0.42980  1.0000
  S   S698      1.0  0.65922  0.58727  0.26361  1.0000
  C   C3084     1.0  0.98236  0.51106  0.27068  1.0000
  H   H5421     1.0  0.70070  0.51067  0.35729  1.0000
  H   H5422     1.0  0.69024  0.92947  0.35948  1.0000
  H   H5423     1.0  0.69164  0.83563  0.36966  1.0000
  H   H5424     1.0  0.70856  0.84802  0.35457  1.0000
  H   H5425     1.0  0.80888  0.61557  0.26905  1.0000
  N   N172      1.0  0.77880  0.68324  0.39068  1.0000
  C   C3085     1.0  0.78141  0.67673  0.37301  1.0000
  C   C3086     1.0  0.79452  0.69203  0.39007  1.0000
  C   C3087     1.0  0.77888  0.66647  0.40609  1.0000
  C   C3088     1.0  0.76064  0.69629  0.39470  1.0000
  C   C3089     1.0  0.76716  0.66607  0.37211  1.0000
  C   C3090     1.0  0.78040  0.66910  0.42500  1.0000
  C   C3091     1.0  0.80325  0.70257  0.37107  1.0000
  C   C3092     1.0  0.77095  0.66106  0.35327  1.0000
  Fe  Fe352     1.0  0.80353  0.88850  0.47420  1.0000
  H   H5426     1.0  0.79514  0.66753  0.37037  1.0000
  H   H5427     1.0  0.78151  0.68831  0.36101  1.0000
  H   H5428     1.0  0.79037  0.70141  0.40006  1.0000
  H   H5429     1.0  0.80617  0.68139  0.39461  1.0000
  H   H5430     1.0  0.79049  0.65514  0.40220  1.0000
  H   H5431     1.0  0.76619  0.66107  0.40855  1.0000
  H   H5432     1.0  0.74909  0.68930  0.39679  1.0000
  H   H5433     1.0  0.75892  0.70052  0.40793  1.0000
  H   H5434     1.0  0.76037  0.71218  0.36633  1.0000
  H   H5435     1.0  0.76782  0.65297  0.38240  1.0000
  H   H5436     1.0  0.75306  0.67443  0.37449  1.0000
  H   H5437     1.0  0.84030  0.52558  0.24750  1.0000
  H   H5438     1.0  0.79398  0.67198  0.42419  1.0000
  H   H5439     1.0  0.81082  0.69270  0.36199  1.0000
  H   H5440     1.0  0.82828  0.70311  0.37897  1.0000
  H   H5441     1.0  0.86088  0.73384  0.39620  1.0000
  H   H5442     1.0  0.78487  0.65237  0.35031  1.0000
  H   H5443     1.0  0.76082  0.65314  0.35304  1.0000
  H   H5444     1.0  0.76984  0.67364  0.34229  1.0000
  H   H5445     1.0  0.68028  0.91319  0.35375  1.0000
  H   H5446     1.0  0.78742  0.51302  0.29166  1.0000
  H   H5447     1.0  0.68463  0.73346  0.39420  1.0000
  N   N173      1.0  0.87942  0.61606  0.32682  1.0000
  C   C3093     1.0  0.89478  0.62619  0.31741  1.0000
  C   C3094     1.0  0.87240  0.61966  0.34608  1.0000
  C   C3095     1.0  0.88676  0.59585  0.32694  1.0000
  C   C3096     1.0  0.86372  0.62258  0.31686  1.0000
  C   C3097     1.0  0.85576  0.64358  0.31351  1.0000
  C   C3098     1.0  0.90200  0.62616  0.29658  1.0000
  C   C3099     1.0  0.88557  0.61106  0.35964  1.0000
  C   C3100     1.0  0.87682  0.61598  0.37848  1.0000
  C   C3101     1.0  0.84026  0.64847  0.30295  1.0000
  C   C3102     1.0  0.91729  0.63700  0.28851  1.0000
  H   H5448     1.0  0.90680  0.62014  0.32406  1.0000
  H   H5449     1.0  0.89070  0.64072  0.31919  1.0000
  H   H5450     1.0  0.85931  0.61491  0.35241  1.0000
  H   H5451     1.0  0.89953  0.59097  0.33253  1.0000
  H   H5452     1.0  0.89093  0.59335  0.31267  1.0000
  H   H5453     1.0  0.86769  0.61827  0.30343  1.0000
  H   H5454     1.0  0.85211  0.61582  0.32463  1.0000
  H   H5455     1.0  0.86635  0.65148  0.30534  1.0000
  H   H5456     1.0  0.85000  0.64827  0.32672  1.0000
  H   H5457     1.0  0.90775  0.61198  0.29415  1.0000
  H   H5458     1.0  0.89103  0.63251  0.28863  1.0000
  H   H5459     1.0  0.88885  0.59584  0.36170  1.0000
  H   H5460     1.0  0.89854  0.61617  0.35456  1.0000
  H   H5461     1.0  0.88641  0.60971  0.38803  1.0000
  H   H5462     1.0  0.86396  0.61070  0.38440  1.0000
  H   H5463     1.0  0.82869  0.64185  0.31115  1.0000
  H   H5464     1.0  0.83513  0.66358  0.30027  1.0000
  H   H5465     1.0  0.84518  0.64394  0.28958  1.0000
  H   H5466     1.0  0.92223  0.63657  0.27367  1.0000
  H   H5467     1.0  0.91218  0.65159  0.28985  1.0000
  H   H5468     1.0  0.92903  0.63086  0.29552  1.0000
  N   N174      1.0  0.86950  0.77762  0.41535  1.0000
  C   C3103     1.0  0.86203  0.77158  0.43559  1.0000
  C   C3104     1.0  0.86688  0.76472  0.40460  1.0000
  C   C3105     1.0  0.88986  0.77630  0.41281  1.0000
  C   C3106     1.0  0.86113  0.79733  0.40803  1.0000
  C   C3107     1.0  0.83996  0.80274  0.41215  1.0000
  C   C3108     1.0  0.86504  0.78257  0.44854  1.0000
  C   C3109     1.0  0.84999  0.75546  0.41219  1.0000
  C   C3110     1.0  0.83350  0.82334  0.40521  1.0000
  H   H5469     1.0  0.76304  0.83105  0.46612  1.0000
  H   H5470     1.0  0.86837  0.75692  0.44026  1.0000
  H   H5471     1.0  0.84714  0.77189  0.43831  1.0000
  H   H5472     1.0  0.86649  0.77180  0.39011  1.0000
  H   H5473     1.0  0.89269  0.78567  0.42020  1.0000
  H   H5474     1.0  0.86643  0.80693  0.41311  1.0000
  H   H5475     1.0  0.86560  0.80078  0.39283  1.0000
  H   H5476     1.0  0.83415  0.79982  0.42709  1.0000
  H   H5477     1.0  0.83423  0.79533  0.40503  1.0000
  H   H5478     1.0  0.87963  0.77881  0.44971  1.0000
  H   H5479     1.0  0.86136  0.79761  0.44348  1.0000
  H   H5480     1.0  0.89669  0.79606  0.38712  1.0000
  H   H5481     1.0  0.85156  0.74554  0.42531  1.0000
  H   H5482     1.0  0.83703  0.76559  0.41477  1.0000
  H   H5483     1.0  0.83657  0.73751  0.40489  1.0000
  H   H5484     1.0  0.83854  0.83152  0.41221  1.0000
  H   H5485     1.0  0.83853  0.82717  0.39014  1.0000
  H   H5486     1.0  0.81828  0.82692  0.40814  1.0000
  H   H5487     1.0  0.78060  0.65359  0.45283  1.0000
  H   H5488     1.0  0.93524  0.72326  0.47100  1.0000
  H   H5489     1.0  0.76714  0.85796  0.47625  1.0000
  N   N175      1.0  0.85469  0.51636  0.28091  1.0000
  C   C3111     1.0  0.87384  0.52011  0.27425  1.0000
  C   C3112     1.0  0.84070  0.53428  0.28093  1.0000
  H   H5490     1.0  0.66638  0.78663  0.36715  1.0000
  C   C3113     1.0  0.83408  0.50254  0.31135  1.0000
  H   H5491     1.0  0.74551  0.54984  0.28916  1.0000
  N   N176      1.0  0.88115  0.87127  0.46573  1.0000
  C   C3114     1.0  0.87898  0.90158  0.44063  1.0000
  C   C3115     1.0  0.84544  0.55118  0.26585  1.0000
  C   C3116     1.0  0.85082  0.50480  0.26973  1.0000
  C   C3117     1.0  0.76111  0.88755  0.37916  1.0000
  H   H5492     1.0  0.73930  0.55152  0.35032  1.0000
  H   H5493     1.0  0.78647  0.82976  0.46694  1.0000
  H   H5494     1.0  0.87623  0.52814  0.28334  1.0000
  H   H5495     1.0  0.87561  0.52892  0.26031  1.0000
  H   H5496     1.0  0.82709  0.53225  0.28027  1.0000
  H   H5497     1.0  0.83844  0.53889  0.29412  1.0000
  H   H5498     1.0  0.72411  0.49878  0.35764  1.0000
  H   H5499     1.0  0.89262  0.86515  0.43055  1.0000
  H   H5500     1.0  0.68818  0.90068  0.41801  1.0000
  H   H5501     1.0  0.78716  0.62032  0.24888  1.0000
  C   C3118     1.0  0.85355  0.77805  0.46788  1.0000
  H   H5502     1.0  0.81684  0.74528  0.47100  1.0000
  H   H5503     1.0  0.86487  0.51696  0.24221  1.0000
  H   H5504     1.0  0.69905  0.92216  0.33781  1.0000
  H   H5505     1.0  0.79186  0.50170  0.32997  1.0000
  H   H5506     1.0  0.82421  0.51573  0.31250  1.0000
  C   C3119     1.0  0.74015  0.50145  0.26373  1.0000
  C   C3120     1.0  0.80136  0.61269  0.24471  1.0000
  H   H5507     1.0  0.94267  0.85224  0.46247  1.0000
  H   H5508     1.0  0.83456  0.49615  0.24547  1.0000
  Fe  Fe353     1.0  0.82355  0.68764  0.46844  1.0000
  H   H5509     1.0  0.75029  0.49863  0.37927  1.0000
  C   C3121     1.0  0.86502  0.91779  0.43283  1.0000
  C   C3122     1.0  0.90484  0.57151  0.26999  1.0000
  H   H5510     1.0  0.67342  0.54004  0.27848  1.0000
  H   H5511     1.0  0.92378  0.85348  0.41382  1.0000
  H   H5512     1.0  0.68675  0.57193  0.28804  1.0000
  H   H5513     1.0  0.73246  0.51572  0.26383  1.0000
  H   H5514     1.0  0.76449  0.64885  0.44211  1.0000
  H   H5515     1.0  0.95724  0.83000  0.46752  1.0000
  H   H5516     1.0  0.88992  0.55972  0.32513  1.0000
  S   S699      1.0  0.91645  0.60361  0.25213  1.0000
  H   H5517     1.0  0.93347  0.85382  0.43270  1.0000
  C   C3123     1.0  0.87343  0.85404  0.47035  1.0000
  H   H5518     1.0  0.92243  0.87510  0.41976  1.0000
  C   C3124     1.0  0.73673  0.56153  0.32145  1.0000
  C   C3125     1.0  0.72583  0.53204  0.33377  1.0000
  C   C3126     1.0  0.66081  0.62391  0.25524  1.0000
  H   H5519     1.0  0.90917  0.85645  0.46505  1.0000
  H   H5520     1.0  0.83871  0.78256  0.46769  1.0000
  H   H5521     1.0  0.82330  0.95124  0.45290  1.0000
  C   C3127     1.0  0.90079  0.86664  0.45568  1.0000
  H   H5522     1.0  0.90848  0.51168  0.28454  1.0000
  H   H5523     1.0  0.86317  0.88085  0.44604  1.0000
  C   C3128     1.0  0.72860  0.88282  0.39337  1.0000
  H   H5524     1.0  0.69853  0.74640  0.39930  1.0000
  C   C3129     1.0  0.77841  0.65172  0.43973  1.0000
  H   H5525     1.0  0.80179  0.59783  0.25023  1.0000
  H   H5526     1.0  0.98515  0.87674  0.47629  1.0000
  H   H5527     1.0  0.74429  0.49550  0.27718  1.0000
  C   C3130     1.0  0.69303  0.58188  0.29135  1.0000
  H   H5528     1.0  0.78878  0.63971  0.43558  1.0000
  H   H5529     1.0  0.74275  0.88420  0.36407  1.0000
  S   S700      1.0  0.78490  0.95709  0.44995  1.0000
  C   C3131     1.0  0.74813  0.55563  0.33672  1.0000
  C   C3132     1.0  0.70011  0.87330  0.41101  1.0000
  H   H5530     1.0  0.88821  0.89594  0.42881  1.0000
  H   H5531     1.0  0.96284  0.50559  0.25837  1.0000
  H   H5532     1.0  0.85680  0.55587  0.26860  1.0000
  C   C3133     1.0  0.74298  0.53881  0.30136  1.0000
  H   H5533     1.0  0.69287  0.76354  0.48066  1.0000
  H   H5534     1.0  0.73809  0.52587  0.33999  1.0000
  H   H5535     1.0  0.82523  0.57196  0.27892  1.0000
  H   H5536     1.0  0.90288  0.89199  0.47448  1.0000
  H   H5537     1.0  0.76633  0.72354  0.38133  1.0000
  H   H5538     1.0  0.86682  0.58527  0.35136  1.0000
  H   H5539     1.0  0.84987  0.54809  0.25191  1.0000
  C   C3134     1.0  0.92199  0.86038  0.42544  1.0000
  S   S701      1.0  0.70796  0.59842  0.23709  1.0000
  H   H5540     1.0  0.91821  0.56444  0.26394  1.0000
  C   C3135     1.0  0.89226  0.56147  0.28227  1.0000
  H   H5541     1.0  0.70740  0.85995  0.41802  1.0000
  C   C3136     1.0  0.75750  0.71450  0.38052  1.0000
  H   H5542     1.0  0.73597  0.73841  0.37492  1.0000
  H   H5543     1.0  0.74495  0.56878  0.30885  1.0000
  H   H5544     1.0  0.87939  0.61465  0.27062  1.0000
  H   H5545     1.0  0.84583  0.75379  0.38564  1.0000
  H   H5546     1.0  0.86887  0.63469  0.34579  1.0000
  H   H5547     1.0  0.67591  0.80266  0.38630  1.0000
  C   C3137     1.0  0.81703  0.71286  0.37287  1.0000
  C   C3138     1.0  0.78508  0.50620  0.34271  1.0000
  C   C3139     1.0  0.90037  0.78106  0.39265  1.0000
  C   C3140     1.0  0.87325  0.58296  0.33727  1.0000
  H   H5548     1.0  0.86224  0.58519  0.32957  1.0000
  H   H5549     1.0  0.67534  0.61935  0.25467  1.0000
  H   H5550     1.0  0.87363  0.63112  0.37740  1.0000
  H   H5551     1.0  0.87883  0.75290  0.40379  1.0000
  H   H5552     1.0  0.89641  0.76223  0.41897  1.0000
  H   H5553     1.0  0.92558  0.76103  0.39649  1.0000
  H   H5554     1.0  0.92511  0.78369  0.39976  1.0000
  H   H5555     1.0  0.84406  0.86718  0.47560  1.0000
  H   H5556     1.0  0.79290  0.71267  0.36405  1.0000
  H   H5557     1.0  0.85579  0.92460  0.44394  1.0000
  H   H5558     1.0  0.72814  0.71700  0.38304  1.0000
  H   H5559     1.0  0.96484  0.86651  0.46992  1.0000
  C   C3141     1.0  0.92109  0.77602  0.39147  1.0000
  H   H5560     1.0  0.70917  0.88956  0.42582  1.0000
  H   H5561     1.0  0.85758  0.89350  0.46366  1.0000
  H   H5562     1.0  0.70808  0.51967  0.32367  1.0000
  C   C3142     1.0  0.73765  0.72493  0.38462  1.0000
  H   H5563     1.0  0.76613  0.57517  0.32514  1.0000
  C   C3143     1.0  0.82754  0.97813  0.45270  1.0000
  H   H5564     1.0  0.90332  0.84355  0.44267  1.0000
  H   H5565     1.0  0.82309  0.72013  0.35909  1.0000
  H   H5566     1.0  0.71529  0.53831  0.34462  1.0000
  H   H5567     1.0  0.68414  0.58703  0.30361  1.0000
  H   H5568     1.0  0.66200  0.65258  0.24874  1.0000
  H   H5569     1.0  0.73387  0.72755  0.39881  1.0000
  C   C3144     1.0  0.76212  0.52859  0.30506  1.0000
  H   H5570     1.0  0.75104  0.86381  0.37958  1.0000
  H   H5571     1.0  0.92826  0.77971  0.37698  1.0000
  C   C3145     1.0  0.76158  0.50454  0.37039  1.0000
  C   C3146     1.0  0.66865  0.53229  0.27083  1.0000
  H   H5572     1.0  0.84605  0.83624  0.46952  1.0000
  H   H5573     1.0  0.70676  0.54595  0.30578  1.0000
  H   H5574     1.0  0.88734  0.90701  0.44692  1.0000
  H   H5575     1.0  0.74893  0.75950  0.45681  1.0000
  H   H5576     1.0  0.72075  0.56896  0.28179  1.0000
  H   H5577     1.0  0.67147  0.76711  0.41248  1.0000
  H   H5578     1.0  0.77425  0.52917  0.27596  1.0000
  H   H5579     1.0  0.77014  0.77990  0.43492  1.0000
  H   H5580     1.0  0.71471  0.82994  0.37355  1.0000
  C   C3147     1.0  0.98292  0.83998  0.47949  1.0000
  H   H5581     1.0  0.76311  0.56735  0.34963  1.0000
  H   H5582     1.0  0.85857  0.51270  0.30867  1.0000
  C   C3148     1.0  0.74574  0.87891  0.37799  1.0000
  H   H5583     1.0  0.94611  0.69934  0.47262  1.0000
  H   H5584     1.0  0.70109  0.55994  0.32252  1.0000
  H   H5585     1.0  0.71791  0.58354  0.29769  1.0000
  C   C3149     1.0  0.88303  0.56280  0.33891  1.0000
  H   H5586     1.0  0.97710  0.80985  0.43304  1.0000
  H   H5587     1.0  0.87224  0.92807  0.42268  1.0000
  H   H5588     1.0  0.73692  0.52948  0.29676  1.0000
  C   C3150     1.0  0.85143  0.51325  0.24913  1.0000
  H   H5589     1.0  0.69368  0.59374  0.27958  1.0000
  H   H5590     1.0  0.76927  0.79316  0.45159  1.0000
  C   C3151     1.0  0.87870  0.72599  0.47059  1.0000
  C   C3152     1.0  0.86942  0.88653  0.45442  1.0000
  H   H5591     1.0  0.76572  0.51095  0.25222  1.0000
  H   H5592     1.0  0.96553  0.84738  0.44888  1.0000
  H   H5593     1.0  0.81242  0.63409  0.24959  1.0000
  H   H5594     1.0  0.97461  0.50799  0.28504  1.0000
  H   H5595     1.0  0.75401  0.50947  0.23530  1.0000
  H   H5596     1.0  0.69257  0.86683  0.44929  1.0000
  C   C3153     1.0  0.77251  0.82936  0.47544  1.0000
  H   H5597     1.0  0.71022  0.49070  0.34703  1.0000
  H   H5598     1.0  0.71571  0.49480  0.29575  1.0000
  H   H5599     1.0  0.98569  0.50430  0.24453  1.0000
  H   H5600     1.0  0.89067  0.49807  0.26016  1.0000
  H   H5601     1.0  0.71434  0.91019  0.47847  1.0000
  H   H5602     1.0  0.83919  0.49965  0.33872  1.0000
  H   H5603     1.0  0.85667  0.76304  0.47353  1.0000
  C   C3154     1.0  0.66208  0.80661  0.38391  1.0000
  H   H5604     1.0  0.69280  0.74383  0.47204  1.0000
  H   H5605     1.0  0.72794  0.49323  0.24525  1.0000
  H   H5606     1.0  0.87976  0.90570  0.47670  1.0000
  H   H5607     1.0  0.78126  0.75105  0.45655  1.0000
  C   C3155     1.0  0.77336  0.76347  0.46205  1.0000
  H   H5608     1.0  0.86213  0.49172  0.30101  1.0000
  C   C3156     1.0  0.83515  0.49157  0.33082  1.0000
  C   C3157     1.0  0.75275  0.76250  0.46858  1.0000
  H   H5609     1.0  0.75498  0.72737  0.47032  1.0000
  H   H5610     1.0  0.74486  0.77656  0.47016  1.0000
  H   H5611     1.0  0.82164  0.48829  0.33815  1.0000
  H   H5612     1.0  0.75517  0.98272  0.46931  1.0000
  H   H5613     1.0  0.77940  0.76448  0.47331  1.0000
  H   H5614     1.0  0.85898  0.48710  0.24005  1.0000
  H   H5615     1.0  0.73524  0.91542  0.48041  1.0000
  C   C3158     1.0  0.71918  0.74428  0.47695  1.0000
  H   H5616     1.0  0.72382  0.72923  0.47769  1.0000
  C   C3159     1.0  0.98916  0.80610  0.43897  1.0000
  S   S702      1.0  0.93148  0.77597  0.48155  1.0000
  C   C3160     1.0  0.85360  0.85520  0.48188  1.0000
  H   H5617     1.0  0.71658  0.80452  0.48057  1.0000
  C   C3161     1.0  0.65665  0.79755  0.37306  1.0000
  Fe  Fe354     1.0  0.95408  0.83428  0.58565  1.0000
  S   S703      1.0  0.95685  0.81564  0.61300  1.0000
  S   S704      1.0  0.94058  0.86405  0.57813  1.0000
  Fe  Fe355     1.0  0.97068  0.80360  0.56457  1.0000
  S   S705      1.0  0.97485  0.78212  0.58980  1.0000
  S   S706      1.0  0.97864  0.79698  0.53644  1.0000
  Fe  Fe356     1.0  0.94675  0.79564  0.60282  1.0000
  S   S707      1.0  0.92270  0.78214  0.61840  1.0000
  H   H5618     1.0  0.89788  0.88250  0.50875  1.0000
  H   H5619     1.0  0.71794  0.82829  0.65401  1.0000
  S   S708      1.0  0.94192  0.81536  0.57687  1.0000
  S   S709      1.0  0.98277  0.82400  0.57126  1.0000
  S   S710      1.0  0.87851  0.52402  0.69953  1.0000
  Fe  Fe357     1.0  0.82902  0.91577  0.57035  1.0000
  S   S711      1.0  0.80033  0.92886  0.58202  1.0000
  S   S712      1.0  0.83963  0.91859  0.54005  1.0000
  Fe  Fe358     1.0  0.84006  0.90373  0.60702  1.0000
  S   S713      1.0  0.81244  0.91620  0.62177  1.0000
  S   S714      1.0  0.86127  0.88853  0.62381  1.0000
  Fe  Fe359     1.0  0.80158  0.90366  0.60443  1.0000
  S   S715      1.0  0.77933  0.88771  0.61917  1.0000
  Fe  Fe360     1.0  0.81381  0.94031  0.59814  1.0000
  C   C3162     1.0  0.76610  0.90449  0.52367  1.0000
  S   S716      1.0  0.82931  0.88939  0.59127  1.0000
  S   S717      1.0  0.84244  0.92888  0.58483  1.0000
  C   C3163     1.0  0.75386  0.75365  0.50125  1.0000
  H   H5620     1.0  0.90988  0.66799  0.55738  1.0000
  S   S718      1.0  0.84803  0.57474  0.70669  1.0000
  H   H5621     1.0  0.75532  0.96764  0.53628  1.0000
  C   C3164     1.0  0.81471  0.61751  0.66795  1.0000
  C   C3165     1.0  0.72176  0.91227  0.48819  1.0000
  H   H5622     1.0  0.81782  0.61378  0.68195  1.0000
  Fe  Fe361     1.0  0.86875  0.58705  0.71289  1.0000
  S   S719      1.0  0.88262  0.60920  0.69283  1.0000
  Fe  Fe362     1.0  0.86631  0.54742  0.71473  1.0000
  H   H5623     1.0  0.82303  0.51268  0.68713  1.0000
  H   H5624     1.0  0.75378  0.76866  0.49840  1.0000
  Fe  Fe363     1.0  0.85280  0.69023  0.61316  1.0000
  S   S720      1.0  0.85849  0.71742  0.61395  1.0000
  S   S721      1.0  0.83967  0.67265  0.63918  1.0000
  Fe  Fe364     1.0  0.86427  0.69551  0.57160  1.0000
  S   S722      1.0  0.87087  0.72281  0.56922  1.0000
  S   S723      1.0  0.87165  0.68528  0.54500  1.0000
  Fe  Fe365     1.0  0.88405  0.70986  0.59327  1.0000
  S   S724      1.0  0.91225  0.71514  0.59044  1.0000
  Fe  Fe366     1.0  0.84488  0.72829  0.58975  1.0000
  S   S725      1.0  0.82924  0.75716  0.58251  1.0000
  S   S726      1.0  0.87961  0.68169  0.59439  1.0000
  S   S727      1.0  0.83695  0.70197  0.59031  1.0000
  Fe  Fe367     1.0  0.72249  0.84005  0.58487  1.0000
  S   S728      1.0  0.73144  0.86723  0.57443  1.0000
  Fe  Fe368     1.0  0.73176  0.80050  0.60511  1.0000
  S   S729      1.0  0.71240  0.79136  0.59362  1.0000
  S   S730      1.0  0.74800  0.78017  0.62487  1.0000
  Fe  Fe369     1.0  0.72260  0.80914  0.56676  1.0000
  S   S731      1.0  0.73343  0.80201  0.53856  1.0000
  S   S732      1.0  0.74388  0.81576  0.57775  1.0000
  S   S733      1.0  0.71193  0.82539  0.61349  1.0000
  H   H5625     1.0  0.87407  0.52862  0.63380  1.0000
  H   H5626     1.0  0.86771  0.53269  0.65684  1.0000
  C   C3166     1.0  0.85502  0.68613  0.53250  1.0000
  H   H5627     1.0  0.81994  0.72408  0.51958  1.0000
  C   C3167     1.0  0.89466  0.93027  0.56626  1.0000
  C   C3168     1.0  0.80699  0.76307  0.59513  1.0000
  C   C3169     1.0  0.79717  0.78099  0.59051  1.0000
  C   C3170     1.0  0.77923  0.78630  0.59992  1.0000
  C   C3171     1.0  0.77091  0.77366  0.61391  1.0000
  C   C3172     1.0  0.78091  0.75582  0.61898  1.0000
  C   C3173     1.0  0.79898  0.75047  0.60951  1.0000
  H   H5628     1.0  0.80351  0.79083  0.57965  1.0000
  H   H5629     1.0  0.77197  0.80029  0.59655  1.0000
  H   H5630     1.0  0.77455  0.74602  0.62992  1.0000
  H   H5631     1.0  0.80660  0.73661  0.61322  1.0000
  C   C3174     1.0  0.87035  0.62578  0.67743  1.0000
  C   C3175     1.0  0.87978  0.63321  0.66000  1.0000
  C   C3176     1.0  0.87049  0.64724  0.64786  1.0000
  C   C3177     1.0  0.85177  0.65426  0.65332  1.0000
  C   C3178     1.0  0.84238  0.64680  0.67072  1.0000
  C   C3179     1.0  0.85156  0.63246  0.68265  1.0000
  H   H5632     1.0  0.89434  0.62810  0.65591  1.0000
  H   H5633     1.0  0.87781  0.65288  0.63446  1.0000
  H   H5634     1.0  0.82793  0.65226  0.67508  1.0000
  H   H5635     1.0  0.84420  0.62695  0.69610  1.0000
  H   H5636     1.0  0.84574  0.62798  0.62519  1.0000
  C   C3180     1.0  0.75138  0.75249  0.53516  1.0000
  H   H5637     1.0  0.76420  0.74204  0.53588  1.0000
  C   C3181     1.0  0.76689  0.88148  0.60624  1.0000
  C   C3182     1.0  0.75575  0.86860  0.61495  1.0000
  C   C3183     1.0  0.74537  0.86358  0.60511  1.0000
  C   C3184     1.0  0.74559  0.87194  0.58666  1.0000
  C   C3185     1.0  0.75675  0.88479  0.57796  1.0000
  C   C3186     1.0  0.76765  0.88933  0.58762  1.0000
  H   H5638     1.0  0.75494  0.86268  0.62941  1.0000
  H   H5639     1.0  0.73666  0.85380  0.61196  1.0000
  H   H5640     1.0  0.75678  0.89139  0.56379  1.0000
  H   H5641     1.0  0.77616  0.89931  0.58082  1.0000
  H   H5642     1.0  0.70883  0.75663  0.69050  1.0000
  H   H5643     1.0  0.72036  0.76525  0.49084  1.0000
  N   N177      1.0  0.88359  0.93987  0.61608  1.0000
  H   H5644     1.0  0.78188  0.96709  0.57160  1.0000
  H   H5645     1.0  0.84535  0.62489  0.59379  1.0000
  H   H5646     1.0  0.81406  0.74016  0.56197  1.0000
  H   H5647     1.0  0.71048  0.89305  0.51098  1.0000
  H   H5648     1.0  0.75115  0.95853  0.50578  1.0000
  H   H5649     1.0  0.81724  0.63150  0.66124  1.0000
  H   H5650     1.0  0.86918  0.59216  0.61321  1.0000
  C   C3187     1.0  0.81913  0.89385  0.54089  1.0000
  C   C3188     1.0  0.83044  0.90588  0.53008  1.0000
  H   H5651     1.0  0.75443  0.76647  0.53150  1.0000
  C   C3189     1.0  0.85804  0.61994  0.61743  1.0000
  H   H5652     1.0  0.81577  0.89240  0.55566  1.0000
  H   H5653     1.0  0.82653  0.95711  0.63449  1.0000
  C   C3190     1.0  0.91966  0.76393  0.61005  1.0000
  C   C3191     1.0  0.93411  0.75438  0.59866  1.0000
  C   C3192     1.0  0.93158  0.73956  0.59262  1.0000
  C   C3193     1.0  0.91450  0.73445  0.59753  1.0000
  C   C3194     1.0  0.89985  0.74434  0.60847  1.0000
  C   C3195     1.0  0.90249  0.75894  0.61486  1.0000
  H   H5654     1.0  0.94736  0.75816  0.59480  1.0000
  H   H5655     1.0  0.94299  0.73196  0.58420  1.0000
  H   H5656     1.0  0.88662  0.74052  0.61232  1.0000
  H   H5657     1.0  0.89124  0.76635  0.62358  1.0000
  C   C3196     1.0  0.91819  0.86943  0.59075  1.0000
  C   C3197     1.0  0.90406  0.87960  0.58164  1.0000
  C   C3198     1.0  0.88632  0.88494  0.59171  1.0000
  C   C3199     1.0  0.88287  0.88063  0.61091  1.0000
  C   C3200     1.0  0.89696  0.87037  0.62000  1.0000
  C   C3201     1.0  0.91454  0.86453  0.60993  1.0000
  H   H5658     1.0  0.90687  0.88341  0.56680  1.0000
  H   H5659     1.0  0.87541  0.89270  0.58466  1.0000
  H   H5660     1.0  0.89429  0.86695  0.63486  1.0000
  H   H5661     1.0  0.92544  0.85671  0.61700  1.0000
  C   C3202     1.0  0.91004  0.75652  0.52724  1.0000
  S   S734      1.0  0.70161  0.83435  0.57244  1.0000
  H   H5662     1.0  0.85581  0.92192  0.64191  1.0000
  C   C3203     1.0  0.79611  0.95024  0.50871  1.0000
  H   H5663     1.0  0.72860  0.87680  0.48460  1.0000
  H   H5664     1.0  0.87520  0.89709  0.51043  1.0000
  C   C3204     1.0  0.73553  0.87817  0.49509  1.0000
  H   H5665     1.0  0.89714  0.76547  0.55307  1.0000
  H   H5666     1.0  0.72222  0.74257  0.50391  1.0000
  H   H5667     1.0  0.98870  0.58181  0.70930  1.0000
  C   C3205     1.0  0.96151  0.80653  0.52359  1.0000
  C   C3206     1.0  0.94720  0.82095  0.52847  1.0000
  C   C3207     1.0  0.85778  0.62711  0.59702  1.0000
  H   H5668     1.0  0.94728  0.82713  0.53953  1.0000
  H   H5669     1.0  0.84010  0.53127  0.69634  1.0000
  H   H5670     1.0  0.90369  0.70162  0.54887  1.0000
  H   H5671     1.0  0.87019  0.62013  0.58842  1.0000
  C   C3208     1.0  0.85797  0.59903  0.62313  1.0000
  H   H5672     1.0  0.80361  0.94052  0.51910  1.0000
  C   C3209     1.0  0.88101  0.93628  0.59854  1.0000
  N   N178      1.0  0.80628  0.82733  0.62113  1.0000
  C   C3210     1.0  0.80074  0.83130  0.60280  1.0000
  C   C3211     1.0  0.78951  0.82612  0.63648  1.0000
  C   C3212     1.0  0.81399  0.84334  0.62177  1.0000
  C   C3213     1.0  0.82110  0.81027  0.62379  1.0000
  C   C3214     1.0  0.81784  0.79243  0.62062  1.0000
  C   C3215     1.0  0.81590  0.83494  0.58552  1.0000
  C   C3216     1.0  0.81785  0.84362  0.64058  1.0000
  C   C3217     1.0  0.77430  0.81780  0.63353  1.0000
  C   C3218     1.0  0.75989  0.81448  0.65112  1.0000
  C   C3219     1.0  0.83448  0.77672  0.62269  1.0000
  C   C3220     1.0  0.80892  0.83718  0.56801  1.0000
  C   C3221     1.0  0.82571  0.86038  0.63923  1.0000
  H   H5673     1.0  0.78937  0.84365  0.60194  1.0000
  H   H5674     1.0  0.79507  0.81994  0.60136  1.0000
  H   H5675     1.0  0.79359  0.81839  0.64966  1.0000
  H   H5676     1.0  0.78234  0.84015  0.63892  1.0000
  H   H5677     1.0  0.80464  0.85648  0.61747  1.0000
  H   H5678     1.0  0.82719  0.84390  0.61172  1.0000
  H   H5679     1.0  0.83438  0.81272  0.61474  1.0000
  H   H5680     1.0  0.82355  0.80702  0.63802  1.0000
  H   H5681     1.0  0.81557  0.79441  0.60659  1.0000
  H   H5682     1.0  0.80607  0.78788  0.63088  1.0000
  H   H5683     1.0  0.82043  0.84780  0.58463  1.0000
  H   H5684     1.0  0.82772  0.82330  0.58578  1.0000
  H   H5685     1.0  0.82800  0.83126  0.64515  1.0000
  H   H5686     1.0  0.80513  0.84428  0.65136  1.0000
  H   H5687     1.0  0.76710  0.82745  0.62293  1.0000
  H   H5688     1.0  0.77977  0.80464  0.62886  1.0000
  H   H5689     1.0  0.74915  0.80892  0.64830  1.0000
  H   H5690     1.0  0.76616  0.80430  0.66206  1.0000
  H   H5691     1.0  0.75334  0.82755  0.65595  1.0000
  H   H5692     1.0  0.83177  0.76407  0.62027  1.0000
  H   H5693     1.0  0.84686  0.78012  0.61254  1.0000
  H   H5694     1.0  0.83720  0.77375  0.63678  1.0000
  H   H5695     1.0  0.81979  0.84042  0.55576  1.0000
  H   H5696     1.0  0.80513  0.82432  0.56753  1.0000
  H   H5697     1.0  0.79676  0.84864  0.56737  1.0000
  H   H5698     1.0  0.81577  0.87327  0.63536  1.0000
  H   H5699     1.0  0.82856  0.86029  0.65271  1.0000
  H   H5700     1.0  0.83874  0.86024  0.62887  1.0000
  H   H5701     1.0  0.79257  0.72587  0.58802  1.0000
  H   H5702     1.0  0.86746  0.56173  0.62095  1.0000
  H   H5703     1.0  0.77596  0.71541  0.58388  1.0000
  H   H5704     1.0  0.79998  0.70511  0.57869  1.0000
  H   H5705     1.0  0.76839  0.85901  0.54813  1.0000
  H   H5706     1.0  0.83221  0.68666  0.55551  1.0000
  H   H5707     1.0  0.70200  0.84045  0.67074  1.0000
  C   C3222     1.0  0.97121  0.86768  0.51061  1.0000
  H   H5708     1.0  0.87308  0.92527  0.60162  1.0000
  H   H5709     1.0  0.90742  0.92472  0.55705  1.0000
  H   H5710     1.0  0.95911  0.72126  0.51814  1.0000
  H   H5711     1.0  0.70554  0.75687  0.62422  1.0000
  H   H5712     1.0  0.84283  0.96668  0.58883  1.0000
  H   H5713     1.0  0.70759  0.80729  0.68332  1.0000
  H   H5714     1.0  0.88222  0.92761  0.65462  1.0000
  H   H5715     1.0  0.78048  0.74259  0.55977  1.0000
  H   H5716     1.0  0.79254  0.76713  0.56181  1.0000
  H   H5717     1.0  0.73593  0.75949  0.66484  1.0000
  C   C3223     1.0  0.89279  0.96715  0.62409  1.0000
  H   H5718     1.0  0.84756  0.93163  0.62086  1.0000
  H   H5719     1.0  0.86852  0.74440  0.53302  1.0000
  H   H5720     1.0  0.85869  0.69607  0.68774  1.0000
  H   H5721     1.0  0.91560  0.69141  0.52940  1.0000
  H   H5722     1.0  0.87940  0.97693  0.62378  1.0000
  N   N179      1.0  0.88451  0.82193  0.57402  1.0000
  C   C3224     1.0  0.90136  0.81390  0.56118  1.0000
  C   C3225     1.0  0.87702  0.84168  0.56581  1.0000
  C   C3226     1.0  0.89035  0.82183  0.59143  1.0000
  C   C3227     1.0  0.86997  0.81053  0.57921  1.0000
  C   C3228     1.0  0.86351  0.80688  0.56317  1.0000
  C   C3229     1.0  0.90981  0.79339  0.56802  1.0000
  C   C3230     1.0  0.87608  0.83256  0.60537  1.0000
  C   C3231     1.0  0.87687  0.84654  0.54495  1.0000
  C   C3232     1.0  0.86315  0.86437  0.54013  1.0000
  C   C3233     1.0  0.85375  0.79072  0.56939  1.0000
  C   C3234     1.0  0.92615  0.78581  0.55410  1.0000
  C   C3235     1.0  0.88279  0.82922  0.62324  1.0000
  H   H5723     1.0  0.91212  0.82209  0.55847  1.0000
  H   H5724     1.0  0.89876  0.81501  0.54738  1.0000
  H   H5725     1.0  0.86285  0.84621  0.57348  1.0000
  H   H5726     1.0  0.88522  0.85093  0.56762  1.0000
  H   H5727     1.0  0.90285  0.82779  0.58804  1.0000
  H   H5728     1.0  0.89422  0.80752  0.59908  1.0000
  H   H5729     1.0  0.87447  0.79711  0.58823  1.0000
  H   H5730     1.0  0.85753  0.81720  0.58786  1.0000
  H   H5731     1.0  0.87496  0.80357  0.55175  1.0000
  H   H5732     1.0  0.85366  0.81917  0.55784  1.0000
  H   H5733     1.0  0.91479  0.79169  0.58072  1.0000
  H   H5734     1.0  0.89964  0.78463  0.57089  1.0000
  H   H5735     1.0  0.86271  0.82832  0.60893  1.0000
  H   H5736     1.0  0.87385  0.84759  0.59970  1.0000
  H   H5737     1.0  0.89068  0.84847  0.53699  1.0000
  H   H5738     1.0  0.87341  0.83579  0.54003  1.0000
  H   H5739     1.0  0.84904  0.86289  0.54752  1.0000
  H   H5740     1.0  0.86660  0.87600  0.54382  1.0000
  H   H5741     1.0  0.86336  0.86762  0.52518  1.0000
  H   H5742     1.0  0.84920  0.78860  0.55761  1.0000
  H   H5743     1.0  0.86312  0.77786  0.57451  1.0000
  H   H5744     1.0  0.84150  0.79333  0.58037  1.0000
  H   H5745     1.0  0.93821  0.79125  0.55381  1.0000
  H   H5746     1.0  0.92982  0.77068  0.55845  1.0000
  H   H5747     1.0  0.90899  0.93861  0.58216  1.0000
  H   H5748     1.0  0.88369  0.81459  0.63038  1.0000
  H   H5749     1.0  0.89656  0.83257  0.62042  1.0000
  H   H5750     1.0  0.87314  0.83807  0.63247  1.0000
  H   H5751     1.0  0.84203  0.57184  0.64495  1.0000
  C   C3236     1.0  0.79131  0.72998  0.55917  1.0000
  H   H5752     1.0  0.80137  0.97495  0.48831  1.0000
  H   H5753     1.0  0.78846  0.72186  0.55054  1.0000
  H   H5754     1.0  0.77056  0.79174  0.54602  1.0000
  H   H5755     1.0  0.82035  0.72118  0.55115  1.0000
  H   H5756     1.0  0.76757  0.89537  0.51405  1.0000
  H   H5757     1.0  0.69439  0.83718  0.65175  1.0000
  C   C3237     1.0  0.69102  0.75992  0.63153  1.0000
  N   N180      1.0  0.89301  0.68677  0.66321  1.0000
  C   C3238     1.0  0.90510  0.67345  0.65147  1.0000
  C   C3239     1.0  0.89422  0.67852  0.68300  1.0000
  C   C3240     1.0  0.87364  0.69002  0.66050  1.0000
  C   C3241     1.0  0.89900  0.70496  0.65779  1.0000
  C   C3242     1.0  0.91908  0.70412  0.65875  1.0000
  C   C3243     1.0  0.90872  0.68098  0.63043  1.0000
  C   C3244     1.0  0.85868  0.70179  0.67298  1.0000
  C   C3245     1.0  0.88630  0.66082  0.69149  1.0000
  C   C3246     1.0  0.88826  0.65360  0.71147  1.0000
  C   C3247     1.0  0.92465  0.72260  0.64992  1.0000
  C   C3248     1.0  0.91953  0.66582  0.61995  1.0000
  H   H5758     1.0  0.83233  0.97359  0.49184  1.0000
  H   H5759     1.0  0.89903  0.66120  0.65387  1.0000
  H   H5760     1.0  0.91863  0.66788  0.65553  1.0000
  H   H5761     1.0  0.90878  0.67480  0.68445  1.0000
  H   H5762     1.0  0.88747  0.68881  0.69185  1.0000
  H   H5763     1.0  0.86950  0.67676  0.66228  1.0000
  H   H5764     1.0  0.87274  0.69699  0.64615  1.0000
  H   H5765     1.0  0.89680  0.71208  0.64371  1.0000
  C   C3249     1.0  0.89448  0.76783  0.53906  1.0000
  H   H5766     1.0  0.92896  0.69366  0.65157  1.0000
  H   H5767     1.0  0.92055  0.70074  0.67330  1.0000
  H   H5768     1.0  0.89574  0.68682  0.62548  1.0000
  H   H5769     1.0  0.91687  0.69186  0.62672  1.0000
  H   H5770     1.0  0.73834  0.80272  0.50014  1.0000
  H   H5771     1.0  0.76397  0.92840  0.50240  1.0000
  H   H5772     1.0  0.87152  0.66335  0.69132  1.0000
  H   H5773     1.0  0.89368  0.64971  0.68386  1.0000
  C   C3250     1.0  0.81524  0.73698  0.48521  1.0000
  C   C3251     1.0  0.89520  0.92199  0.64581  1.0000
  H   H5774     1.0  0.88246  0.64098  0.71706  1.0000
  H   H5775     1.0  0.91500  0.73386  0.65622  1.0000
  H   H5776     1.0  0.84829  0.72340  0.53651  1.0000
  H   H5777     1.0  0.82278  0.93501  0.64789  1.0000
  H   H5778     1.0  0.92208  0.67171  0.60497  1.0000
  H   H5779     1.0  0.93297  0.65981  0.62405  1.0000
  H   H5780     1.0  0.91169  0.65481  0.62256  1.0000
  C   C3252     1.0  0.94734  0.80552  0.49929  1.0000
  H   H5781     1.0  0.83646  0.68852  0.67397  1.0000
  H   H5782     1.0  0.82912  0.71135  0.67878  1.0000
  C   C3253     1.0  0.77064  0.93542  0.52585  1.0000
  C   C3254     1.0  0.67806  0.78010  0.68169  1.0000
  H   H5783     1.0  0.67127  0.84069  0.63125  1.0000
  H   H5784     1.0  0.82715  0.72523  0.48581  1.0000
  C   C3255     1.0  0.76230  0.69532  0.49312  1.0000
  C   C3256     1.0  0.74686  0.84492  0.49802  1.0000
  H   H5785     1.0  0.93862  0.72204  0.65179  1.0000
  C   C3257     1.0  0.75819  0.84409  0.53342  1.0000
  C   C3258     1.0  0.90763  0.97861  0.61828  1.0000
  C   C3259     1.0  0.89249  0.92185  0.62661  1.0000
  H   H5786     1.0  0.97774  0.83789  0.51440  1.0000
  H   H5787     1.0  0.80339  0.76109  0.49664  1.0000
  C   C3260     1.0  0.68819  0.77435  0.64305  1.0000
  N   N181      1.0  0.74781  0.74880  0.48607  1.0000
  H   H5788     1.0  0.86589  0.95132  0.63922  1.0000
  H   H5789     1.0  0.68085  0.76893  0.71040  1.0000
  H   H5790     1.0  0.78273  0.49763  0.71562  1.0000
  H   H5791     1.0  0.91050  0.94681  0.60872  1.0000
  C   C3261     1.0  0.81457  0.74884  0.49864  1.0000
  H   H5792     1.0  0.77933  0.92776  0.53604  1.0000
  H   H5793     1.0  0.79934  0.94307  0.49700  1.0000
  H   H5794     1.0  0.74684  0.83127  0.50742  1.0000
  H   H5795     1.0  0.75836  0.76011  0.68194  1.0000
  C   C3262     1.0  0.74369  0.76144  0.68890  1.0000
  C   C3263     1.0  0.82610  0.96128  0.49779  1.0000
  H   H5796     1.0  0.68986  0.80523  0.65240  1.0000
  H   H5797     1.0  0.97171  0.86285  0.53981  1.0000
  H   H5798     1.0  0.92493  0.72576  0.63495  1.0000
  C   C3264     1.0  0.77993  0.95823  0.54749  1.0000
  H   H5799     1.0  0.83089  0.95187  0.48790  1.0000
  H   H5800     1.0  0.82776  0.75346  0.49480  1.0000
  H   H5801     1.0  0.68223  0.76522  0.62113  1.0000
  S   S735      1.0  0.66404  0.81404  0.61461  1.0000
  Fe  Fe370     1.0  0.98480  0.80362  0.59771  1.0000
  C   C3265     1.0  0.72397  0.80321  0.50621  1.0000
  H   H5802     1.0  0.94207  0.69485  0.50605  1.0000
  H   H5803     1.0  0.75623  0.93746  0.53379  1.0000
  H   H5804     1.0  0.69318  0.74128  0.49593  1.0000
  N   N182      1.0  0.77575  0.95380  0.51652  1.0000
  H   H5805     1.0  0.87791  0.72927  0.51693  1.0000
  C   C3266     1.0  0.88925  0.89493  0.50184  1.0000
  C   C3267     1.0  0.77468  0.97229  0.55992  1.0000
  C   C3268     1.0  0.91705  0.69401  0.54247  1.0000
  H   H5806     1.0  0.85224  0.68608  0.48883  1.0000
  C   C3269     1.0  0.83264  0.94437  0.64337  1.0000
  H   H5807     1.0  0.83686  0.95966  0.54002  1.0000
  H   H5808     1.0  0.90441  0.90285  0.66937  1.0000
  C   C3270     1.0  0.72140  0.85632  0.52151  1.0000
  C   C3271     1.0  0.72433  0.89513  0.50334  1.0000
  C   C3272     1.0  0.69305  0.80483  0.50285  1.0000
  H   H5809     1.0  0.74137  0.74763  0.69666  1.0000
  H   H5810     1.0  0.85872  0.96065  0.61814  1.0000
  H   H5811     1.0  0.90633  0.91671  0.61872  1.0000
  H   H5812     1.0  0.76013  0.71402  0.51045  1.0000
  C   C3273     1.0  0.96159  0.86657  0.53077  1.0000
  C   C3274     1.0  0.68681  0.80481  0.52169  1.0000
  H   H5813     1.0  0.79507  0.95537  0.54301  1.0000
  H   H5814     1.0  0.78919  0.80285  0.53250  1.0000
  C   C3275     1.0  0.89579  0.95385  0.61085  1.0000
  C   C3276     1.0  0.95122  0.73497  0.54085  1.0000
  H   H5815     1.0  0.73899  0.71428  0.50419  1.0000
  C   C3277     1.0  0.67379  0.78161  0.70221  1.0000
  C   C3278     1.0  0.78994  0.71838  0.57863  1.0000
  H   H5816     1.0  0.94654  0.74377  0.51274  1.0000
  H   H5817     1.0  0.85042  0.61486  0.65381  1.0000
  H   H5818     1.0  0.84776  0.73024  0.51240  1.0000
  H   H5819     1.0  0.93918  0.74302  0.54873  1.0000
  H   H5820     1.0  0.84516  0.59698  0.62049  1.0000
  H   H5821     1.0  0.86722  0.75294  0.50918  1.0000
  H   H5822     1.0  0.91426  0.58942  0.72130  1.0000
  S   S736      1.0  0.81299  0.68783  0.49886  1.0000
  H   H5823     1.0  0.90534  0.91549  0.59025  1.0000
  C   C3279     1.0  0.83142  0.96950  0.54945  1.0000
  C   C3280     1.0  0.81615  0.88574  0.51335  1.0000
  H   H5824     1.0  0.96058  0.87123  0.50227  1.0000
  H   H5825     1.0  0.91270  0.71964  0.51041  1.0000
  H   H5826     1.0  0.73142  0.89807  0.51281  1.0000
  C   C3281     1.0  0.69845  0.81269  0.67331  1.0000
  S   S737      1.0  0.80669  0.87364  0.50285  1.0000
  N   N183      1.0  0.86011  0.59011  0.64258  1.0000
  C   C3282     1.0  0.85596  0.57112  0.64707  1.0000
  C   C3283     1.0  0.84708  0.60112  0.65605  1.0000
  C   C3284     1.0  0.87947  0.58936  0.64404  1.0000
  C   C3285     1.0  0.88552  0.57741  0.66190  1.0000
  C   C3286     1.0  0.86912  0.55737  0.63545  1.0000
  C   C3287     1.0  0.82639  0.60361  0.65631  1.0000
  C   C3288     1.0  0.82935  0.68687  0.51172  1.0000
  C   C3289     1.0  0.90536  0.57760  0.66160  1.0000
  C   C3290     1.0  0.86503  0.53808  0.64273  1.0000
  H   H5827     1.0  0.85544  0.56494  0.66195  1.0000
  H   H5828     1.0  0.84882  0.59457  0.67026  1.0000
  H   H5829     1.0  0.88953  0.58444  0.63217  1.0000
  H   H5830     1.0  0.88149  0.60342  0.64313  1.0000
  H   H5831     1.0  0.88463  0.56284  0.66377  1.0000
  H   H5832     1.0  0.87689  0.58269  0.67410  1.0000
  H   H5833     1.0  0.85055  0.53815  0.64295  1.0000
  H   H5834     1.0  0.88367  0.55633  0.63567  1.0000
  H   H5835     1.0  0.87040  0.62294  0.61999  1.0000
  H   H5836     1.0  0.82335  0.60852  0.64235  1.0000
  H   H5837     1.0  0.82188  0.59035  0.66244  1.0000
  H   H5838     1.0  0.71361  0.79825  0.65126  1.0000
  H   H5839     1.0  0.85759  0.64211  0.59345  1.0000
  H   H5840     1.0  0.90705  0.59186  0.66022  1.0000
  H   H5841     1.0  0.90913  0.56931  0.67471  1.0000
  H   H5842     1.0  0.91478  0.57158  0.65008  1.0000
  H   H5843     1.0  0.89346  0.78263  0.53264  1.0000
  H   H5844     1.0  0.88066  0.66399  0.71995  1.0000
  H   H5845     1.0  0.79692  0.73556  0.52166  1.0000
  H   H5846     1.0  0.80343  0.87429  0.54081  1.0000
  H   H5847     1.0  0.83457  0.75572  0.54066  1.0000
  C   C3291     1.0  0.90223  0.90248  0.65574  1.0000
  C   C3292     1.0  0.71168  0.80417  0.49511  1.0000
  C   C3293     1.0  0.70021  0.79883  0.66113  1.0000
  H   H5848     1.0  0.74070  0.77085  0.69863  1.0000
  C   C3294     1.0  0.92641  0.72283  0.50878  1.0000
  H   H5849     1.0  0.77730  0.69404  0.48784  1.0000
  C   C3295     1.0  0.93240  0.70486  0.53934  1.0000
  H   H5850     1.0  0.76442  0.86617  0.51030  1.0000
  C   C3296     1.0  0.83655  0.68676  0.54095  1.0000
  C   C3297     1.0  0.81061  0.73457  0.55154  1.0000
  H   H5851     1.0  0.81118  0.77804  0.54846  1.0000
  C   C3298     1.0  0.76056  0.98370  0.49562  1.0000
  C   C3299     1.0  0.70353  0.83071  0.66169  1.0000
  C   C3300     1.0  0.91319  0.73581  0.53638  1.0000
  H   H5852     1.0  0.91351  0.73436  0.55109  1.0000
  C   C3301     1.0  0.85073  0.93493  0.63276  1.0000
  H   H5853     1.0  0.71619  0.86610  0.53108  1.0000
  H   H5854     1.0  0.89033  0.71443  0.66689  1.0000
  H   H5855     1.0  0.92191  0.67732  0.56897  1.0000
  H   H5856     1.0  0.83475  0.94785  0.65576  1.0000
  C   C3302     1.0  0.76649  0.84482  0.48626  1.0000
  C   C3303     1.0  0.82738  0.89784  0.50265  1.0000
  H   H5857     1.0  0.77278  0.81577  0.48495  1.0000
  C   C3304     1.0  0.71768  0.80320  0.52504  1.0000
  H   H5858     1.0  0.92234  0.76231  0.52524  1.0000
  H   H5859     1.0  0.92123  0.83775  0.52351  1.0000
  H   H5860     1.0  0.89391  0.96315  0.59742  1.0000
  H   H5861     1.0  0.68322  0.86577  0.53354  1.0000
  H   H5862     1.0  0.70261  0.86904  0.50205  1.0000
  H   H5863     1.0  0.77868  0.98542  0.55220  1.0000
  H   H5864     1.0  0.76834  0.74665  0.50175  1.0000
  C   C3305     1.0  0.80521  0.96718  0.50146  1.0000
  C   C3306     1.0  0.82377  0.68703  0.53059  1.0000
  H   H5865     1.0  0.80955  0.68733  0.53720  1.0000
  H   H5866     1.0  0.68404  0.81610  0.68073  1.0000
  H   H5867     1.0  0.91575  0.49267  0.73050  1.0000
  C   C3307     1.0  0.75199  0.86166  0.51956  1.0000
  C   C3308     1.0  0.83723  0.50733  0.68810  1.0000
  H   H5868     1.0  0.95272  0.88009  0.53277  1.0000
  H   H5869     1.0  0.94802  0.80012  0.48747  1.0000
  C   C3309     1.0  0.73170  0.76906  0.67452  1.0000
  H   H5870     1.0  0.95572  0.72184  0.55017  1.0000
  H   H5871     1.0  0.88466  0.91104  0.62815  1.0000
  H   H5872     1.0  0.70863  0.77819  0.69495  1.0000
  Fe  Fe371     1.0  0.69301  0.81723  0.60044  1.0000
  H   H5873     1.0  0.71522  0.76788  0.64819  1.0000
  H   H5874     1.0  0.73484  0.78260  0.66702  1.0000
  H   H5875     1.0  0.88449  0.92172  0.56795  1.0000
  C   C3310     1.0  0.84834  0.73509  0.52462  1.0000
  S   S738      1.0  0.80338  0.96987  0.60173  1.0000
  H   H5876     1.0  0.75149  0.90749  0.53073  1.0000
  H   H5877     1.0  0.91546  0.89620  0.64766  1.0000
  H   H5878     1.0  0.69033  0.84104  0.53656  1.0000
  H   H5879     1.0  0.72400  0.84256  0.53061  1.0000
  H   H5880     1.0  0.76372  0.83191  0.52696  1.0000
  N   N184      1.0  0.92974  0.72364  0.52705  1.0000
  C   C3311     1.0  0.68811  0.85404  0.52632  1.0000
  H   H5881     1.0  0.77557  0.94546  0.55591  1.0000
  C   C3312     1.0  0.98491  0.84946  0.50757  1.0000
  H   H5882     1.0  0.92309  0.78917  0.54013  1.0000
  N   N185      1.0  0.73893  0.86024  0.50859  1.0000
  H   H5883     1.0  0.78324  0.80080  0.55705  1.0000
  C   C3313     1.0  0.81106  0.73802  0.51878  1.0000
  H   H5884     1.0  0.70078  0.75353  0.66375  1.0000
  C   C3314     1.0  0.79953  0.76517  0.53269  1.0000
  C   C3315     1.0  0.92110  0.67540  0.55535  1.0000
  C   C3316     1.0  0.70577  0.85618  0.51218  1.0000
  H   H5885     1.0  0.74559  0.87247  0.52787  1.0000
  H   H5886     1.0  0.89284  0.95973  0.63844  1.0000
  C   C3317     1.0  0.83708  0.98007  0.59218  1.0000
  H   H5887     1.0  0.83070  0.89937  0.48798  1.0000
  C   C3318     1.0  0.93249  0.82699  0.51936  1.0000
  C   C3319     1.0  0.84777  0.68635  0.50331  1.0000
  C   C3320     1.0  0.70125  0.76809  0.65686  1.0000
  H   H5888     1.0  0.97921  0.73827  0.52778  1.0000
  H   H5889     1.0  0.83380  0.76319  0.51714  1.0000
  H   H5890     1.0  0.69413  0.80397  0.54727  1.0000
  H   H5891     1.0  0.90634  0.75858  0.51371  1.0000
  C   C3321     1.0  0.96649  0.74587  0.53540  1.0000
  H   H5892     1.0  0.86073  0.71613  0.66972  1.0000
  C   C3322     1.0  0.83959  0.70252  0.67008  1.0000
  C   C3323     1.0  0.71105  0.77076  0.68364  1.0000
  C   C3324     1.0  0.69908  0.80402  0.53276  1.0000
  C   C3325     1.0  0.93221  0.81872  0.50522  1.0000
  C   C3326     1.0  0.96188  0.79928  0.50856  1.0000
  C   C3327     1.0  0.94688  0.73109  0.52370  1.0000
  H   H5893     1.0  0.93417  0.66688  0.54939  1.0000
  C   C3328     1.0  0.77041  0.96556  0.53083  1.0000
  H   H5894     1.0  0.83085  0.95418  0.51075  1.0000
  H   H5895     1.0  0.73979  0.73551  0.52504  1.0000
  H   H5896     1.0  0.97326  0.78861  0.50424  1.0000
  C   C3329     1.0  0.81222  0.88355  0.53251  1.0000
  C   C3330     1.0  0.79779  0.77533  0.54826  1.0000
  H   H5897     1.0  0.67243  0.80536  0.52775  1.0000
  N   N186      1.0  0.81331  0.74726  0.53297  1.0000
  C   C3331     1.0  0.77247  0.92214  0.51293  1.0000
  H   H5898     1.0  0.84337  0.91709  0.50261  1.0000
  C   C3332     1.0  0.83462  0.90780  0.51099  1.0000
  H   H5899     1.0  0.74636  0.84133  0.54462  1.0000
  H   H5900     1.0  0.87288  0.94884  0.59115  1.0000
  H   H5901     1.0  0.78570  0.76311  0.53302  1.0000
  N   N187      1.0  0.69764  0.77975  0.67108  1.0000
  C   C3333     1.0  0.86540  0.51121  0.69398  1.0000
  C   C3334     1.0  0.76485  0.96240  0.50150  1.0000
  H   H5902     1.0  0.84274  0.97008  0.55564  1.0000
  H   H5903     1.0  0.88121  0.76416  0.54018  1.0000
  C   C3335     1.0  0.84688  0.51789  0.69325  1.0000
  H   H5904     1.0  0.69110  0.78720  0.63345  1.0000
  H   H5905     1.0  0.88920  0.94459  0.55965  1.0000
  H   H5906     1.0  0.74212  0.75094  0.54890  1.0000
  C   C3336     1.0  0.86056  0.68591  0.51367  1.0000
  H   H5907     1.0  0.87481  0.68541  0.50703  1.0000
  H   H5908     1.0  0.95406  0.85130  0.48931  1.0000
  C   C3337     1.0  0.78438  0.79380  0.54571  1.0000
  C   C3338     1.0  0.86664  0.74084  0.52067  1.0000
  C   C3339     1.0  0.75387  0.71375  0.49904  1.0000
  H   H5909     1.0  0.93339  0.70603  0.55320  1.0000
  H   H5910     1.0  0.72865  0.75947  0.52184  1.0000
  C   C3340     1.0  0.74216  0.74975  0.52100  1.0000
  H   H5911     1.0  0.83860  0.70830  0.65549  1.0000
  H   H5912     1.0  0.78692  0.91828  0.50583  1.0000
  H   H5913     1.0  0.90051  0.73125  0.53679  1.0000
  H   H5914     1.0  0.78580  0.84773  0.53151  1.0000
  H   H5915     1.0  0.77607  0.83447  0.55308  1.0000
  H   H5916     1.0  0.79996  0.61778  0.66929  1.0000
  C   C3341     1.0  0.77303  0.84653  0.54201  1.0000
  H   H5917     1.0  0.94571  0.69614  0.53408  1.0000
  C   C3342     1.0  0.83226  0.75132  0.52882  1.0000
  H   H5918     1.0  0.80298  0.77495  0.51953  1.0000
  H   H5919     1.0  0.77464  0.89711  0.53395  1.0000
  H   H5920     1.0  0.89209  0.89372  0.65789  1.0000
  C   C3343     1.0  0.86491  0.94756  0.62655  1.0000
  C   C3344     1.0  0.72721  0.75067  0.49023  1.0000
  C   C3345     1.0  0.75777  0.72990  0.48290  1.0000
  C   C3346     1.0  0.87410  0.49398  0.68967  1.0000
  H   H5921     1.0  0.97865  0.87916  0.50689  1.0000
  C   C3347     1.0  0.89882  0.92984  0.58481  1.0000
  H   H5922     1.0  0.84335  0.49119  0.72502  1.0000
  C   C3348     1.0  0.98447  0.59378  0.71618  1.0000
  H   H5923     1.0  0.67733  0.85359  0.51932  1.0000
  H   H5924     1.0  0.67363  0.76730  0.68188  1.0000
  H   H5925     1.0  0.67829  0.79349  0.70406  1.0000
  H   H5926     1.0  0.95278  0.85625  0.53508  1.0000
  H   H5927     1.0  0.67355  0.77689  0.64998  1.0000
  C   C3349     1.0  0.94090  0.70914  0.49802  1.0000
  H   H5928     1.0  0.96949  0.74823  0.54792  1.0000
  H   H5929     1.0  0.92586  0.73658  0.49953  1.0000
  H   H5930     1.0  0.77314  0.97952  0.52473  1.0000
  H   H5931     1.0  0.82039  0.96430  0.56047  1.0000
  H   H5932     1.0  0.96220  0.75951  0.52670  1.0000
  S   S739      1.0  0.91270  0.82418  0.49560  1.0000
  H   H5933     1.0  0.74879  0.88182  0.48720  1.0000
  C   C3350     1.0  0.66138  0.83348  0.64111  1.0000
  H   H5934     1.0  0.70964  0.84447  0.50499  1.0000
  H   H5935     1.0  0.95455  0.71284  0.49449  1.0000
  H   H5936     1.0  0.80249  0.73154  0.48846  1.0000
  H   H5937     1.0  0.88853  0.48900  0.68976  1.0000
  H   H5938     1.0  0.87021  0.72612  0.48416  1.0000
  H   H5939     1.0  0.90559  0.93018  0.64443  1.0000
  H   H5940     1.0  0.66847  0.79151  0.67465  1.0000
  H   H5941     1.0  0.80146  0.97646  0.51129  1.0000
  H   H5942     1.0  0.73799  0.84548  0.48843  1.0000
  H   H5943     1.0  0.85569  0.82548  0.48976  1.0000
  H   H5944     1.0  0.95581  0.59465  0.72039  1.0000
  H   H5945     1.0  0.77177  0.95681  0.48886  1.0000
  C   C3351     1.0  0.88083  0.87603  0.48373  1.0000
  H   H5946     1.0  0.92135  0.96960  0.61885  1.0000
  H   H5947     1.0  0.68720  0.74703  0.64037  1.0000
  H   H5948     1.0  0.77660  0.84267  0.49501  1.0000
  S   S740      1.0  0.67725  0.80556  0.48950  1.0000
  H   H5949     1.0  0.75969  0.97485  0.56559  1.0000
  H   H5950     1.0  0.97978  0.82687  0.48833  1.0000
  H   H5951     1.0  0.85302  0.85634  0.49614  1.0000
  S   S741      1.0  0.88783  0.55983  0.71910  1.0000
  H   H5952     1.0  0.98380  0.60656  0.70543  1.0000
  H   H5953     1.0  0.76005  0.68389  0.50507  1.0000
  H   H5954     1.0  0.83258  0.83884  0.49193  1.0000
  H   H5955     1.0  0.90292  0.65002  0.71247  1.0000
  H   H5956     1.0  0.89515  0.90704  0.50072  1.0000
  H   H5957     1.0  0.88823  0.86396  0.49247  1.0000
  H   H5958     1.0  0.86653  0.87910  0.49157  1.0000
  C   C3352     1.0  0.96571  0.59369  0.72902  1.0000
  C   C3353     1.0  0.81827  0.98486  0.59912  1.0000
  C   C3354     1.0  0.88871  0.89298  0.48267  1.0000
  C   C3355     1.0  0.84586  0.48982  0.68431  1.0000
  H   H5959     1.0  0.71369  0.92424  0.49433  1.0000
  H   H5960     1.0  0.87449  0.48915  0.73032  1.0000
  C   C3356     1.0  0.84662  0.83784  0.48331  1.0000
  H   H5961     1.0  0.65832  0.84909  0.66182  1.0000
  H   H5962     1.0  0.89791  0.60738  0.73135  1.0000
  H   H5963     1.0  0.75593  0.69398  0.48221  1.0000
  H   H5964     1.0  0.92215  0.70564  0.48270  1.0000
  Fe  Fe372     1.0  0.94513  0.54712  0.87516  1.0000
  S   S742      1.0  0.95380  0.56913  0.85119  1.0000
  S   S743      1.0  0.93632  0.54603  0.90559  1.0000
  Fe  Fe373     1.0  0.95088  0.51918  0.85177  1.0000
  S   S744      1.0  0.96021  0.53823  0.82549  1.0000
  H   H5965     1.0  0.77014  0.61127  0.84833  1.0000
  Fe  Fe374     1.0  0.97642  0.54635  0.84175  1.0000
  C   C3357     1.0  0.69241  0.60495  0.90789  1.0000
  Fe  Fe375     1.0  0.93701  0.55952  0.83673  1.0000
  S   S745      1.0  0.91802  0.57954  0.81928  1.0000
  S   S746      1.0  0.96918  0.52519  0.86690  1.0000
  S   S747      1.0  0.92634  0.53970  0.86158  1.0000
  C   C3358     1.0  0.91071  0.55061  0.80958  1.0000
  Fe  Fe376     1.0  0.84181  0.59023  0.94807  1.0000
  S   S748      1.0  0.81489  0.60856  0.95665  1.0000
  S   S749      1.0  0.86562  0.60316  0.93218  1.0000
  Fe  Fe377     1.0  0.82637  0.55579  0.96387  1.0000
  C   C3359     1.0  0.83563  0.51543  0.95024  1.0000
  C   C3360     1.0  0.79845  0.56953  0.77173  1.0000
  Fe  Fe378     1.0  0.80283  0.59022  0.94656  1.0000
  S   S750      1.0  0.78302  0.60230  0.92733  1.0000
  C   C3361     1.0  0.87921  0.52334  0.90732  1.0000
  S   S751      1.0  0.69977  0.51541  0.86788  1.0000
  S   S752      1.0  0.83011  0.57359  0.93573  1.0000
  H   H5966     1.0  0.70179  0.52609  0.91235  1.0000
  Fe  Fe379     1.0  0.72997  0.55761  0.88444  1.0000
  S   S753      1.0  0.73458  0.55429  0.91306  1.0000
  Fe  Fe380     1.0  0.74999  0.55300  0.84575  1.0000
  S   S754      1.0  0.72393  0.55723  0.83568  1.0000
  S   S755      1.0  0.77954  0.54400  0.83221  1.0000
  Fe  Fe381     1.0  0.71454  0.53891  0.86256  1.0000
  S   S756      1.0  0.74057  0.57732  0.85944  1.0000
  S   S757      1.0  0.74130  0.53306  0.87142  1.0000
  C   C3362     1.0  0.78639  0.55387  0.80889  1.0000
  C   C3363     1.0  0.77416  0.56699  0.79919  1.0000
  C   C3364     1.0  0.81068  0.55654  0.78156  1.0000
  C   C3365     1.0  0.80460  0.54854  0.79998  1.0000
  H   H5967     1.0  0.76007  0.57117  0.80595  1.0000
  H   H5968     1.0  0.78303  0.52173  0.88449  1.0000
  H   H5969     1.0  0.81404  0.53823  0.80736  1.0000
  C   C3366     1.0  0.77168  0.58752  0.92240  1.0000
  C   C3367     1.0  0.76874  0.57117  0.93466  1.0000
  C   C3368     1.0  0.75755  0.56086  0.93156  1.0000
  C   C3369     1.0  0.74978  0.56654  0.91588  1.0000
  C   C3370     1.0  0.75362  0.58232  0.90310  1.0000
  C   C3371     1.0  0.76428  0.59295  0.90650  1.0000
  H   H5970     1.0  0.77446  0.56691  0.94689  1.0000
  H   H5971     1.0  0.75475  0.54856  0.94141  1.0000
  H   H5972     1.0  0.74775  0.58674  0.89098  1.0000
  H   H5973     1.0  0.76655  0.60559  0.89698  1.0000
  H   H5974     1.0  0.77084  0.59716  0.83236  1.0000
  H   H5975     1.0  0.84632  0.48806  0.96389  1.0000
  S   S758      1.0  0.80569  0.57928  0.74838  1.0000
  H   H5976     1.0  0.78665  0.56909  0.85233  1.0000
  H   H5977     1.0  0.86956  0.51076  0.77062  1.0000
  C   C3372     1.0  0.90725  0.56965  0.80774  1.0000
  C   C3373     1.0  0.90702  0.59373  0.73449  1.0000
  H   H5978     1.0  0.89322  0.59568  0.79435  1.0000
  C   C3374     1.0  0.91619  0.56171  0.91220  1.0000
  C   C3375     1.0  0.91282  0.57963  0.90197  1.0000
  C   C3376     1.0  0.89726  0.59238  0.90819  1.0000
  C   C3377     1.0  0.88466  0.58698  0.92416  1.0000
  C   C3378     1.0  0.88765  0.56885  0.93396  1.0000
  C   C3379     1.0  0.90366  0.55636  0.92827  1.0000
  H   H5979     1.0  0.92252  0.58382  0.88960  1.0000
  H   H5980     1.0  0.89492  0.60639  0.90055  1.0000
  H   H5981     1.0  0.87782  0.56460  0.94613  1.0000
  H   H5982     1.0  0.90624  0.54250  0.93620  1.0000
  H   H5983     1.0  0.90129  0.49773  0.94095  1.0000
  N   N188      1.0  0.90339  0.49309  0.91377  1.0000
  H   H5984     1.0  0.96397  0.49186  0.91876  1.0000
  H   H5985     1.0  0.77064  0.58476  0.77307  1.0000
  Fe  Fe382     1.0  0.83603  0.57198  0.73706  1.0000
  C   C3380     1.0  0.90661  0.62534  0.96675  1.0000
  C   C3381     1.0  0.80676  0.54665  0.87256  1.0000
  C   C3382     1.0  0.89301  0.55409  0.78637  1.0000
  H   H5986     1.0  0.68530  0.64897  0.91584  1.0000
  H   H5987     1.0  0.78108  0.61710  0.82450  1.0000
  H   H5988     1.0  0.91700  0.51744  0.74520  1.0000
  H   H5989     1.0  0.78142  0.49135  0.77499  1.0000
  H   H5990     1.0  0.72010  0.51732  0.82990  1.0000
  H   H5991     1.0  0.86957  0.50451  0.86599  1.0000
  H   H5992     1.0  0.71065  0.63950  0.84922  1.0000
  H   H5993     1.0  0.72735  0.64678  0.85714  1.0000
  H   H5994     1.0  0.82963  0.61044  0.88388  1.0000
  C   C3383     1.0  0.90562  0.49502  0.74325  1.0000
  H   H5995     1.0  0.77774  0.55488  0.88552  1.0000
  C   C3384     1.0  0.88049  0.50506  0.85340  1.0000
  C   C3385     1.0  0.87284  0.50831  0.83575  1.0000
  S   S759      1.0  0.69853  0.60845  0.83962  1.0000
  C   C3386     1.0  0.93548  0.49355  0.91859  1.0000
  H   H5996     1.0  0.66894  0.58015  0.91908  1.0000
  H   H5997     1.0  0.90645  0.52817  0.80024  1.0000
  C   C3387     1.0  0.85393  0.50184  0.81809  1.0000
  H   H5998     1.0  0.81648  0.59552  0.90106  1.0000
  C   C3388     1.0  0.72920  0.61345  0.94239  1.0000
  H   H5999     1.0  0.73831  0.50221  0.90795  1.0000
  H   H6000     1.0  0.92722  0.50114  0.79951  1.0000
  H   H6001     1.0  0.83631  0.63484  0.96174  1.0000
  C   C3389     1.0  0.87734  0.54357  0.89772  1.0000
  C   C3390     1.0  0.68667  0.59344  0.92725  1.0000
  H   H6002     1.0  0.88381  0.55097  0.90418  1.0000
  N   N189      1.0  0.81049  0.56573  0.86395  1.0000
  H   H6003     1.0  0.84236  0.50881  0.85683  1.0000
  H   H6004     1.0  0.73813  0.49491  0.86885  1.0000
  H   H6005     1.0  0.73975  0.62127  0.93374  1.0000
  H   H6006     1.0  0.89677  0.63692  0.96039  1.0000
  H   H6007     1.0  0.92897  0.60499  0.73664  1.0000
  H   H6008     1.0  0.86494  0.52272  0.83331  1.0000
  C   C3391     1.0  0.71116  0.62044  0.93566  1.0000
  H   H6009     1.0  0.69316  0.51873  0.93656  1.0000
  C   C3392     1.0  0.89008  0.52048  0.85248  1.0000
  H   H6010     1.0  0.83061  0.57748  0.84177  1.0000
  H   H6011     1.0  0.88515  0.50766  0.82442  1.0000
  C   C3393     1.0  0.79685  0.59380  0.84040  1.0000
  H   H6012     1.0  0.80214  0.57464  0.89009  1.0000
  C   C3394     1.0  0.66835  0.61281  0.86805  1.0000
  H   H6013     1.0  0.72320  0.60677  0.91266  1.0000
  C   C3395     1.0  0.70600  0.49990  0.85275  1.0000
  C   C3396     1.0  0.78634  0.52617  0.89574  1.0000
  C   C3397     1.0  0.67832  0.62096  0.85143  1.0000
  C   C3398     1.0  0.86836  0.50217  0.79988  1.0000
  H   H6014     1.0  0.89575  0.51789  0.86497  1.0000
  H   H6015     1.0  0.87176  0.52295  0.92177  1.0000
  Fe  Fe383     1.0  0.71345  0.58009  0.85178  1.0000
  H   H6016     1.0  0.71496  0.48879  0.93659  1.0000
  H   H6017     1.0  0.81009  0.49645  0.97506  1.0000
  H   H6018     1.0  0.70141  0.61188  0.94450  1.0000
  H   H6019     1.0  0.91276  0.60041  0.75762  1.0000
  H   H6020     1.0  0.88037  0.53399  0.85146  1.0000
  C   C3399     1.0  0.77856  0.60552  0.83622  1.0000
  H   H6021     1.0  0.87792  0.51119  0.79864  1.0000
  H   H6022     1.0  0.76746  0.55151  0.97967  1.0000
  H   H6023     1.0  0.83012  0.59385  0.86034  1.0000
  H   H6024     1.0  0.85052  0.52362  0.78421  1.0000
  C   C3400     1.0  0.94518  0.58976  0.76973  1.0000
  H   H6025     1.0  0.67955  0.64586  0.83089  1.0000
  C   C3401     1.0  0.92074  0.59489  0.74524  1.0000
  C   C3402     1.0  0.89603  0.58091  0.79571  1.0000
  C   C3403     1.0  0.82697  0.49284  0.85020  1.0000
  H   H6026     1.0  0.84204  0.54955  0.80674  1.0000
  H   H6027     1.0  0.68943  0.63442  0.88054  1.0000
  H   H6028     1.0  0.89326  0.50494  0.73943  1.0000
  H   H6029     1.0  0.83824  0.57267  0.80995  1.0000
  H   H6030     1.0  0.82480  0.55259  0.77496  1.0000
  H   H6031     1.0  0.93332  0.50869  0.91494  1.0000
  C   C3404     1.0  0.95523  0.60601  0.78934  1.0000
  H   H6032     1.0  0.66439  0.64827  0.89585  1.0000
  H   H6033     1.0  0.90506  0.52085  0.91422  1.0000
  H   H6034     1.0  0.95826  0.50953  0.77336  1.0000
  C   C3405     1.0  0.71593  0.50420  0.83480  1.0000
  H   H6035     1.0  0.88055  0.58186  0.77547  1.0000
  H   H6036     1.0  0.70574  0.63479  0.93777  1.0000
  S   S760      1.0  0.83266  0.52492  0.96959  1.0000
  H   H6037     1.0  0.95179  0.52157  0.79209  1.0000
  H   H6038     1.0  0.70441  0.59588  0.90085  1.0000
  H   H6039     1.0  0.97443  0.52054  0.77764  1.0000
  N   N190      1.0  0.69705  0.62310  0.90714  1.0000
  H   H6040     1.0  0.80460  0.60285  0.84296  1.0000
  C   C3406     1.0  0.81939  0.59241  0.87298  1.0000
  H   H6041     1.0  0.88069  0.49519  0.93693  1.0000
  H   H6042     1.0  0.80694  0.60316  0.87097  1.0000
  H   H6043     1.0  0.66631  0.50787  0.80224  1.0000
  H   H6044     1.0  0.67662  0.56829  0.94009  1.0000
  C   C3407     1.0  0.85898  0.50964  0.78348  1.0000
  H   H6045     1.0  0.96101  0.53889  0.75111  1.0000
  H   H6046     1.0  0.76461  0.50148  0.80409  1.0000
  H   H6047     1.0  0.72704  0.61508  0.95679  1.0000
  H   H6048     1.0  0.90735  0.62775  0.98015  1.0000
  H   H6049     1.0  0.72709  0.49541  0.80890  1.0000
  C   C3408     1.0  0.83067  0.52629  0.93398  1.0000
  C   C3409     1.0  0.84502  0.48868  0.93605  1.0000
  H   H6050     1.0  0.71469  0.61002  0.87252  1.0000
  C   C3410     1.0  0.92544  0.62567  0.95412  1.0000
  H   H6051     1.0  0.78904  0.52205  0.97501  1.0000
  H   H6052     1.0  0.90046  0.60516  0.95520  1.0000
  H   H6053     1.0  0.80006  0.49020  0.86687  1.0000
  H   H6054     1.0  0.97362  0.58941  0.77103  1.0000
  H   H6055     1.0  0.71648  0.52182  0.92861  1.0000
  H   H6056     1.0  0.86931  0.62021  0.96027  1.0000
  H   H6057     1.0  0.97840  0.57324  0.74977  1.0000
  H   H6058     1.0  0.91264  0.59588  0.97319  1.0000
  H   H6059     1.0  0.65684  0.58256  0.82864  1.0000
  H   H6060     1.0  0.67792  0.62993  0.93184  1.0000
  C   C3411     1.0  0.90101  0.60673  0.96911  1.0000
  H   H6061     1.0  0.89834  0.58373  0.74264  1.0000
  C   C3412     1.0  0.66295  0.64042  0.91021  1.0000
  H   H6062     1.0  0.65804  0.62777  0.91120  1.0000
  H   H6063     1.0  0.85546  0.55501  0.81995  1.0000
  C   C3413     1.0  0.67193  0.63947  0.84378  1.0000
  H   H6064     1.0  0.93829  0.53883  0.76466  1.0000
  C   C3414     1.0  0.95273  0.55654  0.77198  1.0000
  H   H6065     1.0  0.73034  0.61823  0.88080  1.0000
  H   H6066     1.0  0.92757  0.49501  0.75643  1.0000
  H   H6067     1.0  0.73390  0.62672  0.84692  1.0000
  H   H6068     1.0  0.96573  0.60500  0.79731  1.0000
  S   S761      1.0  0.84092  0.57076  0.97533  1.0000
  H   H6069     1.0  0.67299  0.59851  0.87393  1.0000
  C   C3415     1.0  0.68075  0.57630  0.92605  1.0000
  H   H6070     1.0  0.87246  0.58729  0.97041  1.0000
  C   C3416     1.0  0.84163  0.55797  0.81670  1.0000
  H   H6071     1.0  0.92533  0.62361  0.94034  1.0000
  C   C3417     1.0  0.84565  0.49547  0.85225  1.0000
  C   C3418     1.0  0.95250  0.53924  0.76504  1.0000
  C   C3419     1.0  0.79378  0.57756  0.85688  1.0000
  H   H6072     1.0  0.77429  0.52617  0.90734  1.0000
  H   H6073     1.0  0.81916  0.53725  0.87702  1.0000
  H   H6074     1.0  0.91938  0.54190  0.81878  1.0000
  H   H6075     1.0  0.92906  0.63919  0.95242  1.0000
  Fe  Fe384     1.0  0.87252  0.55814  0.74824  1.0000
  C   C3420     1.0  0.71793  0.62246  0.87476  1.0000
  H   H6076     1.0  0.79821  0.51631  0.90069  1.0000
  C   C3421     1.0  0.79036  0.54551  0.88925  1.0000
  H   H6077     1.0  0.89083  0.49201  0.85477  1.0000
  H   H6078     1.0  0.96623  0.55422  0.77586  1.0000
  H   H6079     1.0  0.79321  0.54907  0.90123  1.0000
  C   C3422     1.0  0.82753  0.56386  0.84901  1.0000
  H   H6080     1.0  0.82546  0.56324  0.88503  1.0000
  H   H6081     1.0  0.80367  0.54055  0.86227  1.0000
  C   C3423     1.0  0.96603  0.57579  0.74383  1.0000
  H   H6082     1.0  0.93885  0.51031  0.82264  1.0000
  S   S762      1.0  0.70214  0.56204  0.87796  1.0000
  H   H6083     1.0  0.90517  0.50626  0.76686  1.0000
  H   H6084     1.0  0.83972  0.55644  0.85511  1.0000
  C   C3424     1.0  0.90351  0.54288  0.79900  1.0000
  C   C3425     1.0  0.78016  0.57471  0.78059  1.0000
  H   H6085     1.0  0.81355  0.55752  0.83031  1.0000
  S   S763      1.0  0.85532  0.58652  0.74273  1.0000
  H   H6086     1.0  0.80457  0.58867  0.82777  1.0000
  C   C3426     1.0  0.82714  0.55366  0.83411  1.0000
  H   H6087     1.0  0.84543  0.51598  0.81785  1.0000
  H   H6088     1.0  0.78354  0.58326  0.86823  1.0000
  C   C3427     1.0  0.88888  0.57314  0.78501  1.0000
  C   C3428     1.0  0.81432  0.57319  0.87872  1.0000
  H   H6089     1.0  0.82994  0.53860  0.83944  1.0000
  C   C3429     1.0  0.83339  0.51848  0.91861  1.0000
  S   S764      1.0  0.94820  0.48975  0.85713  1.0000
  H   H6090     1.0  0.83964  0.58642  0.89020  1.0000
  N   N191      1.0  0.86124  0.49519  0.83559  1.0000
  H   H6091     1.0  0.72227  0.63074  0.90761  1.0000
  H   H6092     1.0  0.90292  0.57101  0.96530  1.0000
  C   C3430     1.0  0.93509  0.49711  0.82553  1.0000
  C   C3431     1.0  0.82673  0.59636  0.88797  1.0000
  H   H6093     1.0  0.68151  0.60701  0.90008  1.0000
  C   C3432     1.0  0.70120  0.63257  0.88719  1.0000
  H   H6094     1.0  0.73431  0.59863  0.94203  1.0000
  H   H6095     1.0  0.88388  0.54489  0.88292  1.0000
  H   H6096     1.0  0.85014  0.50045  0.78305  1.0000
  C   C3433     1.0  0.89967  0.51365  0.90652  1.0000
  H   H6097     1.0  0.92281  0.56805  0.76163  1.0000
  C   C3434     1.0  0.96002  0.58932  0.78031  1.0000
  H   H6098     1.0  0.72275  0.50250  0.89457  1.0000
  C   C3435     1.0  0.68126  0.63572  0.91693  1.0000
  H   H6099     1.0  0.90164  0.52103  0.84045  1.0000
  H   H6100     1.0  0.82042  0.50527  0.84125  1.0000
  H   H6101     1.0  0.69848  0.58862  0.93423  1.0000
  C   C3436     1.0  0.84272  0.49659  0.95126  1.0000
  H   H6102     1.0  0.90708  0.51676  0.89201  1.0000
  H   H6103     1.0  0.93205  0.48925  0.93376  1.0000
  H   H6104     1.0  0.93218  0.58907  0.78007  1.0000
  H   H6105     1.0  0.94263  0.60363  0.76094  1.0000
  H   H6106     1.0  0.86971  0.63289  0.97656  1.0000
  H   H6107     1.0  0.86260  0.55021  0.89894  1.0000
  N   N192      1.0  0.94912  0.57481  0.75888  1.0000
  H   H6108     1.0  0.94241  0.55660  0.78510  1.0000
  S   S765      1.0  0.79825  0.57135  0.97413  1.0000
  C   C3437     1.0  0.70541  0.51717  0.92529  1.0000
  H   H6109     1.0  0.86745  0.48963  0.75386  1.0000
  H   H6110     1.0  0.70334  0.64666  0.88614  1.0000
  H   H6111     1.0  0.87955  0.55087  0.97749  1.0000
  H   H6112     1.0  0.82973  0.52699  0.90603  1.0000
  H   H6113     1.0  0.96109  0.57690  0.79148  1.0000
  C   C3438     1.0  0.72270  0.63469  0.85589  1.0000
  H   H6114     1.0  0.82445  0.54061  0.93328  1.0000
  H   H6115     1.0  0.94171  0.60654  0.79896  1.0000
  H   H6116     1.0  0.93612  0.61475  0.96006  1.0000
  H   H6117     1.0  0.87221  0.51687  0.90049  1.0000
  C   C3439     1.0  0.93264  0.57563  0.75116  1.0000
  S   S766      1.0  0.88647  0.54351  0.77198  1.0000
  C   C3440     1.0  0.91438  0.50394  0.75359  1.0000
  S   S767      1.0  0.85244  0.54354  0.74436  1.0000
  C   C3441     1.0  0.86818  0.61930  0.97523  1.0000
  C   C3442     1.0  0.71401  0.62006  0.91497  1.0000
  H   H6118     1.0  0.95485  0.61893  0.77879  1.0000
  C   C3443     1.0  0.95973  0.52166  0.77785  1.0000
  C   C3444     1.0  0.67460  0.49599  0.79604  1.0000
  C   C3445     1.0  0.83452  0.63407  0.97672  1.0000
  C   C3446     1.0  0.92829  0.49205  0.81263  1.0000
  C   C3447     1.0  0.71997  0.49173  0.82295  1.0000
  H   H6119     1.0  0.66942  0.49567  0.78392  1.0000
  H   H6120     1.0  0.93682  0.56839  0.73941  1.0000
  H   H6121     1.0  0.96872  0.56455  0.73621  1.0000
  H   H6122     1.0  0.67502  0.60139  0.93574  1.0000
  H   H6123     1.0  0.68901  0.49787  0.79133  1.0000
  C   C3448     1.0  0.84049  0.49966  0.91965  1.0000
  H   H6124     1.0  0.69229  0.56736  0.91839  1.0000
  H   H6125     1.0  0.83642  0.64714  0.97895  1.0000
  H   H6126     1.0  0.96007  0.49047  0.89707  1.0000
  H   H6127     1.0  0.77007  0.49915  0.85803  1.0000
  C   C3449     1.0  0.79812  0.48718  0.95025  1.0000
  H   H6128     1.0  0.81275  0.50143  0.87587  1.0000
  H   H6129     1.0  0.89341  0.49262  0.88991  1.0000
  H   H6130     1.0  0.66410  0.59017  0.84553  1.0000
  H   H6131     1.0  0.76244  0.49158  0.84153  1.0000
  H   H6132     1.0  0.84461  0.49332  0.81737  1.0000
  H   H6133     1.0  0.77670  0.49849  0.97033  1.0000
  H   H6134     1.0  0.87643  0.48816  0.79877  1.0000
  C   C3450     1.0  0.81384  0.49022  0.86877  1.0000
  C   C3451     1.0  0.71156  0.49706  0.92337  1.0000
  H   H6135     1.0  0.75610  0.53384  0.97950  1.0000
  C   C3452     1.0  0.72806  0.49470  0.90705  1.0000
  H   H6136     1.0  0.80359  0.49997  0.94479  1.0000
  C   C3453     1.0  0.89566  0.56946  0.97994  1.0000
  H   H6137     1.0  0.83522  0.49624  0.74781  1.0000
  C   C3454     1.0  0.89571  0.48977  0.93416  1.0000
  H   H6138     1.0  0.92898  0.48950  0.89426  1.0000
  S   S768      1.0  0.84397  0.49007  0.90032  1.0000
  H   H6139     1.0  0.69968  0.49291  0.92106  1.0000
  H   H6140     1.0  0.75759  0.49017  0.78020  1.0000
  H   H6141     1.0  0.78847  0.48726  0.94171  1.0000
  H   H6142     1.0  0.96211  0.60607  0.73513  1.0000
  C   C3455     1.0  0.76594  0.48740  0.85533  1.0000
  H   H6143     1.0  0.98618  0.50331  0.81155  1.0000
  C   C3456     1.0  0.76935  0.48662  0.80368  1.0000
  H   H6144     1.0  0.98739  0.48702  0.84176  1.0000
