data_image0
_chemical_formula_structural       CH2CHCHC3H2CH2SH4C2HCH2CH2CH2C2H4C2SH7C3H2CH2C2H4CH3CHC2HCH2CHCH8CHCH4CSCH2CHCH2CH2NHNCH2CH4SCHNFeS2FeS2C2S2HFeS2FeSH3SHFeSFeSFeSFeSHSH2S2CHFeSH3S2FeS2FeS2FeSFeS3H2SFeSFeSC6H5C6H4C6H4C3H2CHCHC3H3C5H3SCH2C6H4CHSH3C2H2C6H4C6H2SH2CHC2HC4H5CHC2H15FeHC2H6NC6H16NC12H28C2H3CHC3H2C2H4SCH4CH2C3H2FeNC12H24C3H5SHSC3HCH5NHC2H3CS2NH5CH5C3HC2H6NC2HSC2SHCH8CH6SH9FeC2HCH4CH3FeCHCH7CSCHSH3CH3NH2CHC2HC2FeH2C3H3C2FeH3C2H2FeH4C2HCH2C2HCH4SH3NCSCH2C2FeHFeCH2CH2FeHCHFeCH2FeSC2HC2H2CH3SCH4CHCH2FeHSHCH2CH3C2HSH3SH2CHSH3CHCH2CSCH3CH2FeS2FeSHSHC3H2SHCSC4H2CHC2HCFeCHCHCH5CHCH7CH8CH2SH2CHCH3CHCH3CH4CH2C2HCHCHC2HCHNHCFeHFeCHCH3C2H5SH2CHSHSH2SH2SHCHFeS2FeS2FeSFeS3FeSCFeSNFeSFeS3FeS2FeSFeCFeS3HCH2C7H4C6H6CH2CH2SC5H4C4HCFeC6H4CHCH2C6H6C4H2C2H2CSHSHCNH11C2HC3HCHCH2CH8SH7SCNC11H15CHC2H7CFeSH4CH7CHC3HC2H3C3HCHCH2SH5CH3C6HCH5NHCNC12H28SHCH2CNH4NCSNCH2NH3CH3C3H7C3HC2HFeH2CHCHCH7CH3CH4CHC2H3C2H2C3HC3HCH3CH6NHCH3CH2CH2CH3C2H6C2H2C2H4CH4C2H11NH4CH2C3HCH3CHC3FeSCFeS2HFeS3H2FeS2FeSHFeSFeS3FeS2H3FeS2FeS2FeS2FeSFeS3CHC6H8C6H4CHC5H3C6H2C7H4C5H2NC10H9CH7CH11C3H3CFeC3H7CSCH2CHC2H2CH3C2H9NH2CH8CH2C2H4CHSHSHCH5C2H3CH2CHCH2C2HCHCH4CNH2SH6SH5C2HC2HCH6CH3CH4C3HNH4CHCH4CNH2CHCH4C2HCHC3H2CHC3H8CHC3H4C2H2CH3CH4C2H3CH3C2H2C2HCH2C2H8CH3C2H2CHC5H6CSHCH3NHCH2CNHC2H3CH2C2HCHCH4CH6CH3CHCH3CH5CH2C2H2FeS2FeS2HFeS2FeS2FeSFeS3FeS2FeS2FeSFeS3HSNH6C2H3SHCH2CH2CHCHCH3C6H4C6H4C6H4CH2C2NH2SHC2HCH6C6H10CH6CH2CH2CNH9NC6HC4H17CH8CHCH6CH6SH5C2HCH2C5H3CHC2NH2CHFeCH2CH3C2H2C3H3C3NCHCHC3H5CHC2H4CHC2HCHSCH5N2H4C2H8NC2H3CH7CFeHCH2C2H2C2H3CHCHC2H11C3H2CHCH3C3H4C4FeCHCH2CH2C2H2CH3C2H2C2HSH3CH2CH3C2H3FeS2FeS2FeSFeS3FeS2FeS2FeSFeS3FeS2FeSHFe2S3FeS2FeS2FeSFeS3NH2C6H4C6H4C6H4C6H4C6H10C3H2C6H3C5H3C6H11CHC2H3CH4CH4C2NC3H2CHSHC2H9C2H6CH4CH4C2H5CH2NC9H17SH2CHC2H3NC12H25FeH2CH2CH4C2HCH3CH3CH9CSH2C3H3C4H3CNH4CSHFeHNC2HCHC2H3CH2CH4CHCHC2H4CH3C3H5C3H2CH4C2H5CHCHCH2SH2C2H2C2H3CH4CHCH6C3H5CH2NHCHCHCH4CHNHCHCHCHC2H2CSH7C2H3CHCH4CHCHCH2SH9CH4SCSH7CH2CFeC2H4CH7C2HFeH5FeS2FeS2FeSHFeS2Fe2S3FeS2FeS2FeSFeS3HCHFeS2FeSHSFeS2FeS2FeSFeS3CH4CH2C6H5CHC2H5C6H4C6H5CHC2H5C6H4NH3C6H4C6H8CH3CH2CHCHC2H2CNHCHCHCHCNC3H4C2H4CHC4H3C3HCH5CH5CHCH11CHCHC3NH2CH3CH2C2H13NC9H2CH10CH8CHCH2FeH3NC12H33CH8C2S2HCH9C2H3CHCHC5H3C2H5CHCHCH3C2H2SH3CH3NHC2HC3H2FeHCS2FeS2FeS2FeSFeS3FeS2FeS2FeSFeS3CHC2FeHCH3SHFeHFeSCSH5NC7H4C6H4C6H11C6H4CH4CFeSH6CHC2H4NC8H2C2H17C3H12CH3C2H5FeC2HCH5SCH8CHCH6CHCHCH9CFeC2H5CH8FeC2HCH9CHC4NH3CH4CH8C2SHC2H2NH2CHSHCHC3HCH3CSCHSHC4HC3HC2H2NCH2CH3C4H2C2HCH2CH3C2HCH5S2H2CNCHCH5CFeCHNH2CH2CH2S2CFeS2FeS2FeSFeS3FeS2FeS2FeSFeS3HFeS2HFeSCSC2H2C2H3C6H4C6H4C6H6C4H4C6H5C2H5C3H3CNC3H4C2HNH3NC12H28CH6NH2C2H2C2HC3H7C2H5CHNH2CH3NHC3H3C2H2C2H3CH6CSH6CH2CH6CHCH7C2H9C2H8CHCHCHCHCNC3SH2C3H9CH3CH4CH3FeHCH2NC12H16CHCHCH5C2HC2HC2H2CH2C4SH3C2H4CFeH2NCH7C3HC2HCH2CH2C2H3C2HC4HCHC2HCH4CH4C2H6C2H2NH4SH2SHFeHSHCH2CHC3S2H10CHC2HSH3CSFeS2FeSCHSHFeS2FeSHFeSFeS3FeS2Fe3SFeSCFeHSHCSHSHFeHS3C3H2C6H6CSHC6H5C6H5C6H4C6H4C6H2CHCH5C3HC2HCH5CH6CH7C2H2C2SHC2H3FeSH3CHCH4SNH3Fe2C2HC2HSH2C2H2SCNC12H28NC6HCSCSH12CH2CH7C4H2CH2SCH5NC12H21CH8CHSC2H2NHCH2FeHCHCH3C2HSH2CNFeCHCHCH6C2H2C2H3CH2SHCH4CH2C2NH4CH5C3HCH5CH2CH5SCH3CSH10CH9CHSH3CHSHCH2CH2CFeH3CSH2CH3CH3CSFeS2FeS2FeSFeS3FeC2FeS2C4S2FeS2H2FeS2H2FeS2FeS2H3SC6H11CHCH5C7H4C6H4C6H4C2HNH2CH2CH2CHCHC3HC3H2C3H2CH2SCH4FeCH3CH6C2H3CH2CH4CH5C2H6CH3CH5C2HCH3FeCH7CHCHSH5S2H7CSCHCHFeNH8C4NC3H2C3H3CH2C2H3CH2CH2CHCH5FeCHNH5C2HCH7FeHCH3CHCH2C2HCH2FeHC3HCHNCHC7H11CHC3H9C5SH3CH9C2HCH4CHNH4CSCH3C2H3CHNCHFeHCHCH3CHCNHC3HCH2FeS2FeS2FeSFeS3HFeS2FeS2FeS2FeS2FeSFeS3CSH3CFeS2FeS2FeSFeS3FeCSHNHC6H4C6H4C6H4C6H4C4H3C3H4CHC6H4C3H2CSH3C6H4C6H4C6HCH2CH3C2H2C2HNH2CH4C3H6C3H6CH3C2H4NC2H2C2H2C2HC4HC2H4C4HCSH7CH5C2SH3CH5CH5C3NC8H2C2H14CH13NC10H23CHCNC5H13C2HNHC2HSHCH4C2H13CH2CHCH3CH4NC8HC3H14CH2CH11CHCHC2H3CHCHC3H2CH2CH9CSH4CH3C2H2C2H4NH3CHC2H5CHNHCH5CSHCHCHSC2H6C3HCHCHCHC3H5C2H7C3H9CHCHNH9NH8NH2SH6CHCH3C2NH2C3HCH12FeS2FeS2FeS2FeSHFeSFeS3FeS2FeS2FeSFeCS2CHCFeS2FeS2H2SH5S3H5CHC3HC2H7C2HC6H4CH2C4H3C6H4C6H4C6H4C6H5NC12H18CH13C2H5C2NC2HC2HCH2CH11CH2CH2SH5CHCNC12H33CH3C2H2NH3C2SH2CHC2HC3FeH5CH3CH4SHCSH2C2H2CNHCH3CHNHC9H18SCNH6C2H3C2HCH4CHCH4CHCHFeH3C2FeH3NHCH3FeH2C2HCHCH3FeH2CH4CHC2H3SCH2CHC2HCH3C7H2CS2HCHFeSH2SFeH2SHCSFeS2FeS2FeSFeS3HSHCHSH2FeSCH2CHC6H4CHCHC6H6CHCH2C4NH3C6H10CHCHCHCHCH8CH2FeH8CHC3H2CH5CHNCNC3S2H2CH3NH3CHCH3CHSHNH3C4H2CH4CH3C2H3CHCH5CH3CHC2HCH2FeH2C2HSHNH4C3H3CHCH3CH2C2H2FeC2HNC2HC7H5CH4CH2CH2CHC2H2C3H2C2H3CH4CH4CH2CH3CH4SH8CH2CH2CHCH6C2HCHCH2FeCH2CH2FeCFeSFeS2FeSFeS3CHSHFeS2FeSFeSCSH3FeS2NSHFeSFeS3FeS2FeS2C6H5C2H3C6H2C6H4C6H4C2HCHCH3C6H4C4H4NC11H18FeHSCH4CHCHCH2CH2SHCH2C2NHCSCH2CH2CHCH7NH5CH7CH3C2H5CHCH3CHCH5C2H6C2H3CHCHCHCHCHCH11CNC11H12SH5CH6CHCH2CH4CH2C2H3CH2C2H7CH5CHCH2CHCH2CHC2FeH2FeH5SCH4CH3SCHFeSHCHFeC2H8SFeS2Fe2S2H2FeS2FeSCSHCH2SFeSFeS2FeS2FeSFeS3FeSHCH4CH2C3H4C6H4C6H4C3FeHC6H4C6H4C6H4C5H6CNC12H30NC2H5C2H2CHC3SH3CH5NC12H33CNCHC4HSC3HSHCHCH5CHCH3CHCH8CNC12H16CH3CH8CFeH2SHNHCHSNH3CH2CS2H2SHC3H3FeH3CHCHCH2NC2HSHNHC2H6FeC3HCH2FeHCHSHCHC2HC2HCNCHC2H2C2H3CH5C2H8SH2C2H2C3H2C3H5CH2CH2CHC2HFeHFeSH2C2HCH2C4SH2FeCSFeH6S2H2FeSHSCH4NH3S2H2CHCSC2H10CH2CHC2H8CH3CH4S2H3NFeSH5SH4FeC3SC6HCH5FeH3C2H3C2H2C4SHC2H2C6H5CSHC3HC4HC3H10CHSH2C2HFe2H4SHNCHSH3SNH2C2H2CH6CH6CHCH2C2H2SHCSH5C2H3CHC2FeS2FeS2FeSFeS3CFeS2HC2FeS2H2SH2SCH5CH4CH7CHC2H3CHC6H5C6H4CH3SC2HCHC6H4C6H4CFeCFeH4CHNC11H23NSH2CH9FeHSCSC2H3NC2HC2H2CHSH3FeCH13CH2CH3CHCH2C2H3NHCFeSH2CH3SHSHCHCHCHC2H3C2SNC12H19CH5CH10SCHFeHCH3CHC3HSH2CH3C3SC2SC2FeH2CH6CH3C2HCH2NCH2C2HCH5CH3FeC2H3CH2FeH4CHSCHCH5C2H4CH2C2HCSH3C2HCH2NCHC2SCHSCHC2HFeS2FeSH2SH2CS2FeCH5C2H10C6H4CH4C4NSFeCH4C8H2CH2C3FeNHCFeC7H8CH15C2H2CH2CHCH7S2CHCH3C4HCH5NH8CH4CSH5FeH2CH3CH2SCFeCSH2CHCHCH3SH5C2
_chemical_formula_sum              "C2592 H4608 S576 N144 Fe288"
_cell_length_a       71.2019
_cell_length_b       71.3233
_cell_length_c       71.1013
_cell_angle_alpha    78.5423
_cell_angle_beta     78.5999
_cell_angle_gamma    78.7166

_space_group_name_H-M_alt    "P 1"
_space_group_IT_number       1

loop_
  _space_group_symop_operation_xyz
  'x, y, z'

loop_
  _atom_site_type_symbol
  _atom_site_label
  _atom_site_symmetry_multiplicity
  _atom_site_fract_x
  _atom_site_fract_y
  _atom_site_fract_z
  _atom_site_occupancy
  C   C1        1.0  0.30899  0.00931  0.54811  1.0000
  H   H1        1.0  0.17344  0.21728  0.54429  1.0000
  H   H2        1.0  0.34699  0.23120  0.59696  1.0000
  C   C2        1.0  0.45954  0.02157  0.63522  1.0000
  H   H3        1.0  0.33193  0.00009  0.52584  1.0000
  C   C3        1.0  0.35191  0.08795  0.63806  1.0000
  H   H4        1.0  0.47480  0.08525  0.57769  1.0000
  C   C4        1.0  0.40089  0.23427  0.59146  1.0000
  C   C5        1.0  0.43777  0.00037  0.63107  1.0000
  C   C6        1.0  0.34426  0.99596  0.56512  1.0000
  H   H5        1.0  0.38098  0.05367  0.63109  1.0000
  H   H6        1.0  0.48850  0.05330  0.61036  1.0000
  C   C7        1.0  0.38689  0.02518  0.62384  1.0000
  H   H7        1.0  0.36393  0.98841  0.52986  1.0000
  H   H8        1.0  0.37946  0.01475  0.61954  1.0000
  S   S1        1.0  0.33587  0.00202  0.61465  1.0000
  H   H9        1.0  0.41146  0.15880  0.62696  1.0000
  H   H10       1.0  0.40039  0.18802  0.60550  1.0000
  H   H11       1.0  0.12893  0.18141  0.61385  1.0000
  H   H12       1.0  0.13020  0.19917  0.57557  1.0000
  C   C8        1.0  0.47779  0.07970  0.59272  1.0000
  C   C9        1.0  0.30916  0.07294  0.63523  1.0000
  H   H13       1.0  0.28526  0.00327  0.53615  1.0000
  C   C10       1.0  0.30230  0.02114  0.63275  1.0000
  H   H14       1.0  0.31550  0.02231  0.54783  1.0000
  H   H15       1.0  0.36223  0.03971  0.55803  1.0000
  C   C11       1.0  0.35750  0.23404  0.62291  1.0000
  H   H16       1.0  0.09346  0.21399  0.61634  1.0000
  H   H17       1.0  0.09994  0.19815  0.59884  1.0000
  C   C12       1.0  0.30166  0.08086  0.61602  1.0000
  H   H18       1.0  0.48767  0.08838  0.59611  1.0000
  H   H19       1.0  0.34885  0.02000  0.54060  1.0000
  C   C13       1.0  0.13486  0.20987  0.58245  1.0000
  C   C14       1.0  0.35509  0.01276  0.55382  1.0000
  H   H20       1.0  0.13710  0.22643  0.61055  1.0000
  H   H21       1.0  0.36137  0.02129  0.57943  1.0000
  H   H22       1.0  0.15725  0.19994  0.54761  1.0000
  H   H23       1.0  0.41694  0.23250  0.64625  1.0000
  C   C15       1.0  0.29292  0.01557  0.53565  1.0000
  C   C16       1.0  0.35434  0.02795  0.56651  1.0000
  S   S2        1.0  0.47610  0.08168  0.64558  1.0000
  H   H24       1.0  0.47057  0.03045  0.62906  1.0000
  H   H25       1.0  0.07423  0.23089  0.59383  1.0000
  H   H26       1.0  0.48175  0.00406  0.55487  1.0000
  H   H27       1.0  0.47613  0.05030  0.59170  1.0000
  H   H28       1.0  0.30970  0.08533  0.64222  1.0000
  H   H29       1.0  0.14468  0.20133  0.59259  1.0000
  H   H30       1.0  0.29904  0.02085  0.52030  1.0000
  C   C17       1.0  0.16387  0.20845  0.55530  1.0000
  C   C18       1.0  0.32473  0.99308  0.54017  1.0000
  C   C19       1.0  0.31770  0.00568  0.63482  1.0000
  H   H31       1.0  0.33903  0.09603  0.63170  1.0000
  H   H32       1.0  0.36645  0.04971  0.61443  1.0000
  C   C20       1.0  0.40523  0.19885  0.63102  1.0000
  H   H33       1.0  0.32732  0.04680  0.62727  1.0000
  H   H34       1.0  0.31142  0.09034  0.60619  1.0000
  C   C21       1.0  0.42235  0.16784  0.61862  1.0000
  C   C22       1.0  0.36057  0.10263  0.64534  1.0000
  H   H35       1.0  0.45767  0.01388  0.60780  1.0000
  H   H36       1.0  0.36267  0.08227  0.62621  1.0000
  H   H37       1.0  0.33907  0.03438  0.57148  1.0000
  H   H38       1.0  0.37609  0.21142  0.60837  1.0000
  C   C23       1.0  0.41242  0.18869  0.61298  1.0000
  H   H39       1.0  0.46389  0.08163  0.60301  1.0000
  H   H40       1.0  0.10175  0.22284  0.56971  1.0000
  H   H41       1.0  0.33832  0.06759  0.61937  1.0000
  C   C24       1.0  0.37374  0.21598  0.62277  1.0000
  H   H42       1.0  0.42333  0.19648  0.60265  1.0000
  C   C25       1.0  0.45215  0.01213  0.62324  1.0000
  C   C26       1.0  0.10613  0.20647  0.60719  1.0000
  H   H43       1.0  0.11279  0.16789  0.64561  1.0000
  C   C27       1.0  0.11757  0.19149  0.62163  1.0000
  H   H44       1.0  0.09695  0.17118  0.62795  1.0000
  H   H45       1.0  0.36763  0.20386  0.63314  1.0000
  C   C28       1.0  0.10417  0.17889  0.63589  1.0000
  H   H46       1.0  0.30057  0.06877  0.60877  1.0000
  C   C29       1.0  0.34129  0.23221  0.61250  1.0000
  H   H47       1.0  0.30147  0.03023  0.61873  1.0000
  H   H48       1.0  0.28697  0.08959  0.61893  1.0000
  H   H49       1.0  0.39355  0.01806  0.63687  1.0000
  H   H50       1.0  0.17295  0.19833  0.56526  1.0000
  H   H51       1.0  0.12454  0.19888  0.63010  1.0000
  H   H52       1.0  0.33465  0.21918  0.61963  1.0000
  H   H53       1.0  0.40369  0.21995  0.58681  1.0000
  H   H54       1.0  0.41894  0.22959  0.61385  1.0000
  C   C30       1.0  0.32938  0.06007  0.63211  1.0000
  H   H55       1.0  0.30212  0.00481  0.56328  1.0000
  C   C31       1.0  0.35667  0.03865  0.64561  1.0000
  H   H56       1.0  0.35339  0.98727  0.57582  1.0000
  H   H57       1.0  0.43372  0.16718  0.62754  1.0000
  H   H58       1.0  0.41871  0.19982  0.63617  1.0000
  H   H59       1.0  0.39871  0.02899  0.61173  1.0000
  C   C32       1.0  0.37255  0.04345  0.62792  1.0000
  S   S3        1.0  0.42961  0.98828  0.61519  1.0000
  C   C33       1.0  0.28809  0.02510  0.64882  1.0000
  H   H60       1.0  0.42927  0.16161  0.60531  1.0000
  H   H61       1.0  0.28216  0.02752  0.54132  1.0000
  C   C34       1.0  0.12338  0.23373  0.60516  1.0000
  H   H62       1.0  0.39750  0.18888  0.64275  1.0000
  C   C35       1.0  0.40313  0.23280  0.61304  1.0000
  H   H63       1.0  0.21103  0.16176  0.64793  1.0000
  H   H64       1.0  0.29840  0.06435  0.64470  1.0000
  C   C36       1.0  0.38767  0.22583  0.64720  1.0000
  H   H65       1.0  0.37066  0.00699  0.54925  1.0000
  H   H66       1.0  0.13995  0.23181  0.55591  1.0000
  N   N1        1.0  0.39257  0.21848  0.62799  1.0000
  H   H67       1.0  0.36461  0.11421  0.63306  1.0000
  N   N2        1.0  0.11731  0.22109  0.59343  1.0000
  C   C37       1.0  0.10427  0.23244  0.57927  1.0000
  H   H68       1.0  0.33098  0.00231  0.57425  1.0000
  H   H69       1.0  0.48733  0.02755  0.57391  1.0000
  C   C38       1.0  0.14813  0.22178  0.56662  1.0000
  H   H70       1.0  0.09291  0.18787  0.64502  1.0000
  H   H71       1.0  0.35127  0.02554  0.64374  1.0000
  H   H72       1.0  0.22673  0.22597  0.64641  1.0000
  H   H73       1.0  0.15573  0.23009  0.57354  1.0000
  S   S4        1.0  0.17393  0.18621  0.64709  1.0000
  C   C39       1.0  0.48671  0.05824  0.59492  1.0000
  H   H74       1.0  0.27632  0.03712  0.64716  1.0000
  N   N3        1.0  0.33966  0.05453  0.64955  1.0000
  Fe  Fe1       1.0  0.00973  0.12954  0.85009  1.0000
  S   S5        1.0  0.01113  0.10986  0.87877  1.0000
  S   S6        1.0  0.03691  0.14282  0.83470  1.0000
  Fe  Fe2       1.0  0.00425  0.08719  0.86464  1.0000
  S   S7        1.0  0.02063  0.05694  0.87455  1.0000
  S   S8        1.0  0.00362  0.10641  0.83540  1.0000
  C   C40       1.0  0.15022  0.18180  0.77831  1.0000
  C   C41       1.0  0.22708  0.98988  0.80668  1.0000
  S   S9        1.0  0.11195  0.18193  0.73387  1.0000
  S   S10       1.0  0.11880  0.18970  0.67654  1.0000
  H   H75       1.0  0.38100  0.11193  0.72521  1.0000
  Fe  Fe3       1.0  0.10956  0.21212  0.84101  1.0000
  S   S11       1.0  0.12946  0.18365  0.84560  1.0000
  S   S12       1.0  0.07688  0.21279  0.84403  1.0000
  Fe  Fe4       1.0  0.14382  0.19882  0.86222  1.0000
  S   S13       1.0  0.15308  0.18632  0.89106  1.0000
  H   H76       1.0  0.29676  0.08788  0.73500  1.0000
  H   H77       1.0  0.32856  0.21731  0.81684  1.0000
  H   H78       1.0  0.16662  0.16118  0.71708  1.0000
  S   S14       1.0  0.46064  0.12338  0.68015  1.0000
  H   H79       1.0  0.03753  0.20508  0.85538  1.0000
  Fe  Fe5       1.0  0.35678  0.17987  0.68080  1.0000
  S   S15       1.0  0.33663  0.16804  0.70678  1.0000
  Fe  Fe6       1.0  0.48205  0.05343  0.66594  1.0000
  S   S16       1.0  0.31984  0.21303  0.71381  1.0000
  Fe  Fe7       1.0  0.34428  0.18954  0.72171  1.0000
  S   S17       1.0  0.35096  0.17853  0.75178  1.0000
  Fe  Fe8       1.0  0.31402  0.19234  0.69653  1.0000
  S   S18       1.0  0.28377  0.18706  0.69784  1.0000
  H   H80       1.0  0.22588  0.02481  0.74951  1.0000
  S   S19       1.0  0.40192  0.20709  0.82492  1.0000
  H   H81       1.0  0.44395  0.11854  0.72686  1.0000
  H   H82       1.0  0.30715  0.18553  0.81152  1.0000
  S   S20       1.0  0.39179  0.20283  0.87172  1.0000
  S   S21       1.0  0.37571  0.15875  0.66228  1.0000
  C   C42       1.0  0.31132  0.16755  0.88944  1.0000
  H   H83       1.0  0.15009  0.14155  0.70164  1.0000
  Fe  Fe9       1.0  0.38308  0.18997  0.84879  1.0000
  S   S22       1.0  0.38221  0.15774  0.85154  1.0000
  H   H84       1.0  0.29583  0.10141  0.77396  1.0000
  H   H85       1.0  0.34355  0.02236  0.68320  1.0000
  H   H86       1.0  0.21672  0.19234  0.67327  1.0000
  S   S23       1.0  0.09314  0.00513  0.83099  1.0000
  S   S24       1.0  0.17499  0.02447  0.83596  1.0000
  Fe  Fe10      1.0  0.25560  0.08615  0.84475  1.0000
  S   S25       1.0  0.23304  0.11288  0.84227  1.0000
  S   S26       1.0  0.24749  0.05566  0.85274  1.0000
  Fe  Fe11      1.0  0.28910  0.11080  0.83784  1.0000
  S   S27       1.0  0.26860  0.13886  0.83440  1.0000
  S   S28       1.0  0.32167  0.10914  0.83627  1.0000
  Fe  Fe12      1.0  0.24960  0.12434  0.85997  1.0000
  S   S29       1.0  0.23728  0.13749  0.88683  1.0000
  Fe  Fe13      1.0  0.25442  0.12428  0.81702  1.0000
  S   S30       1.0  0.24568  0.13856  0.78828  1.0000
  S   S31       1.0  0.27082  0.09691  0.86453  1.0000
  S   S32       1.0  0.27634  0.09700  0.81828  1.0000
  H   H87       1.0  0.30887  0.13960  0.78022  1.0000
  H   H88       1.0  0.38957  0.12890  0.70436  1.0000
  S   S33       1.0  0.26868  0.06415  0.70759  1.0000
  Fe  Fe14      1.0  0.23762  0.07458  0.71904  1.0000
  S   S34       1.0  0.22594  0.07296  0.75101  1.0000
  Fe  Fe15      1.0  0.12094  0.19918  0.70422  1.0000
  S   S35       1.0  0.22634  0.05722  0.70210  1.0000
  C   C43       1.0  0.23902  0.12096  0.77796  1.0000
  C   C44       1.0  0.23402  0.10385  0.78967  1.0000
  C   C45       1.0  0.22948  0.08943  0.78133  1.0000
  C   C46       1.0  0.23062  0.09173  0.76116  1.0000
  C   C47       1.0  0.23557  0.10885  0.74942  1.0000
  C   C48       1.0  0.23940  0.12362  0.75786  1.0000
  H   H89       1.0  0.23371  0.10165  0.80518  1.0000
  H   H90       1.0  0.22560  0.07625  0.79049  1.0000
  H   H91       1.0  0.23647  0.11077  0.73387  1.0000
  H   H92       1.0  0.24333  0.13678  0.74874  1.0000
  H   H93       1.0  0.14695  0.05502  0.85391  1.0000
  C   C49       1.0  0.19453  0.03307  0.84200  1.0000
  C   C50       1.0  0.19762  0.05216  0.83397  1.0000
  C   C51       1.0  0.21352  0.05942  0.83736  1.0000
  C   C52       1.0  0.22661  0.04763  0.84881  1.0000
  C   C53       1.0  0.22345  0.02859  0.85690  1.0000
  C   C54       1.0  0.20751  0.02134  0.85356  1.0000
  H   H94       1.0  0.18795  0.06124  0.82464  1.0000
  H   H95       1.0  0.21600  0.07391  0.83066  1.0000
  H   H96       1.0  0.23353  0.01930  0.86569  1.0000
  H   H97       1.0  0.20545  0.00660  0.85973  1.0000
  C   C55       1.0  0.36377  0.14570  0.84806  1.0000
  C   C56       1.0  0.36765  0.12544  0.85059  1.0000
  C   C57       1.0  0.35443  0.11483  0.84711  1.0000
  C   C58       1.0  0.33672  0.12412  0.84147  1.0000
  C   C59       1.0  0.33241  0.14450  0.83925  1.0000
  C   C60       1.0  0.34598  0.15528  0.84250  1.0000
  H   H98       1.0  0.38126  0.11784  0.85486  1.0000
  H   H99       1.0  0.35806  0.09919  0.84876  1.0000
  H   H100      1.0  0.31898  0.15190  0.83450  1.0000
  H   H101      1.0  0.34287  0.17092  0.84054  1.0000
  C   C61       1.0  0.28562  0.16438  0.69109  1.0000
  C   C62       1.0  0.30270  0.15656  0.67988  1.0000
  C   C63       1.0  0.43349  0.13625  0.75005  1.0000
  H   H102      1.0  0.31459  0.16468  0.67494  1.0000
  H   H103      1.0  0.27253  0.06887  0.75475  1.0000
  C   C64       1.0  0.35643  0.19628  0.76276  1.0000
  H   H104      1.0  0.26674  0.22996  0.76699  1.0000
  C   C65       1.0  0.19415  0.16749  0.70173  1.0000
  H   H105      1.0  0.14579  0.11614  0.74243  1.0000
  C   C66       1.0  0.36685  0.20478  0.79005  1.0000
  C   C67       1.0  0.36359  0.19072  0.78035  1.0000
  C   C68       1.0  0.16907  0.08456  0.73404  1.0000
  H   H106      1.0  0.33734  0.11052  0.75697  1.0000
  H   H107      1.0  0.37196  0.20036  0.80386  1.0000
  H   H108      1.0  0.36612  0.17555  0.78679  1.0000
  C   C69       1.0  0.39925  0.14886  0.66739  1.0000
  C   C70       1.0  0.40913  0.15883  0.67629  1.0000
  C   C71       1.0  0.42809  0.15098  0.67970  1.0000
  C   C72       1.0  0.43719  0.13294  0.67461  1.0000
  C   C73       1.0  0.42735  0.12298  0.66562  1.0000
  H   H109      1.0  0.40229  0.17273  0.68026  1.0000
  H   H110      1.0  0.43582  0.15890  0.68627  1.0000
  H   H111      1.0  0.43567  0.12239  0.76047  1.0000
  S   S36       1.0  0.23528  0.10184  0.69713  1.0000
  C   C74       1.0  0.28936  0.09219  0.74912  1.0000
  H   H112      1.0  0.41283  0.17123  0.75590  1.0000
  H   H113      1.0  0.32969  0.08859  0.72828  1.0000
  C   C75       1.0  0.17627  0.17228  0.88933  1.0000
  C   C76       1.0  0.18504  0.16689  0.90595  1.0000
  C   C77       1.0  0.20381  0.15626  0.90498  1.0000
  C   C78       1.0  0.21381  0.15074  0.88743  1.0000
  C   C79       1.0  0.20507  0.15600  0.87076  1.0000
  C   C80       1.0  0.18624  0.16682  0.87169  1.0000
  H   H114      1.0  0.17728  0.17095  0.91963  1.0000
  H   H115      1.0  0.21053  0.15212  0.91790  1.0000
  H   H116      1.0  0.21290  0.15181  0.85720  1.0000
  H   H117      1.0  0.17941  0.17076  0.85886  1.0000
  C   C81       1.0  0.32533  0.12311  0.75718  1.0000
  H   H118      1.0  0.41426  0.13740  0.71993  1.0000
  S   S37       1.0  0.36643  0.19957  0.69661  1.0000
  H   H119      1.0  0.13022  0.04936  0.87591  1.0000
  H   H120      1.0  0.19426  0.14223  0.83735  1.0000
  H   H121      1.0  0.02154  0.17796  0.85244  1.0000
  C   C82       1.0  0.11974  0.17741  0.77084  1.0000
  C   C83       1.0  0.13123  0.17801  0.78457  1.0000
  H   H122      1.0  0.10515  0.17427  0.77561  1.0000
  H   H123      1.0  0.12554  0.17523  0.79997  1.0000
  C   C84       1.0  0.04189  0.04462  0.86164  1.0000
  C   C85       1.0  0.05731  0.03503  0.87149  1.0000
  C   C86       1.0  0.07351  0.02346  0.86214  1.0000
  C   C87       1.0  0.07408  0.02081  0.84304  1.0000
  C   C88       1.0  0.05864  0.03033  0.83326  1.0000
  C   C89       1.0  0.04273  0.04229  0.84242  1.0000
  H   H124      1.0  0.05664  0.03645  0.88649  1.0000
  H   H125      1.0  0.08531  0.01624  0.86981  1.0000
  H   H126      1.0  0.05883  0.02820  0.81857  1.0000
  H   H127      1.0  0.03068  0.04903  0.83492  1.0000
  C   C90       1.0  0.04788  0.16141  0.83963  1.0000
  C   C91       1.0  0.06800  0.16101  0.83352  1.0000
  C   C92       1.0  0.07716  0.17625  0.83538  1.0000
  C   C93       1.0  0.06626  0.19233  0.84318  1.0000
  C   C94       1.0  0.04616  0.19270  0.84942  1.0000
  C   C95       1.0  0.03704  0.17728  0.84784  1.0000
  H   H128      1.0  0.07655  0.14892  0.82711  1.0000
  H   H129      1.0  0.09257  0.17578  0.83031  1.0000
  S   S38       1.0  0.33334  0.20254  0.66904  1.0000
  H   H130      1.0  0.24814  0.00059  0.73190  1.0000
  H   H131      1.0  0.22847  0.03727  0.78574  1.0000
  C   C96       1.0  0.20631  0.20479  0.75916  1.0000
  H   H132      1.0  0.19991  0.00270  0.77902  1.0000
  C   C97       1.0  0.20832  0.20682  0.79322  1.0000
  C   C98       1.0  0.22206  0.18727  0.79691  1.0000
  H   H133      1.0  0.22361  0.21390  0.85605  1.0000
  C   C99       1.0  0.40075  0.13627  0.76909  1.0000
  C   C100      1.0  0.22400  0.19166  0.74919  1.0000
  C   C101      1.0  0.21736  0.17759  0.73926  1.0000
  C   C102      1.0  0.22069  0.17920  0.81861  1.0000
  H   H134      1.0  0.25329  0.01127  0.81459  1.0000
  H   H135      1.0  0.18135  0.10148  0.70741  1.0000
  H   H136      1.0  0.25142  0.23350  0.83879  1.0000
  H   H137      1.0  0.24155  0.21094  0.76468  1.0000
  H   H138      1.0  0.19568  0.19532  0.76722  1.0000
  C   C103      1.0  0.30409  0.99748  0.66890  1.0000
  H   H139      1.0  0.03917  0.99688  0.85788  1.0000
  C   C104      1.0  0.40667  0.14206  0.78677  1.0000
  C   C105      1.0  0.22969  0.22357  0.76532  1.0000
  H   H140      1.0  0.19345  0.20334  0.79837  1.0000
  H   H141      1.0  0.23743  0.18866  0.79102  1.0000
  H   H142      1.0  0.21770  0.17641  0.79010  1.0000
  H   H143      1.0  0.40373  0.15803  0.78606  1.0000
  H   H144      1.0  0.33604  0.19344  0.88964  1.0000
  H   H145      1.0  0.29469  0.06265  0.76492  1.0000
  H   H146      1.0  0.31478  0.11400  0.78843  1.0000
  H   H147      1.0  0.23308  0.20071  0.73783  1.0000
  H   H148      1.0  0.23328  0.18296  0.75962  1.0000
  H   H149      1.0  0.23016  0.16919  0.73126  1.0000
  H   H150      1.0  0.20937  0.16726  0.75024  1.0000
  H   H151      1.0  0.20784  0.18571  0.72874  1.0000
  H   H152      1.0  0.22927  0.16437  0.82062  1.0000
  H   H153      1.0  0.22670  0.18842  0.82601  1.0000
  H   H154      1.0  0.20537  0.17824  0.82542  1.0000
  Fe  Fe16      1.0  0.34114  0.22137  0.68713  1.0000
  H   H155      1.0  0.36455  0.03405  0.65822  1.0000
  C   C106      1.0  0.26867  0.13886  0.94894  1.0000
  C   C107      1.0  0.32018  0.12666  0.77858  1.0000
  H   H156      1.0  0.19692  0.09472  0.72480  1.0000
  H   H157      1.0  0.47758  0.12443  0.71935  1.0000
  H   H158      1.0  0.16055  0.11947  0.66729  1.0000
  H   H159      1.0  0.16878  0.05390  0.73587  1.0000
  H   H160      1.0  0.18159  0.06496  0.71324  1.0000
  H   H161      1.0  0.40907  0.11776  0.73854  1.0000
  N   N4        1.0  0.30892  0.11945  0.74853  1.0000
  C   C108      1.0  0.31563  0.11933  0.72705  1.0000
  C   C109      1.0  0.29138  0.13502  0.75121  1.0000
  C   C110      1.0  0.33294  0.10327  0.72168  1.0000
  C   C111      1.0  0.29494  0.15622  0.74403  1.0000
  C   C112      1.0  0.27637  0.17053  0.74867  1.0000
  C   C113      1.0  0.33802  0.10403  0.69968  1.0000
  H   H162      1.0  0.32030  0.13331  0.71979  1.0000
  H   H163      1.0  0.30338  0.11837  0.71984  1.0000
  H   H164      1.0  0.28005  0.13312  0.74333  1.0000
  H   H165      1.0  0.28444  0.13372  0.76677  1.0000
  H   H166      1.0  0.33188  0.13561  0.74811  1.0000
  H   H167      1.0  0.19242  0.05982  0.73516  1.0000
  H   H168      1.0  0.27644  0.10307  0.74636  1.0000
  H   H169      1.0  0.34609  0.10519  0.72673  1.0000
  H   H170      1.0  0.30625  0.15979  0.75080  1.0000
  H   H171      1.0  0.29951  0.15868  0.72809  1.0000
  H   H172      1.0  0.27920  0.18559  0.74315  1.0000
  H   H173      1.0  0.26483  0.16801  0.74144  1.0000
  H   H174      1.0  0.27128  0.16894  0.76463  1.0000
  H   H175      1.0  0.34153  0.11851  0.69234  1.0000
  H   H176      1.0  0.35087  0.09291  0.69617  1.0000
  H   H177      1.0  0.32570  0.10100  0.69397  1.0000
  N   N5        1.0  0.08579  0.08707  0.82109  1.0000
  C   C114      1.0  0.08531  0.10862  0.81462  1.0000
  C   C115      1.0  0.08052  0.08229  0.84303  1.0000
  C   C116      1.0  0.10640  0.07725  0.81539  1.0000
  C   C117      1.0  0.07291  0.07923  0.81111  1.0000
  C   C118      1.0  0.05129  0.08867  0.81323  1.0000
  C   C119      1.0  0.09095  0.11550  0.79242  1.0000
  C   C120      1.0  0.11081  0.05516  0.82320  1.0000
  C   C121      1.0  0.06547  0.09726  0.85362  1.0000
  C   C122      1.0  0.06122  0.08969  0.87546  1.0000
  C   C123      1.0  0.04108  0.08204  0.79927  1.0000
  C   C124      1.0  0.08828  0.13759  0.78758  1.0000
  C   C125      1.0  0.13185  0.04700  0.81596  1.0000
  H   H178      1.0  0.09513  0.11383  0.82216  1.0000
  H   H179      1.0  0.07070  0.11680  0.81908  1.0000
  H   H180      1.0  0.07531  0.06805  0.84733  1.0000
  H   H181      1.0  0.09364  0.08060  0.84992  1.0000
  H   H182      1.0  0.11674  0.08433  0.82041  1.0000
  H   H183      1.0  0.11046  0.07887  0.79928  1.0000
  H   H184      1.0  0.07887  0.07983  0.79535  1.0000
  H   H185      1.0  0.07287  0.06359  0.81676  1.0000
  H   H186      1.0  0.04928  0.10470  0.80996  1.0000
  H   H187      1.0  0.04393  0.08407  0.82825  1.0000
  H   H188      1.0  0.10641  0.10998  0.78724  1.0000
  H   H189      1.0  0.08172  0.11066  0.78406  1.0000
  H   H190      1.0  0.10160  0.04701  0.81808  1.0000
  H   H191      1.0  0.10848  0.05204  0.83934  1.0000
  H   H192      1.0  0.07126  0.11099  0.85195  1.0000
  H   H193      1.0  0.05161  0.10063  0.84792  1.0000
  H   H194      1.0  0.07485  0.08525  0.88170  1.0000
  H   H195      1.0  0.05200  0.10132  0.88301  1.0000
  H   H196      1.0  0.05338  0.07715  0.87825  1.0000
  H   H197      1.0  0.02537  0.08810  0.80164  1.0000
  H   H198      1.0  0.04725  0.08725  0.78394  1.0000
  H   H199      1.0  0.04264  0.06598  0.80171  1.0000
  H   H200      1.0  0.09745  0.14329  0.79537  1.0000
  H   H201      1.0  0.09260  0.14223  0.77168  1.0000
  H   H202      1.0  0.07280  0.14391  0.79179  1.0000
  H   H203      1.0  0.13493  0.03151  0.82259  1.0000
  H   H204      1.0  0.13433  0.04804  0.79991  1.0000
  H   H205      1.0  0.14202  0.05486  0.82009  1.0000
  C   C126      1.0  0.28227  0.07435  0.76208  1.0000
  C   C127      1.0  0.28898  0.12773  0.68081  1.0000
  H   H206      1.0  0.16683  0.08376  0.75005  1.0000
  H   H207      1.0  0.33366  0.13461  0.80003  1.0000
  H   H208      1.0  0.27131  0.17851  0.89349  1.0000
  C   C128      1.0  0.30317  0.10025  0.75878  1.0000
  H   H209      1.0  0.15090  0.15524  0.66008  1.0000
  C   C129      1.0  0.18206  0.15503  0.71764  1.0000
  C   C130      1.0  0.28936  0.15288  0.91791  1.0000
  C   C131      1.0  0.18144  0.10036  0.72324  1.0000
  H   H210      1.0  0.18405  0.21032  0.88502  1.0000
  H   H211      1.0  0.20469  0.21863  0.88848  1.0000
  C   C132      1.0  0.17862  0.06460  0.72925  1.0000
  C   C133      1.0  0.36317  0.22444  0.78206  1.0000
  H   H212      1.0  0.35036  0.17251  0.88000  1.0000
  H   H213      1.0  0.15459  0.08781  0.72946  1.0000
  H   H214      1.0  0.26029  0.12723  0.69745  1.0000
  H   H215      1.0  0.37795  0.21685  0.65786  1.0000
  S   S39       1.0  0.25604  0.07431  0.66377  1.0000
  C   C134      1.0  0.24121  0.20778  0.66941  1.0000
  H   H216      1.0  0.25598  0.02388  0.72586  1.0000
  H   H217      1.0  0.25137  0.99378  0.77467  1.0000
  H   H218      1.0  0.26830  0.00476  0.74182  1.0000
  H   H219      1.0  0.26575  0.18656  0.84123  1.0000
  C   C135      1.0  0.25836  0.03975  0.80036  1.0000
  H   H220      1.0  0.38733  0.23370  0.68421  1.0000
  H   H221      1.0  0.42227  0.13690  0.78760  1.0000
  C   C136      1.0  0.43077  0.99832  0.65110  1.0000
  C   C137      1.0  0.20540  0.13241  0.65738  1.0000
  C   C138      1.0  0.12687  0.18149  0.75091  1.0000
  H   H222      1.0  0.27394  0.07816  0.77614  1.0000
  H   H223      1.0  0.12608  0.07280  0.86080  1.0000
  Fe  Fe17      1.0  0.14870  0.19703  0.81961  1.0000
  N   N6        1.0  0.17236  0.09427  0.87409  1.0000
  C   C139      1.0  0.18362  0.10714  0.85818  1.0000
  C   C140      1.0  0.18613  0.07797  0.88388  1.0000
  C   C141      1.0  0.15980  0.08535  0.86462  1.0000
  C   C142      1.0  0.15917  0.10562  0.88876  1.0000
  C   C143      1.0  0.16896  0.11694  0.89947  1.0000
  C   C144      1.0  0.17148  0.12423  0.84637  1.0000
  C   C145      1.0  0.14940  0.06895  0.87776  1.0000
  C   C146      1.0  0.20609  0.08244  0.88580  1.0000
  C   C147      1.0  0.21677  0.06594  0.89898  1.0000
  C   C148      1.0  0.15375  0.12998  0.91160  1.0000
  C   C149      1.0  0.18466  0.13590  0.83072  1.0000
  C   C150      1.0  0.13742  0.06114  0.86634  1.0000
  H   H224      1.0  0.19314  0.09821  0.84767  1.0000
  H   H225      1.0  0.19361  0.11372  0.86405  1.0000
  H   H226      1.0  0.17888  0.07198  0.89862  1.0000
  H   H227      1.0  0.18999  0.06562  0.87558  1.0000
  H   H228      1.0  0.16863  0.07926  0.85178  1.0000
  H   H229      1.0  0.14812  0.09657  0.85897  1.0000
  H   H230      1.0  0.14761  0.11596  0.88185  1.0000
  H   H231      1.0  0.15124  0.09580  0.90040  1.0000
  H   H232      1.0  0.17845  0.12638  0.88926  1.0000
  H   H233      1.0  0.17761  0.10665  0.90966  1.0000
  H   H234      1.0  0.16184  0.11903  0.83875  1.0000
  H   H235      1.0  0.16254  0.13431  0.85598  1.0000
  H   H236      1.0  0.13934  0.07431  0.89029  1.0000
  H   H237      1.0  0.15995  0.05650  0.88343  1.0000
  H   H238      1.0  0.21538  0.08393  0.87127  1.0000
  H   H239      1.0  0.20489  0.09599  0.89159  1.0000
  H   H240      1.0  0.21871  0.05205  0.89342  1.0000
  H   H241      1.0  0.23139  0.06911  0.89916  1.0000
  H   H242      1.0  0.20864  0.06435  0.91408  1.0000
  H   H243      1.0  0.14542  0.14148  0.90202  1.0000
  H   H244      1.0  0.14356  0.12139  0.92206  1.0000
  H   H245      1.0  0.16105  0.13712  0.92000  1.0000
  H   H246      1.0  0.19374  0.12663  0.82036  1.0000
  H   H247      1.0  0.17563  0.14796  0.82250  1.0000
  C   C151      1.0  0.27028  0.15381  0.69735  1.0000
  C   C152      1.0  0.40579  0.13386  0.73467  1.0000
  C   C153      1.0  0.27203  0.13541  0.69236  1.0000
  H   H248      1.0  0.25716  0.15974  0.70620  1.0000
  H   H249      1.0  0.11724  0.14408  0.72259  1.0000
  H   H250      1.0  0.39986  0.13734  0.81820  1.0000
  H   H251      1.0  0.19060  0.16728  0.68730  1.0000
  H   H252      1.0  0.20991  0.16221  0.70166  1.0000
  S   S40       1.0  0.16533  0.20905  0.83670  1.0000
  H   H253      1.0  0.37408  0.13696  0.74588  1.0000
  S   S41       1.0  0.16510  0.18205  0.79506  1.0000
  C   C154      1.0  0.14572  0.18551  0.74481  1.0000
  C   C155      1.0  0.38419  0.13953  0.73201  1.0000
  C   C156      1.0  0.37958  0.12748  0.71847  1.0000
  H   H254      1.0  0.15543  0.12392  0.76982  1.0000
  C   C157      1.0  0.15752  0.18527  0.75842  1.0000
  H   H255      1.0  0.18314  0.13360  0.69971  1.0000
  H   H256      1.0  0.31621  0.08891  0.76036  1.0000
  H   H257      1.0  0.44508  0.14375  0.71854  1.0000
  H   H258      1.0  0.41385  0.20334  0.73320  1.0000
  H   H259      1.0  0.15135  0.18865  0.72961  1.0000
  N   N7        1.0  0.41203  0.14305  0.74932  1.0000
  H   H260      1.0  0.24053  0.20701  0.68529  1.0000
  C   C158      1.0  0.39503  0.13336  0.80581  1.0000
  C   C159      1.0  0.34227  0.17790  0.89341  1.0000
  H   H261      1.0  0.41397  0.20391  0.70769  1.0000
  H   H262      1.0  0.30472  0.98824  0.68289  1.0000
  H   H263      1.0  0.22059  0.12611  0.65659  1.0000
  C   C160      1.0  0.30431  0.13834  0.67461  1.0000
  S   S42       1.0  0.15039  0.20765  0.69316  1.0000
  S   S43       1.0  0.35571  0.21109  0.84633  1.0000
  N   N8        1.0  0.22451  0.00710  0.79061  1.0000
  H   H264      1.0  0.19697  0.12224  0.74655  1.0000
  H   H265      1.0  0.31335  0.05750  0.67099  1.0000
  H   H266      1.0  0.33409  0.07899  0.66504  1.0000
  H   H267      1.0  0.20211  0.12869  0.71343  1.0000
  H   H268      1.0  0.16928  0.23470  0.70242  1.0000
  C   C161      1.0  0.23237  0.19073  0.66687  1.0000
  H   H269      1.0  0.30991  0.04643  0.70662  1.0000
  H   H270      1.0  0.47130  0.11560  0.74496  1.0000
  H   H271      1.0  0.27796  0.21723  0.85169  1.0000
  H   H272      1.0  0.40093  0.12327  0.65490  1.0000
  H   H273      1.0  0.26229  0.01354  0.78884  1.0000
  C   C162      1.0  0.18616  0.13372  0.71446  1.0000
  C   C163      1.0  0.40846  0.13100  0.66191  1.0000
  C   C164      1.0  0.44702  0.13180  0.73088  1.0000
  H   H274      1.0  0.23707  0.22874  0.79222  1.0000
  C   C165      1.0  0.14566  0.12858  0.71177  1.0000
  C   C166      1.0  0.23976  0.01847  0.75477  1.0000
  H   H275      1.0  0.16912  0.13726  0.79237  1.0000
  H   H276      1.0  0.37928  0.13908  0.80635  1.0000
  H   H277      1.0  0.23393  0.18984  0.65120  1.0000
  H   H278      1.0  0.19942  0.21394  0.74693  1.0000
  H   H279      1.0  0.00352  0.06240  0.91830  1.0000
  H   H280      1.0  0.43167  0.17288  0.72290  1.0000
  N   N9        1.0  0.17532  0.11993  0.72968  1.0000
  C   C167      1.0  0.33803  0.13004  0.78557  1.0000
  C   C168      1.0  0.25392  0.01132  0.73762  1.0000
  H   H281      1.0  0.11199  0.98885  0.90604  1.0000
  S   S44       1.0  0.48273  0.06781  0.69155  1.0000
  C   C169      1.0  0.25198  0.02056  0.80022  1.0000
  C   C170      1.0  0.33442  0.03654  0.68531  1.0000
  S   S45       1.0  0.12271  0.22666  0.85971  1.0000
  H   H282      1.0  0.31908  0.17177  0.91659  1.0000
  C   C171      1.0  0.18222  0.11825  0.74897  1.0000
  H   H283      1.0  0.19071  0.18276  0.70421  1.0000
  H   H284      1.0  0.27342  0.03708  0.80349  1.0000
  H   H285      1.0  0.09238  0.20653  0.78607  1.0000
  H   H286      1.0  0.16524  0.14542  0.75786  1.0000
  H   H287      1.0  0.40191  0.12016  0.77173  1.0000
  H   H288      1.0  0.34782  0.22021  0.74080  1.0000
  H   H289      1.0  0.28174  0.13151  0.95541  1.0000
  H   H290      1.0  0.29904  0.23131  0.80133  1.0000
  C   C172      1.0  0.40849  0.19694  0.72265  1.0000
  H   H291      1.0  0.26699  0.21850  0.88867  1.0000
  H   H292      1.0  0.18458  0.10298  0.75661  1.0000
  H   H293      1.0  0.18337  0.11404  0.78851  1.0000
  H   H294      1.0  0.34885  0.11652  0.78687  1.0000
  H   H295      1.0  0.29961  0.22242  0.85646  1.0000
  H   H296      1.0  0.07140  0.17851  0.79214  1.0000
  S   S46       1.0  0.10468  0.22912  0.69640  1.0000
  H   H297      1.0  0.31471  0.20244  0.83579  1.0000
  H   H298      1.0  0.41091  0.21173  0.66398  1.0000
  H   H299      1.0  0.11308  0.22992  0.77624  1.0000
  H   H300      1.0  0.34486  0.14172  0.77546  1.0000
  H   H301      1.0  0.43426  0.10910  0.66159  1.0000
  H   H302      1.0  0.26676  0.15593  0.89006  1.0000
  H   H303      1.0  0.28943  0.12762  0.89199  1.0000
  H   H304      1.0  0.31916  0.03492  0.66248  1.0000
  H   H305      1.0  0.08413  0.20984  0.76367  1.0000
  Fe  Fe18      1.0  0.40739  0.22272  0.84764  1.0000
  C   C173      1.0  0.17916  0.12926  0.78148  1.0000
  C   C174      1.0  0.41561  0.17506  0.72498  1.0000
  H   H306      1.0  0.05385  0.22966  0.75175  1.0000
  C   C175      1.0  0.16608  0.14895  0.65934  1.0000
  H   H307      1.0  0.25686  0.13011  0.95489  1.0000
  H   H308      1.0  0.43311  0.00563  0.67857  1.0000
  H   H309      1.0  0.31743  0.13250  0.66565  1.0000
  H   H310      1.0  0.19976  0.19549  0.95133  1.0000
  C   C176      1.0  0.16907  0.13000  0.76420  1.0000
  H   H311      1.0  0.18571  0.15620  0.73174  1.0000
  H   H312      1.0  0.19236  0.13625  0.77670  1.0000
  H   H313      1.0  0.30871  0.02372  0.69951  1.0000
  Fe  Fe19      1.0  0.16200  0.99620  0.84317  1.0000
  C   C177      1.0  0.17156  0.12871  0.66342  1.0000
  H   H314      1.0  0.36451  0.13256  0.71561  1.0000
  C   C178      1.0  0.15363  0.12627  0.73104  1.0000
  H   H315      1.0  0.27727  0.12564  0.92338  1.0000
  H   H316      1.0  0.28844  0.22799  0.89012  1.0000
  H   H317      1.0  0.21532  0.22829  0.67069  1.0000
  H   H318      1.0  0.21163  0.22223  0.83509  1.0000
  H   H319      1.0  0.30477  0.18321  0.88734  1.0000
  H   H320      1.0  0.23999  0.17695  0.67424  1.0000
  H   H321      1.0  0.32516  0.02450  0.71552  1.0000
  C   C179      1.0  0.40739  0.16488  0.74535  1.0000
  S   S47       1.0  0.13421  0.99538  0.86469  1.0000
  C   C180      1.0  0.32572  0.04610  0.66665  1.0000
  H   H322      1.0  0.32228  0.10115  0.87845  1.0000
  S   S48       1.0  0.12820  0.22477  0.81372  1.0000
  H   H323      1.0  0.43948  0.14688  0.75580  1.0000
  H   H324      1.0  0.23039  0.99111  0.76656  1.0000
  H   H325      1.0  0.16753  0.05032  0.77458  1.0000
  C   C181      1.0  0.22961  0.22732  0.66092  1.0000
  H   H326      1.0  0.24593  0.02997  0.75874  1.0000
  H   H327      1.0  0.30772  0.09500  0.90195  1.0000
  H   H328      1.0  0.20992  0.21638  0.80315  1.0000
  N   N10       1.0  0.21011  0.21727  0.77249  1.0000
  H   H329      1.0  0.28733  0.15891  0.85703  1.0000
  H   H330      1.0  0.20358  0.20294  0.85353  1.0000
  C   C182      1.0  0.32076  0.10138  0.89424  1.0000
  H   H331      1.0  0.33378  0.09222  0.89958  1.0000
  C   C183      1.0  0.18030  0.16091  0.65355  1.0000
  C   C184      1.0  0.23072  0.02382  0.79655  1.0000
  H   H332      1.0  0.19383  0.04184  0.79350  1.0000
  C   C185      1.0  0.19997  0.15258  0.65244  1.0000
  C   C186      1.0  0.23677  0.00165  0.77198  1.0000
  Fe  Fe20      1.0  0.36532  0.22513  0.86753  1.0000
  H   H333      1.0  0.17217  0.18807  0.75340  1.0000
  H   H334      1.0  0.38108  0.15506  0.72547  1.0000
  C   C187      1.0  0.20941  0.21676  0.85094  1.0000
  C   C188      1.0  0.31919  0.19413  0.80772  1.0000
  C   C189      1.0  0.08098  0.21524  0.77775  1.0000
  H   H335      1.0  0.39143  0.16966  0.74777  1.0000
  H   H336      1.0  0.30660  0.13749  0.87343  1.0000
  H   H337      1.0  0.26387  0.15342  0.95323  1.0000
  C   C190      1.0  0.31909  0.12206  0.89799  1.0000
  C   C191      1.0  0.30193  0.13559  0.88942  1.0000
  Fe  Fe21      1.0  0.14709  0.20054  0.66485  1.0000
  H   H338      1.0  0.14886  0.14049  0.73605  1.0000
  H   H339      1.0  0.41087  0.16965  0.71345  1.0000
  H   H340      1.0  0.33289  0.12732  0.89083  1.0000
  C   C192      1.0  0.06134  0.20954  0.78906  1.0000
  C   C193      1.0  0.29700  0.22428  0.81691  1.0000
  H   H341      1.0  0.25219  0.17140  0.86021  1.0000
  H   H342      1.0  0.31757  0.12118  0.91391  1.0000
  Fe  Fe22      1.0  0.22587  0.08397  0.67927  1.0000
  H   H343      1.0  0.16483  0.02781  0.79095  1.0000
  H   H344      1.0  0.15109  0.11579  0.70442  1.0000
  H   H345      1.0  0.26838  0.23189  0.65177  1.0000
  H   H346      1.0  0.38501  0.14220  0.76984  1.0000
  C   C194      1.0  0.28897  0.01328  0.66693  1.0000
  C   C195      1.0  0.20319  0.01170  0.78873  1.0000
  H   H347      1.0  0.24870  0.04743  0.81166  1.0000
  C   C196      1.0  0.28167  0.17160  0.86449  1.0000
  H   H348      1.0  0.25926  0.14726  0.92131  1.0000
  H   H349      1.0  0.17412  0.02764  0.76540  1.0000
  C   C197      1.0  0.26276  0.18162  0.85720  1.0000
  C   C198      1.0  0.05932  0.18924  0.78675  1.0000
  H   H350      1.0  0.31953  0.16480  0.87495  1.0000
  C   C199      1.0  0.27807  0.16530  0.88695  1.0000
  H   H351      1.0  0.16903  0.22663  0.79144  1.0000
  H   H352      1.0  0.99469  0.08695  0.92267  1.0000
  H   H353      1.0  0.28549  0.21528  0.81853  1.0000
  H   H354      1.0  0.33283  0.18407  0.81002  1.0000
  S   S49       1.0  0.19764  0.09501  0.66790  1.0000
  H   H355      1.0  0.22127  0.02744  0.81016  1.0000
  H   H356      1.0  0.09467  0.99808  0.92555  1.0000
  H   H357      1.0  0.26306  0.22406  0.68550  1.0000
  N   N11       1.0  0.29556  0.15502  0.89610  1.0000
  C   C200      1.0  0.31852  0.03257  0.70277  1.0000
  S   S50       1.0  0.29161  0.10485  0.67412  1.0000
  C   C201      1.0  0.35646  0.22998  0.76419  1.0000
  H   H358      1.0  0.05944  0.18854  0.77125  1.0000
  H   H359      1.0  0.30172  0.14630  0.92567  1.0000
  C   C202      1.0  0.12351  0.13132  0.71532  1.0000
  C   C203      1.0  0.43843  0.00753  0.66310  1.0000
  Fe  Fe23      1.0  0.47842  0.09576  0.67049  1.0000
  H   H360      1.0  0.33326  0.15080  0.90730  1.0000
  Fe  Fe24      1.0  0.12149  0.98896  0.84078  1.0000
  C   C204      1.0  0.32629  0.16594  0.90311  1.0000
  H   H361      1.0  0.06049  0.20942  0.80484  1.0000
  H   H362      1.0  0.28442  0.16750  0.92219  1.0000
  C   C205      1.0  0.17398  0.03481  0.77795  1.0000
  H   H363      1.0  0.04544  0.18536  0.79548  1.0000
  H   H364      1.0  0.39236  0.20011  0.72512  1.0000
  Fe  Fe25      1.0  0.26552  0.08986  0.68397  1.0000
  H   H365      1.0  0.19403  0.00758  0.80305  1.0000
  C   C206      1.0  0.19121  0.12040  0.66258  1.0000
  H   H366      1.0  0.11825  0.13382  0.70118  1.0000
  Fe  Fe26      1.0  0.10501  0.22070  0.66762  1.0000
  C   C207      1.0  0.19047  0.22369  0.88353  1.0000
  H   H367      1.0  0.19416  0.19971  0.91770  1.0000
  H   H368      1.0  0.10893  0.22039  0.74417  1.0000
  Fe  Fe27      1.0  0.25734  0.04913  0.68838  1.0000
  S   S51       1.0  0.27143  0.01797  0.68729  1.0000
  C   C208      1.0  0.28593  0.22935  0.85081  1.0000
  C   C209      1.0  0.19163  0.21287  0.92457  1.0000
  H   H369      1.0  0.04875  0.21992  0.78428  1.0000
  C   C210      1.0  0.27300  0.14057  0.92678  1.0000
  C   C211      1.0  0.40511  0.22656  0.65700  1.0000
  H   H370      1.0  0.21953  0.99399  0.82098  1.0000
  H   H371      1.0  0.34342  0.04592  0.68900  1.0000
  C   C212      1.0  0.35315  0.21589  0.75450  1.0000
  H   H372      1.0  0.47258  0.14112  0.73639  1.0000
  H   H373      1.0  0.35272  0.17674  0.90347  1.0000
  H   H374      1.0  0.00516  0.06905  0.94103  1.0000
  S   S52       1.0  0.14877  0.99092  0.81870  1.0000
  C   C213      1.0  0.19459  0.03316  0.78192  1.0000
  H   H375      1.0  0.20331  0.03984  0.76857  1.0000
  H   H376      1.0  0.39733  0.11729  0.80755  1.0000
  H   H377      1.0  0.11832  0.11822  0.72450  1.0000
  H   H378      1.0  0.32056  0.20071  0.79208  1.0000
  C   C214      1.0  0.46841  0.12803  0.73315  1.0000
  H   H379      1.0  0.29223  0.18184  0.85988  1.0000
  C   C215      1.0  0.31573  0.20983  0.82045  1.0000
  H   H380      1.0  0.37383  0.09552  0.65159  1.0000
  H   H381      1.0  0.25787  0.04918  0.78599  1.0000
  Fe  Fe28      1.0  0.37479  0.22891  0.82375  1.0000
  H   H382      1.0  0.25612  0.19432  0.86445  1.0000
  S   S53       1.0  0.46284  0.02965  0.67123  1.0000
  H   H383      1.0  0.25660  0.20554  0.66230  1.0000
  C   C216      1.0  0.27353  0.23185  0.88648  1.0000
  H   H384      1.0  0.08682  0.23199  0.80487  1.0000
  H   H385      1.0  0.36436  0.98834  0.68415  1.0000
  C   C217      1.0  0.31857  0.99380  0.65291  1.0000
  H   H386      1.0  0.17061  0.22215  0.76715  1.0000
  H   H387      1.0  0.17411  0.19942  0.95064  1.0000
  H   H388      1.0  0.14090  0.22622  0.75011  1.0000
  C   C218      1.0  0.18739  0.20631  0.94657  1.0000
  C   C219      1.0  0.45293  0.01917  0.65528  1.0000
  H   H389      1.0  0.35825  0.06643  0.66320  1.0000
  S   S54       1.0  0.07777  0.22781  0.65400  1.0000
  H   H390      1.0  0.24632  0.23364  0.71716  1.0000
  H   H391      1.0  0.18537  0.21882  0.95432  1.0000
  H   H392      1.0  0.27202  0.23417  0.71292  1.0000
  S   S55       1.0  0.34688  0.23113  0.89575  1.0000
  H   H393      1.0  0.34980  0.10955  0.65655  1.0000
  H   H394      1.0  0.07788  0.99357  0.90025  1.0000
  C   C220      1.0  0.99605  0.07143  0.92951  1.0000
  H   H395      1.0  0.20526  0.21899  0.92112  1.0000
  S   S56       1.0  0.13321  0.23076  0.65370  1.0000
  H   H396      1.0  0.07687  0.23264  0.73749  1.0000
  H   H397      1.0  0.16217  0.21899  0.92022  1.0000
  H   H398      1.0  0.23017  0.23148  0.75008  1.0000
  C   C221      1.0  0.34596  0.07159  0.65491  1.0000
  H   H399      1.0  0.41967  0.98946  0.65735  1.0000
  C   C222      1.0  0.19515  0.23176  0.86151  1.0000
  H   H400      1.0  0.24268  0.98529  0.80809  1.0000
  H   H401      1.0  0.15226  0.22798  0.88994  1.0000
  C   C223      1.0  0.17434  0.22753  0.91721  1.0000
  S   S57       1.0  0.43647  0.23350  0.84434  1.0000
  C   C224      1.0  0.17335  0.23234  0.77582  1.0000
  H   H402      1.0  0.42719  0.23338  0.88659  1.0000
  H   H403      1.0  0.13747  0.23239  0.72510  1.0000
  H   H404      1.0  0.25761  0.23398  0.81303  1.0000
  C   C225      1.0  0.09999  0.98533  0.91805  1.0000
  H   H405      1.0  0.05745  0.98614  0.83974  1.0000
  H   H406      1.0  0.06345  0.48147  0.28112  1.0000
  Fe  Fe29      1.0  0.02731  0.32420  0.60182  1.0000
  S   S58       1.0  0.01736  0.35261  0.58317  1.0000
  S   S59       1.0  0.05746  0.30662  0.59722  1.0000
  Fe  Fe30      1.0  0.00857  0.36390  0.61164  1.0000
  S   S60       1.0  0.01418  0.39424  0.61291  1.0000
  H   H407      1.0  0.08502  0.24824  0.60134  1.0000
  S   S61       1.0  0.01997  0.33606  0.62971  1.0000
  H   H408      1.0  0.03453  0.27687  0.61694  1.0000
  C   C226      1.0  0.16005  0.33329  0.63883  1.0000
  C   C227      1.0  0.12597  0.25472  0.59497  1.0000
  C   C228      1.0  0.08397  0.24195  0.58867  1.0000
  H   H409      1.0  0.13824  0.27910  0.59856  1.0000
  H   H410      1.0  0.13410  0.25528  0.58000  1.0000
  S   S62       1.0  0.10475  0.45761  0.62018  1.0000
  H   H411      1.0  0.11564  0.41645  0.59896  1.0000
  C   C229      1.0  0.26684  0.26247  0.63971  1.0000
  S   S63       1.0  0.99902  0.31355  0.60485  1.0000
  C   C230      1.0  0.12971  0.40839  0.60291  1.0000
  C   C231      1.0  0.03098  0.40215  0.62404  1.0000
  C   C232      1.0  0.04701  0.42873  0.62710  1.0000
  C   C233      1.0  0.03528  0.42107  0.61762  1.0000
  H   H412      1.0  0.04998  0.44336  0.62204  1.0000
  H   H413      1.0  0.02931  0.42998  0.60532  1.0000
  C   C234      1.0  0.06187  0.28618  0.61536  1.0000
  H   H414      1.0  0.39830  0.24779  0.61638  1.0000
  C   C235      1.0  0.28866  0.25810  0.63247  1.0000
  C   C236      1.0  0.08424  0.26438  0.63508  1.0000
  H   H415      1.0  0.13940  0.41908  0.60224  1.0000
  C   C237      1.0  0.07977  0.28163  0.62205  1.0000
  Fe  Fe31      1.0  0.12749  0.45599  0.63871  1.0000
  C   C238      1.0  0.12665  0.39681  0.62348  1.0000
  H   H416      1.0  0.09026  0.29139  0.61701  1.0000
  C   C239      1.0  0.25757  0.24370  0.64558  1.0000
  H   H417      1.0  0.08736  0.36341  0.61532  1.0000
  C   C240      1.0  0.13672  0.26417  0.60622  1.0000
  H   H418      1.0  0.26006  0.27230  0.62778  1.0000
  H   H419      1.0  0.31165  0.31005  0.63769  1.0000
  H   H420      1.0  0.12046  0.40754  0.63336  1.0000
  H   H421      1.0  0.05954  0.26381  0.58132  1.0000
  H   H422      1.0  0.14325  0.35233  0.61875  1.0000
  C   C241      1.0  0.04835  0.27351  0.62202  1.0000
  H   H423      1.0  0.32986  0.24523  0.61321  1.0000
  C   C242      1.0  0.07435  0.25803  0.57428  1.0000
  H   H424      1.0  0.09798  0.26100  0.64025  1.0000
  H   H425      1.0  0.00659  0.47078  0.34611  1.0000
  H   H426      1.0  0.15145  0.25573  0.60729  1.0000
  H   H427      1.0  0.11123  0.24400  0.56914  1.0000
  H   H428      1.0  0.12854  0.26516  0.62107  1.0000
  H   H429      1.0  0.99162  0.27113  0.60616  1.0000
  H   H430      1.0  0.04295  0.24581  0.63882  1.0000
  C   C243      1.0  0.11271  0.38205  0.62530  1.0000
  H   H431      1.0  0.07859  0.33222  0.61365  1.0000
  H   H432      1.0  0.11795  0.37411  0.61286  1.0000
  H   H433      1.0  0.36330  0.24757  0.61599  1.0000
  H   H434      1.0  0.25593  0.23933  0.63185  1.0000
  H   H435      1.0  0.29454  0.27191  0.62768  1.0000
  H   H436      1.0  0.11158  0.26392  0.59400  1.0000
  H   H437      1.0  0.41260  0.24792  0.56255  1.0000
  H   H438      1.0  0.09831  0.39067  0.62267  1.0000
  C   C244      1.0  0.14039  0.34343  0.63335  1.0000
  H   H439      1.0  0.13663  0.39865  0.59220  1.0000
  H   H440      1.0  0.08280  0.27019  0.56991  1.0000
  S   S64       1.0  0.15758  0.43816  0.63408  1.0000
  H   H441      1.0  0.43015  0.23999  0.57878  1.0000
  H   H442      1.0  0.19131  0.28204  0.63493  1.0000
  C   C245      1.0  0.07983  0.33549  0.62796  1.0000
  H   H443      1.0  0.07310  0.25240  0.56117  1.0000
  C   C246      1.0  0.05406  0.41780  0.64363  1.0000
  H   H444      1.0  0.14111  0.38944  0.62685  1.0000
  H   H445      1.0  0.41217  0.26153  0.58150  1.0000
  H   H446      1.0  0.11257  0.23540  0.61862  1.0000
  C   C247      1.0  0.05315  0.25592  0.63441  1.0000
  H   H447      1.0  0.10771  0.34421  0.61717  1.0000
  C   C248      1.0  0.03870  0.39090  0.64010  1.0000
  H   H448      1.0  0.16782  0.32409  0.62788  1.0000
  H   H449      1.0  0.37924  0.24079  0.64541  1.0000
  H   H450      1.0  0.18984  0.48198  0.64679  1.0000
  C   C249      1.0  0.16217  0.41486  0.64814  1.0000
  H   H451      1.0  0.23044  0.27610  0.64838  1.0000
  H   H452      1.0  0.19280  0.41067  0.63673  1.0000
  H   H453      1.0  0.29160  0.25018  0.61996  1.0000
  H   H454      1.0  0.13218  0.33193  0.63272  1.0000
  C   C250      1.0  0.09349  0.35031  0.62495  1.0000
  H   H455      1.0  0.22449  0.26047  0.63455  1.0000
  H   H456      1.0  0.06507  0.34130  0.63508  1.0000
  C   C251      1.0  0.18114  0.40440  0.64658  1.0000
  C   C252      1.0  0.07121  0.25115  0.64074  1.0000
  H   H457      1.0  0.16920  0.34412  0.63926  1.0000
  C   C253      1.0  0.41484  0.24670  0.57781  1.0000
  H   H458      1.0  0.29626  0.24931  0.64434  1.0000
  C   C254      1.0  0.30988  0.29798  0.64946  1.0000
  H   H459      1.0  0.08548  0.32174  0.63701  1.0000
  C   C255      1.0  0.09514  0.35572  0.64461  1.0000
  C   C256      1.0  0.22491  0.26226  0.64969  1.0000
  H   H460      1.0  0.03544  0.37640  0.64533  1.0000
  C   C257      1.0  0.19190  0.28385  0.64995  1.0000
  H   H461      1.0  0.17224  0.47256  0.63763  1.0000
  N   N12       1.0  0.11017  0.36823  0.64437  1.0000
  H   H462      1.0  0.34036  0.28619  0.64582  1.0000
  C   C258      1.0  0.17414  0.48152  0.64801  1.0000
  Fe  Fe32      1.0  0.08477  0.45261  0.64881  1.0000
  H   H463      1.0  0.38594  0.24117  0.58922  1.0000
  Fe  Fe33      1.0  0.99082  0.32749  0.63158  1.0000
  C   C259      1.0  0.12910  0.35588  0.64871  1.0000
  H   H464      1.0  0.19833  0.29697  0.64933  1.0000
  C   C260      1.0  0.99480  0.48353  0.34544  1.0000
  H   H465      1.0  0.35082  0.23556  0.63814  1.0000
  H   H466      1.0  0.99050  0.25140  0.62637  1.0000
  H   H467      1.0  0.08027  0.36319  0.64982  1.0000
  C   C261      1.0  0.16331  0.28335  0.70096  1.0000
  C   C262      1.0  0.20360  0.26581  0.66032  1.0000
  H   H468      1.0  0.13903  0.36495  0.65137  1.0000
  H   H469      1.0  0.19148  0.45440  0.67460  1.0000
  H   H470      1.0  0.25909  0.25229  0.77670  1.0000
  H   H471      1.0  0.15809  0.32388  0.65332  1.0000
  H   H472      1.0  0.26967  0.34228  0.70021  1.0000
  S   S65       1.0  0.15822  0.26334  0.82186  1.0000
  H   H473      1.0  0.30753  0.27256  0.71726  1.0000
  H   H474      1.0  0.16169  0.33973  0.76406  1.0000
  C   C263      1.0  0.16991  0.37729  0.66973  1.0000
  H   H475      1.0  0.30029  0.26355  0.83704  1.0000
  S   S66       1.0  0.47290  0.26948  0.90205  1.0000
  H   H476      1.0  0.17737  0.41345  0.68786  1.0000
  S   S67       1.0  0.47030  0.35853  0.91430  1.0000
  H   H477      1.0  0.21489  0.29783  0.75533  1.0000
  H   H478      1.0  0.00960  0.31827  0.67792  1.0000
  S   S68       1.0  0.34495  0.25203  0.67409  1.0000
  H   H479      1.0  0.13643  0.35299  0.80033  1.0000
  H   H480      1.0  0.26857  0.26496  0.83186  1.0000
  S   S69       1.0  0.10794  0.45011  0.66718  1.0000
  H   H481      1.0  0.28633  0.33068  0.68156  1.0000
  C   C264      1.0  0.25925  0.23953  0.68671  1.0000
  H   H482      1.0  0.06381  0.26650  0.72378  1.0000
  Fe  Fe34      1.0  0.22483  0.32486  0.85429  1.0000
  S   S70       1.0  0.24556  0.29711  0.85360  1.0000
  S   S71       1.0  0.19289  0.32178  0.85756  1.0000
  Fe  Fe35      1.0  0.25853  0.34864  0.85131  1.0000
  S   S72       1.0  0.28101  0.32174  0.85003  1.0000
  S   S73       1.0  0.27237  0.37627  0.84559  1.0000
  Fe  Fe36      1.0  0.26400  0.31429  0.83006  1.0000
  S   S74       1.0  0.27580  0.30067  0.80353  1.0000
  Fe  Fe37      1.0  0.25994  0.30773  0.87366  1.0000
  S   S75       1.0  0.26724  0.28821  0.90077  1.0000
  S   S76       1.0  0.24263  0.34185  0.82936  1.0000
  S   S77       1.0  0.23811  0.33475  0.87639  1.0000
  Fe  Fe38      1.0  0.20304  0.33698  0.68720  1.0000
  S   S78       1.0  0.20311  0.32556  0.71893  1.0000
  C   C265      1.0  0.46464  0.31734  0.83519  1.0000
  Fe  Fe39      1.0  0.24555  0.31857  0.67669  1.0000
  S   S79       1.0  0.24881  0.30627  0.70753  1.0000
  N   N13       1.0  0.08238  0.23649  0.77493  1.0000
  Fe  Fe40      1.0  0.21963  0.29808  0.70954  1.0000
  S   S80       1.0  0.21280  0.26861  0.72346  1.0000
  Fe  Fe41      1.0  0.23198  0.33506  0.71373  1.0000
  S   S81       1.0  0.23812  0.35267  0.73391  1.0000
  S   S82       1.0  0.21735  0.30836  0.67809  1.0000
  S   S83       1.0  0.23109  0.34842  0.68258  1.0000
  Fe  Fe42      1.0  0.37699  0.43108  0.88215  1.0000
  S   S84       1.0  0.35522  0.43105  0.90994  1.0000
  S   S85       1.0  0.40069  0.40671  0.87256  1.0000
  Fe  Fe43      1.0  0.35432  0.46823  0.86207  1.0000
  S   S86       1.0  0.33109  0.47038  0.88810  1.0000
  Fe  Fe44      1.0  0.35589  0.46346  0.90516  1.0000
  C   C266      1.0  0.28460  0.34109  0.69174  1.0000
  Fe  Fe45      1.0  0.33249  0.43809  0.89033  1.0000
  S   S87       1.0  0.30542  0.42328  0.89649  1.0000
  S   S88       1.0  0.37922  0.46282  0.87862  1.0000
  S   S89       1.0  0.35409  0.43667  0.86309  1.0000
  H   H483      1.0  0.02261  0.33849  0.67015  1.0000
  C   C267      1.0  0.07777  0.24224  0.79491  1.0000
  H   H484      1.0  0.01347  0.33138  0.69567  1.0000
  H   H485      1.0  0.21621  0.34137  0.79604  1.0000
  C   C268      1.0  0.15768  0.24174  0.88952  1.0000
  C   C269      1.0  0.29715  0.40941  0.88237  1.0000
  C   C270      1.0  0.30749  0.40526  0.86436  1.0000
  C   C271      1.0  0.30000  0.39464  0.85355  1.0000
  C   C272      1.0  0.28239  0.38750  0.86079  1.0000
  C   C273      1.0  0.27223  0.39138  0.87893  1.0000
  C   C274      1.0  0.27948  0.40239  0.88953  1.0000
  H   H486      1.0  0.32114  0.41042  0.85867  1.0000
  H   H487      1.0  0.30785  0.39206  0.83939  1.0000
  H   H488      1.0  0.25841  0.38653  0.88449  1.0000
  H   H489      1.0  0.27125  0.40559  0.90335  1.0000
  C   C275      1.0  0.26498  0.31502  0.78442  1.0000
  C   C276      1.0  0.26289  0.33521  0.78200  1.0000
  C   C277      1.0  0.25462  0.34673  0.76642  1.0000
  C   C278      1.0  0.24816  0.33807  0.75343  1.0000
  C   C279      1.0  0.24989  0.31788  0.75609  1.0000
  C   C280      1.0  0.25850  0.30632  0.77146  1.0000
  H   H490      1.0  0.26812  0.34197  0.79185  1.0000
  H   H491      1.0  0.25330  0.36235  0.76438  1.0000
  H   H492      1.0  0.24462  0.31117  0.74630  1.0000
  H   H493      1.0  0.25994  0.29070  0.77343  1.0000
  H   H494      1.0  0.11066  0.26600  0.90360  1.0000
  H   H495      1.0  0.47978  0.39954  0.89971  1.0000
  C   C281      1.0  0.17181  0.24844  0.70462  1.0000
  H   H496      1.0  0.13717  0.32423  0.83858  1.0000
  H   H497      1.0  0.07472  0.39241  0.69106  1.0000
  C   C282      1.0  0.01043  0.33288  0.68067  1.0000
  H   H498      1.0  0.99534  0.36651  0.69570  1.0000
  H   H499      1.0  0.16780  0.31906  0.81399  1.0000
  S   S90       1.0  0.35185  0.48308  0.92828  1.0000
  C   C283      1.0  0.31979  0.25956  0.87924  1.0000
  C   C284      1.0  0.30214  0.27258  0.88050  1.0000
  C   C285      1.0  0.28945  0.27253  0.89832  1.0000
  C   C286      1.0  0.29450  0.25981  0.91482  1.0000
  C   C287      1.0  0.23707  0.25827  0.82157  1.0000
  H   H500      1.0  0.32968  0.25952  0.86556  1.0000
  H   H501      1.0  0.29833  0.28250  0.86773  1.0000
  H   H502      1.0  0.28480  0.25984  0.92862  1.0000
  H   H503      1.0  0.07359  0.27394  0.78494  1.0000
  C   C288      1.0  0.32398  0.26846  0.66881  1.0000
  C   C289      1.0  0.28925  0.28045  0.67534  1.0000
  C   C290      1.0  0.29141  0.29614  0.66012  1.0000
  C   C291      1.0  0.15845  0.48210  0.72864  1.0000
  H   H504      1.0  0.06243  0.24105  0.80154  1.0000
  C   C292      1.0  0.18023  0.42226  0.69803  1.0000
  Fe  Fe46      1.0  0.10166  0.48250  0.66565  1.0000
  C   C293      1.0  0.44999  0.37064  0.90347  1.0000
  C   C294      1.0  0.44709  0.36675  0.88583  1.0000
  C   C295      1.0  0.43173  0.37780  0.87673  1.0000
  C   C296      1.0  0.41895  0.39261  0.88531  1.0000
  C   C297      1.0  0.42153  0.39617  0.90319  1.0000
  C   C298      1.0  0.43710  0.38530  0.91215  1.0000
  H   H505      1.0  0.45700  0.35562  0.87895  1.0000
  H   H506      1.0  0.42988  0.37509  0.86282  1.0000
  H   H507      1.0  0.41177  0.40754  0.90991  1.0000
  H   H508      1.0  0.43927  0.38841  0.92579  1.0000
  C   C299      1.0  0.46285  0.25992  0.88560  1.0000
  H   H509      1.0  0.47539  0.30486  0.84051  1.0000
  C   C300      1.0  0.44740  0.24944  0.89300  1.0000
  H   H510      1.0  0.31846  0.28792  0.81455  1.0000
  H   H511      1.0  0.28018  0.25579  0.86414  1.0000
  C   C301      1.0  0.16912  0.27637  0.83456  1.0000
  C   C302      1.0  0.15837  0.28532  0.85004  1.0000
  C   C303      1.0  0.16611  0.29863  0.85740  1.0000
  C   C304      1.0  0.18478  0.30305  0.84956  1.0000
  C   C305      1.0  0.19583  0.29358  0.83455  1.0000
  C   C306      1.0  0.18789  0.28061  0.82690  1.0000
  H   H512      1.0  0.14362  0.28287  0.85560  1.0000
  H   H513      1.0  0.15732  0.30602  0.86884  1.0000
  H   H514      1.0  0.21004  0.29716  0.82810  1.0000
  H   H515      1.0  0.19602  0.27440  0.81445  1.0000
  H   H516      1.0  0.48355  0.37692  0.87265  1.0000
  H   H517      1.0  0.19739  0.24460  0.75717  1.0000
  C   C307      1.0  0.28933  0.47994  0.84702  1.0000
  C   C308      1.0  0.19156  0.26709  0.71538  1.0000
  C   C309      1.0  0.17926  0.28412  0.70934  1.0000
  C   C310      1.0  0.39085  0.27250  0.88039  1.0000
  H   H518      1.0  0.18214  0.29801  0.71081  1.0000
  H   H519      1.0  0.17635  0.44379  0.66408  1.0000
  C   C311      1.0  0.09713  0.36923  0.68112  1.0000
  C   C312      1.0  0.18757  0.30548  0.77435  1.0000
  H   H520      1.0  0.00536  0.37122  0.67052  1.0000
  H   H521      1.0  0.20680  0.36921  0.81469  1.0000
  C   C313      1.0  0.13231  0.23636  0.73977  1.0000
  S   S91       1.0  0.36629  0.24220  0.79458  1.0000
  H   H522      1.0  0.30371  0.25409  0.69092  1.0000
  S   S92       1.0  0.38109  0.24573  0.84474  1.0000
  H   H523      1.0  0.43006  0.43192  0.88009  1.0000
  C   C314      1.0  0.12178  0.25605  0.89541  1.0000
  N   N14       1.0  0.23834  0.24542  0.65916  1.0000
  H   H524      1.0  0.18192  0.23520  0.85468  1.0000
  H   H525      1.0  0.14461  0.24936  0.77479  1.0000
  H   H526      1.0  0.20549  0.32729  0.77155  1.0000
  H   H527      1.0  0.07430  0.28298  0.81673  1.0000
  H   H528      1.0  0.99474  0.43137  0.68810  1.0000
  H   H529      1.0  0.22500  0.25012  0.77845  1.0000
  H   H530      1.0  0.08636  0.35971  0.68172  1.0000
  H   H531      1.0  0.38200  0.26339  0.89191  1.0000
  H   H532      1.0  0.17680  0.28607  0.65799  1.0000
  H   H533      1.0  0.17538  0.36591  0.79656  1.0000
  H   H534      1.0  0.05036  0.24916  0.71980  1.0000
  C   C315      1.0  0.16559  0.47337  0.66881  1.0000
  C   C316      1.0  0.26188  0.43267  0.82202  1.0000
  H   H535      1.0  0.48166  0.27037  0.85964  1.0000
  C   C317      1.0  0.46133  0.25448  0.85318  1.0000
  C   C318      1.0  0.14463  0.34362  0.81141  1.0000
  C   C319      1.0  0.20541  0.25479  0.89809  1.0000
  H   H536      1.0  0.05409  0.25354  0.77131  1.0000
  C   C320      1.0  0.31542  0.26007  0.80820  1.0000
  H   H537      1.0  0.27722  0.45786  0.87069  1.0000
  C   C321      1.0  0.34384  0.43575  0.81532  1.0000
  H   H538      1.0  0.11346  0.38919  0.66132  1.0000
  H   H539      1.0  0.19579  0.34956  0.74865  1.0000
  C   C322      1.0  0.27400  0.24244  0.86552  1.0000
  H   H540      1.0  0.09870  0.39307  0.69553  1.0000
  H   H541      1.0  0.29432  0.25260  0.75896  1.0000
  H   H542      1.0  0.22599  0.37279  0.79423  1.0000
  H   H543      1.0  0.48388  0.35666  0.84708  1.0000
  H   H544      1.0  0.21614  0.24459  0.88990  1.0000
  H   H545      1.0  0.47012  0.44456  0.87295  1.0000
  H   H546      1.0  0.25776  0.42934  0.80891  1.0000
  H   H547      1.0  0.28696  0.44423  0.80576  1.0000
  S   S93       1.0  0.07628  0.48449  0.65038  1.0000
  H   H548      1.0  0.27039  0.41933  0.82912  1.0000
  H   H549      1.0  0.24840  0.43687  0.83221  1.0000
  H   H550      1.0  0.30455  0.26742  0.79889  1.0000
  H   H551      1.0  0.11736  0.24148  0.89888  1.0000
  H   H552      1.0  0.13944  0.38169  0.68152  1.0000
  H   H553      1.0  0.01156  0.43333  0.66549  1.0000
  H   H554      1.0  0.20645  0.43124  0.70336  1.0000
  S   S94       1.0  0.14018  0.26558  0.68660  1.0000
  C   C323      1.0  0.46969  0.26251  0.86555  1.0000
  N   N15       1.0  0.31211  0.30590  0.73098  1.0000
  C   C324      1.0  0.29736  0.31434  0.71765  1.0000
  C   C325      1.0  0.30787  0.28650  0.74252  1.0000
  C   C326      1.0  0.31014  0.31967  0.74521  1.0000
  C   C327      1.0  0.33268  0.30411  0.72006  1.0000
  C   C328      1.0  0.33751  0.29238  0.70312  1.0000
  C   C329      1.0  0.29959  0.33459  0.70539  1.0000
  C   C330      1.0  0.32109  0.31200  0.76281  1.0000
  C   C331      1.0  0.29977  0.27330  0.73221  1.0000
  C   C332      1.0  0.32266  0.44485  0.81450  1.0000
  C   C333      1.0  0.35774  0.29440  0.69154  1.0000
  C   C334      1.0  0.31953  0.32774  0.77507  1.0000
  H   H555      1.0  0.28245  0.31552  0.72633  1.0000
  H   H556      1.0  0.29739  0.30465  0.70722  1.0000
  H   H557      1.0  0.32106  0.27806  0.74826  1.0000
  H   H558      1.0  0.29664  0.28864  0.75561  1.0000
  H   H559      1.0  0.29455  0.32395  0.75129  1.0000
  H   H560      1.0  0.31536  0.33340  0.73770  1.0000
  H   H561      1.0  0.33672  0.31873  0.71429  1.0000
  H   H562      1.0  0.34312  0.29702  0.73008  1.0000
  H   H563      1.0  0.32710  0.29736  0.69276  1.0000
  H   H564      1.0  0.33763  0.27673  0.70893  1.0000
  H   H565      1.0  0.29731  0.34573  0.71487  1.0000
  H   H566      1.0  0.31417  0.33436  0.69625  1.0000
  H   H567      1.0  0.33674  0.30698  0.75803  1.0000
  H   H568      1.0  0.31482  0.29976  0.77252  1.0000
  H   H569      1.0  0.28421  0.27902  0.73133  1.0000
  C   C335      1.0  0.15112  0.38802  0.67179  1.0000
  H   H570      1.0  0.32462  0.46625  0.83162  1.0000
  C   C336      1.0  0.08052  0.26302  0.79602  1.0000
  C   C337      1.0  0.19491  0.23536  0.77172  1.0000
  H   H571      1.0  0.36096  0.28570  0.67961  1.0000
  H   H572      1.0  0.35850  0.30977  0.68494  1.0000
  H   H573      1.0  0.12442  0.32277  0.81941  1.0000
  H   H574      1.0  0.32721  0.32173  0.78767  1.0000
  H   H575      1.0  0.32622  0.34021  0.76634  1.0000
  H   H576      1.0  0.30410  0.33289  0.78079  1.0000
  H   H577      1.0  0.35370  0.24517  0.75795  1.0000
  C   C338      1.0  0.06841  0.24917  0.76233  1.0000
  Fe  Fe47      1.0  0.14366  0.23625  0.83290  1.0000
  S   S95       1.0  0.48945  0.31988  0.87715  1.0000
  H   H578      1.0  0.22483  0.25118  0.82066  1.0000
  H   H579      1.0  0.14991  0.47360  0.66922  1.0000
  H   H580      1.0  0.38940  0.29444  0.89759  1.0000
  H   H581      1.0  0.21375  0.28506  0.78012  1.0000
  C   C339      1.0  0.06382  0.24035  0.74571  1.0000
  H   H582      1.0  0.20017  0.31477  0.79546  1.0000
  H   H583      1.0  0.25876  0.24690  0.86299  1.0000
  H   H584      1.0  0.17255  0.44268  0.72461  1.0000
  H   H585      1.0  0.18021  0.31139  0.76157  1.0000
  H   H586      1.0  0.11019  0.36020  0.68647  1.0000
  H   H587      1.0  0.15002  0.35300  0.81917  1.0000
  H   H588      1.0  0.44010  0.44765  0.85887  1.0000
  C   C340      1.0  0.18769  0.24918  0.71330  1.0000
  H   H589      1.0  0.08968  0.39095  0.65657  1.0000
  C   C341      1.0  0.17615  0.45269  0.67536  1.0000
  C   C342      1.0  0.08830  0.38338  0.69532  1.0000
  C   C343      1.0  0.99222  0.36724  0.68078  1.0000
  H   H590      1.0  0.34980  0.42818  0.80266  1.0000
  C   C344      1.0  0.14764  0.43992  0.69556  1.0000
  C   C345      1.0  0.23564  0.23667  0.77737  1.0000
  H   H591      1.0  0.14008  0.24971  0.91711  1.0000
  H   H592      1.0  0.19594  0.25358  0.66072  1.0000
  H   H593      1.0  0.25522  0.25661  0.70986  1.0000
  C   C346      1.0  0.20536  0.29091  0.76803  1.0000
  C   C347      1.0  0.24006  0.24906  0.67896  1.0000
  C   C348      1.0  0.44588  0.24396  0.86059  1.0000
  H   H594      1.0  0.31451  0.43276  0.81592  1.0000
  C   C349      1.0  0.17253  0.36782  0.73560  1.0000
  H   H595      1.0  0.44309  0.32415  0.93568  1.0000
  C   C350      1.0  0.05394  0.25598  0.73113  1.0000
  H   H596      1.0  0.26501  0.46140  0.84195  1.0000
  H   H597      1.0  0.19595  0.24424  0.78255  1.0000
  S   S96       1.0  0.27136  0.31320  0.65332  1.0000
  H   H598      1.0  0.31454  0.44599  0.84489  1.0000
  H   H599      1.0  0.40891  0.27466  0.90048  1.0000
  H   H600      1.0  0.07383  0.26305  0.75575  1.0000
  H   H601      1.0  0.20855  0.42493  0.67954  1.0000
  H   H602      1.0  0.12225  0.26163  0.87961  1.0000
  C   C351      1.0  0.16873  0.34928  0.77013  1.0000
  H   H603      1.0  0.43399  0.32749  0.83957  1.0000
  H   H604      1.0  0.29364  0.24396  0.73691  1.0000
  H   H605      1.0  0.20562  0.25021  0.91390  1.0000
  C   C352      1.0  0.20257  0.42118  0.69522  1.0000
  C   C353      1.0  0.18464  0.25618  0.89388  1.0000
  C   C354      1.0  0.17021  0.45301  0.71099  1.0000
  C   C355      1.0  0.99740  0.40800  0.67158  1.0000
  C   C356      1.0  0.10263  0.38038  0.66025  1.0000
  C   C357      1.0  0.16150  0.32924  0.80195  1.0000
  H   H606      1.0  0.00976  0.39921  0.67842  1.0000
  C   C358      1.0  0.46838  0.41516  0.86818  1.0000
  H   H607      1.0  0.48878  0.36709  0.82173  1.0000
  H   H608      1.0  0.14478  0.27003  0.89827  1.0000
  H   H609      1.0  0.45870  0.40434  0.87516  1.0000
  H   H610      1.0  0.46561  0.41960  0.85293  1.0000
  H   H611      1.0  0.17586  0.41441  0.71296  1.0000
  N   N16       1.0  0.29050  0.23934  0.83003  1.0000
  H   H612      1.0  0.43497  0.45506  0.88242  1.0000
  C   C359      1.0  0.19346  0.32181  0.78239  1.0000
  N   N17       1.0  0.30910  0.33569  0.90297  1.0000
  C   C360      1.0  0.28997  0.32991  0.91354  1.0000
  C   C361      1.0  0.32534  0.32059  0.91004  1.0000
  C   C362      1.0  0.31142  0.35505  0.90691  1.0000
  C   C363      1.0  0.30961  0.33710  0.88144  1.0000
  C   C364      1.0  0.32868  0.34193  0.86809  1.0000
  C   C365      1.0  0.27157  0.34522  0.91055  1.0000
  C   C366      1.0  0.30919  0.35684  0.92867  1.0000
  C   C367      1.0  0.32751  0.30038  0.90411  1.0000
  C   C368      1.0  0.34284  0.28579  0.91398  1.0000
  C   C369      1.0  0.32810  0.34102  0.84692  1.0000
  C   C370      1.0  0.25334  0.33804  0.92271  1.0000
  C   C371      1.0  0.31029  0.37744  0.93091  1.0000
  H   H613      1.0  0.29011  0.32566  0.92945  1.0000
  H   H614      1.0  0.28762  0.31668  0.90887  1.0000
  H   H615      1.0  0.33956  0.32578  0.90510  1.0000
  H   H616      1.0  0.32333  0.31816  0.92622  1.0000
  H   H617      1.0  0.30118  0.36689  0.89985  1.0000
  H   H618      1.0  0.32605  0.35852  0.90005  1.0000
  H   H619      1.0  0.30639  0.32349  0.87827  1.0000
  H   H620      1.0  0.29788  0.34862  0.87639  1.0000
  H   H621      1.0  0.34156  0.33166  0.87238  1.0000
  H   H622      1.0  0.33068  0.35686  0.86861  1.0000
  H   H623      1.0  0.27237  0.35907  0.91495  1.0000
  H   H624      1.0  0.26955  0.34820  0.89510  1.0000
  H   H625      1.0  0.32103  0.34696  0.93544  1.0000
  H   H626      1.0  0.29508  0.35331  0.93702  1.0000
  H   H627      1.0  0.31371  0.29454  0.90847  1.0000
  H   H628      1.0  0.33201  0.30113  0.88815  1.0000
  H   H629      1.0  0.34518  0.27187  0.90846  1.0000
  H   H630      1.0  0.35685  0.29127  0.91088  1.0000
  H   H631      1.0  0.33797  0.28292  0.92997  1.0000
  H   H632      1.0  0.31555  0.35134  0.84181  1.0000
  H   H633      1.0  0.34163  0.34503  0.83754  1.0000
  H   H634      1.0  0.32690  0.32613  0.84534  1.0000
  H   H635      1.0  0.24037  0.34906  0.92001  1.0000
  H   H636      1.0  0.25149  0.32431  0.91868  1.0000
  H   H637      1.0  0.25419  0.33559  0.93846  1.0000
  H   H638      1.0  0.29772  0.38772  0.92584  1.0000
  H   H639      1.0  0.30984  0.37812  0.94646  1.0000
  H   H640      1.0  0.32395  0.38211  0.92243  1.0000
  S   S97       1.0  0.17338  0.35310  0.68181  1.0000
  H   H641      1.0  0.16984  0.23861  0.92699  1.0000
  C   C372      1.0  0.21207  0.27455  0.89231  1.0000
  H   H642      1.0  0.18380  0.26458  0.87903  1.0000
  H   H643      1.0  0.10506  0.25435  0.76579  1.0000
  C   C373      1.0  0.38905  0.33310  0.88801  1.0000
  N   N18       1.0  0.17740  0.33814  0.78763  1.0000
  H   H644      1.0  0.27627  0.25955  0.80816  1.0000
  H   H645      1.0  0.22697  0.27335  0.89548  1.0000
  H   H646      1.0  0.21225  0.27983  0.87651  1.0000
  H   H647      1.0  0.20222  0.28536  0.90054  1.0000
  N   N19       1.0  0.16831  0.44237  0.69520  1.0000
  C   C374      1.0  0.30116  0.25263  0.74351  1.0000
  S   S98       1.0  0.06705  0.42753  0.65751  1.0000
  N   N20       1.0  0.29406  0.46814  0.83072  1.0000
  C   C375      1.0  0.25492  0.24296  0.82465  1.0000
  H   H648      1.0  0.17507  0.26561  0.90384  1.0000
  H   H649      1.0  0.08477  0.37520  0.71022  1.0000
  N   N21       1.0  0.17726  0.23730  0.89609  1.0000
  H   H650      1.0  0.11303  0.42331  0.70306  1.0000
  H   H651      1.0  0.20327  0.26795  0.67537  1.0000
  H   H652      1.0  0.28376  0.44108  0.84418  1.0000
  C   C376      1.0  0.28075  0.48168  0.88311  1.0000
  H   H653      1.0  0.13260  0.41451  0.66230  1.0000
  H   H654      1.0  0.12663  0.34550  0.66251  1.0000
  H   H655      1.0  0.11777  0.34324  0.83211  1.0000
  C   C377      1.0  0.14723  0.40665  0.66095  1.0000
  C   C378      1.0  0.44026  0.44248  0.87465  1.0000
  C   C379      1.0  0.99726  0.42919  0.67271  1.0000
  H   H656      1.0  0.15404  0.29666  0.69605  1.0000
  H   H657      1.0  0.41169  0.23897  0.68001  1.0000
  H   H658      1.0  0.00023  0.40645  0.65604  1.0000
  H   H659      1.0  0.05472  0.39038  0.66307  1.0000
  H   H660      1.0  0.32481  0.24856  0.80066  1.0000
  H   H661      1.0  0.18351  0.45991  0.70666  1.0000
  H   H662      1.0  0.36896  0.28899  0.70106  1.0000
  C   C380      1.0  0.27919  0.45471  0.83422  1.0000
  C   C381      1.0  0.30548  0.26637  0.67942  1.0000
  C   C382      1.0  0.27398  0.44904  0.81611  1.0000
  H   H663      1.0  0.38115  0.28197  0.87066  1.0000
  C   C383      1.0  0.32477  0.24691  0.89593  1.0000
  C   C384      1.0  0.43648  0.31365  0.93048  1.0000
  H   H664      1.0  0.15877  0.24908  0.87415  1.0000
  Fe  Fe48      1.0  0.13400  0.23688  0.68321  1.0000
  H   H665      1.0  0.38652  0.36378  0.88971  1.0000
  H   H666      1.0  0.33600  0.27959  0.79467  1.0000
  C   C385      1.0  0.37871  0.35412  0.88470  1.0000
  H   H667      1.0  0.20186  0.24503  0.85894  1.0000
  C   C386      1.0  0.10309  0.23915  0.76656  1.0000
  H   H668      1.0  0.16761  0.35619  0.73039  1.0000
  C   C387      1.0  0.15999  0.25159  0.77094  1.0000
  H   H669      1.0  0.31827  0.24260  0.83623  1.0000
  H   H670      1.0  0.38038  0.32418  0.88314  1.0000
  H   H671      1.0  0.33848  0.26860  0.81927  1.0000
  H   H672      1.0  0.46551  0.31798  0.81931  1.0000
  H   H673      1.0  0.16205  0.26245  0.77926  1.0000
  H   H674      1.0  0.21019  0.35751  0.77462  1.0000
  H   H675      1.0  0.18293  0.37445  0.72353  1.0000
  C   C388      1.0  0.14154  0.25501  0.90122  1.0000
  H   H676      1.0  0.40180  0.26270  0.87183  1.0000
  H   H677      1.0  0.15685  0.36100  0.77445  1.0000
  H   H678      1.0  0.10982  0.44353  0.71602  1.0000
  C   C389      1.0  0.21036  0.37154  0.79854  1.0000
  H   H679      1.0  0.31608  0.23747  0.92658  1.0000
  H   H680      1.0  0.46014  0.42919  0.89432  1.0000
  H   H681      1.0  0.20821  0.39638  0.71816  1.0000
  H   H682      1.0  0.15984  0.37910  0.73913  1.0000
  C   C390      1.0  0.31215  0.24713  0.91366  1.0000
  H   H683      1.0  0.09742  0.34204  0.65524  1.0000
  C   C391      1.0  0.25517  0.24285  0.76791  1.0000
  C   C392      1.0  0.13015  0.33273  0.82625  1.0000
  H   H684      1.0  0.17779  0.29723  0.78572  1.0000
  H   H685      1.0  0.13477  0.25139  0.73916  1.0000
  H   H686      1.0  0.46697  0.25628  0.83776  1.0000
  C   C393      1.0  0.27288  0.25264  0.82359  1.0000
  C   C394      1.0  0.39906  0.23919  0.67292  1.0000
  H   H687      1.0  0.46845  0.33096  0.83757  1.0000
  H   H688      1.0  0.14669  0.47800  0.70466  1.0000
  C   C395      1.0  0.25805  0.24116  0.70800  1.0000
  C   C396      1.0  0.20629  0.35458  0.79064  1.0000
  C   C397      1.0  0.30613  0.25127  0.82889  1.0000
  H   H689      1.0  0.23864  0.26488  0.67907  1.0000
  C   C398      1.0  0.18485  0.35145  0.79758  1.0000
  C   C399      1.0  0.07169  0.26829  0.81609  1.0000
  C   C400      1.0  0.48772  0.38695  0.84160  1.0000
  H   H690      1.0  0.14229  0.42903  0.72719  1.0000
  C   C401      1.0  0.44411  0.31490  0.84564  1.0000
  H   H691      1.0  0.44087  0.30158  0.84197  1.0000
  H   H692      1.0  0.16301  0.25736  0.75512  1.0000
  H   H693      1.0  0.18402  0.34567  0.81348  1.0000
  C   C402      1.0  0.32781  0.27496  0.80931  1.0000
  H   H694      1.0  0.22858  0.39999  0.69911  1.0000
  H   H695      1.0  0.44614  0.29935  0.93211  1.0000
  H   H696      1.0  0.44767  0.32660  0.87007  1.0000
  H   H697      1.0  0.14498  0.41083  0.71218  1.0000
  H   H698      1.0  0.31661  0.24568  0.74291  1.0000
  H   H699      1.0  0.14668  0.43412  0.68244  1.0000
  N   N22       1.0  0.42278  0.31174  0.88014  1.0000
  H   H700      1.0  0.11106  0.41904  0.72910  1.0000
  C   C403      1.0  0.13887  0.42618  0.71357  1.0000
  H   H701      1.0  0.20169  0.38534  0.79251  1.0000
  H   H702      1.0  0.04029  0.26379  0.73852  1.0000
  H   H703      1.0  0.23274  0.26635  0.83400  1.0000
  C   C404      1.0  0.46077  0.43326  0.87832  1.0000
  H   H704      1.0  0.41686  0.34291  0.87848  1.0000
  H   H705      1.0  0.36372  0.35523  0.89305  1.0000
  C   C405      1.0  0.44256  0.31350  0.86799  1.0000
  H   H706      1.0  0.45349  0.30092  0.87289  1.0000
  H   H707      1.0  0.40807  0.33463  0.86067  1.0000
  C   C406      1.0  0.18251  0.35954  0.75337  1.0000
  H   H708      1.0  0.44909  0.32244  0.90110  1.0000
  H   H709      1.0  0.27501  0.27889  0.68354  1.0000
  H   H710      1.0  0.18669  0.37190  0.75801  1.0000
  C   C407      1.0  0.15965  0.26557  0.69835  1.0000
  C   C408      1.0  0.40986  0.33108  0.87622  1.0000
  H   H711      1.0  0.37785  0.35927  0.86903  1.0000
  H   H712      1.0  0.20059  0.27874  0.76365  1.0000
  H   H713      1.0  0.24004  0.26867  0.80787  1.0000
  H   H714      1.0  0.40818  0.30168  0.86091  1.0000
  H   H715      1.0  0.15453  0.32044  0.79487  1.0000
  H   H716      1.0  0.26521  0.46172  0.80825  1.0000
  C   C409      1.0  0.11685  0.42824  0.71548  1.0000
  C   C410      1.0  0.43888  0.24160  0.88060  1.0000
  H   H717      1.0  0.35279  0.44704  0.81484  1.0000
  H   H718      1.0  0.22772  0.24434  0.69000  1.0000
  C   C411      1.0  0.41507  0.29587  0.87411  1.0000
  C   C412      1.0  0.43436  0.32080  0.90916  1.0000
  H   H719      1.0  0.42725  0.28430  0.86979  1.0000
  H   H720      1.0  0.42501  0.33525  0.90823  1.0000
  H   H721      1.0  0.43493  0.29195  0.90344  1.0000
  H   H722      1.0  0.38907  0.32874  0.90386  1.0000
  C   C413      1.0  0.42549  0.30636  0.90120  1.0000
  H   H723      1.0  0.34494  0.42492  0.82879  1.0000
  H   H724      1.0  0.20884  0.39005  0.69455  1.0000
  H   H725      1.0  0.42209  0.31235  0.93966  1.0000
  H   H726      1.0  0.41163  0.30438  0.91104  1.0000
  C   C414      1.0  0.21257  0.40064  0.70222  1.0000
  C   C415      1.0  0.40079  0.28469  0.88963  1.0000
  H   H727      1.0  0.13774  0.45403  0.69438  1.0000
  H   H728      1.0  0.28655  0.35554  0.68304  1.0000
  H   H729      1.0  0.44204  0.24723  0.90848  1.0000
  H   H730      1.0  0.05577  0.26829  0.81905  1.0000
  H   H731      1.0  0.47202  0.39209  0.84122  1.0000
  H   H732      1.0  0.25431  0.25120  0.75304  1.0000
  H   H733      1.0  0.14075  0.46175  0.72653  1.0000
  H   H734      1.0  0.09621  0.26400  0.79380  1.0000
  H   H735      1.0  0.19743  0.23602  0.71749  1.0000
  H   H736      1.0  0.10309  0.24601  0.73512  1.0000
  H   H737      1.0  0.16411  0.47365  0.74182  1.0000
  N   N23       1.0  0.48942  0.40610  0.86861  1.0000
  H   H738      1.0  0.30194  0.45989  0.87059  1.0000
  H   H739      1.0  0.26449  0.27051  0.65204  1.0000
  H   H740      1.0  0.16757  0.48331  0.67818  1.0000
  H   H741      1.0  0.07845  0.25775  0.82760  1.0000
  C   C416      1.0  0.18503  0.38564  0.65737  1.0000
  H   H742      1.0  0.19958  0.37745  0.65566  1.0000
  H   H743      1.0  0.39380  0.25443  0.66667  1.0000
  C   C417      1.0  0.29274  0.48225  0.81192  1.0000
  C   C418      1.0  0.15275  0.46873  0.71715  1.0000
  C   C419      1.0  0.32612  0.28442  0.65400  1.0000
  H   H744      1.0  0.29535  0.47461  0.79929  1.0000
  C   C420      1.0  0.04975  0.39886  0.65008  1.0000
  H   H745      1.0  0.27154  0.24660  0.67825  1.0000
  H   H746      1.0  0.26467  0.24152  0.89657  1.0000
  H   H747      1.0  0.28071  0.47297  0.89793  1.0000
  C   C421      1.0  0.28760  0.46822  0.86799  1.0000
  H   H748      1.0  0.32229  0.45406  0.80003  1.0000
  C   C422      1.0  0.31420  0.45665  0.83118  1.0000
  C   C423      1.0  0.11075  0.23502  0.74564  1.0000
  C   C424      1.0  0.99116  0.34633  0.67838  1.0000
  Fe  Fe49      1.0  0.11519  0.62205  0.26682  1.0000
  S   S99       1.0  0.12128  0.63739  0.28903  1.0000
  C   C425      1.0  0.48416  0.66869  0.19333  1.0000
  Fe  Fe50      1.0  0.14478  0.64009  0.23441  1.0000
  S   S100      1.0  0.15319  0.65639  0.25438  1.0000
  S   S101      1.0  0.15842  0.64739  0.20286  1.0000
  H   H749      1.0  0.40050  0.59026  0.16751  1.0000
  Fe  Fe51      1.0  0.12138  0.66320  0.26511  1.0000
  S   S102      1.0  0.10735  0.69319  0.27051  1.0000
  S   S103      1.0  0.14667  0.61193  0.25532  1.0000
  S   S104      1.0  0.11258  0.64868  0.24380  1.0000
  H   H750      1.0  0.35536  0.61120  0.07189  1.0000
  H   H751      1.0  0.06137  0.49957  0.30774  1.0000
  Fe  Fe52      1.0  0.39823  0.65591  0.21691  1.0000
  S   S105      1.0  0.37449  0.66410  0.19895  1.0000
  S   S106      1.0  0.42801  0.65988  0.19969  1.0000
  Fe  Fe53      1.0  0.36911  0.65031  0.25482  1.0000
  S   S107      1.0  0.34338  0.65746  0.23961  1.0000
  H   H752      1.0  0.43154  0.62672  0.14407  1.0000
  Fe  Fe54      1.0  0.36176  0.63936  0.21831  1.0000
  S   S108      1.0  0.34869  0.61898  0.20628  1.0000
  Fe  Fe55      1.0  0.35826  0.68135  0.22172  1.0000
  S   S109      1.0  0.34160  0.71107  0.21440  1.0000
  S   S110      1.0  0.38666  0.62963  0.23511  1.0000
  S   S111      1.0  0.38300  0.67567  0.23815  1.0000
  Fe  Fe56      1.0  0.42070  0.57300  0.00214  1.0000
  S   S112      1.0  0.39403  0.59285  0.01265  1.0000
  S   S113      1.0  0.45095  0.57445  0.00855  1.0000
  H   H753      1.0  0.16529  0.68113  0.31470  1.0000
  H   H754      1.0  0.45518  0.55765  0.11375  1.0000
  H   H755      1.0  0.31023  0.66660  0.01220  1.0000
  Fe  Fe57      1.0  0.37887  0.56703  0.01901  1.0000
  S   S114      1.0  0.36163  0.56215  0.04941  1.0000
  S   S115      1.0  0.40614  0.54645  0.00999  1.0000
  Fe  Fe58      1.0  0.27404  0.62536  0.10003  1.0000
  S   S116      1.0  0.28215  0.65493  0.09547  1.0000
  S   S117      1.0  0.27841  0.61050  0.07384  1.0000
  Fe  Fe59      1.0  0.25869  0.62554  0.14321  1.0000
  S   S118      1.0  0.26633  0.65467  0.14223  1.0000
  S   S119      1.0  0.24458  0.60987  0.17169  1.0000
  Fe  Fe60      1.0  0.25382  0.66284  0.11470  1.0000
  S   S120      1.0  0.23485  0.69143  0.10706  1.0000
  Fe  Fe61      1.0  0.29394  0.64412  0.12326  1.0000
  S   S121      1.0  0.32249  0.65213  0.12482  1.0000
  S   S122      1.0  0.24432  0.63429  0.11669  1.0000
  S   S123      1.0  0.28772  0.61389  0.12679  1.0000
  C   C426      1.0  0.23248  0.70726  0.12372  1.0000
  H   H756      1.0  0.23207  0.68501  0.14914  1.0000
  C   C427      1.0  0.33861  0.57599  0.05566  1.0000
  C   C428      1.0  0.32512  0.58114  0.04288  1.0000
  C   C429      1.0  0.30651  0.59136  0.04877  1.0000
  C   C430      1.0  0.30159  0.59713  0.06712  1.0000
  C   C431      1.0  0.31518  0.59219  0.07976  1.0000
  C   C432      1.0  0.33346  0.58132  0.07419  1.0000
  H   H757      1.0  0.32885  0.57678  0.02870  1.0000
  H   H758      1.0  0.29599  0.59498  0.03899  1.0000
  H   H759      1.0  0.31154  0.59639  0.09398  1.0000
  H   H760      1.0  0.34374  0.57713  0.08423  1.0000
  H   H761      1.0  0.21620  0.53471  0.13086  1.0000
  H   H762      1.0  0.20037  0.68144  0.27163  1.0000
  H   H763      1.0  0.25229  0.54886  0.15671  1.0000
  H   H764      1.0  0.39216  0.63367  0.11069  1.0000
  C   C433      1.0  0.33958  0.62893  0.18457  1.0000
  C   C434      1.0  0.33208  0.61716  0.17530  1.0000
  C   C435      1.0  0.32607  0.62449  0.15724  1.0000
  C   C436      1.0  0.32813  0.64342  0.14817  1.0000
  C   C437      1.0  0.33524  0.65533  0.15757  1.0000
  C   C438      1.0  0.34052  0.64821  0.17595  1.0000
  H   H765      1.0  0.33112  0.60228  0.18199  1.0000
  H   H766      1.0  0.32050  0.61525  0.15004  1.0000
  H   H767      1.0  0.33649  0.67010  0.15074  1.0000
  H   H768      1.0  0.34533  0.65767  0.18335  1.0000
  C   C439      1.0  0.47195  0.60203  0.05309  1.0000
  H   H769      1.0  0.13397  0.72441  0.16957  1.0000
  C   C440      1.0  0.47832  0.58537  0.02501  1.0000
  C   C441      1.0  0.45841  0.58498  0.02619  1.0000
  C   C442      1.0  0.44527  0.59321  0.04095  1.0000
  C   C443      1.0  0.45200  0.60179  0.05418  1.0000
  C   C444      1.0  0.30022  0.68959  0.28159  1.0000
  H   H770      1.0  0.48864  0.57931  0.01354  1.0000
  H   H771      1.0  0.42991  0.59315  0.04208  1.0000
  H   H772      1.0  0.44163  0.60844  0.06523  1.0000
  C   C445      1.0  0.44171  0.64072  0.18809  1.0000
  C   C446      1.0  0.44261  0.62143  0.19734  1.0000
  C   C447      1.0  0.45475  0.60655  0.18825  1.0000
  C   C448      1.0  0.46606  0.61087  0.16988  1.0000
  C   C449      1.0  0.46475  0.63016  0.16049  1.0000
  C   C450      1.0  0.45272  0.64501  0.16960  1.0000
  H   H773      1.0  0.43434  0.61801  0.21172  1.0000
  H   H774      1.0  0.45562  0.59167  0.19563  1.0000
  C   C451      1.0  0.25915  0.55815  0.14377  1.0000
  C   C452      1.0  0.18272  0.63731  0.19507  1.0000
  C   C453      1.0  0.19304  0.64634  0.17786  1.0000
  C   C454      1.0  0.21215  0.63823  0.17078  1.0000
  C   C455      1.0  0.22094  0.62080  0.18071  1.0000
  C   C456      1.0  0.21063  0.61175  0.19790  1.0000
  C   C457      1.0  0.19166  0.62010  0.20524  1.0000
  H   H775      1.0  0.18619  0.65963  0.16990  1.0000
  H   H776      1.0  0.21995  0.64533  0.15749  1.0000
  H   H777      1.0  0.21728  0.59813  0.20547  1.0000
  H   H778      1.0  0.18373  0.61294  0.21841  1.0000
  C   C458      1.0  0.15138  0.72060  0.23936  1.0000
  C   C459      1.0  0.13863  0.70707  0.24622  1.0000
  C   C460      1.0  0.12326  0.71013  0.26152  1.0000
  C   C461      1.0  0.12049  0.72695  0.26969  1.0000
  C   C462      1.0  0.34812  0.65612  0.00951  1.0000
  H   H779      1.0  0.14042  0.69452  0.23936  1.0000
  H   H780      1.0  0.48184  0.56662  0.08709  1.0000
  N   N24       1.0  0.22392  0.64482  0.24631  1.0000
  C   C463      1.0  0.23381  0.65550  0.25685  1.0000
  C   C464      1.0  0.20275  0.65379  0.24697  1.0000
  C   C465      1.0  0.22476  0.62426  0.25730  1.0000
  C   C466      1.0  0.23394  0.64384  0.22564  1.0000
  C   C467      1.0  0.23651  0.66334  0.21214  1.0000
  C   C468      1.0  0.25578  0.64807  0.25717  1.0000
  C   C469      1.0  0.21323  0.61107  0.25066  1.0000
  C   C470      1.0  0.25033  0.66015  0.19326  1.0000
  C   C471      1.0  0.41651  0.63794  0.01652  1.0000
  C   C472      1.0  0.21561  0.59067  0.26261  1.0000
  H   H781      1.0  0.22634  0.65491  0.27228  1.0000
  H   H782      1.0  0.23250  0.67112  0.25074  1.0000
  H   H783      1.0  0.19650  0.64837  0.23628  1.0000
  H   H784      1.0  0.29404  0.63716  0.03080  1.0000
  H   H785      1.0  0.23999  0.61654  0.25619  1.0000
  H   H786      1.0  0.24840  0.63440  0.22547  1.0000
  H   H787      1.0  0.22570  0.63667  0.21816  1.0000
  H   H788      1.0  0.24244  0.67297  0.21907  1.0000
  H   H789      1.0  0.22231  0.67075  0.20802  1.0000
  C   C473      1.0  0.20687  0.52832  0.16168  1.0000
  H   H790      1.0  0.26409  0.64853  0.24218  1.0000
  H   H791      1.0  0.21863  0.60948  0.23530  1.0000
  H   H792      1.0  0.19747  0.61695  0.25234  1.0000
  H   H793      1.0  0.18571  0.68036  0.23388  1.0000
  H   H794      1.0  0.26514  0.65348  0.19622  1.0000
  H   H795      1.0  0.24496  0.65056  0.18567  1.0000
  H   H796      1.0  0.25119  0.67426  0.18345  1.0000
  C   C474      1.0  0.17492  0.66745  0.31382  1.0000
  H   H797      1.0  0.23104  0.58356  0.26032  1.0000
  H   H798      1.0  0.21066  0.59118  0.27836  1.0000
  H   H799      1.0  0.24538  0.56175  0.07083  1.0000
  H   H800      1.0  0.42452  0.59410  0.13764  1.0000
  H   H801      1.0  0.29771  0.71989  0.27071  1.0000
  H   H802      1.0  0.36140  0.69134  0.99261  1.0000
  H   H803      1.0  0.09490  0.66585  0.31295  1.0000
  H   H804      1.0  0.33154  0.72483  0.31505  1.0000
  H   H805      1.0  0.45044  0.67902  0.21882  1.0000
  H   H806      1.0  0.21014  0.51242  0.16175  1.0000
  H   H807      1.0  0.99183  0.70605  0.17453  1.0000
  C   C475      1.0  0.04877  0.63435  0.30460  1.0000
  C   C476      1.0  0.34933  0.72500  0.26438  1.0000
  C   C477      1.0  0.17012  0.65358  0.30485  1.0000
  H   H808      1.0  0.47017  0.54832  0.08247  1.0000
  H   H809      1.0  0.21647  0.60863  0.14583  1.0000
  H   H810      1.0  0.25073  0.70827  0.21221  1.0000
  C   C478      1.0  0.24429  0.57628  0.13784  1.0000
  Fe  Fe62      1.0  0.15242  0.62921  0.27609  1.0000
  C   C479      1.0  0.39322  0.65079  0.14685  1.0000
  C   C480      1.0  0.40653  0.66256  0.15301  1.0000
  C   C481      1.0  0.39887  0.68431  0.14932  1.0000
  H   H811      1.0  0.37852  0.65352  0.15577  1.0000
  H   H812      1.0  0.39161  0.65764  0.13167  1.0000
  H   H813      1.0  0.42153  0.66016  0.14483  1.0000
  H   H814      1.0  0.40722  0.65847  0.16869  1.0000
  H   H815      1.0  0.38379  0.68751  0.15718  1.0000
  H   H816      1.0  0.40820  0.69218  0.15469  1.0000
  H   H817      1.0  0.39912  0.68967  0.13351  1.0000
  C   C482      1.0  0.21938  0.53861  0.14416  1.0000
  S   S124      1.0  0.09432  0.60054  0.27714  1.0000
  C   C483      1.0  0.28751  0.70705  0.21908  1.0000
  H   H818      1.0  0.36378  0.66244  0.03077  1.0000
  H   H819      1.0  0.21427  0.71697  0.23611  1.0000
  C   C484      1.0  0.99304  0.63508  0.27510  1.0000
  H   H820      1.0  0.04345  0.64967  0.30429  1.0000
  C   C485      1.0  0.28569  0.68860  0.21146  1.0000
  C   C486      1.0  0.29317  0.71569  0.11914  1.0000
  H   H821      1.0  0.26619  0.65635  0.04857  1.0000
  H   H822      1.0  0.41584  0.71925  0.25015  1.0000
  C   C487      1.0  0.30374  0.67317  0.21281  1.0000
  H   H823      1.0  0.28653  0.70311  0.23517  1.0000
  H   H824      1.0  0.30248  0.71009  0.21392  1.0000
  H   H825      1.0  0.31302  0.60777  0.99397  1.0000
  C   C488      1.0  0.36926  0.68210  0.00408  1.0000
  C   C489      1.0  0.29602  0.72987  0.18051  1.0000
  H   H826      1.0  0.32243  0.61847  0.02216  1.0000
  H   H827      1.0  0.00844  0.63715  0.27298  1.0000
  H   H828      1.0  0.43463  0.73118  0.19043  1.0000
  H   H829      1.0  0.19119  0.53330  0.16097  1.0000
  H   H830      1.0  0.28320  0.69198  0.19616  1.0000
  H   H831      1.0  0.34208  0.66479  0.99658  1.0000
  H   H832      1.0  0.27993  0.65479  0.26768  1.0000
  H   H833      1.0  0.48096  0.68620  0.13192  1.0000
  H   H834      1.0  0.26898  0.72597  0.09387  1.0000
  N   N25       1.0  0.29126  0.73474  0.30791  1.0000
  H   H835      1.0  0.00681  0.49540  0.31658  1.0000
  H   H836      1.0  0.06077  0.50715  0.27208  1.0000
  C   C490      1.0  0.33962  0.63554  0.04173  1.0000
  H   H837      1.0  0.23201  0.73264  0.10145  1.0000
  H   H838      1.0  0.30548  0.66819  0.22827  1.0000
  H   H839      1.0  0.30225  0.66047  0.20667  1.0000
  H   H840      1.0  0.31693  0.67894  0.20451  1.0000
  H   H841      1.0  0.48722  0.63322  0.19169  1.0000
  H   H842      1.0  0.41715  0.60747  0.11546  1.0000
  H   H843      1.0  0.36103  0.64632  0.00333  1.0000
  H   H844      1.0  0.32428  0.69621  0.10555  1.0000
  C   C491      1.0  0.18239  0.63577  0.30401  1.0000
  H   H845      1.0  0.26286  0.67579  0.25987  1.0000
  H   H846      1.0  0.25166  0.71125  0.23629  1.0000
  C   C492      1.0  0.33887  0.64294  0.29728  1.0000
  C   C493      1.0  0.33292  0.62675  0.29340  1.0000
  H   H847      1.0  0.32904  0.62639  0.05068  1.0000
  H   H848      1.0  0.19417  0.64867  0.26136  1.0000
  H   H849      1.0  0.30577  0.71687  0.12566  1.0000
  H   H850      1.0  0.28640  0.55052  0.15493  1.0000
  C   C494      1.0  0.33130  0.62867  0.01224  1.0000
  H   H851      1.0  0.34572  0.61967  0.00838  1.0000
  S   S125      1.0  0.47949  0.61520  0.06853  1.0000
  H   H852      1.0  0.31600  0.66924  0.03448  1.0000
  S   S126      1.0  0.36232  0.64820  0.28741  1.0000
  H   H853      1.0  0.33198  0.73081  0.10026  1.0000
  C   C495      1.0  0.40441  0.59173  0.19607  1.0000
  H   H854      1.0  0.34605  0.69909  0.25489  1.0000
  H   H855      1.0  0.38857  0.59354  0.20170  1.0000
  H   H856      1.0  0.47324  0.64737  0.21800  1.0000
  H   H857      1.0  0.42301  0.63563  0.02994  1.0000
  H   H858      1.0  0.30665  0.73418  0.18752  1.0000
  C   C496      1.0  0.29264  0.71054  0.28453  1.0000
  C   C497      1.0  0.00160  0.72910  0.15283  1.0000
  H   H859      1.0  0.41903  0.71452  0.19117  1.0000
  H   H860      1.0  0.33511  0.67281  0.06990  1.0000
  H   H861      1.0  0.21645  0.71989  0.20981  1.0000
  C   C498      1.0  0.01886  0.56049  0.30934  1.0000
  H   H862      1.0  0.27626  0.70042  0.09641  1.0000
  H   H863      1.0  0.16316  0.71819  0.22746  1.0000
  C   C499      1.0  0.34358  0.68383  0.07135  1.0000
  H   H864      1.0  0.32280  0.70815  0.06158  1.0000
  C   C500      1.0  0.06233  0.59482  0.30492  1.0000
  H   H865      1.0  0.20224  0.72624  0.98736  1.0000
  H   H866      1.0  0.44277  0.64433  0.99807  1.0000
  C   C501      1.0  0.11447  0.72018  0.19799  1.0000
  C   C502      1.0  0.43254  0.63410  0.99930  1.0000
  H   H867      1.0  0.99688  0.72349  0.14131  1.0000
  C   C503      1.0  0.26405  0.71551  0.06141  1.0000
  H   H868      1.0  0.02116  0.51880  0.29642  1.0000
  C   C504      1.0  0.13477  0.72139  0.18531  1.0000
  H   H869      1.0  0.48919  0.55393  0.05281  1.0000
  H   H870      1.0  0.46364  0.53954  0.04435  1.0000
  H   H871      1.0  0.48115  0.51934  0.07035  1.0000
  H   H872      1.0  0.01132  0.71903  0.19122  1.0000
  C   C505      1.0  0.14867  0.70226  0.18896  1.0000
  N   N26       1.0  0.27272  0.72470  0.21390  1.0000
  H   H873      1.0  0.10938  0.70712  0.19563  1.0000
  H   H874      1.0  0.11708  0.71672  0.21326  1.0000
  S   S127      1.0  0.36876  0.57245  0.99000  1.0000
  H   H875      1.0  0.28166  0.72814  0.12242  1.0000
  H   H876      1.0  0.09312  0.72591  0.17117  1.0000
  H   H877      1.0  0.29329  0.70188  0.06330  1.0000
  H   H878      1.0  0.40887  0.70881  0.22187  1.0000
  H   H879      1.0  0.06754  0.57952  0.30497  1.0000
  H   H880      1.0  0.47112  0.66835  0.18699  1.0000
  S   S128      1.0  0.17639  0.61789  0.29365  1.0000
  H   H881      1.0  0.07189  0.72643  0.20254  1.0000
  H   H882      1.0  0.29596  0.68702  0.26824  1.0000
  H   H883      1.0  0.21000  0.53117  0.17546  1.0000
  H   H884      1.0  0.27656  0.71255  0.28698  1.0000
  H   H885      1.0  0.08734  0.70785  0.22880  1.0000
  C   C506      1.0  0.42555  0.73109  0.16306  1.0000
  C   C507      1.0  0.08190  0.72348  0.22941  1.0000
  H   H886      1.0  0.31633  0.68646  0.27991  1.0000
  C   C508      1.0  0.48002  0.55119  0.09147  1.0000
  C   C509      1.0  0.36654  0.61717  0.06026  1.0000
  H   H887      1.0  0.04157  0.53023  0.29392  1.0000
  C   C510      1.0  0.48946  0.52289  0.05556  1.0000
  H   H888      1.0  0.15067  0.69857  0.20443  1.0000
  H   H889      1.0  0.14305  0.69024  0.18518  1.0000
  H   H890      1.0  0.16310  0.70347  0.17982  1.0000
  H   H891      1.0  0.25827  0.63301  0.26514  1.0000
  H   H892      1.0  0.22648  0.72027  0.99349  1.0000
  H   H893      1.0  0.37992  0.60610  0.05944  1.0000
  C   C511      1.0  0.35951  0.62196  0.04065  1.0000
  H   H894      1.0  0.36614  0.60770  0.31613  1.0000
  H   H895      1.0  0.23477  0.53278  0.14524  1.0000
  H   H896      1.0  0.45200  0.65991  0.16232  1.0000
  C   C512      1.0  0.23236  0.70023  0.14359  1.0000
  H   H897      1.0  0.26478  0.54960  0.13185  1.0000
  H   H898      1.0  0.35439  0.68630  0.05791  1.0000
  H   H899      1.0  0.48830  0.65871  0.15799  1.0000
  H   H900      1.0  0.20507  0.59095  0.11420  1.0000
  C   C513      1.0  0.42012  0.62611  0.13560  1.0000
  C   C514      1.0  0.32667  0.65403  0.31049  1.0000
  C   C515      1.0  0.21693  0.71760  0.98402  1.0000
  H   H901      1.0  0.39013  0.60488  0.14126  1.0000
  N   N27       1.0  0.40029  0.62921  0.14805  1.0000
  H   H902      1.0  0.41133  0.62752  0.17480  1.0000
  H   H903      1.0  0.38666  0.62451  0.17822  1.0000
  H   H904      1.0  0.36916  0.64403  0.12331  1.0000
  H   H905      1.0  0.38381  0.71966  0.22663  1.0000
  C   C516      1.0  0.05335  0.49545  0.28153  1.0000
  H   H906      1.0  0.40880  0.65310  0.01407  1.0000
  C   C517      1.0  0.27834  0.66360  0.03984  1.0000
  H   H907      1.0  0.27446  0.67024  0.02532  1.0000
  H   H908      1.0  0.27324  0.68205  0.22045  1.0000
  H   H909      1.0  0.21930  0.62434  0.27311  1.0000
  H   H910      1.0  0.35148  0.67811  0.08385  1.0000
  C   C518      1.0  0.40118  0.62089  0.16918  1.0000
  N   N28       1.0  0.22809  0.57306  0.12861  1.0000
  H   H911      1.0  0.24337  0.54892  0.11409  1.0000
  H   H912      1.0  0.02126  0.55912  0.29372  1.0000
  C   C519      1.0  0.31530  0.62111  0.30343  1.0000
  H   H913      1.0  0.48279  0.53049  0.02598  1.0000
  C   C520      1.0  0.35557  0.67038  0.01906  1.0000
  H   H914      1.0  0.18076  0.61845  0.12532  1.0000
  H   H915      1.0  0.23822  0.58228  0.15145  1.0000
  H   H916      1.0  0.18537  0.63022  0.14375  1.0000
  H   H917      1.0  0.27267  0.73463  0.24077  1.0000
  C   C521      1.0  0.37936  0.63027  0.12170  1.0000
  C   C522      1.0  0.21472  0.56096  0.14316  1.0000
  H   H918      1.0  0.30140  0.71456  0.17872  1.0000
  C   C523      1.0  0.31538  0.69992  0.09366  1.0000
  H   H919      1.0  0.28937  0.72818  0.05911  1.0000
  C   C524      1.0  0.07298  0.60848  0.29268  1.0000
  C   C525      1.0  0.23404  0.73243  0.14892  1.0000
  C   C526      1.0  0.38532  0.62056  0.14167  1.0000
  H   H920      1.0  0.37171  0.62125  0.15259  1.0000
  H   H921      1.0  0.45967  0.66942  0.24121  1.0000
  C   C527      1.0  0.19747  0.67638  0.24290  1.0000
  H   H922      1.0  0.46814  0.51420  0.04238  1.0000
  C   C528      1.0  0.06626  0.62826  0.29271  1.0000
  C   C529      1.0  0.48502  0.59385  0.03827  1.0000
  C   C530      1.0  0.25287  0.71885  0.22089  1.0000
  H   H923      1.0  0.46752  0.53302  0.11763  1.0000
  H   H924      1.0  0.30938  0.68648  0.09416  1.0000
  H   H925      1.0  0.41130  0.59992  0.20379  1.0000
  H   H926      1.0  0.20941  0.68375  0.23434  1.0000
  H   H927      1.0  0.04026  0.49450  0.27569  1.0000
  H   H928      1.0  0.29385  0.67950  0.29412  1.0000
  H   H929      1.0  0.42399  0.59541  0.16901  1.0000
  H   H930      1.0  0.28503  0.57182  0.13651  1.0000
  C   C531      1.0  0.23570  0.56393  0.11055  1.0000
  H   H931      1.0  0.34341  0.68078  0.02537  1.0000
  C   C532      1.0  0.27666  0.56378  0.14940  1.0000
  C   C533      1.0  0.40810  0.59877  0.17410  1.0000
  C   C534      1.0  0.36886  0.61736  0.11402  1.0000
  H   H932      1.0  0.41058  0.57612  0.19930  1.0000
  H   H933      1.0  0.36306  0.62552  0.10083  1.0000
  H   H934      1.0  0.35642  0.61297  0.12506  1.0000
  H   H935      1.0  0.19671  0.59517  0.15079  1.0000
  C   C535      1.0  0.27498  0.73208  0.19225  1.0000
  C   C536      1.0  0.19962  0.63202  0.31169  1.0000
  H   H936      1.0  0.01738  0.72386  0.15259  1.0000
  H   H937      1.0  0.30738  0.64298  0.99617  1.0000
  C   C537      1.0  0.18977  0.68525  0.26143  1.0000
  H   H938      1.0  0.17598  0.68024  0.26895  1.0000
  H   H939      1.0  0.42144  0.63815  0.12299  1.0000
  H   H940      1.0  0.25676  0.66011  0.28283  1.0000
  C   C538      1.0  0.33006  0.70284  0.07446  1.0000
  H   H941      1.0  0.19956  0.56504  0.14004  1.0000
  H   H942      1.0  0.37896  0.60418  0.11021  1.0000
  H   H943      1.0  0.22331  0.56257  0.10373  1.0000
  H   H944      1.0  0.26564  0.54884  0.08272  1.0000
  C   C539      1.0  0.25006  0.57459  0.09462  1.0000
  C   C540      1.0  0.46372  0.67567  0.22565  1.0000
  H   H945      1.0  0.21385  0.56410  0.15810  1.0000
  H   H946      1.0  0.47816  0.55239  0.12227  1.0000
  H   H947      1.0  0.27198  0.57291  0.16101  1.0000
  C   C541      1.0  0.21624  0.59261  0.12249  1.0000
  H   H948      1.0  0.34230  0.61809  0.28327  1.0000
  H   H949      1.0  0.23328  0.70736  0.17149  1.0000
  H   H950      1.0  0.07437  0.63885  0.28326  1.0000
  C   C542      1.0  0.23299  0.71286  0.15623  1.0000
  C   C543      1.0  0.19235  0.62225  0.13157  1.0000
  H   H951      1.0  0.20073  0.63201  0.12030  1.0000
  H   H952      1.0  0.25223  0.58761  0.12832  1.0000
  C   C544      1.0  0.42615  0.60725  0.12661  1.0000
  C   C545      1.0  0.32249  0.63527  0.99323  1.0000
  H   H953      1.0  0.44980  0.61843  0.10549  1.0000
  C   C546      1.0  0.39882  0.72127  0.22724  1.0000
  H   H954      1.0  0.22551  0.60242  0.11241  1.0000
  H   H955      1.0  0.35255  0.71748  0.27845  1.0000
  C   C547      1.0  0.40051  0.71983  0.24861  1.0000
  C   C548      1.0  0.25758  0.56338  0.07767  1.0000
  H   H956      1.0  0.24298  0.58919  0.08849  1.0000
  H   H957      1.0  0.26289  0.57611  0.10051  1.0000
  H   H958      1.0  0.36994  0.63036  0.06406  1.0000
  H   H959      1.0  0.10869  0.72939  0.28157  1.0000
  H   H960      1.0  0.29426  0.68399  0.12564  1.0000
  H   H961      1.0  0.99888  0.66095  0.29641  1.0000
  H   H962      1.0  0.44032  0.61915  0.00292  1.0000
  H   H963      1.0  0.44319  0.70226  0.16373  1.0000
  C   C549      1.0  0.31439  0.65818  0.02613  1.0000
  H   H964      1.0  0.18662  0.70130  0.25762  1.0000
  H   H965      1.0  0.33957  0.64687  0.05047  1.0000
  H   H966      1.0  0.33925  0.71356  0.07499  1.0000
  C   C550      1.0  0.26427  0.66054  0.26751  1.0000
  C   C551      1.0  0.34570  0.71459  0.25103  1.0000
  H   H967      1.0  0.40598  0.62781  0.01880  1.0000
  H   H968      1.0  0.27555  0.70728  0.15834  1.0000
  C   C552      1.0  0.20572  0.60397  0.13918  1.0000
  H   H969      1.0  0.28055  0.68135  0.16014  1.0000
  C   C553      1.0  0.29687  0.64864  0.03785  1.0000
  C   C554      1.0  0.44733  0.60535  0.11651  1.0000
  C   C555      1.0  0.28127  0.71444  0.08969  1.0000
  C   C556      1.0  0.47916  0.66112  0.21553  1.0000
  C   C557      1.0  0.03375  0.51885  0.30352  1.0000
  H   H970      1.0  0.45720  0.60340  0.12730  1.0000
  H   H971      1.0  0.45107  0.59262  0.10892  1.0000
  H   H972      1.0  0.26770  0.57145  0.06649  1.0000
  H   H973      1.0  0.39540  0.70646  0.25724  1.0000
  H   H974      1.0  0.00586  0.71709  0.22641  1.0000
  H   H975      1.0  0.28017  0.67511  0.04748  1.0000
  C   C558      1.0  0.46967  0.54834  0.11259  1.0000
  S   S129      1.0  0.48203  0.59197  0.15939  1.0000
  H   H976      1.0  0.47321  0.63371  0.14633  1.0000
  C   C559      1.0  0.28555  0.69505  0.15244  1.0000
  H   H977      1.0  0.48524  0.68429  0.19181  1.0000
  H   H978      1.0  0.31628  0.71476  0.29676  1.0000
  H   H979      1.0  0.37506  0.69164  0.01133  1.0000
  N   N29       1.0  0.33335  0.64461  0.02243  1.0000
  H   H980      1.0  0.29949  0.64216  0.05280  1.0000
  C   C560      1.0  0.44429  0.71752  0.15684  1.0000
  H   H981      1.0  0.35806  0.60813  0.03658  1.0000
  H   H982      1.0  0.46936  0.68931  0.22487  1.0000
  C   C561      1.0  0.34245  0.72416  0.23248  1.0000
  N   N30       1.0  0.29895  0.71645  0.09740  1.0000
  H   H983      1.0  0.27044  0.69761  0.12861  1.0000
  C   C562      1.0  0.06215  0.72488  0.24265  1.0000
  C   C563      1.0  0.04777  0.49933  0.30246  1.0000
  H   H984      1.0  0.26599  0.71631  0.04540  1.0000
  H   H985      1.0  0.04106  0.48695  0.31132  1.0000
  H   H986      1.0  0.20669  0.58178  0.25802  1.0000
  C   C564      1.0  0.28550  0.69712  0.13065  1.0000
  H   H987      1.0  0.37092  0.62839  0.02982  1.0000
  H   H988      1.0  0.30046  0.69450  0.15523  1.0000
  C   C565      1.0  0.21635  0.72726  0.22222  1.0000
  C   C566      1.0  0.23218  0.72708  0.11674  1.0000
  H   H989      1.0  0.25798  0.70215  0.06852  1.0000
  C   C567      1.0  0.99414  0.72975  0.22393  1.0000
  H   H990      1.0  0.44689  0.71834  0.14079  1.0000
  C   C568      1.0  0.28358  0.71511  0.06748  1.0000
  H   H991      1.0  0.36397  0.72655  0.16711  1.0000
  H   H992      1.0  0.00910  0.59147  0.30268  1.0000
  H   H993      1.0  0.31113  0.60813  0.30091  1.0000
  H   H994      1.0  0.09193  0.72870  0.23646  1.0000
  C   C569      1.0  0.47518  0.52707  0.04117  1.0000
  H   H995      1.0  0.38595  0.72342  0.19090  1.0000
  H   H996      1.0  0.05168  0.71908  0.23658  1.0000
  H   H997      1.0  0.14132  0.73288  0.18887  1.0000
  H   H998      1.0  0.26671  0.72452  0.18519  1.0000
  H   H999      1.0  0.07051  0.66174  0.31427  1.0000
  H   H1000     1.0  0.21552  0.70200  0.98734  1.0000
  C   C570      1.0  0.99700  0.72826  0.18948  1.0000
  H   H1001     1.0  0.99944  0.53972  0.31608  1.0000
  H   H1002     1.0  0.06380  0.71622  0.25724  1.0000
  H   H1003     1.0  0.33120  0.66665  0.31339  1.0000
  C   C571      1.0  0.30039  0.71545  0.30168  1.0000
  H   H1004     1.0  0.39149  0.73247  0.25470  1.0000
  C   C572      1.0  0.00379  0.57858  0.31220  1.0000
  H   H1005     1.0  0.38165  0.67230  0.99713  1.0000
  H   H1006     1.0  0.15680  0.65658  0.29885  1.0000
  H   H1007     1.0  0.20921  0.61831  0.31091  1.0000
  C   C573      1.0  0.26973  0.73437  0.31474  1.0000
  H   H1008     1.0  0.99114  0.69586  0.21332  1.0000
  H   H1009     1.0  0.45689  0.72182  0.16099  1.0000
  H   H1010     1.0  0.25352  0.72837  0.06545  1.0000
  H   H1011     1.0  0.41374  0.72634  0.15803  1.0000
  H   H1012     1.0  0.29868  0.70345  0.31432  1.0000
  C   C574      1.0  0.42121  0.72975  0.18540  1.0000
  H   H1013     1.0  0.03260  0.56298  0.31273  1.0000
  H   H1014     1.0  0.48957  0.69472  0.16087  1.0000
  C   C575      1.0  0.32198  0.61787  0.98388  1.0000
  C   C576      1.0  0.08027  0.73484  0.20857  1.0000
  H   H1015     1.0  0.99083  0.62212  0.28637  1.0000
  H   H1016     1.0  0.04191  0.60655  0.53090  1.0000
  Fe  Fe63      1.0  0.01011  0.59322  0.40016  1.0000
  S   S130      1.0  0.99681  0.62198  0.38482  1.0000
  S   S131      1.0  0.03598  0.59044  0.41642  1.0000
  Fe  Fe64      1.0  0.00453  0.60851  0.35787  1.0000
  S   S132      1.0  0.01658  0.62892  0.33178  1.0000
  S   S133      1.0  0.01900  0.58015  0.37256  1.0000
  H   H1017     1.0  0.30616  0.62829  0.38691  1.0000
  Fe  Fe65      1.0  0.11675  0.59818  0.51738  1.0000
  S   S134      1.0  0.08737  0.61230  0.53017  1.0000
  S   S135      1.0  0.12913  0.56701  0.52866  1.0000
  Fe  Fe66      1.0  0.12343  0.63442  0.48750  1.0000
  S   S136      1.0  0.09436  0.65068  0.49910  1.0000
  S   S137      1.0  0.13839  0.65222  0.46060  1.0000
  Fe  Fe67      1.0  0.10210  0.63793  0.52886  1.0000
  S   S138      1.0  0.09578  0.65297  0.55583  1.0000
  Fe  Fe68      1.0  0.08298  0.62330  0.49898  1.0000
  S   S139      1.0  0.05482  0.62316  0.48766  1.0000
  S   S140      1.0  0.13183  0.62330  0.51721  1.0000
  S   S141      1.0  0.11165  0.60774  0.48629  1.0000
  Fe  Fe69      1.0  0.22264  0.66898  0.34979  1.0000
  S   S142      1.0  0.23131  0.63736  0.36065  1.0000
  S   S143      1.0  0.19733  0.68047  0.33406  1.0000
  Fe  Fe70      1.0  0.25433  0.68049  0.36549  1.0000
  S   S144      1.0  0.26572  0.64975  0.37740  1.0000
  S   S145      1.0  0.27081  0.70313  0.36876  1.0000
  Fe  Fe71      1.0  0.26162  0.64339  0.34900  1.0000
  S   S146      1.0  0.28247  0.62328  0.33090  1.0000
  Fe  Fe72      1.0  0.23433  0.64691  0.38793  1.0000
  S   S147      1.0  0.22508  0.63091  0.41825  1.0000
  S   S148      1.0  0.25270  0.67440  0.33618  1.0000
  S   S149      1.0  0.22321  0.67821  0.37805  1.0000
  H   H1018     1.0  0.15705  0.68317  0.35338  1.0000
  S   S150      1.0  0.14653  0.70156  0.58700  1.0000
  N   N31       1.0  0.09389  0.56715  0.64715  1.0000
  H   H1019     1.0  0.03711  0.59040  0.32686  1.0000
  H   H1020     1.0  0.16132  0.62844  0.41365  1.0000
  H   H1021     1.0  0.03084  0.52807  0.36190  1.0000
  H   H1022     1.0  0.13783  0.63412  0.40757  1.0000
  H   H1023     1.0  0.28337  0.60320  0.37105  1.0000
  H   H1024     1.0  0.13590  0.59969  0.40863  1.0000
  C   C577      1.0  0.36435  0.59285  0.40746  1.0000
  C   C578      1.0  0.05817  0.53827  0.35660  1.0000
  H   H1025     1.0  0.00529  0.54541  0.33698  1.0000
  H   H1026     1.0  0.16448  0.65640  0.63025  1.0000
  H   H1027     1.0  0.06814  0.69443  0.55805  1.0000
  S   S151      1.0  0.08626  0.51666  0.60300  1.0000
  H   H1028     1.0  0.36129  0.63718  0.33187  1.0000
  C   C579      1.0  0.06046  0.51480  0.56069  1.0000
  H   H1029     1.0  0.06710  0.54735  0.34513  1.0000
  H   H1030     1.0  0.18618  0.61496  0.36502  1.0000
  C   C580      1.0  0.15397  0.68262  0.36939  1.0000
  H   H1031     1.0  0.01441  0.68441  0.34599  1.0000
  H   H1032     1.0  0.19391  0.71950  0.43048  1.0000
  C   C581      1.0  0.37510  0.60868  0.32694  1.0000
  H   H1033     1.0  0.07365  0.50404  0.55714  1.0000
  C   C582      1.0  0.06727  0.54605  0.64787  1.0000
  H   H1034     1.0  0.06357  0.52404  0.57019  1.0000
  C   C583      1.0  0.25646  0.72119  0.38137  1.0000
  H   H1035     1.0  0.12277  0.56466  0.48924  1.0000
  H   H1036     1.0  0.06610  0.53105  0.49608  1.0000
  H   H1037     1.0  0.33891  0.68309  0.36970  1.0000
  C   C584      1.0  0.11780  0.55353  0.55017  1.0000
  C   C585      1.0  0.10022  0.56130  0.56065  1.0000
  C   C586      1.0  0.09092  0.54985  0.57693  1.0000
  C   C587      1.0  0.09936  0.53069  0.58327  1.0000
  C   C588      1.0  0.11728  0.52307  0.57323  1.0000
  C   C589      1.0  0.12637  0.53442  0.55664  1.0000
  H   H1038     1.0  0.09367  0.57605  0.55614  1.0000
  H   H1039     1.0  0.07707  0.55586  0.58463  1.0000
  H   H1040     1.0  0.12387  0.50830  0.57793  1.0000
  H   H1041     1.0  0.14002  0.52830  0.54867  1.0000
  C   C590      1.0  0.11086  0.66440  0.56581  1.0000
  C   C591      1.0  0.10292  0.67345  0.58218  1.0000
  C   C592      1.0  0.11374  0.68434  0.58934  1.0000
  C   C593      1.0  0.13262  0.68657  0.58000  1.0000
  C   C594      1.0  0.14067  0.67714  0.56392  1.0000
  C   C595      1.0  0.13001  0.66592  0.55705  1.0000
  H   H1042     1.0  0.08810  0.67245  0.58910  1.0000
  H   H1043     1.0  0.10726  0.69153  0.60168  1.0000
  H   H1044     1.0  0.15529  0.67862  0.55665  1.0000
  H   H1045     1.0  0.13647  0.65880  0.54469  1.0000
  C   C596      1.0  0.16248  0.64567  0.44921  1.0000
  C   C597      1.0  0.16895  0.65638  0.43110  1.0000
  C   C598      1.0  0.18794  0.65158  0.42130  1.0000
  C   C599      1.0  0.20082  0.63640  0.42980  1.0000
  C   C600      1.0  0.19443  0.62575  0.44802  1.0000
  C   C601      1.0  0.17525  0.63028  0.45767  1.0000
  H   H1046     1.0  0.15911  0.66826  0.42448  1.0000
  H   H1047     1.0  0.19268  0.65971  0.40720  1.0000
  H   H1048     1.0  0.20432  0.61394  0.45468  1.0000
  H   H1049     1.0  0.17038  0.62194  0.47165  1.0000
  C   C602      1.0  0.13962  0.60314  0.43686  1.0000
  H   H1050     1.0  0.00050  0.66501  0.35532  1.0000
  H   H1051     1.0  0.10551  0.63144  0.64575  1.0000
  C   C603      1.0  0.28392  0.66062  0.64735  1.0000
  C   C604      1.0  0.11108  0.72771  0.45474  1.0000
  N   N32       1.0  0.11063  0.71075  0.51073  1.0000
  H   H1052     1.0  0.09901  0.61358  0.58890  1.0000
  H   H1053     1.0  0.29948  0.65719  0.33044  1.0000
  S   S152      1.0  0.14711  0.69657  0.64295  1.0000
  H   H1054     1.0  0.16654  0.49649  0.64386  1.0000
  C   C605      1.0  0.23622  0.72432  0.38318  1.0000
  C   C606      1.0  0.25523  0.68204  0.41997  1.0000
  H   H1055     1.0  0.37321  0.62312  0.35133  1.0000
  C   C607      1.0  0.00175  0.50053  0.33072  1.0000
  H   H1056     1.0  0.13619  0.58852  0.44365  1.0000
  H   H1057     1.0  0.17529  0.59678  0.38185  1.0000
  H   H1058     1.0  0.21818  0.64322  0.32560  1.0000
  H   H1059     1.0  0.12875  0.71836  0.54091  1.0000
  H   H1060     1.0  0.05905  0.63773  0.41613  1.0000
  H   H1061     1.0  0.08086  0.62192  0.40812  1.0000
  C   C608      1.0  0.04095  0.60041  0.43583  1.0000
  C   C609      1.0  0.06002  0.59660  0.44003  1.0000
  C   C610      1.0  0.06468  0.60378  0.45544  1.0000
  C   C611      1.0  0.05021  0.61468  0.46716  1.0000
  C   C612      1.0  0.03118  0.61856  0.46287  1.0000
  C   C613      1.0  0.02659  0.61163  0.44728  1.0000
  H   H1062     1.0  0.07128  0.58789  0.43137  1.0000
  H   H1063     1.0  0.07938  0.60061  0.45846  1.0000
  H   H1064     1.0  0.01981  0.62693  0.47178  1.0000
  H   H1065     1.0  0.01184  0.61468  0.44438  1.0000
  H   H1066     1.0  0.08277  0.56988  0.62019  1.0000
  H   H1067     1.0  0.12193  0.73357  0.44262  1.0000
  H   H1068     1.0  0.10978  0.55094  0.61256  1.0000
  H   H1069     1.0  0.16033  0.59233  0.41363  1.0000
  H   H1070     1.0  0.10661  0.53621  0.50314  1.0000
  H   H1071     1.0  0.17612  0.63225  0.63540  1.0000
  C   C614      1.0  0.14583  0.62255  0.37285  1.0000
  H   H1072     1.0  0.13097  0.63283  0.61404  1.0000
  H   H1073     1.0  0.06216  0.58360  0.35049  1.0000
  H   H1074     1.0  0.17556  0.62429  0.60763  1.0000
  H   H1075     1.0  0.07491  0.68146  0.32455  1.0000
  H   H1076     1.0  0.35608  0.62904  0.38482  1.0000
  H   H1077     1.0  0.12620  0.61395  0.43923  1.0000
  C   C615      1.0  0.19207  0.66359  0.32175  1.0000
  H   H1078     1.0  0.14929  0.64397  0.34593  1.0000
  H   H1079     1.0  0.03575  0.56522  0.52454  1.0000
  C   C616      1.0  0.21106  0.73121  0.64489  1.0000
  H   H1080     1.0  0.00125  0.66044  0.39140  1.0000
  H   H1081     1.0  0.04917  0.58233  0.50921  1.0000
  C   C617      1.0  0.14724  0.60361  0.41513  1.0000
  N   N33       1.0  0.06547  0.55323  0.51327  1.0000
  H   H1082     1.0  0.02925  0.49536  0.34126  1.0000
  H   H1083     1.0  0.05269  0.56484  0.55199  1.0000
  H   H1084     1.0  0.15073  0.60634  0.44425  1.0000
  H   H1085     1.0  0.16707  0.68497  0.37436  1.0000
  H   H1086     1.0  0.08956  0.59188  0.58918  1.0000
  H   H1087     1.0  0.13769  0.60524  0.34360  1.0000
  H   H1088     1.0  0.06681  0.52369  0.36026  1.0000
  H   H1089     1.0  0.04862  0.50687  0.56891  1.0000
  H   H1090     1.0  0.03137  0.55151  0.34691  1.0000
  N   N34       1.0  0.22236  0.68615  0.44361  1.0000
  C   C618      1.0  0.21022  0.67421  0.45959  1.0000
  C   C619      1.0  0.21223  0.69177  0.42609  1.0000
  C   C620      1.0  0.24140  0.67329  0.43786  1.0000
  C   C621      1.0  0.22658  0.70390  0.44964  1.0000
  C   C622      1.0  0.21106  0.71348  0.46507  1.0000
  C   C623      1.0  0.22035  0.66374  0.47714  1.0000
  H   H1091     1.0  0.31885  0.59113  0.36881  1.0000
  C   C624      1.0  0.19216  0.70493  0.42850  1.0000
  C   C625      1.0  0.18282  0.70788  0.41028  1.0000
  C   C626      1.0  0.99543  0.68112  0.32685  1.0000
  C   C627      1.0  0.20572  0.65703  0.49481  1.0000
  H   H1092     1.0  0.33518  0.62093  0.39945  1.0000
  H   H1093     1.0  0.20569  0.66271  0.45371  1.0000
  H   H1094     1.0  0.19637  0.68301  0.46518  1.0000
  H   H1095     1.0  0.22118  0.69982  0.41379  1.0000
  H   H1096     1.0  0.21063  0.67849  0.42099  1.0000
  H   H1097     1.0  0.23872  0.65938  0.43478  1.0000
  H   H1098     1.0  0.24979  0.66924  0.45012  1.0000
  H   H1099     1.0  0.24034  0.70050  0.45578  1.0000
  H   H1100     1.0  0.22931  0.71528  0.43661  1.0000
  H   H1101     1.0  0.21078  0.70410  0.47954  1.0000
  H   H1102     1.0  0.10035  0.70229  0.48737  1.0000
  H   H1103     1.0  0.23051  0.65063  0.47316  1.0000
  H   H1104     1.0  0.22884  0.67326  0.48140  1.0000
  H   H1105     1.0  0.25640  0.69715  0.42068  1.0000
  H   H1106     1.0  0.19950  0.62447  0.39101  1.0000
  H   H1107     1.0  0.18193  0.69867  0.44093  1.0000
  H   H1108     1.0  0.04742  0.70615  0.54665  1.0000
  C   C628      1.0  0.01794  0.50802  0.33752  1.0000
  H   H1109     1.0  0.23022  0.73124  0.47108  1.0000
  H   H1110     1.0  0.17980  0.69396  0.40786  1.0000
  H   H1111     1.0  0.37317  0.57810  0.40849  1.0000
  H   H1112     1.0  0.13349  0.60866  0.64248  1.0000
  H   H1113     1.0  0.16888  0.71806  0.41203  1.0000
  H   H1114     1.0  0.19623  0.66973  0.50039  1.0000
  H   H1115     1.0  0.19669  0.64774  0.49094  1.0000
  H   H1116     1.0  0.10297  0.72162  0.54915  1.0000
  C   C629      1.0  0.30332  0.63191  0.31699  1.0000
  H   H1117     1.0  0.14434  0.60693  0.37608  1.0000
  C   C630      1.0  0.13630  0.62130  0.34060  1.0000
  H   H1118     1.0  0.03924  0.66534  0.40264  1.0000
  H   H1119     1.0  0.08951  0.64565  0.37923  1.0000
  H   H1120     1.0  0.20732  0.58033  0.39216  1.0000
  H   H1121     1.0  0.29863  0.72440  0.33666  1.0000
  H   H1122     1.0  0.07004  0.66372  0.38622  1.0000
  H   H1123     1.0  0.09423  0.54050  0.48255  1.0000
  C   C631      1.0  0.17875  0.61163  0.38034  1.0000
  H   H1124     1.0  0.06687  0.56198  0.47134  1.0000
  H   H1125     1.0  0.05390  0.51310  0.33470  1.0000
  H   H1126     1.0  0.30539  0.65966  0.37855  1.0000
  H   H1127     1.0  0.21825  0.59773  0.37307  1.0000
  H   H1128     1.0  0.08539  0.63861  0.43350  1.0000
  H   H1129     1.0  0.16532  0.62122  0.34461  1.0000
  S   S153      1.0  0.31799  0.72991  0.62473  1.0000
  H   H1130     1.0  0.09016  0.56683  0.51333  1.0000
  H   H1131     1.0  0.06602  0.58145  0.37512  1.0000
  H   H1132     1.0  0.08191  0.52551  0.52378  1.0000
  H   H1133     1.0  0.08548  0.61802  0.36830  1.0000
  H   H1134     1.0  0.07866  0.66193  0.41919  1.0000
  C   C632      1.0  0.09840  0.59368  0.61640  1.0000
  C   C633      1.0  0.07397  0.63733  0.40774  1.0000
  H   H1135     1.0  0.06305  0.61864  0.34457  1.0000
  C   C634      1.0  0.07406  0.64781  0.38636  1.0000
  H   H1136     1.0  0.04439  0.61220  0.36461  1.0000
  H   H1137     1.0  0.17612  0.64874  0.38547  1.0000
  C   C635      1.0  0.06196  0.65367  0.35528  1.0000
  C   C636      1.0  0.32109  0.66010  0.37730  1.0000
  C   C637      1.0  0.03141  0.66208  0.39197  1.0000
  C   C638      1.0  0.04077  0.64241  0.38524  1.0000
  C   C639      1.0  0.13660  0.53428  0.61931  1.0000
  H   H1138     1.0  0.12702  0.54798  0.47237  1.0000
  H   H1139     1.0  0.28490  0.67656  0.40523  1.0000
  H   H1140     1.0  0.33459  0.61948  0.33991  1.0000
  C   C640      1.0  0.04328  0.54885  0.46841  1.0000
  H   H1141     1.0  0.01130  0.51292  0.35164  1.0000
  C   C641      1.0  0.06029  0.61118  0.35984  1.0000
  C   C642      1.0  0.03826  0.62071  0.31695  1.0000
  N   N35       1.0  0.14476  0.63551  0.63785  1.0000
  H   H1142     1.0  0.03142  0.63980  0.37552  1.0000
  H   H1143     1.0  0.04088  0.55885  0.45466  1.0000
  C   C643      1.0  0.04512  0.60093  0.31723  1.0000
  H   H1144     1.0  0.03920  0.63074  0.39814  1.0000
  Fe  Fe73      1.0  0.09795  0.48946  0.62283  1.0000
  C   C644      1.0  0.08543  0.64663  0.41839  1.0000
  H   H1145     1.0  0.05350  0.53608  0.31984  1.0000
  H   H1146     1.0  0.14307  0.66418  0.39515  1.0000
  C   C645      1.0  0.06949  0.62008  0.37330  1.0000
  H   H1147     1.0  0.15857  0.60760  0.61063  1.0000
  H   H1148     1.0  0.14520  0.65172  0.60867  1.0000
  H   H1149     1.0  0.19627  0.71599  0.46145  1.0000
  C   C646      1.0  0.21559  0.73300  0.46707  1.0000
  C   C647      1.0  0.05308  0.55840  0.48043  1.0000
  H   H1150     1.0  0.10148  0.69441  0.53893  1.0000
  H   H1151     1.0  0.28108  0.73053  0.38794  1.0000
  C   C648      1.0  0.31150  0.59976  0.38033  1.0000
  C   C649      1.0  0.01183  0.54208  0.32221  1.0000
  C   C650      1.0  0.10432  0.71534  0.49105  1.0000
  H   H1152     1.0  0.10073  0.64614  0.41092  1.0000
  H   H1153     1.0  0.03144  0.67415  0.37945  1.0000
  H   H1154     1.0  0.00750  0.67171  0.31912  1.0000
  C   C651      1.0  0.16093  0.62284  0.60555  1.0000
  C   C652      1.0  0.16062  0.62723  0.58367  1.0000
  C   C653      1.0  0.11573  0.55831  0.47994  1.0000
  N   N36       1.0  0.06160  0.64100  0.37503  1.0000
  C   C654      1.0  0.08988  0.60304  0.59797  1.0000
  H   H1155     1.0  0.17191  0.60009  0.63733  1.0000
  C   C655      1.0  0.01035  0.66180  0.40190  1.0000
  H   H1156     1.0  0.06732  0.61076  0.38787  1.0000
  C   C656      1.0  0.14809  0.66317  0.37951  1.0000
  C   C657      1.0  0.16539  0.64629  0.37721  1.0000
  C   C658      1.0  0.20458  0.64602  0.32028  1.0000
  H   H1157     1.0  0.28225  0.67045  0.43132  1.0000
  H   H1158     1.0  0.32542  0.65515  0.39187  1.0000
  H   H1159     1.0  0.17159  0.61648  0.57632  1.0000
  H   H1160     1.0  0.14611  0.62644  0.58057  1.0000
  H   H1161     1.0  0.16427  0.64190  0.57751  1.0000
  C   C659      1.0  0.33322  0.64733  0.36242  1.0000
  H   H1162     1.0  0.12115  0.62784  0.34570  1.0000
  C   C660      1.0  0.11140  0.72949  0.51717  1.0000
  C   C661      1.0  0.21169  0.59491  0.38868  1.0000
  H   H1163     1.0  0.11335  0.58632  0.61172  1.0000
  H   H1164     1.0  0.28191  0.60551  0.39620  1.0000
  H   H1165     1.0  0.14514  0.54600  0.61218  1.0000
  H   H1166     1.0  0.08482  0.58800  0.35487  1.0000
  C   C662      1.0  0.13053  0.69854  0.50997  1.0000
  H   H1167     1.0  0.19246  0.71407  0.39720  1.0000
  C   C663      1.0  0.13304  0.67920  0.50219  1.0000
  C   C664      1.0  0.12748  0.64968  0.64536  1.0000
  H   H1168     1.0  0.07126  0.58770  0.63459  1.0000
  C   C665      1.0  0.15431  0.66957  0.49957  1.0000
  H   H1169     1.0  0.13452  0.69446  0.52472  1.0000
  S   S154      1.0  0.17017  0.73031  0.61516  1.0000
  C   C666      1.0  0.29005  0.59758  0.38434  1.0000
  H   H1170     1.0  0.27957  0.65331  0.63685  1.0000
  H   H1171     1.0  0.12816  0.68135  0.48795  1.0000
  H   H1172     1.0  0.09077  0.72621  0.49134  1.0000
  H   H1173     1.0  0.32795  0.72906  0.34959  1.0000
  H   H1174     1.0  0.27522  0.65493  0.41746  1.0000
  N   N37       1.0  0.33445  0.62561  0.36857  1.0000
  N   N38       1.0  0.02694  0.52403  0.32359  1.0000
  H   H1175     1.0  0.00148  0.58095  0.32752  1.0000
  H   H1176     1.0  0.16318  0.67878  0.48822  1.0000
  H   H1177     1.0  0.15999  0.66699  0.51349  1.0000
  H   H1178     1.0  0.15569  0.65537  0.49482  1.0000
  C   C667      1.0  0.09974  0.54761  0.49236  1.0000
  C   C668      1.0  0.34537  0.61929  0.38559  1.0000
  H   H1179     1.0  0.04129  0.53793  0.54665  1.0000
  H   H1180     1.0  0.13107  0.63034  0.37775  1.0000
  H   H1181     1.0  0.07493  0.61094  0.60169  1.0000
  H   H1182     1.0  0.34799  0.65140  0.35889  1.0000
  H   H1183     1.0  0.05718  0.66915  0.35692  1.0000
  H   H1184     1.0  0.18836  0.60675  0.40904  1.0000
  H   H1185     1.0  0.09286  0.65715  0.34814  1.0000
  H   H1186     1.0  0.05439  0.54519  0.36984  1.0000
  N   N39       1.0  0.16043  0.62613  0.38396  1.0000
  C   C669      1.0  0.08036  0.66626  0.32222  1.0000
  C   C670      1.0  0.14285  0.61542  0.64909  1.0000
  H   H1187     1.0  0.22926  0.71624  0.37606  1.0000
  H   H1188     1.0  0.10971  0.56998  0.46882  1.0000
  H   H1189     1.0  0.07947  0.57487  0.49220  1.0000
  C   C671      1.0  0.05687  0.54478  0.49970  1.0000
  H   H1190     1.0  0.05257  0.53524  0.46465  1.0000
  H   H1191     1.0  0.04346  0.57212  0.48333  1.0000
  H   H1192     1.0  0.05124  0.65040  0.34737  1.0000
  H   H1193     1.0  0.13567  0.66122  0.37325  1.0000
  H   H1194     1.0  0.08741  0.63780  0.33830  1.0000
  H   H1195     1.0  0.30567  0.62768  0.36204  1.0000
  H   H1196     1.0  0.37016  0.59744  0.37634  1.0000
  C   C672      1.0  0.05422  0.52734  0.54220  1.0000
  Fe  Fe74      1.0  0.14501  0.71562  0.61400  1.0000
  H   H1197     1.0  0.31895  0.68694  0.35625  1.0000
  C   C673      1.0  0.06892  0.58975  0.36015  1.0000
  H   H1198     1.0  0.04335  0.59891  0.55635  1.0000
  H   H1199     1.0  0.12459  0.66893  0.51265  1.0000
  C   C674      1.0  0.11476  0.72773  0.53848  1.0000
  C   C675      1.0  0.07108  0.53734  0.52959  1.0000
  H   H1200     1.0  0.31431  0.69026  0.38127  1.0000
  H   H1201     1.0  0.06202  0.68447  0.53897  1.0000
  C   C676      1.0  0.19419  0.61047  0.39336  1.0000
  C   C677      1.0  0.16284  0.64233  0.64011  1.0000
  H   H1202     1.0  0.24982  0.68195  0.40639  1.0000
  H   H1203     1.0  0.13973  0.62588  0.32461  1.0000
  H   H1204     1.0  0.09919  0.60559  0.62402  1.0000
  C   C678      1.0  0.05437  0.57617  0.53887  1.0000
  H   H1205     1.0  0.21355  0.64843  0.50658  1.0000
  C   C679      1.0  0.15047  0.62801  0.35039  1.0000
  H   H1206     1.0  0.17290  0.64803  0.36180  1.0000
  C   C680      1.0  0.08191  0.65265  0.34159  1.0000
  C   C681      1.0  0.09630  0.69962  0.52481  1.0000
  H   H1207     1.0  0.10747  0.53047  0.63194  1.0000
  H   H1208     1.0  0.13286  0.71308  0.47171  1.0000
  H   H1209     1.0  0.04267  0.54047  0.50710  1.0000
  H   H1210     1.0  0.34868  0.58737  0.38683  1.0000
  H   H1211     1.0  0.12934  0.66483  0.63854  1.0000
  H   H1212     1.0  0.10795  0.71417  0.45139  1.0000
  H   H1213     1.0  0.00439  0.67556  0.40759  1.0000
  H   H1214     1.0  0.06927  0.57939  0.53647  1.0000
  H   H1215     1.0  0.37357  0.60320  0.40894  1.0000
  H   H1216     1.0  0.30187  0.68254  0.64569  1.0000
  H   H1217     1.0  0.07868  0.54278  0.53919  1.0000
  C   C682      1.0  0.08339  0.56165  0.50290  1.0000
  C   C683      1.0  0.04024  0.59444  0.54332  1.0000
  C   C684      1.0  0.27565  0.67017  0.41849  1.0000
  H   H1218     1.0  0.22287  0.59502  0.39756  1.0000
  H   H1219     1.0  0.09525  0.68624  0.51952  1.0000
  C   C685      1.0  0.05050  0.56933  0.52083  1.0000
  H   H1220     1.0  0.05686  0.55809  0.64129  1.0000
  C   C686      1.0  0.31393  0.62133  0.37425  1.0000
  H   H1221     1.0  0.14193  0.69459  0.37273  1.0000
  H   H1222     1.0  0.04979  0.51777  0.53387  1.0000
  H   H1223     1.0  0.12472  0.56541  0.63632  1.0000
  C   C687      1.0  0.15179  0.62402  0.40527  1.0000
  C   C688      1.0  0.14468  0.63653  0.61642  1.0000
  C   C689      1.0  0.30876  0.64870  0.32013  1.0000
  H   H1224     1.0  0.02502  0.59170  0.54627  1.0000
  H   H1225     1.0  0.02894  0.54562  0.47651  1.0000
  H   H1226     1.0  0.00940  0.64957  0.41430  1.0000
  H   H1227     1.0  0.29153  0.68411  0.62420  1.0000
  C   C690      1.0  0.11541  0.54278  0.62580  1.0000
  C   C691      1.0  0.08569  0.57921  0.62970  1.0000
  C   C692      1.0  0.03957  0.53664  0.34979  1.0000
  C   C693      1.0  0.35718  0.59842  0.38789  1.0000
  Fe  Fe75      1.0  0.17063  0.71255  0.64487  1.0000
  C   C694      1.0  0.11367  0.55564  0.64141  1.0000
  H   H1228     1.0  0.35188  0.59270  0.41964  1.0000
  C   C695      1.0  0.34425  0.61623  0.35109  1.0000
  H   H1229     1.0  0.07615  0.53855  0.63613  1.0000
  H   H1230     1.0  0.13737  0.52458  0.60863  1.0000
  C   C696      1.0  0.29820  0.67389  0.63595  1.0000
  H   H1231     1.0  0.31177  0.66531  0.62928  1.0000
  H   H1232     1.0  0.31723  0.59356  0.39404  1.0000
  C   C697      1.0  0.06247  0.69812  0.54405  1.0000
  C   C698      1.0  0.32356  0.68136  0.37067  1.0000
  H   H1233     1.0  0.32697  0.65215  0.34884  1.0000
  H   H1234     1.0  0.26721  0.71937  0.32161  1.0000
  C   C699      1.0  0.07524  0.71062  0.52884  1.0000
  H   H1235     1.0  0.28867  0.58201  0.38884  1.0000
  H   H1236     1.0  0.34657  0.60021  0.35482  1.0000
  H   H1237     1.0  0.06866  0.71429  0.51540  1.0000
  C   C700      1.0  0.04425  0.52716  0.33121  1.0000
  C   C701      1.0  0.26542  0.73264  0.38960  1.0000
  H   H1238     1.0  0.10565  0.65232  0.62662  1.0000
  H   H1239     1.0  0.37930  0.59399  0.33517  1.0000
  C   C702      1.0  0.36391  0.62250  0.34073  1.0000
  C   C703      1.0  0.11917  0.72354  0.47379  1.0000
  H   H1240     1.0  0.07475  0.72417  0.53444  1.0000
  S   S155      1.0  0.12288  0.48828  0.63833  1.0000
  H   H1241     1.0  0.14182  0.70705  0.50135  1.0000
  H   H1242     1.0  0.99539  0.69628  0.31922  1.0000
  H   H1243     1.0  0.23342  0.73298  0.33801  1.0000
  C   C704      1.0  0.10735  0.64690  0.64206  1.0000
  H   H1244     1.0  0.38848  0.61424  0.31887  1.0000
  H   H1245     1.0  0.14313  0.52568  0.63195  1.0000
  C   C705      1.0  0.00002  0.68007  0.34718  1.0000
  H   H1246     1.0  0.15075  0.57480  0.64964  1.0000
  H   H1247     1.0  0.21054  0.71085  0.72612  1.0000
  H   H1248     1.0  0.13151  0.68385  0.68617  1.0000
  C   C706      1.0  0.22544  0.72296  0.96255  1.0000
  C   C707      1.0  0.38324  0.52959  0.87001  1.0000
  H   H1249     1.0  0.34412  0.69100  0.69948  1.0000
  H   H1250     1.0  0.16989  0.60486  0.66135  1.0000
  H   H1251     1.0  0.24831  0.66205  0.81657  1.0000
  Fe  Fe76      1.0  0.28489  0.63028  0.77383  1.0000
  S   S156      1.0  0.31500  0.61982  0.78040  1.0000
  S   S157      1.0  0.26859  0.65966  0.77860  1.0000
  Fe  Fe77      1.0  0.28437  0.59472  0.75692  1.0000
  S   S158      1.0  0.31458  0.58129  0.76195  1.0000
  S   S159      1.0  0.26727  0.57864  0.74416  1.0000
  Fe  Fe78      1.0  0.30531  0.59078  0.79120  1.0000
  S   S160      1.0  0.30764  0.57382  0.82158  1.0000
  Fe  Fe79      1.0  0.32119  0.61158  0.75057  1.0000
  S   S161      1.0  0.34765  0.61800  0.72849  1.0000
  S   S162      1.0  0.27451  0.60214  0.78678  1.0000
  S   S163      1.0  0.29167  0.62403  0.74337  1.0000
  Fe  Fe80      1.0  0.12417  0.61450  0.72819  1.0000
  S   S164      1.0  0.12413  0.58701  0.74996  1.0000
  S   S165      1.0  0.09600  0.63097  0.71989  1.0000
  Fe  Fe81      1.0  0.16793  0.61152  0.72239  1.0000
  S   S166      1.0  0.17105  0.58343  0.74296  1.0000
  S   S167      1.0  0.19324  0.62739  0.71120  1.0000
  Fe  Fe82      1.0  0.14906  0.57518  0.72818  1.0000
  S   S168      1.0  0.15450  0.54838  0.71316  1.0000
  Fe  Fe83      1.0  0.14600  0.59857  0.76220  1.0000
  S   S169      1.0  0.14860  0.60015  0.79355  1.0000
  S   S170      1.0  0.14807  0.60261  0.70615  1.0000
  S   S171      1.0  0.14373  0.62676  0.74181  1.0000
  Fe  Fe84      1.0  0.15471  0.69033  0.84582  1.0000
  S   S172      1.0  0.18675  0.68854  0.83603  1.0000
  S   S173      1.0  0.13848  0.67956  0.82624  1.0000
  Fe  Fe85      1.0  0.15522  0.71565  0.87714  1.0000
  S   S174      1.0  0.18730  0.71488  0.86903  1.0000
  H   H1252     1.0  0.12332  0.71092  0.78242  1.0000
  Fe  Fe86      1.0  0.18234  0.71993  0.83826  1.0000
  Fe  Fe87      1.0  0.18834  0.68353  0.86783  1.0000
  S   S175      1.0  0.21267  0.66127  0.87820  1.0000
  S   S176      1.0  0.15004  0.72256  0.84605  1.0000
  S   S177      1.0  0.15636  0.68340  0.87804  1.0000
  Fe  Fe88      1.0  0.34157  0.71891  0.86262  1.0000
  S   S178      1.0  0.31525  0.72541  0.84829  1.0000
  S   S179      1.0  0.35445  0.48810  0.83295  1.0000
  Fe  Fe89      1.0  0.34076  0.67549  0.87243  1.0000
  S   S180      1.0  0.31465  0.67833  0.85817  1.0000
  S   S181      1.0  0.35323  0.64494  0.88545  1.0000
  Fe  Fe90      1.0  0.32889  0.69922  0.83460  1.0000
  S   S182      1.0  0.32752  0.70214  0.80287  1.0000
  Fe  Fe91      1.0  0.30303  0.70415  0.87307  1.0000
  S   S183      1.0  0.27241  0.71166  0.88858  1.0000
  S   S184      1.0  0.35638  0.69409  0.84709  1.0000
  S   S185      1.0  0.32812  0.69995  0.88905  1.0000
  N   N40       1.0  0.07892  0.65553  0.77304  1.0000
  H   H1253     1.0  0.19417  0.63405  0.66265  1.0000
  H   H1254     1.0  0.20337  0.57906  0.78126  1.0000
  C   C708      1.0  0.35869  0.64030  0.90928  1.0000
  C   C709      1.0  0.35486  0.65487  0.92074  1.0000
  C   C710      1.0  0.35953  0.65070  0.93960  1.0000
  C   C711      1.0  0.36805  0.63196  0.94712  1.0000
  C   C712      1.0  0.37162  0.61729  0.93581  1.0000
  C   C713      1.0  0.36699  0.62150  0.91692  1.0000
  H   H1255     1.0  0.34855  0.66940  0.91499  1.0000
  H   H1256     1.0  0.35684  0.66214  0.94823  1.0000
  H   H1257     1.0  0.37827  0.60280  0.94146  1.0000
  H   H1258     1.0  0.37014  0.61025  0.90804  1.0000
  C   C714      1.0  0.22953  0.67435  0.88211  1.0000
  C   C715      1.0  0.22364  0.68879  0.89378  1.0000
  C   C716      1.0  0.23694  0.70009  0.89584  1.0000
  C   C717      1.0  0.25611  0.69704  0.88616  1.0000
  C   C718      1.0  0.26194  0.68255  0.87458  1.0000
  C   C719      1.0  0.24873  0.67116  0.87260  1.0000
  H   H1259     1.0  0.20877  0.69130  0.90115  1.0000
  H   H1260     1.0  0.23226  0.71131  0.90475  1.0000
  H   H1261     1.0  0.27637  0.68048  0.86658  1.0000
  H   H1262     1.0  0.25317  0.66046  0.86306  1.0000
  C   C720      1.0  0.14774  0.62231  0.80203  1.0000
  C   C721      1.0  0.14239  0.64026  0.79075  1.0000
  C   C722      1.0  0.14005  0.65754  0.79829  1.0000
  C   C723      1.0  0.14390  0.65734  0.81693  1.0000
  C   C724      1.0  0.15008  0.63945  0.82805  1.0000
  C   C725      1.0  0.15178  0.62202  0.82071  1.0000
  H   H1263     1.0  0.13974  0.64079  0.77630  1.0000
  H   H1264     1.0  0.13474  0.67113  0.78981  1.0000
  H   H1265     1.0  0.15248  0.63898  0.84268  1.0000
  H   H1266     1.0  0.15582  0.60824  0.82971  1.0000
  C   C726      1.0  0.28326  0.67194  0.78742  1.0000
  C   C727      1.0  0.28416  0.69144  0.77976  1.0000
  C   C728      1.0  0.29744  0.70079  0.78498  1.0000
  C   C729      1.0  0.30930  0.69095  0.79853  1.0000
  C   C730      1.0  0.30773  0.67174  0.80700  1.0000
  C   C731      1.0  0.29488  0.66216  0.80125  1.0000
  H   H1267     1.0  0.27540  0.69905  0.76895  1.0000
  H   H1268     1.0  0.29874  0.71556  0.77824  1.0000
  H   H1269     1.0  0.31706  0.66403  0.81730  1.0000
  H   H1270     1.0  0.29407  0.64715  0.80738  1.0000
  C   C732      1.0  0.24657  0.59248  0.73549  1.0000
  C   C733      1.0  0.24240  0.61258  0.73486  1.0000
  C   C734      1.0  0.22606  0.62335  0.72720  1.0000
  C   C735      1.0  0.21365  0.61396  0.72068  1.0000
  C   C736      1.0  0.21774  0.59387  0.72152  1.0000
  C   C737      1.0  0.23424  0.58317  0.72880  1.0000
  H   H1271     1.0  0.25179  0.61983  0.74012  1.0000
  H   H1272     1.0  0.22291  0.63891  0.72648  1.0000
  H   H1273     1.0  0.20840  0.58658  0.71618  1.0000
  H   H1274     1.0  0.23744  0.56763  0.72925  1.0000
  H   H1275     1.0  0.35564  0.70922  0.70504  1.0000
  H   H1276     1.0  0.22716  0.67950  0.81143  1.0000
  H   H1277     1.0  0.48572  0.66472  0.94762  1.0000
  H   H1278     1.0  0.33456  0.55141  0.79474  1.0000
  H   H1279     1.0  0.26667  0.62636  0.87723  1.0000
  H   H1280     1.0  0.23975  0.60652  0.91148  1.0000
  C   C738      1.0  0.31946  0.54950  0.82425  1.0000
  C   C739      1.0  0.31671  0.53747  0.84247  1.0000
  C   C740      1.0  0.32711  0.51846  0.84534  1.0000
  H   H1281     1.0  0.30662  0.54293  0.85441  1.0000
  H   H1282     1.0  0.32495  0.50930  0.85940  1.0000
  C   C741      1.0  0.11373  0.51372  0.69605  1.0000
  C   C742      1.0  0.13192  0.51571  0.68475  1.0000
  C   C743      1.0  0.14408  0.52659  0.69001  1.0000
  C   C744      1.0  0.13796  0.53623  0.70621  1.0000
  C   C745      1.0  0.11945  0.53488  0.71703  1.0000
  C   C746      1.0  0.10753  0.52354  0.71209  1.0000
  H   H1283     1.0  0.13677  0.50854  0.67221  1.0000
  H   H1284     1.0  0.15838  0.52746  0.68156  1.0000
  H   H1285     1.0  0.11457  0.54202  0.72962  1.0000
  C   C747      1.0  0.31543  0.62339  0.84630  1.0000
  C   C748      1.0  0.32812  0.66255  0.68750  1.0000
  C   C749      1.0  0.32864  0.64846  0.70450  1.0000
  C   C750      1.0  0.34527  0.63451  0.70662  1.0000
  C   C751      1.0  0.08210  0.67850  0.81807  1.0000
  H   H1286     1.0  0.31550  0.67359  0.68608  1.0000
  H   H1287     1.0  0.31640  0.64864  0.71617  1.0000
  H   H1288     1.0  0.09625  0.72442  0.72725  1.0000
  C   C752      1.0  0.10049  0.69298  0.68985  1.0000
  C   C753      1.0  0.08237  0.68727  0.69703  1.0000
  C   C754      1.0  0.08114  0.66804  0.70570  1.0000
  C   C755      1.0  0.09804  0.65458  0.70781  1.0000
  C   C756      1.0  0.11624  0.66022  0.70067  1.0000
  C   C757      1.0  0.11746  0.67941  0.69149  1.0000
  H   H1289     1.0  0.06925  0.69771  0.69567  1.0000
  H   H1290     1.0  0.06706  0.66367  0.71095  1.0000
  H   H1291     1.0  0.12936  0.64985  0.70227  1.0000
  H   H1292     1.0  0.29250  0.72828  0.91534  1.0000
  H   H1293     1.0  0.03813  0.66405  0.78231  1.0000
  H   H1294     1.0  0.39517  0.53827  0.86437  1.0000
  H   H1295     1.0  0.37736  0.56001  0.93116  1.0000
  H   H1296     1.0  0.20929  0.60257  0.77052  1.0000
  H   H1297     1.0  0.31503  0.52063  0.78373  1.0000
  H   H1298     1.0  0.29675  0.60662  0.86736  1.0000
  H   H1299     1.0  0.31949  0.61207  0.83684  1.0000
  C   C758      1.0  0.35701  0.69359  0.70447  1.0000
  H   H1300     1.0  0.26467  0.72596  0.80273  1.0000
  C   C759      1.0  0.25529  0.72489  0.81720  1.0000
  C   C760      1.0  0.31662  0.52690  0.90703  1.0000
  H   H1301     1.0  0.22791  0.58341  0.77886  1.0000
  H   H1302     1.0  0.17134  0.69611  0.73463  1.0000
  H   H1303     1.0  0.23965  0.71344  0.95973  1.0000
  C   C761      1.0  0.30681  0.49732  0.80678  1.0000
  H   H1304     1.0  0.38507  0.53851  0.90604  1.0000
  H   H1305     1.0  0.27546  0.49023  0.84587  1.0000
  H   H1306     1.0  0.30349  0.50734  0.81753  1.0000
  H   H1307     1.0  0.09305  0.69016  0.75840  1.0000
  C   C762      1.0  0.34047  0.51150  0.83003  1.0000
  H   H1308     1.0  0.31621  0.63634  0.87975  1.0000
  H   H1309     1.0  0.30883  0.50081  0.77525  1.0000
  H   H1310     1.0  0.46710  0.67991  0.93479  1.0000
  H   H1311     1.0  0.18337  0.63667  0.77947  1.0000
  C   C763      1.0  0.37512  0.56574  0.91593  1.0000
  C   C764      1.0  0.45239  0.64771  0.95828  1.0000
  N   N41       1.0  0.18291  0.69622  0.76052  1.0000
  C   C765      1.0  0.19082  0.67481  0.76475  1.0000
  C   C766      1.0  0.19449  0.70812  0.76794  1.0000
  C   C767      1.0  0.16246  0.69910  0.77167  1.0000
  H   H1312     1.0  0.33690  0.60997  0.98000  1.0000
  H   H1313     1.0  0.14795  0.58004  0.67404  1.0000
  C   C768      1.0  0.18179  0.66118  0.75578  1.0000
  H   H1314     1.0  0.47666  0.57502  0.94233  1.0000
  S   S186      1.0  0.09847  0.49876  0.69121  1.0000
  H   H1315     1.0  0.17139  0.57031  0.66197  1.0000
  C   C769      1.0  0.38617  0.49672  0.92851  1.0000
  C   C770      1.0  0.18881  0.64000  0.76364  1.0000
  H   H1316     1.0  0.31731  0.60967  0.67414  1.0000
  H   H1317     1.0  0.18930  0.66986  0.78082  1.0000
  H   H1318     1.0  0.20660  0.67170  0.75924  1.0000
  H   H1319     1.0  0.13519  0.61625  0.66425  1.0000
  H   H1320     1.0  0.18882  0.70924  0.78358  1.0000
  H   H1321     1.0  0.16250  0.69359  0.78751  1.0000
  H   H1322     1.0  0.15328  0.69063  0.76706  1.0000
  H   H1323     1.0  0.12900  0.67995  0.75507  1.0000
  H   H1324     1.0  0.41236  0.50726  0.92964  1.0000
  C   C771      1.0  0.15763  0.58028  0.65971  1.0000
  C   C772      1.0  0.47079  0.58238  0.95514  1.0000
  H   H1325     1.0  0.16576  0.66348  0.75895  1.0000
  H   H1326     1.0  0.18620  0.66334  0.73971  1.0000
  H   H1327     1.0  0.44705  0.72854  0.74586  1.0000
  H   H1328     1.0  0.24411  0.61729  0.68826  1.0000
  H   H1329     1.0  0.21900  0.68723  0.77796  1.0000
  H   H1330     1.0  0.34735  0.58287  0.82618  1.0000
  C   C773      1.0  0.10318  0.57136  0.67945  1.0000
  H   H1331     1.0  0.27702  0.73075  0.83169  1.0000
  H   H1332     1.0  0.31748  0.70356  0.71621  1.0000
  H   H1333     1.0  0.08076  0.62645  0.76748  1.0000
  H   H1334     1.0  0.20491  0.63686  0.76111  1.0000
  C   C774      1.0  0.06418  0.66244  0.75948  1.0000
  H   H1335     1.0  0.18329  0.63042  0.75618  1.0000
  H   H1336     1.0  0.10255  0.72464  0.75076  1.0000
  H   H1337     1.0  0.12910  0.67010  0.73351  1.0000
  H   H1338     1.0  0.32113  0.58481  0.95685  1.0000
  C   C775      1.0  0.31067  0.69679  0.73063  1.0000
  C   C776      1.0  0.29297  0.68924  0.72778  1.0000
  H   H1339     1.0  0.30527  0.70829  0.73979  1.0000
  H   H1340     1.0  0.28635  0.68084  0.74149  1.0000
  H   H1341     1.0  0.28202  0.70170  0.72294  1.0000
  H   H1342     1.0  0.29709  0.67989  0.71647  1.0000
  H   H1343     1.0  0.31500  0.51567  0.89891  1.0000
  C   C777      1.0  0.36643  0.49691  0.93606  1.0000
  H   H1344     1.0  0.38827  0.57175  0.90789  1.0000
  H   H1345     1.0  0.21193  0.70262  0.69394  1.0000
  N   N42       1.0  0.29542  0.62256  0.90188  1.0000
  C   C778      1.0  0.28814  0.63990  0.91207  1.0000
  C   C779      1.0  0.31163  0.60905  0.91086  1.0000
  C   C780      1.0  0.27880  0.61166  0.90374  1.0000
  C   C781      1.0  0.26175  0.62250  0.89309  1.0000
  C   C782      1.0  0.30713  0.60230  0.93322  1.0000
  C   C783      1.0  0.30385  0.65130  0.91423  1.0000
  C   C784      1.0  0.29492  0.66756  0.92594  1.0000
  C   C785      1.0  0.24595  0.61000  0.89582  1.0000
  C   C786      1.0  0.32475  0.58942  0.94087  1.0000
  H   H1346     1.0  0.27761  0.65063  0.90409  1.0000
  H   H1347     1.0  0.27974  0.63564  0.92676  1.0000
  H   H1348     1.0  0.32512  0.61567  0.90745  1.0000
  H   H1349     1.0  0.31569  0.59564  0.90424  1.0000
  H   H1350     1.0  0.28408  0.59744  0.89871  1.0000
  H   H1351     1.0  0.27231  0.60798  0.91931  1.0000
  H   H1352     1.0  0.25489  0.63595  0.89899  1.0000
  H   H1353     1.0  0.29508  0.59374  0.93701  1.0000
  H   H1354     1.0  0.30305  0.61476  0.94117  1.0000
  H   H1355     1.0  0.31534  0.64191  0.92184  1.0000
  H   H1356     1.0  0.31078  0.65802  0.89977  1.0000
  H   H1357     1.0  0.28850  0.66155  0.94095  1.0000
  H   H1358     1.0  0.30636  0.67578  0.92683  1.0000
  H   H1359     1.0  0.28348  0.67770  0.91876  1.0000
  H   H1360     1.0  0.25188  0.59634  0.88996  1.0000
  H   H1361     1.0  0.23403  0.61812  0.88794  1.0000
  H   H1362     1.0  0.33715  0.59749  0.93801  1.0000
  S   S187      1.0  0.41405  0.57883  0.97144  1.0000
  H   H1363     1.0  0.32908  0.57620  0.93397  1.0000
  H   H1364     1.0  0.41781  0.62376  0.94939  1.0000
  C   C787      1.0  0.10027  0.67879  0.74956  1.0000
  H   H1365     1.0  0.30341  0.63427  0.84088  1.0000
  C   C788      1.0  0.07873  0.63412  0.78017  1.0000
  C   C789      1.0  0.46656  0.64885  0.93871  1.0000
  H   H1366     1.0  0.26578  0.48942  0.88197  1.0000
  H   H1367     1.0  0.06332  0.67829  0.75409  1.0000
  H   H1368     1.0  0.40178  0.65675  0.95152  1.0000
  N   N43       1.0  0.22228  0.61246  0.82374  1.0000
  C   C790      1.0  0.23337  0.62891  0.82209  1.0000
  C   C791      1.0  0.23433  0.59317  0.83072  1.0000
  C   C792      1.0  0.21860  0.61202  0.80363  1.0000
  C   C793      1.0  0.20289  0.61533  0.83691  1.0000
  C   C794      1.0  0.20350  0.61775  0.85793  1.0000
  C   C795      1.0  0.22347  0.64949  0.81392  1.0000
  C   C796      1.0  0.20745  0.59574  0.80218  1.0000
  C   C797      1.0  0.24928  0.59328  0.84391  1.0000
  C   C798      1.0  0.25847  0.57269  0.85171  1.0000
  C   C799      1.0  0.18312  0.62355  0.86893  1.0000
  C   C800      1.0  0.23223  0.66506  0.81965  1.0000
  C   C801      1.0  0.21234  0.58993  0.78197  1.0000
  H   H1369     1.0  0.24767  0.62620  0.81249  1.0000
  H   H1370     1.0  0.23710  0.62967  0.83630  1.0000
  H   H1371     1.0  0.22474  0.58252  0.83862  1.0000
  H   H1372     1.0  0.24303  0.58648  0.81814  1.0000
  H   H1373     1.0  0.23260  0.61081  0.79333  1.0000
  H   H1374     1.0  0.20994  0.62590  0.79776  1.0000
  H   H1375     1.0  0.19290  0.62783  0.83036  1.0000
  H   H1376     1.0  0.19529  0.60276  0.83828  1.0000
  H   H1377     1.0  0.21186  0.62919  0.85821  1.0000
  H   H1378     1.0  0.21003  0.60384  0.86603  1.0000
  H   H1379     1.0  0.22572  0.65145  0.79777  1.0000
  H   H1380     1.0  0.20768  0.65216  0.81930  1.0000
  H   H1381     1.0  0.19155  0.60093  0.80529  1.0000
  H   H1382     1.0  0.21068  0.58237  0.81276  1.0000
  H   H1383     1.0  0.26127  0.60093  0.83545  1.0000
  H   H1384     1.0  0.24245  0.60061  0.85649  1.0000
  H   H1385     1.0  0.24731  0.56455  0.86115  1.0000
  H   H1386     1.0  0.26573  0.56485  0.83950  1.0000
  H   H1387     1.0  0.26964  0.57329  0.86040  1.0000
  H   H1388     1.0  0.17356  0.61299  0.86883  1.0000
  H   H1389     1.0  0.18395  0.62404  0.88426  1.0000
  H   H1390     1.0  0.17668  0.63827  0.86231  1.0000
  H   H1391     1.0  0.22774  0.66548  0.83545  1.0000
  H   H1392     1.0  0.24984  0.72506  0.92740  1.0000
  H   H1393     1.0  0.46664  0.61018  0.93694  1.0000
  Fe  Fe92      1.0  0.39718  0.55377  0.98016  1.0000
  H   H1394     1.0  0.32131  0.60317  0.87189  1.0000
  H   H1395     1.0  0.29239  0.64166  0.87442  1.0000
  C   C802      1.0  0.30306  0.62970  0.88085  1.0000
  H   H1396     1.0  0.06483  0.51965  0.66919  1.0000
  H   H1397     1.0  0.11837  0.56381  0.67666  1.0000
  C   C803      1.0  0.35776  0.50856  0.95033  1.0000
  H   H1398     1.0  0.32321  0.60095  0.70846  1.0000
  H   H1399     1.0  0.18365  0.65349  0.67623  1.0000
  H   H1400     1.0  0.41547  0.51188  0.84622  1.0000
  H   H1401     1.0  0.37906  0.56508  0.87771  1.0000
  C   C804      1.0  0.35949  0.68061  0.72432  1.0000
  C   C805      1.0  0.36862  0.51966  0.95716  1.0000
  H   H1402     1.0  0.17650  0.71890  0.73643  1.0000
  C   C806      1.0  0.30497  0.50987  0.78691  1.0000
  H   H1403     1.0  0.28052  0.61470  0.70554  1.0000
  H   H1404     1.0  0.41142  0.71821  0.83401  1.0000
  H   H1405     1.0  0.48313  0.58479  0.96128  1.0000
  C   C807      1.0  0.04311  0.65898  0.76810  1.0000
  H   H1406     1.0  0.09873  0.68034  0.78946  1.0000
  H   H1407     1.0  0.09439  0.68096  0.82430  1.0000
  H   H1408     1.0  0.43752  0.63147  0.93230  1.0000
  C   C808      1.0  0.30898  0.61415  0.86733  1.0000
  H   H1409     1.0  0.32664  0.57999  0.69689  1.0000
  H   H1410     1.0  0.12236  0.69572  0.73338  1.0000
  H   H1411     1.0  0.37205  0.57815  0.84816  1.0000
  H   H1412     1.0  0.33717  0.71629  0.73135  1.0000
  H   H1413     1.0  0.24124  0.60673  0.65791  1.0000
  H   H1414     1.0  0.33078  0.70934  0.75663  1.0000
  H   H1415     1.0  0.24010  0.73019  0.81495  1.0000
  H   H1416     1.0  0.31716  0.67600  0.75549  1.0000
  H   H1417     1.0  0.18992  0.69257  0.70181  1.0000
  C   C809      1.0  0.18204  0.70309  0.73920  1.0000
  S   S188      1.0  0.34356  0.67878  0.65015  1.0000
  H   H1418     1.0  0.24134  0.68117  0.69911  1.0000
  H   H1419     1.0  0.32214  0.49006  0.80620  1.0000
  C   C810      1.0  0.38843  0.51923  0.94986  1.0000
  C   C811      1.0  0.34237  0.70636  0.74406  1.0000
  C   C812      1.0  0.32513  0.68051  0.74064  1.0000
  H   H1420     1.0  0.37167  0.58377  0.81315  1.0000
  H   H1421     1.0  0.30486  0.58545  0.71405  1.0000
  H   H1422     1.0  0.09349  0.52216  0.72094  1.0000
  C   C813      1.0  0.36063  0.71304  0.74757  1.0000
  C   C814      1.0  0.27049  0.62247  0.66738  1.0000
  C   C815      1.0  0.25701  0.60874  0.68060  1.0000
  C   C816      1.0  0.34956  0.53011  0.88633  1.0000
  H   H1423     1.0  0.32820  0.63059  0.84519  1.0000
  H   H1424     1.0  0.10870  0.57932  0.70556  1.0000
  H   H1425     1.0  0.11861  0.54569  0.65430  1.0000
  C   C817      1.0  0.09857  0.65819  0.76124  1.0000
  N   N44       1.0  0.43880  0.63304  0.96223  1.0000
  H   H1426     1.0  0.30137  0.65257  0.67053  1.0000
  H   H1427     1.0  0.32720  0.66769  0.73342  1.0000
  H   H1428     1.0  0.37392  0.70748  0.73794  1.0000
  H   H1429     1.0  0.47769  0.63561  0.93880  1.0000
  C   C818      1.0  0.43124  0.72938  0.75142  1.0000
  S   S189      1.0  0.34367  0.73149  0.65847  1.0000
  H   H1430     1.0  0.39774  0.66992  0.91815  1.0000
  Fe  Fe93      1.0  0.12719  0.72088  0.65585  1.0000
  H   H1431     1.0  0.36171  0.52838  0.96823  1.0000
  N   N45       1.0  0.34462  0.68542  0.74174  1.0000
  C   C819      1.0  0.37457  0.68868  0.68896  1.0000
  C   C820      1.0  0.42766  0.63484  0.94578  1.0000
  H   H1432     1.0  0.30198  0.53486  0.91190  1.0000
  C   C821      1.0  0.32932  0.54104  0.89416  1.0000
  H   H1433     1.0  0.10294  0.64798  0.75058  1.0000
  C   C822      1.0  0.39707  0.50772  0.93544  1.0000
  C   C823      1.0  0.31568  0.59192  0.70231  1.0000
  H   H1434     1.0  0.36266  0.70791  0.76297  1.0000
  H   H1435     1.0  0.28194  0.61388  0.65797  1.0000
  H   H1436     1.0  0.08758  0.59367  0.69650  1.0000
  C   C824      1.0  0.15124  0.72016  0.76941  1.0000
  H   H1437     1.0  0.37736  0.67296  0.68824  1.0000
  H   H1438     1.0  0.06442  0.63166  0.78899  1.0000
  C   C825      1.0  0.47742  0.66601  0.93560  1.0000
  H   H1439     1.0  0.35393  0.56902  0.88686  1.0000
  H   H1440     1.0  0.32313  0.51965  0.92013  1.0000
  H   H1441     1.0  0.34141  0.67700  0.77296  1.0000
  H   H1442     1.0  0.37439  0.68049  0.72698  1.0000
  C   C826      1.0  0.38405  0.51573  0.85544  1.0000
  H   H1443     1.0  0.10988  0.65421  0.77056  1.0000
  C   C827      1.0  0.07330  0.66684  0.78978  1.0000
  H   H1444     1.0  0.39311  0.48787  0.91757  1.0000
  C   C828      1.0  0.10271  0.58649  0.69214  1.0000
  C   C829      1.0  0.41499  0.65483  0.94033  1.0000
  H   H1445     1.0  0.28994  0.51791  0.78680  1.0000
  H   H1446     1.0  0.34273  0.56304  0.85975  1.0000
  H   H1447     1.0  0.36241  0.57753  0.91614  1.0000
  H   H1448     1.0  0.28048  0.65649  0.70651  1.0000
  C   C830      1.0  0.35151  0.67308  0.75973  1.0000
  H   H1449     1.0  0.37180  0.69676  0.67447  1.0000
  H   H1450     1.0  0.06880  0.65531  0.74633  1.0000
  H   H1451     1.0  0.29866  0.62957  0.69890  1.0000
  C   C831      1.0  0.36690  0.55743  0.88575  1.0000
  C   C832      1.0  0.09604  0.58095  0.65994  1.0000
  C   C833      1.0  0.12150  0.68126  0.74251  1.0000
  H   H1452     1.0  0.11163  0.59766  0.68434  1.0000
  H   H1453     1.0  0.36592  0.67591  0.76119  1.0000
  H   H1454     1.0  0.35953  0.66555  0.72216  1.0000
  H   H1455     1.0  0.06546  0.68164  0.78507  1.0000
  H   H1456     1.0  0.18945  0.71831  0.70008  1.0000
  C   C834      1.0  0.33231  0.54227  0.80882  1.0000
  C   C835      1.0  0.08999  0.67001  0.79941  1.0000
  C   C836      1.0  0.28738  0.72241  0.93081  1.0000
  H   H1457     1.0  0.25665  0.72388  0.70829  1.0000
  H   H1458     1.0  0.24230  0.70973  0.77208  1.0000
  C   C837      1.0  0.30581  0.60409  0.68563  1.0000
  H   H1459     1.0  0.07398  0.66829  0.82906  1.0000
  H   H1460     1.0  0.46191  0.61230  0.97436  1.0000
  H   H1461     1.0  0.20970  0.68538  0.72805  1.0000
  H   H1462     1.0  0.42299  0.66698  0.93907  1.0000
  C   C838      1.0  0.37170  0.54949  0.90651  1.0000
  C   C839      1.0  0.29058  0.62100  0.69281  1.0000
  H   H1463     1.0  0.37302  0.50606  0.86076  1.0000
  H   H1464     1.0  0.03338  0.66481  0.73996  1.0000
  H   H1465     1.0  0.33047  0.55180  0.90301  1.0000
  H   H1466     1.0  0.22387  0.69750  0.75264  1.0000
  H   H1467     1.0  0.27093  0.67002  0.65371  1.0000
  C   C840      1.0  0.34382  0.66205  0.67211  1.0000
  H   H1468     1.0  0.25412  0.69532  0.81538  1.0000
  C   C841      1.0  0.09266  0.60163  0.79829  1.0000
  H   H1469     1.0  0.10407  0.59412  0.80708  1.0000
  C   C842      1.0  0.29321  0.64530  0.66311  1.0000
  H   H1470     1.0  0.42379  0.72894  0.73921  1.0000
  H   H1471     1.0  0.25720  0.68573  0.71395  1.0000
  S   S190      1.0  0.10148  0.71726  0.67945  1.0000
  H   H1472     1.0  0.44587  0.59819  0.94319  1.0000
  H   H1473     1.0  0.26624  0.73022  0.95512  1.0000
  C   C843      1.0  0.20146  0.70022  0.72504  1.0000
  C   C844      1.0  0.34286  0.52339  0.81175  1.0000
  H   H1474     1.0  0.34682  0.52000  0.87751  1.0000
  H   H1475     1.0  0.01415  0.66654  0.76058  1.0000
  C   C845      1.0  0.26980  0.66308  0.69667  1.0000
  C   C846      1.0  0.35381  0.65083  0.76074  1.0000
  H   H1476     1.0  0.48783  0.66628  0.92170  1.0000
  H   H1477     1.0  0.34056  0.64657  0.75805  1.0000
  H   H1478     1.0  0.37127  0.64350  0.78398  1.0000
  C   C847      1.0  0.24952  0.72888  0.69524  1.0000
  H   H1479     1.0  0.02864  0.68558  0.75230  1.0000
  H   H1480     1.0  0.23840  0.71974  0.69589  1.0000
  H   H1481     1.0  0.14552  0.49273  0.73326  1.0000
  H   H1482     1.0  0.27644  0.67372  0.68490  1.0000
  C   C848      1.0  0.35785  0.64000  0.78072  1.0000
  H   H1483     1.0  0.35980  0.62413  0.78091  1.0000
  C   C849      1.0  0.21579  0.71129  0.65115  1.0000
  H   H1484     1.0  0.29063  0.49246  0.88112  1.0000
  H   H1485     1.0  0.09406  0.56067  0.68807  1.0000
  H   H1486     1.0  0.38731  0.52022  0.88359  1.0000
  H   H1487     1.0  0.25495  0.63878  0.70061  1.0000
  H   H1488     1.0  0.08193  0.59064  0.66341  1.0000
  H   H1489     1.0  0.22517  0.72926  0.76180  1.0000
  C   C850      1.0  0.45797  0.60162  0.94899  1.0000
  C   C851      1.0  0.09389  0.62326  0.79312  1.0000
  C   C852      1.0  0.13217  0.72165  0.78379  1.0000
  H   H1490     1.0  0.38484  0.55729  0.83766  1.0000
  H   H1491     1.0  0.27160  0.69752  0.82960  1.0000
  H   H1492     1.0  0.42901  0.71660  0.76293  1.0000
  H   H1493     1.0  0.04218  0.64332  0.77014  1.0000
  H   H1494     1.0  0.35967  0.54276  0.91612  1.0000
  C   C853      1.0  0.25244  0.67425  0.70843  1.0000
  H   H1495     1.0  0.06272  0.65983  0.80145  1.0000
  H   H1496     1.0  0.36615  0.64577  0.74971  1.0000
  N   N46       1.0  0.36404  0.54259  0.87457  1.0000
  H   H1497     1.0  0.07826  0.59930  0.80696  1.0000
  C   C854      1.0  0.44977  0.61260  0.96646  1.0000
  H   H1498     1.0  0.10000  0.65645  0.80316  1.0000
  C   C855      1.0  0.23476  0.70326  0.65422  1.0000
  H   H1499     1.0  0.28304  0.70812  0.93162  1.0000
  C   C856      1.0  0.25685  0.70346  0.82604  1.0000
  H   H1500     1.0  0.15936  0.63329  0.67220  1.0000
  H   H1501     1.0  0.09504  0.59506  0.78495  1.0000
  H   H1502     1.0  0.30072  0.48897  0.84594  1.0000
  H   H1503     1.0  0.10889  0.62453  0.78565  1.0000
  C   C857      1.0  0.26336  0.64736  0.68821  1.0000
  H   H1504     1.0  0.35284  0.54270  0.84837  1.0000
  N   N47       1.0  0.27942  0.63403  0.67783  1.0000
  H   H1505     1.0  0.46218  0.57265  0.96620  1.0000
  C   C858      1.0  0.02901  0.66967  0.75435  1.0000
  H   H1506     1.0  0.24581  0.70140  0.83937  1.0000
  C   C859      1.0  0.42412  0.63676  0.98017  1.0000
  H   H1507     1.0  0.35305  0.51803  0.79979  1.0000
  C   C860      1.0  0.21660  0.70071  0.76718  1.0000
  H   H1508     1.0  0.32162  0.54867  0.88199  1.0000
  C   C861      1.0  0.19789  0.70369  0.70402  1.0000
  C   C862      1.0  0.36202  0.57418  0.82299  1.0000
  H   H1509     1.0  0.34545  0.64394  0.79222  1.0000
  H   H1510     1.0  0.26191  0.58763  0.66105  1.0000
  C   C863      1.0  0.37029  0.56576  0.84173  1.0000
  S   S191      1.0  0.40301  0.53297  0.95782  1.0000
  H   H1511     1.0  0.09322  0.68128  0.73650  1.0000
  H   H1512     1.0  0.34253  0.50885  0.95632  1.0000
  H   H1513     1.0  0.38152  0.52389  0.84092  1.0000
  H   H1514     1.0  0.24590  0.66438  0.72110  1.0000
  H   H1515     1.0  0.36102  0.56238  0.81531  1.0000
  H   H1516     1.0  0.25251  0.65470  0.67865  1.0000
  H   H1517     1.0  0.37378  0.62333  0.69261  1.0000
  C   C864      1.0  0.36090  0.63411  0.69121  1.0000
  C   C865      1.0  0.35658  0.55310  0.85622  1.0000
  H   H1518     1.0  0.09106  0.62877  0.80709  1.0000
  H   H1519     1.0  0.14752  0.72476  0.75457  1.0000
  H   H1520     1.0  0.26383  0.70886  0.65270  1.0000
  C   C866      1.0  0.40393  0.50290  0.85255  1.0000
  H   H1521     1.0  0.23830  0.68786  0.65918  1.0000
  C   C867      1.0  0.24961  0.59697  0.66870  1.0000
  H   H1522     1.0  0.45896  0.65078  0.92612  1.0000
  H   H1523     1.0  0.38772  0.69279  0.69220  1.0000
  H   H1524     1.0  0.21551  0.71964  0.95392  1.0000
  H   H1525     1.0  0.35559  0.52048  0.89886  1.0000
  C   C868      1.0  0.05526  0.53183  0.66166  1.0000
  H   H1526     1.0  0.31562  0.62296  0.97034  1.0000
  C   C869      1.0  0.35998  0.64748  0.67390  1.0000
  H   H1527     1.0  0.08791  0.54117  0.66771  1.0000
  C   C870      1.0  0.22666  0.71556  0.77237  1.0000
  H   H1528     1.0  0.27768  0.49048  0.81229  1.0000
  H   H1529     1.0  0.29900  0.59423  0.67982  1.0000
  S   S192      1.0  0.37492  0.62762  0.97028  1.0000
  H   H1530     1.0  0.26042  0.72716  0.68200  1.0000
  H   H1531     1.0  0.40124  0.64390  0.92071  1.0000
  H   H1532     1.0  0.42092  0.65683  0.90874  1.0000
  H   H1533     1.0  0.07242  0.69260  0.81504  1.0000
  H   H1534     1.0  0.09066  0.65230  0.67012  1.0000
  H   H1535     1.0  0.15989  0.73049  0.77190  1.0000
  H   H1536     1.0  0.17277  0.72239  0.91622  1.0000
  H   H1537     1.0  0.06929  0.56150  0.66989  1.0000
  H   H1538     1.0  0.37211  0.64685  0.66203  1.0000
  C   C871      1.0  0.40835  0.65641  0.92080  1.0000
  H   H1539     1.0  0.13514  0.71902  0.79896  1.0000
  H   H1540     1.0  0.26456  0.59834  0.69160  1.0000
  H   H1541     1.0  0.23983  0.58751  0.67859  1.0000
  H   H1542     1.0  0.19263  0.72336  0.76011  1.0000
  S   S193      1.0  0.30082  0.71597  0.67139  1.0000
  C   C872      1.0  0.07996  0.55391  0.65898  1.0000
  S   S194      1.0  0.19807  0.69634  0.65530  1.0000
  H   H1543     1.0  0.44402  0.66248  0.95940  1.0000
  H   H1544     1.0  0.41596  0.65180  0.97805  1.0000
  H   H1545     1.0  0.44016  0.60312  0.97661  1.0000
  H   H1546     1.0  0.16963  0.49039  0.71943  1.0000
  H   H1547     1.0  0.41303  0.62702  0.98281  1.0000
  H   H1548     1.0  0.15369  0.65874  0.66441  1.0000
  H   H1549     1.0  0.40392  0.49289  0.84239  1.0000
  C   C873      1.0  0.18409  0.64808  0.66252  1.0000
  H   H1550     1.0  0.18400  0.73345  0.94248  1.0000
  H   H1551     1.0  0.25343  0.73267  0.84540  1.0000
  C   C874      1.0  0.09297  0.73207  0.74001  1.0000
  Fe  Fe94      1.0  0.32856  0.70971  0.65079  1.0000
  C   C875      1.0  0.16371  0.64547  0.66091  1.0000
  C   C876      1.0  0.09086  0.65842  0.65448  1.0000
  H   H1552     1.0  0.12642  0.64903  0.66131  1.0000
  H   H1553     1.0  0.07765  0.73137  0.74693  1.0000
  H   H1554     1.0  0.29962  0.72033  0.93897  1.0000
  H   H1555     1.0  0.46172  0.64470  0.96973  1.0000
  C   C877      1.0  0.40838  0.73401  0.82849  1.0000
  H   H1556     1.0  0.04483  0.53924  0.67276  1.0000
  H   H1557     1.0  0.26146  0.63238  0.65721  1.0000
  H   H1558     1.0  0.39206  0.72976  0.80784  1.0000
  H   H1559     1.0  0.41720  0.73022  0.79881  1.0000
  H   H1560     1.0  0.22040  0.71857  0.78726  1.0000
  H   H1561     1.0  0.40718  0.49406  0.86661  1.0000
  H   H1562     1.0  0.30458  0.63537  0.65509  1.0000
  C   C878      1.0  0.16191  0.60076  0.65128  1.0000
  C   C879      1.0  0.24912  0.71510  0.65062  1.0000
  H   H1563     1.0  0.10660  0.59061  0.65227  1.0000
  Fe  Fe95      1.0  0.38621  0.59674  0.98293  1.0000
  H   H1564     1.0  0.33124  0.64500  0.98240  1.0000
  H   H1565     1.0  0.09258  0.67393  0.65202  1.0000
  H   H1566     1.0  0.07671  0.65755  0.65064  1.0000
  H   H1567     1.0  0.18972  0.65887  0.65022  1.0000
  H   H1568     1.0  0.04697  0.52576  0.65326  1.0000
  Fe  Fe96      1.0  0.02106  0.79777  0.16895  1.0000
  S   S195      1.0  0.02740  0.82303  0.14580  1.0000
  S   S196      1.0  0.03687  0.78529  0.19489  1.0000
  Fe  Fe97      1.0  0.02564  0.80381  0.12473  1.0000
  S   S197      1.0  0.05392  0.79626  0.10373  1.0000
  S   S198      1.0  0.02011  0.77808  0.14831  1.0000
  Fe  Fe98      1.0  0.15218  0.78474  0.24484  1.0000
  S   S199      1.0  0.12406  0.79249  0.26450  1.0000
  H   H1569     1.0  0.01368  0.85406  0.17363  1.0000
  Fe  Fe99      1.0  0.15974  0.82632  0.23526  1.0000
  S   S200      1.0  0.13203  0.83688  0.25398  1.0000
  S   S201      1.0  0.17772  0.84957  0.22201  1.0000
  Fe  Fe100     1.0  0.14094  0.81063  0.27569  1.0000
  Fe  Fe101     1.0  0.11856  0.81768  0.24039  1.0000
  S   S202      1.0  0.09249  0.82920  0.22449  1.0000
  S   S203      1.0  0.16923  0.80107  0.25740  1.0000
  S   S204      1.0  0.14611  0.80907  0.22025  1.0000
  Fe  Fe102     1.0  0.36467  0.78630  0.25896  1.0000
  S   S205      1.0  0.38991  0.79062  0.23496  1.0000
  S   S206      1.0  0.35736  0.75726  0.27458  1.0000
  Fe  Fe103     1.0  0.34974  0.82881  0.25624  1.0000
  S   S207      1.0  0.37329  0.83714  0.23150  1.0000
  S   S208      1.0  0.32315  0.84700  0.27004  1.0000
  Fe  Fe104     1.0  0.36787  0.81192  0.21938  1.0000
  S   S209      1.0  0.36704  0.81255  0.18721  1.0000
  Fe  Fe105     1.0  0.39339  0.81523  0.24925  1.0000
  S   S210      1.0  0.42333  0.81787  0.25505  1.0000
  S   S211      1.0  0.34265  0.80605  0.24258  1.0000
  S   S212      1.0  0.37014  0.80864  0.27454  1.0000
  H   H1570     1.0  0.27853  0.87845  0.17493  1.0000
  C   C880      1.0  0.17154  0.84300  0.15121  1.0000
  H   H1571     1.0  0.32258  0.84989  0.09957  1.0000
  Fe  Fe106     1.0  0.16528  0.81785  0.00481  1.0000
  S   S213      1.0  0.14060  0.84158  0.99671  1.0000
  S   S214      1.0  0.17939  0.82406  0.02906  1.0000
  Fe  Fe107     1.0  0.12357  0.81724  0.00020  1.0000
  S   S215      1.0  0.09167  0.82203  0.01497  1.0000
  H   H1572     1.0  0.20576  0.76738  0.19417  1.0000
  S   S216      1.0  0.14773  0.79370  0.00928  1.0000
  Fe  Fe108     1.0  0.24717  0.81679  0.13527  1.0000
  S   S217      1.0  0.27170  0.81456  0.11012  1.0000
  S   S218      1.0  0.23507  0.84618  0.14260  1.0000
  Fe  Fe109     1.0  0.24799  0.77394  0.14536  1.0000
  S   S219      1.0  0.27264  0.76865  0.12130  1.0000
  S   S220      1.0  0.23741  0.74768  0.16411  1.0000
  Fe  Fe110     1.0  0.28562  0.79053  0.13133  1.0000
  S   S221      1.0  0.31748  0.78438  0.13535  1.0000
  Fe  Fe111     1.0  0.25577  0.79304  0.10297  1.0000
  S   S222      1.0  0.25138  0.78666  0.07394  1.0000
  S   S223      1.0  0.26182  0.79409  0.15667  1.0000
  S   S224      1.0  0.23035  0.79715  0.12686  1.0000
  C   C881      1.0  0.16879  0.78033  0.16575  1.0000
  H   H1573     1.0  0.13647  0.77084  0.20619  1.0000
  H   H1574     1.0  0.35492  0.75022  0.15456  1.0000
  H   H1575     1.0  0.23262  0.79323  0.29627  1.0000
  H   H1576     1.0  0.28262  0.83878  0.24633  1.0000
  C   C882      1.0  0.18015  0.77830  0.13140  1.0000
  H   H1577     1.0  0.23382  0.75472  0.12353  1.0000
  H   H1578     1.0  0.09811  0.80702  0.16219  1.0000
  C   C883      1.0  0.19922  0.81281  0.04158  1.0000
  C   C884      1.0  0.21199  0.79624  0.03669  1.0000
  C   C885      1.0  0.22778  0.78837  0.04677  1.0000
  C   C886      1.0  0.23087  0.79672  0.06206  1.0000
  C   C887      1.0  0.21784  0.81302  0.06722  1.0000
  C   C888      1.0  0.20229  0.82107  0.05693  1.0000
  H   H1579     1.0  0.20990  0.78969  0.02495  1.0000
  H   H1580     1.0  0.23771  0.77576  0.04264  1.0000
  H   H1581     1.0  0.22007  0.81975  0.07878  1.0000
  H   H1582     1.0  0.19281  0.83406  0.06062  1.0000
  H   H1583     1.0  0.14338  0.77599  0.14348  1.0000
  C   C889      1.0  0.10977  0.79942  0.15219  1.0000
  H   H1584     1.0  0.17800  0.81537  0.16884  1.0000
  C   C890      1.0  0.31241  0.83176  0.29013  1.0000
  C   C891      1.0  0.32085  0.81233  0.29430  1.0000
  H   H1585     1.0  0.14432  0.79838  0.12718  1.0000
  H   H1586     1.0  0.15909  0.84476  0.29576  1.0000
  H   H1587     1.0  0.33295  0.80627  0.28457  1.0000
  H   H1588     1.0  0.06606  0.83783  0.10941  1.0000
  H   H1589     1.0  0.28697  0.74879  0.27894  1.0000
  C   C892      1.0  0.35142  0.80520  0.17428  1.0000
  C   C893      1.0  0.33608  0.79492  0.18312  1.0000
  C   C894      1.0  0.32479  0.78918  0.17148  1.0000
  C   C895      1.0  0.32877  0.79372  0.15101  1.0000
  C   C896      1.0  0.34407  0.80390  0.14248  1.0000
  C   C897      1.0  0.35511  0.80969  0.15394  1.0000
  H   H1590     1.0  0.33321  0.79111  0.19880  1.0000
  H   H1591     1.0  0.31351  0.78067  0.17829  1.0000
  H   H1592     1.0  0.34770  0.80705  0.12678  1.0000
  H   H1593     1.0  0.36694  0.81746  0.14690  1.0000
  C   C898      1.0  0.42886  0.82919  0.27321  1.0000
  C   C899      1.0  0.44816  0.82625  0.27659  1.0000
  C   C900      1.0  0.45337  0.83551  0.29021  1.0000
  C   C901      1.0  0.43937  0.84816  0.30046  1.0000
  C   C902      1.0  0.42004  0.85094  0.29724  1.0000
  C   C903      1.0  0.41476  0.84143  0.28386  1.0000
  H   H1594     1.0  0.45922  0.81686  0.26846  1.0000
  H   H1595     1.0  0.01652  0.76598  0.23303  1.0000
  H   H1596     1.0  0.99458  0.76093  0.21193  1.0000
  H   H1597     1.0  0.39989  0.84397  0.28141  1.0000
  H   H1598     1.0  0.13140  0.75293  0.26982  1.0000
  C   C904      1.0  0.34617  0.75439  0.24070  1.0000
  H   H1599     1.0  0.24452  0.85835  0.26853  1.0000
  C   C905      1.0  0.26504  0.81147  0.20108  1.0000
  C   C906      1.0  0.12962  0.80185  0.15569  1.0000
  H   H1600     1.0  0.32357  0.85304  0.21632  1.0000
  H   H1601     1.0  0.34715  0.76949  0.23617  1.0000
  H   H1602     1.0  0.01308  0.80683  0.22710  1.0000
  H   H1603     1.0  0.18663  0.84336  0.14332  1.0000
  H   H1604     1.0  0.32044  0.78542  0.31412  1.0000
  C   C907      1.0  0.19347  0.84764  0.20000  1.0000
  C   C908      1.0  0.20028  0.86437  0.18943  1.0000
  C   C909      1.0  0.21287  0.86371  0.17176  1.0000
  C   C910      1.0  0.21920  0.84619  0.16479  1.0000
  C   C911      1.0  0.21276  0.82921  0.17550  1.0000
  C   C912      1.0  0.19964  0.82999  0.19308  1.0000
  H   H1605     1.0  0.19547  0.87802  0.19476  1.0000
  H   H1606     1.0  0.21762  0.87687  0.16342  1.0000
  H   H1607     1.0  0.21759  0.81564  0.17008  1.0000
  H   H1608     1.0  0.19435  0.81704  0.20128  1.0000
  N   N48       1.0  0.29073  0.85132  0.16478  1.0000
  H   H1609     1.0  0.29503  0.84798  0.20424  1.0000
  H   H1610     1.0  0.05507  0.86288  0.10390  1.0000
  H   H1611     1.0  0.99511  0.75738  0.24736  1.0000
  C   C913      1.0  0.06368  0.80337  0.07880  1.0000
  C   C914      1.0  0.08242  0.79439  0.07151  1.0000
  C   C915      1.0  0.09115  0.79983  0.05205  1.0000
  C   C916      1.0  0.08127  0.81442  0.03959  1.0000
  C   C917      1.0  0.06244  0.82327  0.04682  1.0000
  C   C918      1.0  0.05368  0.81780  0.06629  1.0000
  H   H1612     1.0  0.09019  0.78302  0.08095  1.0000
  H   H1613     1.0  0.10543  0.79258  0.04660  1.0000
  H   H1614     1.0  0.05456  0.83442  0.03726  1.0000
  H   H1615     1.0  0.03921  0.82475  0.07159  1.0000
  C   C919      1.0  0.05358  0.79684  0.20214  1.0000
  C   C920      1.0  0.06027  0.78929  0.21989  1.0000
  C   C921      1.0  0.07302  0.79845  0.22646  1.0000
  C   C922      1.0  0.07914  0.81537  0.21538  1.0000
  C   C923      1.0  0.07283  0.82260  0.19738  1.0000
  C   C924      1.0  0.06021  0.81335  0.19073  1.0000
  H   H1616     1.0  0.05520  0.77657  0.22888  1.0000
  H   H1617     1.0  0.07757  0.79284  0.24045  1.0000
  H   H1618     1.0  0.07762  0.83556  0.18862  1.0000
  H   H1619     1.0  0.05546  0.81909  0.17688  1.0000
  H   H1620     1.0  0.27170  0.90835  0.13790  1.0000
  H   H1621     1.0  0.25172  0.81417  0.19435  1.0000
  H   H1622     1.0  0.07423  0.74346  0.14364  1.0000
  H   H1623     1.0  0.29392  0.81774  0.19492  1.0000
  C   C925      1.0  0.35019  0.74483  0.25897  1.0000
  H   H1624     1.0  0.30316  0.87036  0.19230  1.0000
  H   H1625     1.0  0.06356  0.75080  0.17721  1.0000
  H   H1626     1.0  0.23676  0.74548  0.20581  1.0000
  C   C926      1.0  0.32533  0.84773  0.20229  1.0000
  H   H1627     1.0  0.24709  0.90495  0.13876  1.0000
  H   H1628     1.0  0.28161  0.84285  0.14071  1.0000
  C   C927      1.0  0.26589  0.87901  0.14975  1.0000
  H   H1629     1.0  0.12049  0.74328  0.22185  1.0000
  C   C928      1.0  0.18990  0.77527  0.16998  1.0000
  H   H1630     1.0  0.29115  0.74756  0.08969  1.0000
  C   C929      1.0  0.16806  0.82209  0.15827  1.0000
  C   C930      1.0  0.14622  0.79107  0.14218  1.0000
  H   H1631     1.0  0.30486  0.86807  0.12573  1.0000
  H   H1632     1.0  0.15309  0.82246  0.16637  1.0000
  C   C931      1.0  0.16635  0.83599  0.30732  1.0000
  N   N49       1.0  0.01397  0.86518  0.19972  1.0000
  H   H1633     1.0  0.16289  0.76644  0.16895  1.0000
  C   C932      1.0  0.30965  0.85225  0.12951  1.0000
  H   H1634     1.0  0.29518  0.88090  0.15297  1.0000
  C   C933      1.0  0.28729  0.77149  0.29392  1.0000
  H   H1635     1.0  0.26196  0.81818  0.21439  1.0000
  C   C934      1.0  0.28332  0.87280  0.16094  1.0000
  H   H1636     1.0  0.17762  0.76294  0.13522  1.0000
  C   C935      1.0  0.17895  0.78511  0.10945  1.0000
  N   N50       1.0  0.16671  0.79050  0.14533  1.0000
  C   C936      1.0  0.29520  0.84277  0.14629  1.0000
  C   C937      1.0  0.31156  0.84352  0.11112  1.0000
  C   C938      1.0  0.30909  0.84823  0.17335  1.0000
  H   H1637     1.0  0.31632  0.83288  0.17416  1.0000
  H   H1638     1.0  0.31994  0.85659  0.16357  1.0000
  H   H1639     1.0  0.28607  0.81102  0.17506  1.0000
  H   H1640     1.0  0.01864  0.87821  0.22300  1.0000
  C   C939      1.0  0.37751  0.75013  0.17112  1.0000
  C   C940      1.0  0.29460  0.75042  0.29052  1.0000
  H   H1641     1.0  0.10829  0.78386  0.15499  1.0000
  H   H1642     1.0  0.02589  0.89109  0.19953  1.0000
  H   H1643     1.0  0.00011  0.74333  0.18431  1.0000
  H   H1644     1.0  0.26218  0.75272  0.22294  1.0000
  C   C941      1.0  0.02568  0.87624  0.20790  1.0000
  H   H1645     1.0  0.30532  0.77238  0.22550  1.0000
  C   C942      1.0  0.29371  0.76354  0.23212  1.0000
  C   C943      1.0  0.02293  0.86177  0.17936  1.0000
  C   C944      1.0  0.02585  0.88006  0.16399  1.0000
  C   C945      1.0  0.04726  0.86719  0.20857  1.0000
  H   H1646     1.0  0.30989  0.73730  0.07294  1.0000
  H   H1647     1.0  0.19556  0.77777  0.13271  1.0000
  H   H1648     1.0  0.43774  0.76279  0.18198  1.0000
  C   C946      1.0  0.03610  0.87458  0.14435  1.0000
  C   C947      1.0  0.05774  0.88042  0.21585  1.0000
  C   C948      1.0  0.07732  0.75523  0.16879  1.0000
  H   H1649     1.0  0.31267  0.74636  0.11274  1.0000
  C   C949      1.0  0.11101  0.75668  0.21653  1.0000
  H   H1650     1.0  0.26797  0.86131  0.23710  1.0000
  H   H1651     1.0  0.24680  0.82233  0.31483  1.0000
  H   H1652     1.0  0.99968  0.90485  0.18584  1.0000
  H   H1653     1.0  0.07799  0.76978  0.17160  1.0000
  H   H1654     1.0  0.03707  0.85186  0.17940  1.0000
  C   C950      1.0  0.01360  0.84565  0.21269  1.0000
  H   H1655     1.0  0.03479  0.88901  0.16839  1.0000
  H   H1656     1.0  0.29746  0.75500  0.24607  1.0000
  H   H1657     1.0  0.04857  0.85317  0.21869  1.0000
  H   H1658     1.0  0.05511  0.86495  0.19390  1.0000
  H   H1659     1.0  0.26951  0.87457  0.13520  1.0000
  C   C951      1.0  0.25966  0.90100  0.14669  1.0000
  H   H1660     1.0  0.31152  0.73950  0.15177  1.0000
  C   C952      1.0  0.12182  0.77352  0.21507  1.0000
  H   H1661     1.0  0.33915  0.75169  0.21344  1.0000
  H   H1662     1.0  0.39264  0.75253  0.22160  1.0000
  H   H1663     1.0  0.19387  0.77844  0.08123  1.0000
  H   H1664     1.0  0.03847  0.88792  0.13371  1.0000
  H   H1665     1.0  0.05040  0.86530  0.14570  1.0000
  H   H1666     1.0  0.25253  0.80591  0.28541  1.0000
  H   H1667     1.0  0.05071  0.88290  0.23075  1.0000
  H   H1668     1.0  0.07305  0.87343  0.21640  1.0000
  H   H1669     1.0  0.05775  0.89456  0.20591  1.0000
  H   H1670     1.0  0.25324  0.87247  0.15809  1.0000
  H   H1671     1.0  0.20971  0.77620  0.09869  1.0000
  C   C953      1.0  0.17201  0.81064  0.14103  1.0000
  H   H1672     1.0  0.06360  0.76855  0.14362  1.0000
  C   C954      1.0  0.40599  0.76461  0.18542  1.0000
  H   H1673     1.0  0.18335  0.75785  0.19836  1.0000
  C   C955      1.0  0.38523  0.73932  0.19005  1.0000
  C   C956      1.0  0.27523  0.84142  0.17855  1.0000
  C   C957      1.0  0.42430  0.77156  0.18854  1.0000
  N   N51       1.0  0.40414  0.74368  0.19354  1.0000
  H   H1674     1.0  0.42476  0.79467  0.16321  1.0000
  H   H1675     1.0  0.40582  0.76790  0.16954  1.0000
  C   C958      1.0  0.42459  0.79276  0.17913  1.0000
  H   H1676     1.0  0.12359  0.77482  0.22987  1.0000
  H   H1677     1.0  0.39305  0.77425  0.19193  1.0000
  H   H1678     1.0  0.31460  0.77274  0.08407  1.0000
  C   C959      1.0  0.07618  0.75737  0.14720  1.0000
  H   H1679     1.0  0.00968  0.82625  0.19396  1.0000
  H   H1680     1.0  0.27124  0.77445  0.29578  1.0000
  C   C960      1.0  0.31338  0.80029  0.31093  1.0000
  C   C961      1.0  0.28161  0.81977  0.18690  1.0000
  H   H1681     1.0  0.42458  0.77074  0.20422  1.0000
  H   H1682     1.0  0.18095  0.85875  0.31051  1.0000
  H   H1683     1.0  0.26929  0.79557  0.20521  1.0000
  H   H1684     1.0  0.19476  0.75789  0.10063  1.0000
  H   H1685     1.0  0.38867  0.74916  0.15798  1.0000
  H   H1686     1.0  0.15996  0.78892  0.17677  1.0000
  H   H1687     1.0  0.02696  0.86675  0.13864  1.0000
  H   H1688     1.0  0.43778  0.79746  0.18157  1.0000
  H   H1689     1.0  0.27976  0.77352  0.23483  1.0000
  H   H1690     1.0  0.41165  0.80223  0.18571  1.0000
  H   H1691     1.0  0.29262  0.75862  0.20375  1.0000
  H   H1692     1.0  0.41781  0.74249  0.21860  1.0000
  H   H1693     1.0  0.07074  0.74908  0.20985  1.0000
  N   N52       1.0  0.22458  0.82782  0.26516  1.0000
  C   C962      1.0  0.22359  0.82436  0.28691  1.0000
  C   C963      1.0  0.20756  0.84293  0.25985  1.0000
  C   C964      1.0  0.22220  0.80909  0.25964  1.0000
  C   C965      1.0  0.24364  0.83362  0.25413  1.0000
  C   C966      1.0  0.25410  0.84527  0.26404  1.0000
  C   C967      1.0  0.23824  0.80699  0.29503  1.0000
  C   C968      1.0  0.21964  0.81022  0.23824  1.0000
  C   C969      1.0  0.20637  0.86333  0.26484  1.0000
  C   C970      1.0  0.18737  0.87631  0.26061  1.0000
  H   H1694     1.0  0.19733  0.76216  0.16370  1.0000
  H   H1695     1.0  0.29289  0.75771  0.16146  1.0000
  C   C971      1.0  0.22354  0.79015  0.23234  1.0000
  H   H1696     1.0  0.20883  0.82157  0.29432  1.0000
  H   H1697     1.0  0.22551  0.83747  0.29203  1.0000
  H   H1698     1.0  0.20770  0.84548  0.24390  1.0000
  H   H1699     1.0  0.19365  0.83757  0.26671  1.0000
  H   H1700     1.0  0.20933  0.80341  0.26908  1.0000
  H   H1701     1.0  0.23492  0.79767  0.26233  1.0000
  H   H1702     1.0  0.25443  0.82057  0.25100  1.0000
  H   H1703     1.0  0.24156  0.84220  0.23956  1.0000
  H   H1704     1.0  0.25921  0.83634  0.27728  1.0000
  H   H1705     1.0  0.42729  0.74599  0.15556  1.0000
  C   C972      1.0  0.34176  0.74420  0.22771  1.0000
  H   H1706     1.0  0.02847  0.83718  0.21258  1.0000
  H   H1707     1.0  0.22931  0.81940  0.22797  1.0000
  H   H1708     1.0  0.20450  0.81672  0.23650  1.0000
  H   H1709     1.0  0.20696  0.86283  0.28037  1.0000
  H   H1710     1.0  0.21833  0.87045  0.25561  1.0000
  H   H1711     1.0  0.18631  0.87811  0.24494  1.0000
  H   H1712     1.0  0.17469  0.87000  0.26944  1.0000
  H   H1713     1.0  0.18678  0.89085  0.26431  1.0000
  C   C973      1.0  0.19045  0.77070  0.19175  1.0000
  H   H1714     1.0  0.37262  0.76575  0.17206  1.0000
  C   C974      1.0  0.29666  0.74209  0.16029  1.0000
  H   H1715     1.0  0.26273  0.84187  0.17111  1.0000
  H   H1716     1.0  0.46831  0.83322  0.29241  1.0000
  Fe  Fe112     1.0  0.99487  0.83156  0.14717  1.0000
  H   H1717     1.0  0.23879  0.78317  0.23316  1.0000
  H   H1718     1.0  0.21351  0.78079  0.24197  1.0000
  H   H1719     1.0  0.22108  0.79156  0.21714  1.0000
  N   N53       1.0  0.11762  0.84269  0.06912  1.0000
  C   C975      1.0  0.11608  0.85971  0.05272  1.0000
  C   C976      1.0  0.12843  0.84745  0.08336  1.0000
  C   C977      1.0  0.12826  0.82497  0.06072  1.0000
  C   C978      1.0  0.09784  0.83874  0.07961  1.0000
  C   C979      1.0  0.08414  0.85607  0.08779  1.0000
  C   C980      1.0  0.10289  0.85893  0.03805  1.0000
  C   C981      1.0  0.13233  0.80620  0.07570  1.0000
  C   C982      1.0  0.15049  0.84765  0.07633  1.0000
  C   C983      1.0  0.15925  0.85552  0.09054  1.0000
  C   C984      1.0  0.06440  0.85051  0.09757  1.0000
  C   C985      1.0  0.10206  0.87712  0.02251  1.0000
  C   C986      1.0  0.14589  0.79019  0.06595  1.0000
  H   H1720     1.0  0.13066  0.86114  0.04393  1.0000
  H   H1721     1.0  0.11098  0.87358  0.05846  1.0000
  H   H1722     1.0  0.12195  0.86199  0.08721  1.0000
  H   H1723     1.0  0.12671  0.83723  0.09739  1.0000
  H   H1724     1.0  0.14218  0.82797  0.05141  1.0000
  H   H1725     1.0  0.11996  0.82134  0.05062  1.0000
  H   H1726     1.0  0.09025  0.83330  0.07006  1.0000
  H   H1727     1.0  0.09922  0.82680  0.09221  1.0000
  H   H1728     1.0  0.08152  0.86864  0.07610  1.0000
  H   H1729     1.0  0.09041  0.86070  0.09888  1.0000
  H   H1730     1.0  0.10874  0.84640  0.03047  1.0000
  H   H1731     1.0  0.08777  0.85772  0.04524  1.0000
  H   H1732     1.0  0.11859  0.80067  0.08239  1.0000
  H   H1733     1.0  0.13919  0.80864  0.08749  1.0000
  H   H1734     1.0  0.15840  0.83278  0.07517  1.0000
  H   H1735     1.0  0.15335  0.85682  0.06186  1.0000
  H   H1736     1.0  0.15658  0.84700  0.10537  1.0000
  H   H1737     1.0  0.17518  0.85458  0.08573  1.0000
  H   H1738     1.0  0.15289  0.87097  0.09101  1.0000
  H   H1739     1.0  0.16949  0.85055  0.16390  1.0000
  H   H1740     1.0  0.16455  0.81973  0.12920  1.0000
  H   H1741     1.0  0.05695  0.84690  0.08676  1.0000
  H   H1742     1.0  0.09548  0.89020  0.02920  1.0000
  H   H1743     1.0  0.11684  0.87886  0.01446  1.0000
  H   H1744     1.0  0.09303  0.87579  0.01190  1.0000
  H   H1745     1.0  0.13954  0.78690  0.05415  1.0000
  H   H1746     1.0  0.16026  0.79462  0.05973  1.0000
  H   H1747     1.0  0.14810  0.77677  0.07680  1.0000
  H   H1748     1.0  0.13030  0.79634  0.17129  1.0000
  H   H1749     1.0  0.18778  0.81013  0.13515  1.0000
  H   H1750     1.0  0.30592  0.73880  0.21848  1.0000
  H   H1751     1.0  0.32431  0.84972  0.13361  1.0000
  H   H1752     1.0  0.25515  0.90620  0.16089  1.0000
  C   C987      1.0  0.36003  0.74220  0.16818  1.0000
  H   H1753     1.0  0.16510  0.78263  0.10620  1.0000
  H   H1754     1.0  0.30161  0.82721  0.14923  1.0000
  H   H1755     1.0  0.16114  0.85094  0.14145  1.0000
  H   H1756     1.0  0.13014  0.81762  0.15252  1.0000
  H   H1757     1.0  0.32863  0.83165  0.20520  1.0000
  H   H1758     1.0  0.18300  0.78323  0.19898  1.0000
  H   H1759     1.0  0.31622  0.82756  0.11404  1.0000
  H   H1760     1.0  0.29748  0.84672  0.10570  1.0000
  C   C988      1.0  0.19533  0.77367  0.09681  1.0000
  C   C989      1.0  0.30667  0.85433  0.19361  1.0000
  S   S225      1.0  0.16417  0.75465  0.23817  1.0000
  S   S226      1.0  0.14338  0.80862  0.30762  1.0000
  H   H1761     1.0  0.10772  0.80571  0.13698  1.0000
  C   C990      1.0  0.29487  0.78598  0.27651  1.0000
  H   H1762     1.0  0.26892  0.84937  0.19091  1.0000
  H   H1763     1.0  0.33778  0.85344  0.19227  1.0000
  H   H1764     1.0  0.19832  0.78719  0.16344  1.0000
  H   H1765     1.0  0.28944  0.78479  0.26330  1.0000
  H   H1766     1.0  0.28977  0.80097  0.27961  1.0000
  H   H1767     1.0  0.31102  0.78345  0.27370  1.0000
  H   H1768     1.0  0.18006  0.80074  0.10495  1.0000
  H   H1769     1.0  0.40911  0.86073  0.30493  1.0000
  H   H1770     1.0  0.27941  0.85960  0.25799  1.0000
  C   C991      1.0  0.27207  0.85160  0.25044  1.0000
  C   C992      1.0  0.29268  0.74983  0.21851  1.0000
  H   H1771     1.0  0.09763  0.75886  0.22747  1.0000
  H   H1772     1.0  0.11799  0.75933  0.18510  1.0000
  H   H1773     1.0  0.26821  0.74762  0.18945  1.0000
  C   C993      1.0  0.99885  0.81476  0.22345  1.0000
  H   H1774     1.0  0.28867  0.85373  0.29884  1.0000
  C   C994      1.0  0.00170  0.83207  0.20720  1.0000
  H   H1775     1.0  0.11364  0.78741  0.20860  1.0000
  C   C995      1.0  0.14863  0.73740  0.24762  1.0000
  C   C996      1.0  0.00866  0.75337  0.23719  1.0000
  C   C997      1.0  0.29551  0.83879  0.30212  1.0000
  C   C998      1.0  0.32689  0.76061  0.08603  1.0000
  C   C999      1.0  0.10554  0.75612  0.19674  1.0000
  H   H1776     1.0  0.09394  0.76885  0.19445  1.0000
  H   H1777     1.0  0.00800  0.84764  0.22808  1.0000
  H   H1778     1.0  0.31029  0.74888  0.28396  1.0000
  C   C1000     1.0  0.40361  0.74098  0.21529  1.0000
  C   C1001     1.0  0.23327  0.73959  0.12925  1.0000
  H   H1779     1.0  0.01156  0.88881  0.16163  1.0000
  H   H1780     1.0  0.33700  0.76524  0.09361  1.0000
  H   H1781     1.0  0.33475  0.75757  0.07155  1.0000
  H   H1782     1.0  0.29193  0.77419  0.30690  1.0000
  H   H1783     1.0  0.28624  0.73836  0.15249  1.0000
  C   C1002     1.0  0.31944  0.74256  0.09824  1.0000
  H   H1784     1.0  0.37334  0.74349  0.20183  1.0000
  C   C1003     1.0  0.00391  0.74820  0.21899  1.0000
  H   H1785     1.0  0.34787  0.74419  0.18044  1.0000
  C   C1004     1.0  0.27418  0.74034  0.22486  1.0000
  H   H1786     1.0  0.32540  0.75070  0.30800  1.0000
  H   H1787     1.0  0.23348  0.74375  0.23186  1.0000
  H   H1788     1.0  0.01774  0.74566  0.20867  1.0000
  C   C1005     1.0  0.99317  0.87559  0.20020  1.0000
  C   C1006     1.0  0.13325  0.74044  0.26288  1.0000
  H   H1789     1.0  0.99169  0.90234  0.21166  1.0000
  H   H1790     1.0  0.20386  0.73927  0.22261  1.0000
  S   S227      1.0  0.99328  0.81441  0.12419  1.0000
  H   H1791     1.0  0.08948  0.76209  0.13795  1.0000
  H   H1792     1.0  0.99892  0.74517  0.14945  1.0000
  H   H1793     1.0  0.05640  0.74019  0.24442  1.0000
  C   C1007     1.0  0.17866  0.84393  0.31580  1.0000
  H   H1794     1.0  0.99155  0.80459  0.21858  1.0000
  H   H1795     1.0  0.01803  0.74099  0.24469  1.0000
  H   H1796     1.0  0.10793  0.74432  0.16352  1.0000
  N   N54       1.0  0.09900  0.73782  0.19481  1.0000
  H   H1797     1.0  0.26182  0.73831  0.30213  1.0000
  C   C1008     1.0  0.09519  0.74007  0.17420  1.0000
  C   C1009     1.0  0.30435  0.73619  0.08874  1.0000
  H   H1798     1.0  0.34934  0.81978  0.31601  1.0000
  C   C1010     1.0  0.24121  0.80875  0.31521  1.0000
  C   C1011     1.0  0.16217  0.81731  0.31487  1.0000
  C   C1012     1.0  0.23516  0.73539  0.21984  1.0000
  H   H1799     1.0  0.38049  0.88157  0.31659  1.0000
  H   H1800     1.0  0.34047  0.76539  0.54738  1.0000
  Fe  Fe113     1.0  0.47307  0.85700  0.33018  1.0000
  H   H1801     1.0  0.31167  0.76030  0.59078  1.0000
  C   C1013     1.0  0.39066  0.88473  0.61099  1.0000
  S   S228      1.0  0.47062  0.82791  0.40053  1.0000
  S   S229      1.0  0.47052  0.87080  0.35679  1.0000
  Fe  Fe114     1.0  0.22135  0.82825  0.36462  1.0000
  S   S230      1.0  0.23270  0.79675  0.36492  1.0000
  S   S231      1.0  0.20185  0.84417  0.34245  1.0000
  Fe  Fe115     1.0  0.24856  0.83099  0.39350  1.0000
  S   S232      1.0  0.26133  0.79956  0.39507  1.0000
  S   S233      1.0  0.26260  0.85120  0.40580  1.0000
  Fe  Fe116     1.0  0.26185  0.80474  0.36291  1.0000
  S   S234      1.0  0.28720  0.79120  0.34314  1.0000
  Fe  Fe117     1.0  0.23076  0.79498  0.39693  1.0000
  S   S235      1.0  0.21981  0.76830  0.41410  1.0000
  S   S236      1.0  0.25091  0.83650  0.36090  1.0000
  S   S237      1.0  0.21726  0.82624  0.39736  1.0000
  Fe  Fe118     1.0  0.36745  0.82666  0.50965  1.0000
  S   S238      1.0  0.33673  0.84099  0.51704  1.0000
  S   S239      1.0  0.37853  0.79808  0.52769  1.0000
  Fe  Fe119     1.0  0.37569  0.85806  0.47443  1.0000
  S   S240      1.0  0.34515  0.87457  0.47991  1.0000
  S   S241      1.0  0.39536  0.87188  0.44825  1.0000
  Fe  Fe120     1.0  0.34935  0.86867  0.51145  1.0000
  S   S242      1.0  0.33965  0.88905  0.53416  1.0000
  Fe  Fe121     1.0  0.33579  0.84524  0.48483  1.0000
  S   S243      1.0  0.31252  0.83277  0.47498  1.0000
  S   S244      1.0  0.38026  0.85396  0.50557  1.0000
  S   S245      1.0  0.36614  0.82923  0.47781  1.0000
  C   C1014     1.0  0.35833  0.97598  0.54002  1.0000
  H   H1802     1.0  0.27758  0.75231  0.57185  1.0000
  C   C1015     1.0  0.30468  0.76581  0.39639  1.0000
  C   C1016     1.0  0.28663  0.81733  0.53303  1.0000
  Fe  Fe122     1.0  0.14851  0.75192  0.63100  1.0000
  H   H1803     1.0  0.29633  0.87246  0.59298  1.0000
  C   C1017     1.0  0.37025  0.86320  0.38934  1.0000
  H   H1804     1.0  0.27414  0.83178  0.32708  1.0000
  H   H1805     1.0  0.24655  0.77744  0.57791  1.0000
  H   H1806     1.0  0.19306  0.86806  0.39628  1.0000
  S   S246      1.0  0.40723  0.93975  0.61685  1.0000
  H   H1807     1.0  0.39319  0.83440  0.58815  1.0000
  Fe  Fe123     1.0  0.40432  0.97149  0.61846  1.0000
  H   H1808     1.0  0.26184  0.76231  0.32613  1.0000
  Fe  Fe124     1.0  0.38651  0.94759  0.59532  1.0000
  S   S247      1.0  0.39217  0.93352  0.56797  1.0000
  C   C1018     1.0  0.31450  0.96874  0.58135  1.0000
  S   S248      1.0  0.35973  0.94623  0.61783  1.0000
  H   H1809     1.0  0.32268  0.85321  0.60939  1.0000
  H   H1810     1.0  0.26562  0.79220  0.60080  1.0000
  H   H1811     1.0  0.47469  0.88669  0.39582  1.0000
  H   H1812     1.0  0.36049  0.87721  0.38595  1.0000
  H   H1813     1.0  0.27573  0.78245  0.55204  1.0000
  N   N55       1.0  0.38881  0.86216  0.37465  1.0000
  C   C1019     1.0  0.28011  0.79058  0.56189  1.0000
  C   C1020     1.0  0.35491  0.90029  0.54404  1.0000
  C   C1021     1.0  0.34738  0.90840  0.56107  1.0000
  C   C1022     1.0  0.35888  0.91770  0.56921  1.0000
  C   C1023     1.0  0.37784  0.91969  0.55999  1.0000
  C   C1024     1.0  0.38545  0.91127  0.54319  1.0000
  C   C1025     1.0  0.37415  0.90149  0.53536  1.0000
  H   H1814     1.0  0.33258  0.90742  0.56803  1.0000
  H   H1815     1.0  0.35297  0.92355  0.58244  1.0000
  H   H1816     1.0  0.40013  0.91257  0.53598  1.0000
  H   H1817     1.0  0.38020  0.89527  0.52233  1.0000
  C   C1026     1.0  0.36718  0.79272  0.55213  1.0000
  C   C1027     1.0  0.37163  0.77414  0.56298  1.0000
  C   C1028     1.0  0.36282  0.76972  0.58257  1.0000
  C   C1029     1.0  0.34985  0.78404  0.59148  1.0000
  C   C1030     1.0  0.34557  0.80257  0.58065  1.0000
  C   C1031     1.0  0.35396  0.80685  0.56103  1.0000
  H   H1818     1.0  0.38193  0.76314  0.55619  1.0000
  H   H1819     1.0  0.46784  0.92936  0.40136  1.0000
  H   H1820     1.0  0.33557  0.81362  0.58752  1.0000
  H   H1821     1.0  0.35058  0.82123  0.55290  1.0000
  C   C1032     1.0  0.27793  0.84515  0.42392  1.0000
  C   C1033     1.0  0.27954  0.82712  0.43613  1.0000
  C   C1034     1.0  0.29055  0.82352  0.45134  1.0000
  C   C1035     1.0  0.30042  0.83769  0.45437  1.0000
  C   C1036     1.0  0.29953  0.85541  0.44162  1.0000
  C   C1037     1.0  0.28822  0.85914  0.42661  1.0000
  H   H1822     1.0  0.27172  0.81621  0.43433  1.0000
  H   H1823     1.0  0.29110  0.80977  0.46110  1.0000
  H   H1824     1.0  0.30689  0.86651  0.44381  1.0000
  H   H1825     1.0  0.28706  0.87316  0.41731  1.0000
  H   H1826     1.0  0.45047  0.93492  0.37318  1.0000
  H   H1827     1.0  0.35419  0.80298  0.64128  1.0000
  H   H1828     1.0  0.37884  0.80879  0.61123  1.0000
  H   H1829     1.0  0.26110  0.75581  0.40620  1.0000
  H   H1830     1.0  0.37072  0.87846  0.58544  1.0000
  H   H1831     1.0  0.12844  0.87029  0.36818  1.0000
  H   H1832     1.0  0.33987  0.74102  0.54454  1.0000
  C   C1038     1.0  0.44923  0.84000  0.41332  1.0000
  C   C1039     1.0  0.44220  0.85956  0.40726  1.0000
  C   C1040     1.0  0.42571  0.86905  0.41815  1.0000
  C   C1041     1.0  0.41581  0.85902  0.43503  1.0000
  C   C1042     1.0  0.42257  0.83937  0.44097  1.0000
  C   C1043     1.0  0.43932  0.82995  0.43021  1.0000
  H   H1833     1.0  0.44966  0.86753  0.39444  1.0000
  H   H1834     1.0  0.42066  0.88429  0.41357  1.0000
  H   H1835     1.0  0.41509  0.83151  0.45400  1.0000
  H   H1836     1.0  0.44466  0.81482  0.43506  1.0000
  C   C1044     1.0  0.32265  0.73823  0.31967  1.0000
  H   H1837     1.0  0.34415  0.87764  0.42079  1.0000
  H   H1838     1.0  0.23115  0.75465  0.31972  1.0000
  H   H1839     1.0  0.35512  0.86094  0.43962  1.0000
  H   H1840     1.0  0.42801  0.87114  0.36118  1.0000
  C   C1045     1.0  0.42250  0.90189  0.35918  1.0000
  Fe  Fe125     1.0  0.33080  0.75227  0.63415  1.0000
  S   S249      1.0  0.48553  0.82733  0.34421  1.0000
  H   H1841     1.0  0.37481  0.85535  0.55218  1.0000
  H   H1842     1.0  0.19139  0.80524  0.34987  1.0000
  H   H1843     1.0  0.14254  0.88257  0.64583  1.0000
  H   H1844     1.0  0.37966  0.87343  0.41275  1.0000
  H   H1845     1.0  0.37242  0.82579  0.31725  1.0000
  H   H1846     1.0  0.29804  0.82511  0.52353  1.0000
  C   C1046     1.0  0.29099  0.80494  0.59579  1.0000
  H   H1847     1.0  0.30665  0.75975  0.54874  1.0000
  C   C1047     1.0  0.16435  0.86919  0.38914  1.0000
  C   C1048     1.0  0.36676  0.87895  0.32649  1.0000
  H   H1848     1.0  0.42352  0.80616  0.38373  1.0000
  H   H1849     1.0  0.34505  0.95738  0.57425  1.0000
  H   H1850     1.0  0.34464  0.85187  0.42292  1.0000
  H   H1851     1.0  0.12266  0.73728  0.47622  1.0000
  N   N56       1.0  0.32753  0.81304  0.37546  1.0000
  C   C1049     1.0  0.34153  0.81103  0.38940  1.0000
  C   C1050     1.0  0.33881  0.80769  0.35641  1.0000
  C   C1051     1.0  0.31693  0.83368  0.37281  1.0000
  C   C1052     1.0  0.31272  0.79971  0.38326  1.0000
  C   C1053     1.0  0.32093  0.77800  0.38959  1.0000
  C   C1054     1.0  0.33221  0.81460  0.41033  1.0000
  C   C1055     1.0  0.30483  0.83942  0.35602  1.0000
  C   C1056     1.0  0.35355  0.82110  0.34522  1.0000
  H   H1852     1.0  0.30989  0.73993  0.56848  1.0000
  H   H1853     1.0  0.27510  0.82816  0.53962  1.0000
  C   C1057     1.0  0.34750  0.81016  0.42366  1.0000
  C   C1058     1.0  0.29516  0.86064  0.35429  1.0000
  H   H1854     1.0  0.35181  0.82152  0.38381  1.0000
  H   H1855     1.0  0.35086  0.79651  0.39030  1.0000
  H   H1856     1.0  0.34745  0.79291  0.35875  1.0000
  H   H1857     1.0  0.32874  0.80670  0.34658  1.0000
  H   H1858     1.0  0.32717  0.84416  0.37063  1.0000
  H   H1859     1.0  0.30663  0.83651  0.38633  1.0000
  H   H1860     1.0  0.30223  0.80484  0.39576  1.0000
  H   H1861     1.0  0.30363  0.80020  0.37212  1.0000
  H   H1862     1.0  0.32904  0.77612  0.40183  1.0000
  H   H1863     1.0  0.33073  0.77187  0.37735  1.0000
  H   H1864     1.0  0.32527  0.82999  0.41016  1.0000
  H   H1865     1.0  0.32103  0.80533  0.41701  1.0000
  H   H1866     1.0  0.29328  0.83038  0.35861  1.0000
  H   H1867     1.0  0.31394  0.83761  0.34173  1.0000
  H   H1868     1.0  0.34702  0.83663  0.34374  1.0000
  H   H1869     1.0  0.36615  0.81883  0.35292  1.0000
  H   H1870     1.0  0.42660  0.90147  0.37357  1.0000
  C   C1059     1.0  0.31083  0.94984  0.59493  1.0000
  C   C1060     1.0  0.30070  0.73679  0.32452  1.0000
  C   C1061     1.0  0.13777  0.85929  0.35997  1.0000
  H   H1871     1.0  0.27217  0.81499  0.62128  1.0000
  H   H1872     1.0  0.39945  0.85733  0.60119  1.0000
  H   H1873     1.0  0.35941  0.81873  0.41762  1.0000
  H   H1874     1.0  0.34066  0.81390  0.43820  1.0000
  H   H1875     1.0  0.35369  0.79448  0.42560  1.0000
  H   H1876     1.0  0.28637  0.86416  0.34240  1.0000
  H   H1877     1.0  0.28536  0.86342  0.36802  1.0000
  H   H1878     1.0  0.30627  0.87033  0.35086  1.0000
  H   H1879     1.0  0.12807  0.86489  0.39888  1.0000
  H   H1880     1.0  0.24769  0.77044  0.60346  1.0000
  H   H1881     1.0  0.10145  0.75742  0.54182  1.0000
  H   H1882     1.0  0.36647  0.75545  0.59086  1.0000
  C   C1062     1.0  0.25224  0.76567  0.58909  1.0000
  H   H1883     1.0  0.47444  0.87600  0.44661  1.0000
  H   H1884     1.0  0.12167  0.87728  0.42973  1.0000
  H   H1885     1.0  0.11244  0.85486  0.34946  1.0000
  C   C1063     1.0  0.14205  0.83920  0.37279  1.0000
  C   C1064     1.0  0.30742  0.76844  0.57677  1.0000
  H   H1886     1.0  0.20468  0.73928  0.47860  1.0000
  H   H1887     1.0  0.31546  0.97924  0.59058  1.0000
  H   H1888     1.0  0.15588  0.81653  0.41619  1.0000
  H   H1889     1.0  0.20929  0.74111  0.39482  1.0000
  H   H1890     1.0  0.26687  0.80104  0.56624  1.0000
  Fe  Fe126     1.0  0.29155  0.73803  0.64635  1.0000
  C   C1065     1.0  0.35791  0.83569  0.61296  1.0000
  C   C1066     1.0  0.23385  0.74966  0.40222  1.0000
  H   H1891     1.0  0.37524  0.94607  0.50458  1.0000
  C   C1067     1.0  0.28143  0.78693  0.59731  1.0000
  H   H1892     1.0  0.48423  0.85236  0.42646  1.0000
  H   H1893     1.0  0.15599  0.87763  0.37785  1.0000
  H   H1894     1.0  0.19228  0.87213  0.37048  1.0000
  H   H1895     1.0  0.29362  0.74992  0.33088  1.0000
  H   H1896     1.0  0.28043  0.81013  0.52373  1.0000
  S   S250      1.0  0.12319  0.73922  0.62688  1.0000
  C   C1068     1.0  0.17137  0.80630  0.33024  1.0000
  H   H1897     1.0  0.40313  0.88258  0.61886  1.0000
  H   H1898     1.0  0.38310  0.85698  0.62426  1.0000
  H   H1899     1.0  0.39659  0.86103  0.34365  1.0000
  H   H1900     1.0  0.12998  0.83271  0.43446  1.0000
  H   H1901     1.0  0.37287  0.89329  0.34781  1.0000
  H   H1902     1.0  0.39151  0.86474  0.56257  1.0000
  H   H1903     1.0  0.42459  0.84407  0.35434  1.0000
  H   H1904     1.0  0.37596  0.82598  0.57855  1.0000
  C   C1069     1.0  0.28740  0.82639  0.31832  1.0000
  H   H1905     1.0  0.11722  0.84387  0.40465  1.0000
  C   C1070     1.0  0.36850  0.86763  0.59894  1.0000
  H   H1906     1.0  0.31099  0.75035  0.40049  1.0000
  H   H1907     1.0  0.37796  0.89309  0.61925  1.0000
  H   H1908     1.0  0.15822  0.77711  0.40802  1.0000
  H   H1909     1.0  0.39358  0.83217  0.38921  1.0000
  H   H1910     1.0  0.38690  0.89315  0.37315  1.0000
  H   H1911     1.0  0.44276  0.93763  0.64125  1.0000
  C   C1071     1.0  0.29551  0.80240  0.54882  1.0000
  H   H1912     1.0  0.15384  0.83097  0.36346  1.0000
  C   C1072     1.0  0.38006  0.83942  0.58120  1.0000
  H   H1913     1.0  0.30203  0.81020  0.55721  1.0000
  C   C1073     1.0  0.38353  0.86188  0.35515  1.0000
  H   H1914     1.0  0.37747  0.84847  0.35583  1.0000
  H   H1915     1.0  0.30171  0.97395  0.57387  1.0000
  H   H1916     1.0  0.39451  0.89333  0.59635  1.0000
  H   H1917     1.0  0.38717  0.82608  0.62151  1.0000
  H   H1918     1.0  0.34919  0.86724  0.57128  1.0000
  H   H1919     1.0  0.28445  0.81716  0.58552  1.0000
  H   H1920     1.0  0.41088  0.91448  0.35638  1.0000
  H   H1921     1.0  0.32205  0.75508  0.34235  1.0000
  H   H1922     1.0  0.28537  0.77636  0.61033  1.0000
  C   C1074     1.0  0.48045  0.89867  0.39948  1.0000
  Fe  Fe127     1.0  0.38021  0.93996  0.63948  1.0000
  C   C1075     1.0  0.37422  0.81999  0.62085  1.0000
  C   C1076     1.0  0.11865  0.86251  0.43653  1.0000
  H   H1923     1.0  0.37866  0.79801  0.64622  1.0000
  H   H1924     1.0  0.30755  0.79271  0.54131  1.0000
  H   H1925     1.0  0.29482  0.77067  0.40931  1.0000
  H   H1926     1.0  0.32737  0.87751  0.60000  1.0000
  H   H1927     1.0  0.39915  0.82643  0.54650  1.0000
  C   C1077     1.0  0.28790  0.81159  0.61550  1.0000
  H   H1928     1.0  0.38148  0.84752  0.41614  1.0000
  H   H1929     1.0  0.30934  0.93879  0.58653  1.0000
  H   H1930     1.0  0.34414  0.84341  0.57744  1.0000
  H   H1931     1.0  0.31301  0.87771  0.57077  1.0000
  H   H1932     1.0  0.12629  0.87200  0.33329  1.0000
  H   H1933     1.0  0.32293  0.94405  0.60330  1.0000
  H   H1934     1.0  0.31665  0.77994  0.57252  1.0000
  H   H1935     1.0  0.29456  0.82479  0.61386  1.0000
  Fe  Fe128     1.0  0.48384  0.84146  0.37033  1.0000
  C   C1078     1.0  0.25412  0.74691  0.39995  1.0000
  C   C1079     1.0  0.11542  0.74753  0.54325  1.0000
  H   H1936     1.0  0.10349  0.86149  0.43559  1.0000
  C   C1080     1.0  0.38666  0.85135  0.56101  1.0000
  H   H1937     1.0  0.35606  0.87486  0.60850  1.0000
  H   H1938     1.0  0.12923  0.83174  0.37485  1.0000
  H   H1939     1.0  0.44020  0.82302  0.38111  1.0000
  H   H1940     1.0  0.44064  0.81036  0.36152  1.0000
  H   H1941     1.0  0.13535  0.84641  0.33528  1.0000
  H   H1942     1.0  0.34536  0.96691  0.51810  1.0000
  H   H1943     1.0  0.21504  0.74334  0.45319  1.0000
  H   H1944     1.0  0.12010  0.86022  0.45213  1.0000
  H   H1945     1.0  0.35436  0.94721  0.53577  1.0000
  C   C1081     1.0  0.46465  0.91674  0.39639  1.0000
  H   H1946     1.0  0.09790  0.74008  0.51527  1.0000
  C   C1082     1.0  0.45562  0.90321  0.44500  1.0000
  C   C1083     1.0  0.43732  0.89595  0.45690  1.0000
  C   C1084     1.0  0.46289  0.92294  0.37488  1.0000
  C   C1085     1.0  0.41575  0.88299  0.35855  1.0000
  N   N57       1.0  0.36360  0.84952  0.59445  1.0000
  H   H1947     1.0  0.22721  0.80881  0.32533  1.0000
  H   H1948     1.0  0.46002  0.87995  0.42813  1.0000
  H   H1949     1.0  0.12873  0.82302  0.62479  1.0000
  C   C1086     1.0  0.35290  0.86307  0.42426  1.0000
  H   H1950     1.0  0.16818  0.79188  0.33625  1.0000
  H   H1951     1.0  0.12749  0.75413  0.53348  1.0000
  H   H1952     1.0  0.35043  0.84395  0.62484  1.0000
  H   H1953     1.0  0.45034  0.91324  0.40428  1.0000
  C   C1087     1.0  0.17139  0.78407  0.40297  1.0000
  H   H1954     1.0  0.29722  0.95259  0.60544  1.0000
  H   H1955     1.0  0.46331  0.90756  0.45521  1.0000
  H   H1956     1.0  0.45100  0.91631  0.43468  1.0000
  H   H1957     1.0  0.42835  0.89283  0.44713  1.0000
  H   H1958     1.0  0.44108  0.88258  0.46739  1.0000
  H   H1959     1.0  0.42847  0.90724  0.46516  1.0000
  H   H1960     1.0  0.11793  0.74576  0.55850  1.0000
  H   H1961     1.0  0.38841  0.95173  0.52133  1.0000
  C   C1088     1.0  0.33578  0.75145  0.55492  1.0000
  C   C1089     1.0  0.37262  0.86153  0.41091  1.0000
  S   S251      1.0  0.37862  0.97120  0.64262  1.0000
  H   H1962     1.0  0.36811  0.80115  0.32515  1.0000
  C   C1090     1.0  0.43100  0.81730  0.37341  1.0000
  C   C1091     1.0  0.14684  0.80067  0.64124  1.0000
  H   H1963     1.0  0.15171  0.86445  0.35316  1.0000
  H   H1964     1.0  0.41089  0.84596  0.39156  1.0000
  N   N58       1.0  0.28608  0.77694  0.57970  1.0000
  H   H1965     1.0  0.40811  0.82748  0.35657  1.0000
  H   H1966     1.0  0.47632  0.92819  0.36651  1.0000
  C   C1092     1.0  0.36130  0.81661  0.32470  1.0000
  H   H1967     1.0  0.40279  0.87881  0.38842  1.0000
  S   S252      1.0  0.14837  0.78452  0.62466  1.0000
  H   H1968     1.0  0.09755  0.73857  0.45565  1.0000
  C   C1093     1.0  0.18765  0.83301  0.33133  1.0000
  H   H1969     1.0  0.40839  0.84848  0.53519  1.0000
  C   C1094     1.0  0.38623  0.86505  0.60926  1.0000
  C   C1095     1.0  0.29654  0.80720  0.32293  1.0000
  C   C1096     1.0  0.41633  0.83379  0.36484  1.0000
  H   H1970     1.0  0.36330  0.86484  0.32502  1.0000
  C   C1097     1.0  0.18430  0.87549  0.38481  1.0000
  H   H1971     1.0  0.43540  0.90386  0.34774  1.0000
  H   H1972     1.0  0.36208  0.85161  0.38862  1.0000
  H   H1973     1.0  0.18250  0.77449  0.39430  1.0000
  C   C1098     1.0  0.18441  0.81392  0.33810  1.0000
  S   S253      1.0  0.38624  0.97938  0.59452  1.0000
  C   C1099     1.0  0.40218  0.84361  0.38105  1.0000
  H   H1974     1.0  0.14790  0.84847  0.42799  1.0000
  S   S254      1.0  0.33976  0.78023  0.61641  1.0000
  H   H1975     1.0  0.35396  0.87857  0.35639  1.0000
  C   C1100     1.0  0.36858  0.87925  0.34750  1.0000
  C   C1101     1.0  0.27471  0.76027  0.58434  1.0000
  C   C1102     1.0  0.33313  0.96530  0.56619  1.0000
  C   C1103     1.0  0.39786  0.87969  0.37436  1.0000
  H   H1976     1.0  0.41258  0.88397  0.34371  1.0000
  C   C1104     1.0  0.32996  0.74137  0.33746  1.0000
  C   C1105     1.0  0.35710  0.96134  0.52694  1.0000
  C   C1106     1.0  0.15284  0.89181  0.64739  1.0000
  H   H1977     1.0  0.46048  0.91066  0.36870  1.0000
  C   C1107     1.0  0.31385  0.75438  0.56172  1.0000
  C   C1108     1.0  0.22490  0.73842  0.39376  1.0000
  H   H1978     1.0  0.34350  0.74553  0.56750  1.0000
  H   H1979     1.0  0.18258  0.89138  0.38438  1.0000
  N   N59       1.0  0.14771  0.83877  0.39228  1.0000
  C   C1109     1.0  0.16622  0.84697  0.39000  1.0000
  H   H1980     1.0  0.17618  0.84310  0.37674  1.0000
  H   H1981     1.0  0.16120  0.80119  0.37771  1.0000
  C   C1110     1.0  0.13089  0.84921  0.40482  1.0000
  H   H1982     1.0  0.29499  0.80011  0.62607  1.0000
  H   H1983     1.0  0.34718  0.82714  0.61083  1.0000
  H   H1984     1.0  0.30676  0.80186  0.59087  1.0000
  C   C1111     1.0  0.22531  0.74306  0.64149  1.0000
  C   C1112     1.0  0.37619  0.95728  0.51305  1.0000
  C   C1113     1.0  0.16663  0.80384  0.39039  1.0000
  C   C1114     1.0  0.32671  0.86346  0.59592  1.0000
  H   H1985     1.0  0.30870  0.85311  0.57990  1.0000
  H   H1986     1.0  0.41616  0.83506  0.55735  1.0000
  C   C1115     1.0  0.31022  0.86686  0.58413  1.0000
  C   C1116     1.0  0.34638  0.85560  0.58386  1.0000
  H   H1987     1.0  0.13729  0.81168  0.40520  1.0000
  C   C1117     1.0  0.15110  0.81775  0.40194  1.0000
  H   H1988     1.0  0.33015  0.95501  0.55771  1.0000
  H   H1989     1.0  0.15698  0.87344  0.40330  1.0000
  C   C1118     1.0  0.46917  0.88715  0.43458  1.0000
  H   H1990     1.0  0.17740  0.78559  0.41577  1.0000
  H   H1991     1.0  0.25187  0.79636  0.32074  1.0000
  H   H1992     1.0  0.17428  0.84011  0.40221  1.0000
  C   C1119     1.0  0.23702  0.74786  0.33328  1.0000
  C   C1120     1.0  0.13301  0.84716  0.42650  1.0000
  H   H1993     1.0  0.18035  0.80984  0.38515  1.0000
  C   C1121     1.0  0.40364  0.83954  0.54938  1.0000
  H   H1994     1.0  0.29621  0.76689  0.38453  1.0000
  H   H1995     1.0  0.35495  0.89063  0.32189  1.0000
  H   H1996     1.0  0.31722  0.98221  0.53664  1.0000
  H   H1997     1.0  0.22992  0.75659  0.34485  1.0000
  H   H1998     1.0  0.22158  0.75848  0.63656  1.0000
  S   S255      1.0  0.26177  0.75037  0.63933  1.0000
  S   S256      1.0  0.44528  0.86147  0.31677  1.0000
  H   H1999     1.0  0.15956  0.89814  0.63262  1.0000
  H   H2000     1.0  0.22644  0.75216  0.59450  1.0000
  C   C1122     1.0  0.12734  0.85802  0.34352  1.0000
  N   N60       1.0  0.48611  0.89310  0.41945  1.0000
  C   C1123     1.0  0.13617  0.81927  0.63724  1.0000
  H   H2001     1.0  0.37922  0.97064  0.50273  1.0000
  C   C1124     1.0  0.25897  0.74726  0.33012  1.0000
  H   H2002     1.0  0.19641  0.73751  0.64261  1.0000
  H   H2003     1.0  0.24519  0.74341  0.57574  1.0000
  H   H2004     1.0  0.12658  0.84738  0.64567  1.0000
  H   H2005     1.0  0.12330  0.73661  0.50768  1.0000
  H   H2006     1.0  0.36987  0.96922  0.54901  1.0000
  C   C1125     1.0  0.13499  0.83315  0.64909  1.0000
  Fe  Fe129     1.0  0.36074  0.97740  0.61864  1.0000
  C   C1126     1.0  0.36702  0.80969  0.64127  1.0000
  H   H2007     1.0  0.27958  0.74953  0.59687  1.0000
  N   N61       1.0  0.33967  0.98295  0.55287  1.0000
  H   H2008     1.0  0.48262  0.92217  0.42625  1.0000
  H   H2009     1.0  0.34566  0.74241  0.33360  1.0000
  C   C1127     1.0  0.24238  0.74819  0.59013  1.0000
  H   H2010     1.0  0.26384  0.74132  0.34429  1.0000
  H   H2011     1.0  0.24774  0.73595  0.60113  1.0000
  C   C1128     1.0  0.24435  0.73502  0.64421  1.0000
  H   H2012     1.0  0.07180  0.97741  0.92268  1.0000
  H   H2013     1.0  0.42140  0.93554  0.72206  1.0000
  S   S257      1.0  0.17049  0.76600  0.96272  1.0000
  S   S258      1.0  0.15433  0.85695  0.93566  1.0000
  C   C1129     1.0  0.09149  0.88443  0.73481  1.0000
  Fe  Fe130     1.0  0.15465  0.86662  0.74114  1.0000
  S   S259      1.0  0.17404  0.84142  0.75546  1.0000
  S   S260      1.0  0.14037  0.89385  0.75432  1.0000
  Fe  Fe131     1.0  0.15563  0.84564  0.70612  1.0000
  S   S261      1.0  0.17558  0.81962  0.71768  1.0000
  S   S262      1.0  0.14250  0.84756  0.67909  1.0000
  Fe  Fe132     1.0  0.15653  0.82277  0.74629  1.0000
  S   S263      1.0  0.14347  0.79700  0.76267  1.0000
  Fe  Fe133     1.0  0.19113  0.84093  0.72522  1.0000
  S   S264      1.0  0.22341  0.83867  0.71556  1.0000
  S   S265      1.0  0.13561  0.84779  0.73446  1.0000
  S   S266      1.0  0.17268  0.86712  0.71121  1.0000
  Fe  Fe134     1.0  0.34311  0.81913  0.74605  1.0000
  S   S267      1.0  0.35493  0.84171  0.75604  1.0000
  S   S268      1.0  0.36073  0.80049  0.72478  1.0000
  Fe  Fe135     1.0  0.30366  0.82716  0.77084  1.0000
  S   S269      1.0  0.31195  0.85056  0.78291  1.0000
  S   S270      1.0  0.27448  0.81792  0.78203  1.0000
  Fe  Fe136     1.0  0.32615  0.86025  0.75221  1.0000
  S   S271      1.0  0.32171  0.89178  0.73796  1.0000
  Fe  Fe137     1.0  0.33974  0.82988  0.78568  1.0000
  S   S272      1.0  0.35439  0.82417  0.81205  1.0000
  S   S273      1.0  0.31549  0.83850  0.73987  1.0000
  S   S274      1.0  0.33039  0.80580  0.77587  1.0000
  H   H2014     1.0  0.08121  0.82492  0.72323  1.0000
  Fe  Fe138     1.0  0.14407  0.96292  0.87138  1.0000
  S   S275      1.0  0.17291  0.96422  0.85162  1.0000
  S   S276      1.0  0.13975  0.94817  0.90323  1.0000
  H   H2015     1.0  0.11133  0.93621  0.66997  1.0000
  Fe  Fe139     1.0  0.15720  0.95897  0.82880  1.0000
  S   S277      1.0  0.17299  0.93638  0.80964  1.0000
  C   C1130     1.0  0.22189  0.76212  0.90341  1.0000
  S   S278      1.0  0.12889  0.95644  0.84904  1.0000
  C   C1131     1.0  0.33745  0.89738  0.71590  1.0000
  C   C1132     1.0  0.35196  0.88309  0.70877  1.0000
  H   H2016     1.0  0.09839  0.76043  0.69183  1.0000
  H   H2017     1.0  0.24774  0.77422  0.86041  1.0000
  C   C1133     1.0  0.34856  0.92115  0.68817  1.0000
  C   C1134     1.0  0.33570  0.91641  0.70553  1.0000
  H   H2018     1.0  0.35337  0.86838  0.71659  1.0000
  H   H2019     1.0  0.34727  0.93585  0.68034  1.0000
  H   H2020     1.0  0.32455  0.92753  0.71106  1.0000
  C   C1135     1.0  0.14936  0.90476  0.77056  1.0000
  C   C1136     1.0  0.16765  0.89797  0.77601  1.0000
  C   C1137     1.0  0.17455  0.90769  0.78810  1.0000
  C   C1138     1.0  0.16313  0.92408  0.79526  1.0000
  C   C1139     1.0  0.14463  0.93055  0.79022  1.0000
  C   C1140     1.0  0.13787  0.92103  0.77785  1.0000
  H   H2021     1.0  0.17657  0.88533  0.77080  1.0000
  H   H2022     1.0  0.18885  0.90250  0.79194  1.0000
  H   H2023     1.0  0.13568  0.94313  0.79554  1.0000
  H   H2024     1.0  0.12368  0.92640  0.77383  1.0000
  C   C1141     1.0  0.23732  0.83202  0.73430  1.0000
  C   C1142     1.0  0.22858  0.83043  0.75383  1.0000
  C   C1143     1.0  0.24006  0.82558  0.76852  1.0000
  C   C1144     1.0  0.26030  0.82226  0.76368  1.0000
  C   C1145     1.0  0.26903  0.82312  0.74418  1.0000
  C   C1146     1.0  0.25757  0.82829  0.72949  1.0000
  H   H2025     1.0  0.21303  0.83324  0.75768  1.0000
  H   H2026     1.0  0.23326  0.82493  0.78360  1.0000
  H   H2027     1.0  0.28460  0.81973  0.74040  1.0000
  H   H2028     1.0  0.26440  0.82935  0.71440  1.0000
  C   C1147     1.0  0.14380  0.92274  0.91201  1.0000
  C   C1148     1.0  0.15137  0.90922  0.89952  1.0000
  C   C1149     1.0  0.15438  0.88921  0.90708  1.0000
  C   C1150     1.0  0.14992  0.88241  0.92718  1.0000
  C   C1151     1.0  0.14218  0.89592  0.93966  1.0000
  C   C1152     1.0  0.13914  0.91596  0.93210  1.0000
  H   H2029     1.0  0.15504  0.91418  0.88406  1.0000
  H   H2030     1.0  0.16040  0.87892  0.89728  1.0000
  H   H2031     1.0  0.13867  0.89095  0.95514  1.0000
  H   H2032     1.0  0.13330  0.92628  0.94190  1.0000
  H   H2033     1.0  0.09757  0.91732  0.67846  1.0000
  H   H2034     1.0  0.08193  0.87362  0.73562  1.0000
  C   C1153     1.0  0.36852  0.79492  0.83913  1.0000
  C   C1154     1.0  0.35461  0.80116  0.82685  1.0000
  C   C1155     1.0  0.34141  0.78901  0.82661  1.0000
  C   C1156     1.0  0.34242  0.77051  0.83836  1.0000
  H   H2035     1.0  0.19899  0.78528  0.67329  1.0000
  H   H2036     1.0  0.37863  0.80429  0.83955  1.0000
  H   H2037     1.0  0.33024  0.79399  0.81764  1.0000
  H   H2038     1.0  0.13612  0.78047  0.94361  1.0000
  C   C1157     1.0  0.18354  0.75639  0.80099  1.0000
  C   C1158     1.0  0.16563  0.75183  0.79992  1.0000
  C   C1159     1.0  0.15331  0.76454  0.78827  1.0000
  C   C1160     1.0  0.15913  0.78151  0.77718  1.0000
  C   C1161     1.0  0.17733  0.78584  0.77773  1.0000
  C   C1162     1.0  0.18947  0.77334  0.78981  1.0000
  H   H2039     1.0  0.38907  0.76643  0.81079  1.0000
  H   H2040     1.0  0.13920  0.76127  0.78792  1.0000
  H   H2041     1.0  0.18195  0.79891  0.76908  1.0000
  H   H2042     1.0  0.20328  0.77697  0.79071  1.0000
  H   H2043     1.0  0.09272  0.79004  0.72273  1.0000
  C   C1163     1.0  0.08395  0.93824  0.88198  1.0000
  C   C1164     1.0  0.16121  0.75812  0.94456  1.0000
  H   H2044     1.0  0.20562  0.79027  0.84687  1.0000
  H   H2045     1.0  0.20078  0.78703  0.82378  1.0000
  H   H2046     1.0  0.09121  0.76057  0.74645  1.0000
  H   H2047     1.0  0.13914  0.93792  0.68045  1.0000
  H   H2048     1.0  0.08953  0.78573  0.69378  1.0000
  C   C1165     1.0  0.31599  0.77294  0.72585  1.0000
  C   C1166     1.0  0.32736  0.78518  0.72979  1.0000
  C   C1167     1.0  0.34574  0.78659  0.71869  1.0000
  H   H2049     1.0  0.16126  0.73849  0.80799  1.0000
  H   H2050     1.0  0.30183  0.77181  0.73441  1.0000
  H   H2051     1.0  0.32202  0.79322  0.74166  1.0000
  C   C1168     1.0  0.32284  0.76214  0.71080  1.0000
  N   N62       1.0  0.25854  0.75836  0.82423  1.0000
  C   C1169     1.0  0.15675  0.79621  0.65725  1.0000
  C   C1170     1.0  0.15573  0.81036  0.66912  1.0000
  C   C1171     1.0  0.14475  0.82891  0.66506  1.0000
  H   H2052     1.0  0.37978  0.92804  0.72780  1.0000
  H   H2053     1.0  0.08189  0.96160  0.67278  1.0000
  H   H2054     1.0  0.16546  0.78206  0.66019  1.0000
  H   H2055     1.0  0.16346  0.80701  0.68128  1.0000
  C   C1172     1.0  0.29467  0.80706  0.67653  1.0000
  C   C1173     1.0  0.25295  0.73952  0.92839  1.0000
  H   H2056     1.0  0.06963  0.92090  0.92206  1.0000
  N   N63       1.0  0.39296  0.76505  0.78008  1.0000
  H   H2057     1.0  0.40018  0.82317  0.75545  1.0000
  H   H2058     1.0  0.27017  0.77169  0.88334  1.0000
  H   H2059     1.0  0.41139  0.91437  0.68507  1.0000
  N   N64       1.0  0.26249  0.89023  0.72638  1.0000
  C   C1174     1.0  0.27917  0.87520  0.71959  1.0000
  C   C1175     1.0  0.26374  0.89211  0.74686  1.0000
  C   C1176     1.0  0.24374  0.88382  0.72556  1.0000
  C   C1177     1.0  0.26333  0.90975  0.71358  1.0000
  C   C1178     1.0  0.28287  0.91746  0.71022  1.0000
  C   C1179     1.0  0.28164  0.87267  0.69801  1.0000
  C   C1180     1.0  0.22481  0.89607  0.73453  1.0000
  C   C1181     1.0  0.26120  0.87381  0.76253  1.0000
  C   C1182     1.0  0.26117  0.87794  0.78281  1.0000
  C   C1183     1.0  0.28202  0.93699  0.69656  1.0000
  C   C1184     1.0  0.29952  0.85771  0.69277  1.0000
  C   C1185     1.0  0.20695  0.88825  0.73243  1.0000
  H   H2060     1.0  0.27750  0.86072  0.72835  1.0000
  H   H2061     1.0  0.29312  0.87812  0.72226  1.0000
  H   H2062     1.0  0.27816  0.89562  0.74740  1.0000
  H   H2063     1.0  0.25302  0.90456  0.75165  1.0000
  H   H2064     1.0  0.24373  0.86851  0.73269  1.0000
  H   H2065     1.0  0.24238  0.88393  0.71021  1.0000
  H   H2066     1.0  0.25961  0.90965  0.69910  1.0000
  H   H2067     1.0  0.25208  0.92100  0.71991  1.0000
  H   H2068     1.0  0.29510  0.90735  0.70355  1.0000
  H   H2069     1.0  0.28625  0.91963  0.72413  1.0000
  H   H2070     1.0  0.26886  0.86747  0.69532  1.0000
  H   H2071     1.0  0.28349  0.88645  0.68797  1.0000
  H   H2072     1.0  0.22347  0.91137  0.72710  1.0000
  H   H2073     1.0  0.22435  0.89575  0.75028  1.0000
  H   H2074     1.0  0.24738  0.86868  0.76296  1.0000
  H   H2075     1.0  0.27337  0.86183  0.75971  1.0000
  H   H2076     1.0  0.27480  0.88306  0.78332  1.0000
  H   H2077     1.0  0.24854  0.88907  0.78695  1.0000
  H   H2078     1.0  0.26016  0.86441  0.79358  1.0000
  H   H2079     1.0  0.27045  0.94799  0.70285  1.0000
  H   H2080     1.0  0.29612  0.94224  0.69437  1.0000
  H   H2081     1.0  0.27921  0.93554  0.68214  1.0000
  H   H2082     1.0  0.30115  0.85627  0.67724  1.0000
  H   H2083     1.0  0.31287  0.86229  0.69501  1.0000
  H   H2084     1.0  0.29803  0.84330  0.70183  1.0000
  H   H2085     1.0  0.20682  0.88782  0.71692  1.0000
  H   H2086     1.0  0.20678  0.87340  0.74093  1.0000
  H   H2087     1.0  0.19354  0.89780  0.73795  1.0000
  C   C1186     1.0  0.40322  0.90416  0.72662  1.0000
  H   H2088     1.0  0.10193  0.96686  0.88678  1.0000
  H   H2089     1.0  0.09732  0.82420  0.74030  1.0000
  H   H2090     1.0  0.41480  0.89700  0.71624  1.0000
  H   H2091     1.0  0.15294  0.91728  0.65901  1.0000
  H   H2092     1.0  0.14238  0.77618  0.73214  1.0000
  H   H2093     1.0  0.41532  0.78285  0.76804  1.0000
  N   N65       1.0  0.12283  0.91425  0.69235  1.0000
  H   H2094     1.0  0.39440  0.75463  0.75326  1.0000
  H   H2095     1.0  0.23737  0.74730  0.96694  1.0000
  C   C1187     1.0  0.11616  0.90351  0.71233  1.0000
  C   C1188     1.0  0.13290  0.89958  0.67948  1.0000
  H   H2096     1.0  0.37014  0.73975  0.74890  1.0000
  H   H2097     1.0  0.20525  0.81019  0.82680  1.0000
  C   C1189     1.0  0.10078  0.89038  0.71367  1.0000
  C   C1190     1.0  0.20532  0.76028  0.89345  1.0000
  H   H2098     1.0  0.18227  0.92466  0.70623  1.0000
  C   C1191     1.0  0.43942  0.92867  0.65581  1.0000
  C   C1192     1.0  0.23109  0.78832  0.82414  1.0000
  C   C1193     1.0  0.10595  0.92650  0.68345  1.0000
  H   H2099     1.0  0.34602  0.75616  0.68718  1.0000
  H   H2100     1.0  0.33654  0.75959  0.77724  1.0000
  H   H2101     1.0  0.13187  0.76522  0.68625  1.0000
  H   H2102     1.0  0.11075  0.91373  0.72294  1.0000
  H   H2103     1.0  0.12863  0.89368  0.71810  1.0000
  H   H2104     1.0  0.16104  0.75755  0.85486  1.0000
  H   H2105     1.0  0.12249  0.89053  0.67766  1.0000
  C   C1194     1.0  0.35651  0.76428  0.85051  1.0000
  C   C1195     1.0  0.40421  0.73737  0.80771  1.0000
  H   H2106     1.0  0.36458  0.77934  0.79183  1.0000
  H   H2107     1.0  0.10779  0.87698  0.70766  1.0000
  H   H2108     1.0  0.08886  0.89760  0.70553  1.0000
  H   H2109     1.0  0.08433  0.93102  0.70980  1.0000
  H   H2110     1.0  0.26273  0.79732  0.67013  1.0000
  C   C1196     1.0  0.26153  0.73660  0.83047  1.0000
  H   H2111     1.0  0.38003  0.94402  0.68331  1.0000
  N   N66       1.0  0.12172  0.77451  0.71422  1.0000
  H   H2112     1.0  0.14637  0.78973  0.70834  1.0000
  H   H2113     1.0  0.30755  0.75394  0.76890  1.0000
  C   C1197     1.0  0.14773  0.74478  0.91525  1.0000
  H   H2114     1.0  0.18164  0.77607  0.70909  1.0000
  H   H2115     1.0  0.09896  0.91980  0.90562  1.0000
  H   H2116     1.0  0.36638  0.77767  0.69427  1.0000
  N   N67       1.0  0.23470  0.75214  0.93640  1.0000
  H   H2117     1.0  0.20371  0.97446  0.80425  1.0000
  C   C1198     1.0  0.23893  0.77236  0.93474  1.0000
  C   C1199     1.0  0.21902  0.75197  0.92493  1.0000
  C   C1200     1.0  0.28741  0.75633  0.79583  1.0000
  H   H2118     1.0  0.41463  0.97933  0.72904  1.0000
  H   H2119     1.0  0.28846  0.82253  0.67704  1.0000
  H   H2120     1.0  0.14138  0.77560  0.84710  1.0000
  C   C1201     1.0  0.22143  0.78753  0.94168  1.0000
  C   C1202     1.0  0.22645  0.80801  0.93628  1.0000
  H   H2121     1.0  0.06540  0.96121  0.69556  1.0000
  H   H2122     1.0  0.03536  0.92930  0.93777  1.0000
  C   C1203     1.0  0.42182  0.93933  0.66776  1.0000
  C   C1204     1.0  0.09574  0.75322  0.73348  1.0000
  H   H2123     1.0  0.05192  0.92274  0.95506  1.0000
  H   H2124     1.0  0.25005  0.77234  0.94373  1.0000
  H   H2125     1.0  0.24551  0.77782  0.91957  1.0000
  C   C1205     1.0  0.35597  0.97720  0.69321  1.0000
  H   H2126     1.0  0.43720  0.96231  0.72775  1.0000
  H   H2127     1.0  0.36289  0.74663  0.80833  1.0000
  H   H2128     1.0  0.25844  0.74581  0.91315  1.0000
  H   H2129     1.0  0.28303  0.75244  0.76742  1.0000
  H   H2130     1.0  0.42689  0.76039  0.74781  1.0000
  H   H2131     1.0  0.33269  0.74173  0.79886  1.0000
  C   C1206     1.0  0.22646  0.79560  0.67041  1.0000
  S   S279      1.0  0.30917  0.74534  0.70780  1.0000
  H   H2132     1.0  0.22211  0.77781  0.90231  1.0000
  H   H2133     1.0  0.20860  0.78743  0.93521  1.0000
  H   H2134     1.0  0.21726  0.78445  0.95776  1.0000
  H   H2135     1.0  0.23004  0.81213  0.92024  1.0000
  H   H2136     1.0  0.21379  0.81853  0.94165  1.0000
  H   H2137     1.0  0.23893  0.80902  0.94305  1.0000
  C   C1207     1.0  0.33938  0.75482  0.79238  1.0000
  H   H2138     1.0  0.09909  0.94977  0.70129  1.0000
  H   H2139     1.0  0.29155  0.74063  0.80101  1.0000
  C   C1208     1.0  0.39097  0.88887  0.73787  1.0000
  H   H2140     1.0  0.36702  0.73743  0.78564  1.0000
  H   H2141     1.0  0.26267  0.76463  0.67674  1.0000
  H   H2142     1.0  0.34418  0.74162  0.75147  1.0000
  H   H2143     1.0  0.05022  0.96367  0.91369  1.0000
  H   H2144     1.0  0.28861  0.77871  0.68998  1.0000
  H   H2145     1.0  0.12362  0.73640  0.78089  1.0000
  C   C1209     1.0  0.26569  0.76386  0.80280  1.0000
  H   H2146     1.0  0.14421  0.88905  0.68652  1.0000
  C   C1210     1.0  0.26979  0.76695  0.83534  1.0000
  H   H2147     1.0  0.29063  0.76371  0.86580  1.0000
  H   H2148     1.0  0.41660  0.81560  0.77309  1.0000
  H   H2149     1.0  0.08950  0.94327  0.86633  1.0000
  H   H2150     1.0  0.12511  0.74984  0.73744  1.0000
  H   H2151     1.0  0.39544  0.78796  0.75497  1.0000
  H   H2152     1.0  0.17640  0.75953  0.73157  1.0000
  H   H2153     1.0  0.12282  0.74376  0.71501  1.0000
  C   C1211     1.0  0.06470  0.93548  0.92621  1.0000
  C   C1212     1.0  0.27595  0.77269  0.86754  1.0000
  H   H2154     1.0  0.26395  0.77988  0.79856  1.0000
  H   H2155     1.0  0.25660  0.75921  0.79406  1.0000
  H   H2156     1.0  0.39406  0.83167  0.77850  1.0000
  H   H2157     1.0  0.23083  0.76053  0.84364  1.0000
  H   H2158     1.0  0.27044  0.78248  0.82910  1.0000
  H   H2159     1.0  0.28523  0.75972  0.83361  1.0000
  H   H2160     1.0  0.09337  0.82330  0.89760  1.0000
  H   H2161     1.0  0.04824  0.94400  0.90301  1.0000
  H   H2162     1.0  0.21697  0.94240  0.81978  1.0000
  C   C1213     1.0  0.40119  0.75044  0.76666  1.0000
  C   C1214     1.0  0.23998  0.75003  0.69438  1.0000
  H   H2163     1.0  0.45234  0.92607  0.66310  1.0000
  H   H2164     1.0  0.43632  0.91461  0.65372  1.0000
  H   H2165     1.0  0.18951  0.75039  0.70989  1.0000
  H   H2166     1.0  0.23893  0.79580  0.83164  1.0000
  H   H2167     1.0  0.23233  0.80908  0.66330  1.0000
  H   H2168     1.0  0.04215  0.94789  0.94798  1.0000
  H   H2169     1.0  0.41120  0.97504  0.69620  1.0000
  H   H2170     1.0  0.42115  0.74056  0.82901  1.0000
  C   C1215     1.0  0.38622  0.95148  0.69244  1.0000
  H   H2171     1.0  0.05715  0.95374  0.85991  1.0000
  C   C1216     1.0  0.04741  0.93382  0.94271  1.0000
  H   H2172     1.0  0.16497  0.90910  0.68868  1.0000
  C   C1217     1.0  0.35836  0.73511  0.74381  1.0000
  H   H2173     1.0  0.03809  0.96369  0.87770  1.0000
  C   C1218     1.0  0.36946  0.77660  0.85088  1.0000
  H   H2174     1.0  0.29668  0.76424  0.80122  1.0000
  C   C1219     1.0  0.10160  0.77544  0.68720  1.0000
  N   N68       1.0  0.24767  0.78355  0.69739  1.0000
  C   C1220     1.0  0.22766  0.79164  0.69248  1.0000
  C   C1221     1.0  0.24738  0.78322  0.71873  1.0000
  C   C1222     1.0  0.26099  0.79753  0.68600  1.0000
  S   S280      1.0  0.38200  0.91259  0.66181  1.0000
  H   H2175     1.0  0.17288  0.86271  0.82653  1.0000
  H   H2176     1.0  0.07268  0.92942  0.88191  1.0000
  C   C1223     1.0  0.28184  0.79388  0.69078  1.0000
  C   C1224     1.0  0.23435  0.77025  0.73354  1.0000
  C   C1225     1.0  0.23413  0.77331  0.75429  1.0000
  H   H2177     1.0  0.38465  0.88285  0.72772  1.0000
  H   H2178     1.0  0.11937  0.89652  0.88591  1.0000
  H   H2179     1.0  0.22206  0.80563  0.69794  1.0000
  H   H2180     1.0  0.21695  0.78219  0.70011  1.0000
  H   H2181     1.0  0.26215  0.77797  0.72252  1.0000
  H   H2182     1.0  0.24297  0.79816  0.72198  1.0000
  H   H2183     1.0  0.25447  0.81269  0.68809  1.0000
  H   H2184     1.0  0.15528  0.74504  0.71633  1.0000
  H   H2185     1.0  0.12390  0.76830  0.91858  1.0000
  C   C1226     1.0  0.29210  0.75984  0.77367  1.0000
  H   H2186     1.0  0.15728  0.87768  0.84312  1.0000
  H   H2187     1.0  0.33219  0.76124  0.83819  1.0000
  H   H2188     1.0  0.42514  0.95362  0.66854  1.0000
  C   C1227     1.0  0.13629  0.92752  0.69419  1.0000
  H   H2189     1.0  0.17076  0.94263  0.68853  1.0000
  H   H2190     1.0  0.28179  0.79690  0.70552  1.0000
  H   H2191     1.0  0.21911  0.77348  0.73095  1.0000
  H   H2192     1.0  0.24032  0.75476  0.73293  1.0000
  C   C1228     1.0  0.10803  0.79054  0.72335  1.0000
  H   H2193     1.0  0.22691  0.78824  0.75628  1.0000
  H   H2194     1.0  0.22599  0.76284  0.76482  1.0000
  H   H2195     1.0  0.41010  0.90879  0.73726  1.0000
  Fe  Fe140     1.0  0.15077  0.83723  0.96556  1.0000
  H   H2196     1.0  0.08575  0.75999  0.72303  1.0000
  C   C1229     1.0  0.23707  0.76595  0.82833  1.0000
  H   H2197     1.0  0.40959  0.94185  0.65953  1.0000
  H   H2198     1.0  0.10897  0.78844  0.73915  1.0000
  N   N69       1.0  0.15286  0.82029  0.87236  1.0000
  C   C1230     1.0  0.16654  0.81130  0.88666  1.0000
  C   C1231     1.0  0.15389  0.80693  0.85787  1.0000
  C   C1232     1.0  0.15958  0.83886  0.86122  1.0000
  C   C1233     1.0  0.13228  0.82544  0.88246  1.0000
  C   C1234     1.0  0.12348  0.80890  0.89690  1.0000
  C   C1235     1.0  0.16691  0.82326  0.90254  1.0000
  C   C1236     1.0  0.14850  0.84968  0.84438  1.0000
  C   C1237     1.0  0.15837  0.78472  0.86505  1.0000
  C   C1238     1.0  0.15662  0.77324  0.84966  1.0000
  C   C1239     1.0  0.10362  0.81650  0.90788  1.0000
  C   C1240     1.0  0.18040  0.81194  0.91657  1.0000
  C   C1241     1.0  0.15761  0.86727  0.83327  1.0000
  H   H2199     1.0  0.18165  0.80825  0.87868  1.0000
  H   H2200     1.0  0.16314  0.79700  0.89461  1.0000
  H   H2201     1.0  0.14020  0.80997  0.85166  1.0000
  H   H2202     1.0  0.16558  0.80976  0.84518  1.0000
  H   H2203     1.0  0.17533  0.83591  0.85500  1.0000
  H   H2204     1.0  0.15819  0.84956  0.87108  1.0000
  H   H2205     1.0  0.13105  0.83777  0.89035  1.0000
  H   H2206     1.0  0.12231  0.83079  0.87162  1.0000
  H   H2207     1.0  0.13276  0.80209  0.90801  1.0000
  H   H2208     1.0  0.12137  0.79778  0.88897  1.0000
  H   H2209     1.0  0.17235  0.83708  0.89613  1.0000
  H   H2210     1.0  0.15227  0.82655  0.91124  1.0000
  H   H2211     1.0  0.13316  0.85508  0.85017  1.0000
  H   H2212     1.0  0.14866  0.84017  0.83373  1.0000
  H   H2213     1.0  0.17351  0.78057  0.86799  1.0000
  H   H2214     1.0  0.14856  0.77994  0.87856  1.0000
  C   C1242     1.0  0.15856  0.75973  0.70979  1.0000
  H   H2215     1.0  0.37899  0.89518  0.74854  1.0000
  C   C1243     1.0  0.16806  0.93229  0.70230  1.0000
  H   H2216     1.0  0.33232  0.76641  0.80099  1.0000
  C   C1244     1.0  0.10246  0.78020  0.66514  1.0000
  H   H2217     1.0  0.10496  0.82727  0.91671  1.0000
  H   H2218     1.0  0.19536  0.80851  0.90857  1.0000
  H   H2219     1.0  0.18080  0.82081  0.92763  1.0000
  H   H2220     1.0  0.17512  0.79833  0.92430  1.0000
  H   H2221     1.0  0.14934  0.87489  0.82145  1.0000
  C   C1245     1.0  0.14424  0.76790  0.93763  1.0000
  C   C1246     1.0  0.09045  0.96282  0.89927  1.0000
  H   H2222     1.0  0.23916  0.95033  0.82118  1.0000
  C   C1247     1.0  0.20934  0.79425  0.83084  1.0000
  C   C1248     1.0  0.41629  0.92722  0.68817  1.0000
  H   H2223     1.0  0.09428  0.89775  0.88408  1.0000
  C   C1249     1.0  0.36117  0.75029  0.79278  1.0000
  C   C1250     1.0  0.14202  0.77592  0.71659  1.0000
  H   H2224     1.0  0.15430  0.90752  0.71396  1.0000
  H   H2225     1.0  0.22922  0.76013  0.81934  1.0000
  C   C1251     1.0  0.26234  0.76539  0.85751  1.0000
  H   H2226     1.0  0.07845  0.97676  0.86594  1.0000
  H   H2227     1.0  0.09814  0.95131  0.90930  1.0000
  C   C1252     1.0  0.22771  0.74468  0.95752  1.0000
  C   C1253     1.0  0.39072  0.80179  0.78029  1.0000
  C   C1254     1.0  0.09154  0.93972  0.69661  1.0000
  C   C1255     1.0  0.34073  0.76432  0.69897  1.0000
  S   S281      1.0  0.13188  0.81458  0.96830  1.0000
  H   H2228     1.0  0.10275  0.87791  0.74407  1.0000
  H   H2229     1.0  0.39187  0.79832  0.79598  1.0000
  H   H2230     1.0  0.37523  0.80650  0.77879  1.0000
  C   C1256     1.0  0.41025  0.94639  0.71511  1.0000
  C   C1257     1.0  0.39927  0.78409  0.76992  1.0000
  H   H2231     1.0  0.37397  0.96944  0.71532  1.0000
  H   H2232     1.0  0.08260  0.89726  0.74069  1.0000
  H   H2233     1.0  0.38028  0.77197  0.86033  1.0000
  H   H2234     1.0  0.35952  0.95154  0.71437  1.0000
  C   C1258     1.0  0.36510  0.88792  0.69177  1.0000
  Fe  Fe141     1.0  0.15742  0.79300  0.97694  1.0000
  H   H2235     1.0  0.26144  0.75015  0.86436  1.0000
  H   H2236     1.0  0.24913  0.77099  0.75753  1.0000
  N   N70       1.0  0.40100  0.93709  0.70276  1.0000
  C   C1259     1.0  0.36354  0.90694  0.68148  1.0000
  H   H2237     1.0  0.42987  0.92134  0.69436  1.0000
  H   H2238     1.0  0.12564  0.81423  0.71606  1.0000
  H   H2239     1.0  0.23414  0.79376  0.80828  1.0000
  H   H2240     1.0  0.39935  0.95121  0.72747  1.0000
  H   H2241     1.0  0.20769  0.76750  0.87805  1.0000
  H   H2242     1.0  0.16099  0.76094  0.69372  1.0000
  H   H2243     1.0  0.21321  0.75301  0.96249  1.0000
  C   C1260     1.0  0.22332  0.95499  0.82125  1.0000
  C   C1261     1.0  0.10150  0.92429  0.88965  1.0000
  C   C1262     1.0  0.39042  0.92176  0.71607  1.0000
  H   H2244     1.0  0.38182  0.91594  0.70776  1.0000
  C   C1263     1.0  0.37108  0.76801  0.78269  1.0000
  C   C1264     1.0  0.36886  0.96195  0.70551  1.0000
  H   H2245     1.0  0.37670  0.87688  0.68671  1.0000
  C   C1265     1.0  0.17768  0.76156  0.71548  1.0000
  H   H2246     1.0  0.36621  0.77348  0.76830  1.0000
  H   H2247     1.0  0.22704  0.96622  0.79075  1.0000
  C   C1266     1.0  0.11123  0.81166  0.71442  1.0000
  H   H2248     1.0  0.12925  0.93670  0.70542  1.0000
  H   H2249     1.0  0.06720  0.94254  0.68123  1.0000
  C   C1267     1.0  0.40112  0.81907  0.77119  1.0000
  C   C1268     1.0  0.05880  0.95033  0.90845  1.0000
  H   H2250     1.0  0.09866  0.84125  0.71786  1.0000
  H   H2251     1.0  0.26688  0.75600  0.70075  1.0000
  H   H2252     1.0  0.41345  0.76514  0.79902  1.0000
  C   C1269     1.0  0.35228  0.77643  0.70304  1.0000
  C   C1270     1.0  0.42072  0.96360  0.70454  1.0000
  H   H2253     1.0  0.43396  0.95837  0.69462  1.0000
  C   C1271     1.0  0.05132  0.96660  0.86713  1.0000
  C   C1272     1.0  0.10660  0.90598  0.88035  1.0000
  C   C1273     1.0  0.06659  0.97160  0.87744  1.0000
  C   C1274     1.0  0.39985  0.75940  0.79956  1.0000
  H   H2254     1.0  0.16626  0.77741  0.83574  1.0000
  C   C1275     1.0  0.11729  0.75482  0.72476  1.0000
  H   H2255     1.0  0.16033  0.94042  0.71416  1.0000
  C   C1276     1.0  0.20553  0.79854  0.66698  1.0000
  C   C1277     1.0  0.25527  0.76360  0.69216  1.0000
  H   H2256     1.0  0.27722  0.78806  0.86133  1.0000
  C   C1278     1.0  0.09611  0.82633  0.72465  1.0000
  H   H2257     1.0  0.20462  0.75856  0.93216  1.0000
  H   H2258     1.0  0.20513  0.80163  0.65110  1.0000
  H   H2259     1.0  0.21643  0.95958  0.83540  1.0000
  H   H2260     1.0  0.23560  0.75542  0.89516  1.0000
  C   C1279     1.0  0.13741  0.76106  0.92331  1.0000
  H   H2261     1.0  0.40019  0.87675  0.74589  1.0000
  H   H2262     1.0  0.35931  0.74054  0.72799  1.0000
  H   H2263     1.0  0.11445  0.93160  0.88579  1.0000
  H   H2264     1.0  0.22889  0.75088  0.70757  1.0000
  C   C1280     1.0  0.12116  0.77668  0.69280  1.0000
  C   C1281     1.0  0.07557  0.95198  0.68580  1.0000
  H   H2265     1.0  0.27554  0.75021  0.93867  1.0000
  H   H2266     1.0  0.09756  0.80426  0.91792  1.0000
  H   H2267     1.0  0.11036  0.90978  0.86428  1.0000
  H   H2268     1.0  0.39562  0.74044  0.83825  1.0000
  H   H2269     1.0  0.39308  0.96296  0.68207  1.0000
  H   H2270     1.0  0.23498  0.78360  0.66296  1.0000
  C   C1282     1.0  0.15621  0.91746  0.69991  1.0000
  C   C1283     1.0  0.08340  0.98045  0.91012  1.0000
  H   H2271     1.0  0.12571  0.79051  0.68496  1.0000
  H   H2272     1.0  0.11431  0.77020  0.65775  1.0000
  N   N71       1.0  0.07505  0.95544  0.89219  1.0000
  H   H2273     1.0  0.10994  0.81501  0.69877  1.0000
  H   H2274     1.0  0.28955  0.77566  0.76798  1.0000
  H   H2275     1.0  0.07632  0.93957  0.93214  1.0000
  H   H2276     1.0  0.20468  0.74477  0.89369  1.0000
  S   S282      1.0  0.35860  0.74135  0.86554  1.0000
  H   H2277     1.0  0.43140  0.74832  0.77154  1.0000
  H   H2278     1.0  0.19117  0.76721  0.90086  1.0000
  S   S283      1.0  0.13829  0.73666  0.89739  1.0000
  H   H2279     1.0  0.23217  0.75399  0.68174  1.0000
  Fe  Fe142     1.0  0.31510  0.73894  0.67740  1.0000
  H   H2280     1.0  0.34366  0.98450  0.70285  1.0000
  S   S284      1.0  0.17685  0.81541  0.97327  1.0000
  H   H2281     1.0  0.30940  0.80414  0.68058  1.0000
  C   C1284     1.0  0.21959  0.97151  0.80440  1.0000
  H   H2282     1.0  0.34988  0.97029  0.68357  1.0000
  H   H2283     1.0  0.29614  0.80422  0.66146  1.0000
  C   C1285     1.0  0.17128  0.74156  0.93681  1.0000
  H   H2284     1.0  0.19684  0.81106  0.67355  1.0000
  C   C1286     1.0  0.42733  0.97306  0.71907  1.0000
  C   C1287     1.0  0.42347  0.74817  0.75963  1.0000
  C   C1288     1.0  0.14224  0.90802  0.65867  1.0000
  S   S285      1.0  0.30357  0.76138  0.65423  1.0000
  S   S286      1.0  0.19845  0.74115  0.81647  1.0000
  H   H2285     1.0  0.21748  0.73682  0.92469  1.0000
  H   H2286     1.0  0.16449  0.88259  0.65499  1.0000
  H   H2287     1.0  0.10575  0.97290  0.92865  1.0000
  H   H2288     1.0  0.10494  0.79537  0.65958  1.0000
  H   H2289     1.0  0.33032  0.98174  0.65454  1.0000
  H   H2290     1.0  0.08853  0.77853  0.66138  1.0000
  H   H2291     1.0  0.36306  0.82004  0.65176  1.0000
  H   H2292     1.0  0.39747  0.73594  0.77335  1.0000
  H   H2293     1.0  0.03346  0.97990  0.84500  1.0000
  H   H2294     1.0  0.05920  0.98441  0.88429  1.0000
  C   C1289     1.0  0.27027  0.73637  0.93957  1.0000
  H   H2295     1.0  0.13095  0.91682  0.65037  1.0000
  C   C1290     1.0  0.04500  0.98345  0.85152  1.0000
  C   C1291     1.0  0.16484  0.73515  0.92199  1.0000
  H   H2296     1.0  0.43536  0.98493  0.71113  1.0000
  S   S287      1.0  0.15087  0.73500  0.66072  1.0000
  H   H2297     1.0  0.80536  0.22775  0.19918  1.0000
  H   H2298     1.0  0.79992  0.19826  0.07626  1.0000
  H   H2299     1.0  0.89159  0.02170  0.18796  1.0000
  C   C1292     1.0  0.75459  0.18419  0.05386  1.0000
  S   S288      1.0  0.65833  0.10816  0.27683  1.0000
  Fe  Fe143     1.0  0.70627  0.08445  0.24860  1.0000
  S   S289      1.0  0.67893  0.07147  0.25406  1.0000
  S   S290      1.0  0.73540  0.07124  0.23395  1.0000
  Fe  Fe144     1.0  0.66480  0.10257  0.24596  1.0000
  S   S291      1.0  0.64193  0.11357  0.22675  1.0000
  C   C1293     1.0  0.88512  0.14708  0.11213  1.0000
  H   H2300     1.0  0.96372  0.16533  0.10828  1.0000
  S   S292      1.0  0.69234  0.11479  0.23839  1.0000
  H   H2301     1.0  0.85259  0.19766  0.21953  1.0000
  Fe  Fe145     1.0  0.84416  0.06828  0.24457  1.0000
  S   S293      1.0  0.84321  0.09207  0.21870  1.0000
  S   S294      1.0  0.83849  0.03889  0.24088  1.0000
  Fe  Fe146     1.0  0.84588  0.09715  0.27218  1.0000
  S   S295      1.0  0.84489  0.12236  0.24793  1.0000
  H   H2302     1.0  0.69417  0.20933  0.30315  1.0000
  Fe  Fe147     1.0  0.82241  0.10933  0.23937  1.0000
  S   S296      1.0  0.79432  0.12709  0.23268  1.0000
  Fe  Fe148     1.0  0.86593  0.10221  0.23022  1.0000
  S   S297      1.0  0.89374  0.10991  0.21199  1.0000
  S   S298      1.0  0.82174  0.08525  0.26473  1.0000
  S   S299      1.0  0.86852  0.07726  0.25499  1.0000
  Fe  Fe149     1.0  0.84128  0.12843  0.02832  1.0000
  S   S300      1.0  0.86932  0.11087  0.01587  1.0000
  S   S301      1.0  0.83749  0.13886  0.05767  1.0000
  Fe  Fe150     1.0  0.81874  0.11829  0.99940  1.0000
  Fe  Fe151     1.0  0.83868  0.21885  0.12069  1.0000
  Fe  Fe152     1.0  0.85096  0.08825  0.01664  1.0000
  S   S302      1.0  0.86447  0.05695  0.02652  1.0000
  Fe  Fe153     1.0  0.72053  0.18824  0.12737  1.0000
  S   S303      1.0  0.82327  0.10513  0.03015  1.0000
  C   C1294     1.0  0.80478  0.14390  0.29081  1.0000
  Fe  Fe154     1.0  0.86422  0.20600  0.15145  1.0000
  H   H2303     1.0  0.80471  0.21578  0.28992  1.0000
  S   S304      1.0  0.89385  0.19000  0.15534  1.0000
  H   H2304     1.0  0.86602  0.15403  0.25972  1.0000
  C   C1295     1.0  0.82075  0.17784  0.22635  1.0000
  S   S305      1.0  0.83849  0.21669  0.08903  1.0000
  H   H2305     1.0  0.90737  0.14284  0.04587  1.0000
  S   S306      1.0  0.84364  0.19135  0.14176  1.0000
  H   H2306     1.0  0.87134  0.15172  0.10606  1.0000
  Fe  Fe155     1.0  0.67706  0.19202  0.13739  1.0000
  H   H2307     1.0  0.87539  0.04034  0.21443  1.0000
  S   S307      1.0  0.64998  0.17985  0.15246  1.0000
  S   S308      1.0  0.74940  0.16861  0.12787  1.0000
  S   S309      1.0  0.69830  0.18233  0.11180  1.0000
  C   C1296     1.0  0.79290  0.17798  0.15181  1.0000
  C   C1297     1.0  0.78255  0.17169  0.14008  1.0000
  C   C1298     1.0  0.76224  0.17482  0.14378  1.0000
  H   H2308     1.0  0.80853  0.17598  0.14858  1.0000
  H   H2309     1.0  0.79028  0.16487  0.12788  1.0000
  C   C1299     1.0  0.83866  0.16055  0.06583  1.0000
  C   C1300     1.0  0.83503  0.16080  0.08599  1.0000
  C   C1301     1.0  0.83535  0.17769  0.09331  1.0000
  C   C1302     1.0  0.83913  0.19469  0.08054  1.0000
  C   C1303     1.0  0.84283  0.19442  0.06038  1.0000
  C   C1304     1.0  0.84277  0.17742  0.05305  1.0000
  H   H2310     1.0  0.83171  0.14788  0.09601  1.0000
  H   H2311     1.0  0.83210  0.17772  0.10881  1.0000
  H   H2312     1.0  0.84576  0.20747  0.05038  1.0000
  H   H2313     1.0  0.84577  0.17743  0.03754  1.0000
  H   H2314     1.0  0.60582  0.08803  0.30412  1.0000
  H   H2315     1.0  0.85499  0.07917  0.17045  1.0000
  C   C1305     1.0  0.68130  0.15137  0.29891  1.0000
  S   S310      1.0  0.84523  0.10095  0.30350  1.0000
  H   H2316     1.0  0.88425  0.21452  0.22002  1.0000
  C   C1306     1.0  0.89297  0.13208  0.19609  1.0000
  C   C1307     1.0  0.87538  0.14385  0.19270  1.0000
  C   C1308     1.0  0.87548  0.16169  0.17998  1.0000
  C   C1309     1.0  0.89315  0.16770  0.17086  1.0000
  C   C1310     1.0  0.91063  0.15583  0.17420  1.0000
  C   C1311     1.0  0.91054  0.13805  0.18675  1.0000
  H   H2317     1.0  0.86179  0.13922  0.19990  1.0000
  H   H2318     1.0  0.86191  0.17085  0.17741  1.0000
  H   H2319     1.0  0.92430  0.16043  0.16718  1.0000
  H   H2320     1.0  0.92414  0.12894  0.18937  1.0000
  H   H2321     1.0  0.79444  0.20936  0.10815  1.0000
  C   C1312     1.0  0.64543  0.13180  0.20604  1.0000
  C   C1313     1.0  0.62898  0.14247  0.19875  1.0000
  C   C1314     1.0  0.63076  0.15708  0.18242  1.0000
  C   C1315     1.0  0.64904  0.16121  0.17298  1.0000
  C   C1316     1.0  0.66568  0.15049  0.18006  1.0000
  C   C1317     1.0  0.66387  0.13582  0.19664  1.0000
  H   H2322     1.0  0.61472  0.13940  0.20576  1.0000
  H   H2323     1.0  0.61785  0.16516  0.17699  1.0000
  H   H2324     1.0  0.67989  0.15336  0.17266  1.0000
  H   H2325     1.0  0.67671  0.12737  0.20186  1.0000
  H   H2326     1.0  0.89163  0.13802  0.14190  1.0000
  C   C1318     1.0  0.75215  0.08670  0.23250  1.0000
  C   C1319     1.0  0.77165  0.07909  0.23350  1.0000
  C   C1320     1.0  0.78481  0.09148  0.23321  1.0000
  C   C1321     1.0  0.77848  0.11149  0.23177  1.0000
  C   C1322     1.0  0.75923  0.11913  0.22988  1.0000
  C   C1323     1.0  0.74606  0.10675  0.23049  1.0000
  H   H2327     1.0  0.77649  0.06358  0.23499  1.0000
  H   H2328     1.0  0.79977  0.08544  0.23431  1.0000
  H   H2329     1.0  0.75598  0.21409  0.03788  1.0000
  H   H2330     1.0  0.73127  0.11277  0.22909  1.0000
  C   C1324     1.0  0.84392  0.01500  0.08175  1.0000
  C   C1325     1.0  0.83149  0.03207  0.07552  1.0000
  C   C1326     1.0  0.83765  0.04524  0.05888  1.0000
  C   C1327     1.0  0.85624  0.04131  0.04808  1.0000
  C   C1328     1.0  0.86866  0.02424  0.05434  1.0000
  C   C1329     1.0  0.86259  0.01120  0.07113  1.0000
  H   H2331     1.0  0.81697  0.03507  0.08357  1.0000
  H   H2332     1.0  0.82791  0.05825  0.05418  1.0000
  H   H2333     1.0  0.88304  0.02103  0.04607  1.0000
  H   H2334     1.0  0.87225  0.99806  0.07566  1.0000
  C   C1330     1.0  0.86825  0.00566  0.19054  1.0000
  C   C1331     1.0  0.84985  0.00266  0.20070  1.0000
  C   C1332     1.0  0.84084  0.01302  0.21598  1.0000
  C   C1333     1.0  0.84990  0.02679  0.22098  1.0000
  C   C1334     1.0  0.86811  0.03004  0.21055  1.0000
  C   C1335     1.0  0.87729  0.01939  0.19558  1.0000
  H   H2335     1.0  0.82681  0.01030  0.22406  1.0000
  H   H2336     1.0  0.88418  0.15617  0.04076  1.0000
  C   C1336     1.0  0.89017  0.18261  0.22182  1.0000
  H   H2337     1.0  0.74089  0.07390  0.99069  1.0000
  C   C1337     1.0  0.87557  0.15667  0.24535  1.0000
  H   H2338     1.0  0.66094  0.21128  0.23446  1.0000
  H   H2339     1.0  0.66620  0.22753  0.28686  1.0000
  H   H2340     1.0  0.87839  0.20602  0.19990  1.0000
  H   H2341     1.0  0.65289  0.04184  0.28884  1.0000
  H   H2342     1.0  0.87842  0.16933  0.07156  1.0000
  C   C1338     1.0  0.66401  0.14448  0.30766  1.0000
  C   C1339     1.0  0.77917  0.16208  0.07109  1.0000
  C   C1340     1.0  0.70224  0.99933  0.31047  1.0000
  H   H2343     1.0  0.72655  0.01485  0.30744  1.0000
  C   C1341     1.0  0.78268  0.14596  0.05843  1.0000
  C   C1342     1.0  0.78627  0.12586  0.07071  1.0000
  H   H2344     1.0  0.80671  0.17530  0.23569  1.0000
  C   C1343     1.0  0.82044  0.21619  0.28866  1.0000
  H   H2345     1.0  0.76528  0.21096  0.07013  1.0000
  H   H2346     1.0  0.79300  0.16050  0.07671  1.0000
  H   H2347     1.0  0.76799  0.15841  0.08406  1.0000
  H   H2348     1.0  0.92259  0.13860  0.11336  1.0000
  H   H2349     1.0  0.68271  0.11533  0.00404  1.0000
  C   C1344     1.0  0.87864  0.20414  0.27834  1.0000
  H   H2350     1.0  0.77013  0.14635  0.05126  1.0000
  H   H2351     1.0  0.79589  0.14730  0.04730  1.0000
  H   H2352     1.0  0.77389  0.12370  0.08273  1.0000
  H   H2353     1.0  0.78792  0.11459  0.06147  1.0000
  H   H2354     1.0  0.79988  0.12398  0.07677  1.0000
  H   H2355     1.0  0.90326  0.16916  0.04151  1.0000
  C   C1345     1.0  0.88881  0.20357  0.21022  1.0000
  H   H2356     1.0  0.93995  0.16399  0.08789  1.0000
  H   H2357     1.0  0.90522  0.14436  0.23332  1.0000
  H   H2358     1.0  0.75689  0.16731  0.27355  1.0000
  H   H2359     1.0  0.74366  0.17784  0.06569  1.0000
  H   H2360     1.0  0.90346  0.17969  0.22853  1.0000
  H   H2361     1.0  0.89813  0.19304  0.25457  1.0000
  H   H2362     1.0  0.68816  0.15314  0.98504  1.0000
  C   C1346     1.0  0.69140  0.10175  0.01046  1.0000
  C   C1347     1.0  0.77037  0.13685  0.30025  1.0000
  H   H2363     1.0  0.78786  0.17043  0.02416  1.0000
  H   H2364     1.0  0.85571  0.18601  0.26353  1.0000
  C   C1348     1.0  0.64544  0.01508  0.30653  1.0000
  C   C1349     1.0  0.67727  0.09003  0.02481  1.0000
  S   S311      1.0  0.71994  0.21907  0.11241  1.0000
  H   H2365     1.0  0.88161  0.14337  0.07548  1.0000
  C   C1350     1.0  0.62935  0.22312  0.30305  1.0000
  C   C1351     1.0  0.76589  0.09782  0.28099  1.0000
  H   H2366     1.0  0.90955  0.00831  0.08508  1.0000
  H   H2367     1.0  0.71198  0.22238  0.17391  1.0000
  H   H2368     1.0  0.79034  0.18101  0.09617  1.0000
  Fe  Fe156     1.0  0.69581  0.21404  0.09901  1.0000
  S   S312      1.0  0.84497  0.09940  0.98600  1.0000
  H   H2369     1.0  0.63254  0.19209  0.31611  1.0000
  H   H2370     1.0  0.68525  0.20907  0.22275  1.0000
  H   H2371     1.0  0.69268  0.19659  0.27355  1.0000
  C   C1352     1.0  0.64924  0.22700  0.17735  1.0000
  H   H2372     1.0  0.91780  0.02772  0.09237  1.0000
  C   C1353     1.0  0.90841  0.20712  0.19802  1.0000
  H   H2373     1.0  0.90415  0.15474  0.25454  1.0000
  H   H2374     1.0  0.76405  0.21214  0.24991  1.0000
  H   H2375     1.0  0.72974  0.08938  0.01985  1.0000
  H   H2376     1.0  0.75794  0.06950  0.29417  1.0000
  S   S313      1.0  0.88075  0.99268  0.17158  1.0000
  N   N72       1.0  0.87268  0.17805  0.23674  1.0000
  H   H2377     1.0  0.66679  0.08610  0.01713  1.0000
  H   H2378     1.0  0.68526  0.07659  0.03238  1.0000
  H   H2379     1.0  0.73929  0.11112  0.00710  1.0000
  Fe  Fe157     1.0  0.69672  0.22620  0.13729  1.0000
  Fe  Fe158     1.0  0.82123  0.20659  0.16290  1.0000
  C   C1354     1.0  0.75239  0.18322  0.15991  1.0000
  C   C1355     1.0  0.86162  0.13730  0.14278  1.0000
  H   H2380     1.0  0.89319  0.17265  0.21093  1.0000
  C   C1356     1.0  0.93458  0.16529  0.10338  1.0000
  C   C1357     1.0  0.91717  0.15450  0.11203  1.0000
  H   H2381     1.0  0.79977  0.15973  0.29020  1.0000
  S   S314      1.0  0.84247  0.21811  0.17513  1.0000
  H   H2382     1.0  0.87497  0.18303  0.10160  1.0000
  H   H2383     1.0  0.64705  0.21699  0.16813  1.0000
  C   C1358     1.0  0.89331  0.21646  0.08864  1.0000
  C   C1359     1.0  0.89652  0.14641  0.24781  1.0000
  H   H2384     1.0  0.71575  0.18767  0.99329  1.0000
  H   H2385     1.0  0.69056  0.17672  0.24929  1.0000
  S   S315      1.0  0.83524  0.99874  0.10257  1.0000
  C   C1360     1.0  0.90610  0.15478  0.08122  1.0000
  N   N73       1.0  0.79314  0.10918  0.17118  1.0000
  C   C1361     1.0  0.77195  0.10714  0.17689  1.0000
  C   C1362     1.0  0.80575  0.09175  0.18104  1.0000
  C   C1363     1.0  0.79585  0.12682  0.17842  1.0000
  C   C1364     1.0  0.79945  0.11227  0.14943  1.0000
  C   C1365     1.0  0.79657  0.09640  0.13880  1.0000
  C   C1366     1.0  0.75707  0.12416  0.16850  1.0000
  C   C1367     1.0  0.81684  0.13159  0.17373  1.0000
  C   C1368     1.0  0.79849  0.07189  0.18549  1.0000
  C   C1369     1.0  0.81290  0.05596  0.19526  1.0000
  C   C1370     1.0  0.80181  0.10226  0.11679  1.0000
  C   C1371     1.0  0.73658  0.11905  0.17351  1.0000
  C   C1372     1.0  0.82017  0.14426  0.18737  1.0000
  H   H2386     1.0  0.76793  0.10511  0.19302  1.0000
  H   H2387     1.0  0.76917  0.09389  0.17271  1.0000
  H   H2388     1.0  0.82059  0.08958  0.17240  1.0000
  H   H2389     1.0  0.80789  0.09431  0.19541  1.0000
  H   H2390     1.0  0.79081  0.12535  0.19434  1.0000
  H   H2391     1.0  0.78665  0.14011  0.17215  1.0000
  H   H2392     1.0  0.79209  0.12656  0.14265  1.0000
  H   H2393     1.0  0.81520  0.11324  0.14572  1.0000
  H   H2394     1.0  0.78129  0.09390  0.14194  1.0000
  H   H2395     1.0  0.80626  0.08268  0.14305  1.0000
  H   H2396     1.0  0.75654  0.13736  0.17474  1.0000
  H   H2397     1.0  0.76059  0.12764  0.15243  1.0000
  H   H2398     1.0  0.81922  0.13964  0.15862  1.0000
  H   H2399     1.0  0.82809  0.11844  0.17464  1.0000
  H   H2400     1.0  0.78452  0.07251  0.19574  1.0000
  H   H2401     1.0  0.79624  0.06744  0.17217  1.0000
  H   H2402     1.0  0.80768  0.04183  0.19784  1.0000
  H   H2403     1.0  0.82747  0.05459  0.18611  1.0000
  H   H2404     1.0  0.81421  0.05918  0.20957  1.0000
  H   H2405     1.0  0.79966  0.09075  0.10933  1.0000
  H   H2406     1.0  0.79229  0.11593  0.11183  1.0000
  H   H2407     1.0  0.81722  0.10443  0.11262  1.0000
  H   H2408     1.0  0.73202  0.11593  0.18955  1.0000
  H   H2409     1.0  0.72619  0.13143  0.16739  1.0000
  H   H2410     1.0  0.73593  0.10620  0.16718  1.0000
  H   H2411     1.0  0.82495  0.13502  0.20063  1.0000
  H   H2412     1.0  0.83161  0.15307  0.18009  1.0000
  H   H2413     1.0  0.80671  0.15423  0.19188  1.0000
  N   N74       1.0  0.67010  0.18744  0.21817  1.0000
  C   C1373     1.0  0.68677  0.17108  0.21487  1.0000
  C   C1374     1.0  0.65132  0.17963  0.22637  1.0000
  C   C1375     1.0  0.66780  0.19956  0.19849  1.0000
  C   C1376     1.0  0.67398  0.20036  0.23089  1.0000
  C   C1377     1.0  0.68024  0.19027  0.25055  1.0000
  C   C1378     1.0  0.70725  0.17694  0.20800  1.0000
  H   H2414     1.0  0.73722  0.21224  0.05868  1.0000
  C   C1379     1.0  0.65206  0.16089  0.24180  1.0000
  S   S316      1.0  0.83458  0.14289  0.99862  1.0000
  C   C1380     1.0  0.72261  0.15918  0.20465  1.0000
  S   S317      1.0  0.70376  0.08883  0.27932  1.0000
  H   H2415     1.0  0.68412  0.16300  0.20408  1.0000
  H   H2416     1.0  0.68788  0.16008  0.22818  1.0000
  H   H2417     1.0  0.64022  0.19096  0.23278  1.0000
  H   H2418     1.0  0.64516  0.17610  0.21445  1.0000
  H   H2419     1.0  0.66648  0.19018  0.18814  1.0000
  H   H2420     1.0  0.88738  0.17502  0.27314  1.0000
  H   H2421     1.0  0.88840  0.12753  0.27530  1.0000
  H   H2422     1.0  0.81013  0.20484  0.00995  1.0000
  H   H2423     1.0  0.89281  0.19550  0.07106  1.0000
  H   H2424     1.0  0.70805  0.18730  0.19417  1.0000
  H   H2425     1.0  0.71134  0.18367  0.21906  1.0000
  H   H2426     1.0  0.77922  0.10340  0.27323  1.0000
  C   C1381     1.0  0.80832  0.18953  0.01095  1.0000
  H   H2427     1.0  0.65962  0.14827  0.23479  1.0000
  H   H2428     1.0  0.63242  0.14330  0.26156  1.0000
  C   C1382     1.0  0.95153  0.15713  0.11449  1.0000
  H   H2429     1.0  0.88023  0.07944  0.15967  1.0000
  H   H2430     1.0  0.72004  0.15298  0.19243  1.0000
  H   H2431     1.0  0.73729  0.16335  0.20095  1.0000
  H   H2432     1.0  0.72216  0.14799  0.21796  1.0000
  H   H2433     1.0  0.76798  0.22419  0.21398  1.0000
  H   H2434     1.0  0.91487  0.19301  0.08026  1.0000
  H   H2435     1.0  0.77241  0.09097  0.00199  1.0000
  C   C1383     1.0  0.74930  0.13827  0.27546  1.0000
  C   C1384     1.0  0.74512  0.16075  0.27055  1.0000
  C   C1385     1.0  0.65327  0.03237  0.30274  1.0000
  C   C1386     1.0  0.74339  0.16758  0.24910  1.0000
  H   H2436     1.0  0.73671  0.13264  0.27273  1.0000
  H   H2437     1.0  0.76154  0.13339  0.26435  1.0000
  C   C1387     1.0  0.85538  0.18218  0.22632  1.0000
  H   H2438     1.0  0.75547  0.10035  0.27066  1.0000
  H   H2439     1.0  0.79562  0.11868  0.28618  1.0000
  S   S318      1.0  0.66856  0.06025  0.31424  1.0000
  C   C1388     1.0  0.69132  0.22543  0.30003  1.0000
  H   H2440     1.0  0.76650  0.15243  0.30180  1.0000
  H   H2441     1.0  0.69674  0.21779  0.00302  1.0000
  H   H2442     1.0  0.73955  0.18361  0.24617  1.0000
  H   H2443     1.0  0.75742  0.16331  0.23970  1.0000
  H   H2444     1.0  0.73180  0.16126  0.24536  1.0000
  N   N75       1.0  0.86277  0.04899  0.12300  1.0000
  C   C1389     1.0  0.85399  0.05992  0.10550  1.0000
  C   C1390     1.0  0.85089  0.03345  0.13329  1.0000
  C   C1391     1.0  0.86294  0.06318  0.13613  1.0000
  C   C1392     1.0  0.88339  0.03931  0.11714  1.0000
  C   C1393     1.0  0.88669  0.02719  0.10056  1.0000
  C   C1394     1.0  0.86504  0.07592  0.09258  1.0000
  C   C1395     1.0  0.86875  0.05422  0.15630  1.0000
  C   C1396     1.0  0.82963  0.04067  0.14226  1.0000
  C   C1397     1.0  0.81982  0.02378  0.15395  1.0000
  C   C1398     1.0  0.90771  0.01697  0.09689  1.0000
  C   C1399     1.0  0.85569  0.08515  0.07464  1.0000
  C   C1400     1.0  0.86946  0.07009  0.16769  1.0000
  H   H2445     1.0  0.83902  0.06734  0.11012  1.0000
  H   H2446     1.0  0.85224  0.04973  0.09621  1.0000
  H   H2447     1.0  0.84996  0.02382  0.12310  1.0000
  H   H2448     1.0  0.85820  0.02365  0.14493  1.0000
  H   H2449     1.0  0.84858  0.07269  0.13844  1.0000
  H   H2450     1.0  0.87341  0.07319  0.12901  1.0000
  H   H2451     1.0  0.89344  0.05014  0.11271  1.0000
  H   H2452     1.0  0.88867  0.02926  0.12985  1.0000
  H   H2453     1.0  0.88357  0.03649  0.08670  1.0000
  H   H2454     1.0  0.87729  0.01588  0.10429  1.0000
  H   H2455     1.0  0.86471  0.08774  0.10077  1.0000
  H   H2456     1.0  0.88041  0.07004  0.08747  1.0000
  H   H2457     1.0  0.88332  0.04511  0.15476  1.0000
  H   H2458     1.0  0.85819  0.04506  0.16515  1.0000
  H   H2459     1.0  0.82890  0.05099  0.15221  1.0000
  H   H2460     1.0  0.82098  0.04787  0.13066  1.0000
  H   H2461     1.0  0.81923  0.01346  0.14432  1.0000
  H   H2462     1.0  0.82785  0.01601  0.16589  1.0000
  H   H2463     1.0  0.80474  0.02930  0.16047  1.0000
  H   H2464     1.0  0.91151  0.00696  0.11020  1.0000
  H   H2465     1.0  0.84811  0.14347  0.29408  1.0000
  C   C1401     1.0  0.75640  0.10781  0.29880  1.0000
  H   H2466     1.0  0.86331  0.09713  0.06617  1.0000
  H   H2467     1.0  0.85689  0.07432  0.06505  1.0000
  H   H2468     1.0  0.84015  0.09121  0.07883  1.0000
  H   H2469     1.0  0.87389  0.06341  0.18196  1.0000
  H   H2470     1.0  0.86385  0.12237  0.13947  1.0000
  H   H2471     1.0  0.91429  0.13971  0.08187  1.0000
  H   H2472     1.0  0.62369  0.15518  0.23945  1.0000
  H   H2473     1.0  0.62329  0.16892  0.25844  1.0000
  C   C1402     1.0  0.63158  0.15693  0.25085  1.0000
  H   H2474     1.0  0.65975  0.16154  0.25364  1.0000
  S   S319      1.0  0.79596  0.19472  0.18228  1.0000
  C   C1403     1.0  0.78304  0.18644  0.16789  1.0000
  C   C1404     1.0  0.76056  0.08606  0.01346  1.0000
  H   H2475     1.0  0.75443  0.13459  0.22821  1.0000
  H   H2476     1.0  0.94705  0.15857  0.13010  1.0000
  N   N76       1.0  0.75336  0.12979  0.29576  1.0000
  H   H2477     1.0  0.95677  0.14161  0.11332  1.0000
  C   C1405     1.0  0.89092  0.18082  0.10152  1.0000
  H   H2478     1.0  0.85873  0.13644  0.15882  1.0000
  H   H2479     1.0  0.80795  0.18689  0.99616  1.0000
  Fe  Fe159     1.0  0.67516  0.07831  0.28433  1.0000
  H   H2480     1.0  0.84884  0.14613  0.13670  1.0000
  C   C1406     1.0  0.78952  0.18544  0.02448  1.0000
  H   H2481     1.0  0.91650  0.16397  0.07215  1.0000
  C   C1407     1.0  0.77112  0.07589  0.28702  1.0000
  H   H2482     1.0  0.91286  0.15766  0.12716  1.0000
  H   H2483     1.0  0.87687  0.16154  0.13784  1.0000
  H   H2484     1.0  0.93036  0.18082  0.10488  1.0000
  C   C1408     1.0  0.73040  0.20508  0.03310  1.0000
  C   C1409     1.0  0.87966  0.14668  0.13439  1.0000
  H   H2485     1.0  0.89218  0.18526  0.11532  1.0000
  S   S320      1.0  0.69941  0.19578  0.15381  1.0000
  H   H2486     1.0  0.66733  0.18704  0.26143  1.0000
  H   H2487     1.0  0.63633  0.21102  0.20385  1.0000
  C   C1410     1.0  0.69043  0.20316  0.25850  1.0000
  N   N77       1.0  0.89994  0.15975  0.10146  1.0000
  Fe  Fe160     1.0  0.68724  0.11800  0.26970  1.0000
  C   C1411     1.0  0.89890  0.19584  0.08418  1.0000
  H   H2488     1.0  0.89032  0.13175  0.10993  1.0000
  C   C1412     1.0  0.89657  0.15605  0.04818  1.0000
  H   H2489     1.0  0.68083  0.20641  0.19206  1.0000
  C   C1413     1.0  0.88923  0.15606  0.06987  1.0000
  H   H2490     1.0  0.83729  0.16382  0.24880  1.0000
  H   H2491     1.0  0.81834  0.19190  0.21642  1.0000
  H   H2492     1.0  0.82569  0.16601  0.21755  1.0000
  H   H2493     1.0  0.73677  0.18532  0.16310  1.0000
  H   H2494     1.0  0.78753  0.14097  0.27059  1.0000
  H   H2495     1.0  0.63557  0.17921  0.28580  1.0000
  C   C1414     1.0  0.88456  0.18959  0.26420  1.0000
  C   C1415     1.0  0.83575  0.17797  0.23901  1.0000
  H   H2496     1.0  0.82976  0.18941  0.24815  1.0000
  H   H2497     1.0  0.85848  0.17386  0.21409  1.0000
  C   C1416     1.0  0.70284  0.09018  0.99423  1.0000
  C   C1417     1.0  0.86819  0.19041  0.25250  1.0000
  H   H2498     1.0  0.71683  0.21954  0.20807  1.0000
  H   H2499     1.0  0.89050  0.20306  0.28679  1.0000
  H   H2500     1.0  0.72111  0.22110  0.99148  1.0000
  C   C1418     1.0  0.78955  0.13427  0.28565  1.0000
  H   H2501     1.0  0.71891  0.19659  0.04116  1.0000
  H   H2502     1.0  0.82100  0.17979  0.01638  1.0000
  S   S321      1.0  0.69478  0.14432  0.27735  1.0000
  H   H2503     1.0  0.87117  0.14822  0.23583  1.0000
  C   C1419     1.0  0.76278  0.18870  0.17218  1.0000
  H   H2504     1.0  0.86330  0.20583  0.24643  1.0000
  H   H2505     1.0  0.88937  0.11715  0.25381  1.0000
  H   H2506     1.0  0.87730  0.22058  0.09141  1.0000
  H   H2507     1.0  0.75511  0.19517  0.18466  1.0000
  C   C1420     1.0  0.89636  0.12634  0.26036  1.0000
  H   H2508     1.0  0.63915  0.01123  0.29545  1.0000
  H   H2509     1.0  0.91148  0.11905  0.26138  1.0000
  C   C1421     1.0  0.74068  0.09522  0.00793  1.0000
  C   C1422     1.0  0.84756  0.13857  0.30953  1.0000
  N   N78       1.0  0.77341  0.18266  0.06121  1.0000
  H   H2510     1.0  0.80390  0.18190  0.04949  1.0000
  H   H2511     1.0  0.63382  0.23165  0.28847  1.0000
  H   H2512     1.0  0.76893  0.20822  0.11128  1.0000
  H   H2513     1.0  0.70780  0.07509  0.00129  1.0000
  C   C1423     1.0  0.74505  0.20510  0.04617  1.0000
  H   H2514     1.0  0.75648  0.17546  0.04216  1.0000
  H   H2515     1.0  0.89917  0.22677  0.07599  1.0000
  H   H2516     1.0  0.77380  0.17656  0.98530  1.0000
  H   H2517     1.0  0.65319  0.19851  0.29861  1.0000
  H   H2518     1.0  0.77975  0.22533  0.09173  1.0000
  C   C1424     1.0  0.78959  0.18899  0.04535  1.0000
  C   C1425     1.0  0.62935  0.19468  0.28639  1.0000
  C   C1426     1.0  0.78684  0.19525  0.08697  1.0000
  H   H2519     1.0  0.82837  0.21120  0.27500  1.0000
  C   C1427     1.0  0.78211  0.21051  0.10032  1.0000
  H   H2520     1.0  0.78965  0.20482  0.04396  1.0000
  H   H2521     1.0  0.87600  0.21919  0.27034  1.0000
  H   H2522     1.0  0.75707  0.19173  0.08799  1.0000
  H   H2523     1.0  0.76235  0.06999  0.01565  1.0000
  H   H2524     1.0  0.71462  0.12547  0.99222  1.0000
  C   C1428     1.0  0.70685  0.21892  0.98897  1.0000
  H   H2525     1.0  0.72335  0.22020  0.02853  1.0000
  H   H2526     1.0  0.77738  0.19521  0.01814  1.0000
  C   C1429     1.0  0.65029  0.21641  0.19811  1.0000
  H   H2527     1.0  0.70146  0.16951  0.30086  1.0000
  H   H2528     1.0  0.66896  0.09880  0.03594  1.0000
  H   H2529     1.0  0.65170  0.22723  0.20680  1.0000
  H   H2530     1.0  0.77763  0.06912  0.27394  1.0000
  H   H2531     1.0  0.70486  0.20451  0.24941  1.0000
  S   S322      1.0  0.86067  0.23311  0.12936  1.0000
  C   C1430     1.0  0.76957  0.19554  0.07656  1.0000
  H   H2532     1.0  0.73118  0.16658  0.27908  1.0000
  H   H2533     1.0  0.63357  0.20341  0.27191  1.0000
  H   H2534     1.0  0.89933  0.21773  0.10153  1.0000
  C   C1431     1.0  0.70939  0.23293  0.20087  1.0000
  S   S323      1.0  0.69662  0.22791  0.06751  1.0000
  H   H2535     1.0  0.61324  0.22491  0.30492  1.0000
  H   H2536     1.0  0.65844  0.13493  0.30092  1.0000
  H   H2537     1.0  0.69174  0.08873  0.98575  1.0000
  H   H2538     1.0  0.81844  0.14164  0.28028  1.0000
  H   H2539     1.0  0.78194  0.07246  0.29704  1.0000
  H   H2540     1.0  0.80794  0.13730  0.30559  1.0000
  H   H2541     1.0  0.70102  0.10586  0.01886  1.0000
  H   H2542     1.0  0.72242  0.13288  0.30589  1.0000
  H   H2543     1.0  0.73874  0.21928  0.24749  1.0000
  H   H2544     1.0  0.66239  0.23099  0.99303  1.0000
  C   C1432     1.0  0.63710  0.20133  0.30210  1.0000
  H   H2545     1.0  0.68165  0.21782  0.25849  1.0000
  H   H2546     1.0  0.74788  0.22724  0.26592  1.0000
  H   H2547     1.0  0.91936  0.20601  0.20753  1.0000
  H   H2548     1.0  0.76196  0.09042  0.02721  1.0000
  H   H2549     1.0  0.61328  0.19602  0.28978  1.0000
  H   H2550     1.0  0.71677  0.01714  0.28526  1.0000
  H   H2551     1.0  0.77395  0.12920  0.31465  1.0000
  H   H2552     1.0  0.82996  0.22688  0.22025  1.0000
  H   H2553     1.0  0.76506  0.10153  0.31068  1.0000
  C   C1433     1.0  0.68826  0.16394  0.30763  1.0000
  H   H2554     1.0  0.90684  0.22189  0.18920  1.0000
  S   S324      1.0  0.67250  0.22322  0.12292  1.0000
  H   H2555     1.0  0.91366  0.19644  0.18792  1.0000
  H   H2556     1.0  0.73774  0.19883  0.01990  1.0000
  H   H2557     1.0  0.79530  0.22792  0.22429  1.0000
  C   C1434     1.0  0.73858  0.09002  0.98841  1.0000
  H   H2558     1.0  0.62590  0.06841  0.30586  1.0000
  S   S325      1.0  0.78965  0.12762  0.98822  1.0000
  H   H2559     1.0  0.82589  0.20605  0.30117  1.0000
  C   C1435     1.0  0.75146  0.22409  0.25081  1.0000
  H   H2560     1.0  0.84890  0.16686  0.31603  1.0000
  H   H2561     1.0  0.74220  0.10247  0.30371  1.0000
  C   C1436     1.0  0.61532  0.07870  0.31413  1.0000
  H   H2562     1.0  0.68888  0.00169  0.30397  1.0000
  H   H2563     1.0  0.70370  0.03013  0.30434  1.0000
  C   C1437     1.0  0.71306  0.01631  0.30130  1.0000
  Fe  Fe161     1.0  0.86122  0.12334  0.98627  1.0000
  H   H2564     1.0  0.84275  0.99207  0.19709  1.0000
  H   H2565     1.0  0.69587  0.23115  0.31156  1.0000
  H   H2566     1.0  0.65576  0.23075  0.08382  1.0000
  C   C1438     1.0  0.66981  0.23284  0.29905  1.0000
  S   S326      1.0  0.81444  0.23328  0.14127  1.0000
  H   H2567     1.0  0.70023  0.23036  0.28586  1.0000
  H   H2568     1.0  0.66279  0.23295  0.17088  1.0000
  C   C1439     1.0  0.73559  0.13640  0.30985  1.0000
  H   H2569     1.0  0.77035  0.22853  0.15079  1.0000
  H   H2570     1.0  0.86537  0.20103  0.28882  1.0000
  H   H2571     1.0  0.73317  0.15241  0.30900  1.0000
  C   C1440     1.0  0.70660  0.23450  0.18159  1.0000
  H   H2572     1.0  0.78246  0.23374  0.18081  1.0000
  H   H2573     1.0  0.74833  0.23293  0.18182  1.0000
  H   H2574     1.0  0.62555  0.07655  0.62947  1.0000
  C   C1441     1.0  0.81682  0.22942  0.46980  1.0000
  S   S327      1.0  0.75739  0.12129  0.64095  1.0000
  Fe  Fe162     1.0  0.64229  0.04076  0.50137  1.0000
  S   S328      1.0  0.61376  0.05948  0.50987  1.0000
  S   S329      1.0  0.64951  0.01802  0.48110  1.0000
  Fe  Fe163     1.0  0.66376  0.06011  0.52506  1.0000
  S   S330      1.0  0.63675  0.08032  0.53472  1.0000
  S   S331      1.0  0.69389  0.06177  0.53078  1.0000
  Fe  Fe164     1.0  0.62171  0.05429  0.53991  1.0000
  S   S332      1.0  0.60375  0.04332  0.56879  1.0000
  Fe  Fe165     1.0  0.63147  0.08369  0.50392  1.0000
  S   S333      1.0  0.62255  0.11216  0.48496  1.0000
  S   S334      1.0  0.64923  0.03368  0.53191  1.0000
  S   S335      1.0  0.65944  0.06534  0.49375  1.0000
  Fe  Fe166     1.0  0.85108  0.21815  0.39094  1.0000
  C   C1442     1.0  0.71196  0.10303  0.43017  1.0000
  C   C1443     1.0  0.65382  0.15006  0.32521  1.0000
  Fe  Fe167     1.0  0.84705  0.19190  0.36191  1.0000
  S   S336      1.0  0.83626  0.21735  0.34053  1.0000
  S   S337      1.0  0.84859  0.16020  0.35922  1.0000
  C   C1444     1.0  0.71020  0.03777  0.48329  1.0000
  C   C1445     1.0  0.64554  0.11620  0.41362  1.0000
  C   C1446     1.0  0.58908  0.03773  0.36296  1.0000
  C   C1447     1.0  0.70540  0.01247  0.55658  1.0000
  S   S338      1.0  0.87177  0.20503  0.36670  1.0000
  S   S339      1.0  0.82737  0.20250  0.38808  1.0000
  Fe  Fe168     1.0  0.66877  0.17990  0.37091  1.0000
  S   S340      1.0  0.65826  0.19193  0.39864  1.0000
  S   S341      1.0  0.64898  0.16854  0.35647  1.0000
  H   H2575     1.0  0.71719  0.02140  0.55284  1.0000
  H   H2576     1.0  0.61634  0.06811  0.59179  1.0000
  Fe  Fe169     1.0  0.68598  0.17486  0.40777  1.0000
  S   S342      1.0  0.69080  0.15570  0.43644  1.0000
  S   S343      1.0  0.69501  0.16087  0.38109  1.0000
  H   H2577     1.0  0.69176  0.09987  0.64906  1.0000
  H   H2578     1.0  0.57306  0.03697  0.39311  1.0000
  Fe  Fe170     1.0  0.73738  0.08375  0.61967  1.0000
  S   S344      1.0  0.72645  0.11563  0.61449  1.0000
  S   S345      1.0  0.71784  0.06529  0.61195  1.0000
  Fe  Fe171     1.0  0.75778  0.11887  0.61001  1.0000
  S   S346      1.0  0.76951  0.14268  0.58789  1.0000
  S   S347      1.0  0.76930  0.08683  0.61336  1.0000
  H   H2579     1.0  0.79456  0.11648  0.40258  1.0000
  H   H2580     1.0  0.59531  0.05871  0.32525  1.0000
  H   H2581     1.0  0.66073  0.20609  0.62992  1.0000
  S   S348      1.0  0.52442  0.08888  0.60787  1.0000
  C   C1448     1.0  0.74230  0.19691  0.61432  1.0000
  C   C1449     1.0  0.73275  0.18093  0.61803  1.0000
  C   C1450     1.0  0.74122  0.16446  0.60980  1.0000
  C   C1451     1.0  0.75912  0.16394  0.59743  1.0000
  C   C1452     1.0  0.76864  0.18008  0.59336  1.0000
  C   C1453     1.0  0.76033  0.19654  0.60205  1.0000
  H   H2582     1.0  0.64042  0.14478  0.33194  1.0000
  H   H2583     1.0  0.73373  0.15222  0.61305  1.0000
  H   H2584     1.0  0.78257  0.17968  0.58389  1.0000
  H   H2585     1.0  0.76772  0.20895  0.59913  1.0000
  H   H2586     1.0  0.72073  0.99050  0.54001  1.0000
  H   H2587     1.0  0.58358  0.10033  0.38822  1.0000
  H   H2588     1.0  0.66992  0.11551  0.35021  1.0000
  H   H2589     1.0  0.67770  0.11543  0.38248  1.0000
  H   H2590     1.0  0.60121  0.08682  0.40317  1.0000
  H   H2591     1.0  0.71867  0.04229  0.45171  1.0000
  H   H2592     1.0  0.61975  0.14955  0.42092  1.0000
  C   C1454     1.0  0.67414  0.11633  0.62852  1.0000
  H   H2593     1.0  0.54206  0.01759  0.56809  1.0000
  C   C1455     1.0  0.74239  0.21728  0.36011  1.0000
  H   H2594     1.0  0.70686  0.09581  0.40405  1.0000
  H   H2595     1.0  0.72000  0.15014  0.49560  1.0000
  H   H2596     1.0  0.79665  0.13067  0.34145  1.0000
  H   H2597     1.0  0.81717  0.16363  0.38914  1.0000
  H   H2598     1.0  0.69114  0.02218  0.55837  1.0000
  C   C1456     1.0  0.75195  0.20153  0.35102  1.0000
  C   C1457     1.0  0.58202  0.05655  0.57957  1.0000
  C   C1458     1.0  0.57255  0.04845  0.59776  1.0000
  C   C1459     1.0  0.55508  0.05838  0.60677  1.0000
  C   C1460     1.0  0.54684  0.07641  0.59754  1.0000
  C   C1461     1.0  0.55628  0.08450  0.57932  1.0000
  C   C1462     1.0  0.57388  0.07467  0.57039  1.0000
  H   H2599     1.0  0.57873  0.03438  0.60488  1.0000
  H   H2600     1.0  0.54789  0.05198  0.62074  1.0000
  H   H2601     1.0  0.54993  0.09843  0.57204  1.0000
  H   H2602     1.0  0.58101  0.08100  0.55632  1.0000
  C   C1463     1.0  0.69984  0.06394  0.55331  1.0000
  C   C1464     1.0  0.71897  0.06578  0.55408  1.0000
  C   C1465     1.0  0.72454  0.06673  0.57180  1.0000
  C   C1466     1.0  0.71096  0.06616  0.58898  1.0000
  C   C1467     1.0  0.69179  0.06437  0.58817  1.0000
  C   C1468     1.0  0.68624  0.06327  0.57048  1.0000
  H   H2603     1.0  0.72969  0.06601  0.54096  1.0000
  H   H2604     1.0  0.73953  0.06716  0.57229  1.0000
  H   H2605     1.0  0.68111  0.06378  0.60125  1.0000
  H   H2606     1.0  0.67150  0.06174  0.57013  1.0000
  C   C1469     1.0  0.64142  0.12494  0.47251  1.0000
  C   C1470     1.0  0.66034  0.11927  0.47659  1.0000
  C   C1471     1.0  0.67524  0.12931  0.46592  1.0000
  C   C1472     1.0  0.67141  0.14476  0.45082  1.0000
  C   C1473     1.0  0.65242  0.15073  0.44708  1.0000
  C   C1474     1.0  0.63744  0.14094  0.45801  1.0000
  H   H2607     1.0  0.66347  0.10725  0.48805  1.0000
  H   H2608     1.0  0.68983  0.12486  0.46915  1.0000
  H   H2609     1.0  0.64922  0.16295  0.43583  1.0000
  H   H2610     1.0  0.62275  0.14565  0.45514  1.0000
  C   C1475     1.0  0.71070  0.13904  0.50275  1.0000
  C   C1476     1.0  0.60730  0.08155  0.37318  1.0000
  H   H2611     1.0  0.67812  0.01360  0.63249  1.0000
  N   N79       1.0  0.60505  0.04764  0.36571  1.0000
  H   H2612     1.0  0.64225  0.01504  0.40465  1.0000
  H   H2613     1.0  0.53966  0.02109  0.60798  1.0000
  C   C1477     1.0  0.54100  0.12767  0.63262  1.0000
  H   H2614     1.0  0.49974  0.04082  0.55319  1.0000
  H   H2615     1.0  0.81385  0.17005  0.42145  1.0000
  C   C1478     1.0  0.66126  0.16206  0.33426  1.0000
  H   H2616     1.0  0.52276  0.99483  0.62986  1.0000
  H   H2617     1.0  0.53348  0.11940  0.62557  1.0000
  C   C1479     1.0  0.67850  0.16892  0.32545  1.0000
  H   H2618     1.0  0.68684  0.99055  0.47792  1.0000
  C   C1480     1.0  0.84800  0.15183  0.32197  1.0000
  H   H2619     1.0  0.68444  0.17803  0.33231  1.0000
  C   C1481     1.0  0.84639  0.11895  0.31729  1.0000
  C   C1482     1.0  0.60639  0.01579  0.45111  1.0000
  C   C1483     1.0  0.63559  0.01174  0.46560  1.0000
  H   H2620     1.0  0.62336  0.08807  0.31924  1.0000
  C   C1484     1.0  0.59618  0.06406  0.37692  1.0000
  C   C1485     1.0  0.61495  0.00128  0.43974  1.0000
  C   C1486     1.0  0.61657  0.02093  0.46402  1.0000
  H   H2621     1.0  0.69001  0.02287  0.52256  1.0000
  H   H2622     1.0  0.84432  0.21779  0.61162  1.0000
  C   C1487     1.0  0.64520  0.00309  0.32478  1.0000
  C   C1488     1.0  0.65361  0.00802  0.33889  1.0000
  C   C1489     1.0  0.66150  0.02521  0.33510  1.0000
  H   H2623     1.0  0.54907  0.03502  0.37260  1.0000
  H   H2624     1.0  0.77951  0.18731  0.33782  1.0000
  C   C1490     1.0  0.49605  0.00574  0.54560  1.0000
  H   H2625     1.0  0.65400  0.99858  0.35272  1.0000
  H   H2626     1.0  0.66793  0.02900  0.34610  1.0000
  S   S349      1.0  0.60158  0.99572  0.42331  1.0000
  C   C1491     1.0  0.85717  0.20607  0.61175  1.0000
  H   H2627     1.0  0.55933  0.05815  0.64986  1.0000
  H   H2628     1.0  0.79819  0.12028  0.42551  1.0000
  H   H2629     1.0  0.88559  0.22937  0.53036  1.0000
  H   H2630     1.0  0.78222  0.12990  0.37583  1.0000
  Fe  Fe172     1.0  0.72725  0.11483  0.64591  1.0000
  C   C1492     1.0  0.70349  0.01788  0.48549  1.0000
  H   H2631     1.0  0.76103  0.21516  0.40441  1.0000
  H   H2632     1.0  0.78059  0.09307  0.42941  1.0000
  H   H2633     1.0  0.69354  0.05182  0.46018  1.0000
  C   C1493     1.0  0.71648  0.13399  0.34406  1.0000
  H   H2634     1.0  0.81604  0.13885  0.39664  1.0000
  H   H2635     1.0  0.85441  0.19405  0.60537  1.0000
  H   H2636     1.0  0.69796  0.15497  0.53477  1.0000
  H   H2637     1.0  0.65755  0.09702  0.34676  1.0000
  H   H2638     1.0  0.65883  0.98999  0.45528  1.0000
  H   H2639     1.0  0.65280  0.11798  0.57408  1.0000
  C   C1494     1.0  0.75312  0.22984  0.36461  1.0000
  C   C1495     1.0  0.50671  0.05487  0.58156  1.0000
  H   H2640     1.0  0.51953  0.03894  0.61582  1.0000
  H   H2641     1.0  0.73661  0.20997  0.41127  1.0000
  H   H2642     1.0  0.67299  0.10326  0.56161  1.0000
  C   C1496     1.0  0.70657  0.00035  0.54078  1.0000
  H   H2643     1.0  0.72138  0.19970  0.57034  1.0000
  H   H2644     1.0  0.50206  0.99205  0.53977  1.0000
  C   C1497     1.0  0.67698  0.03829  0.64648  1.0000
  H   H2645     1.0  0.67177  0.10429  0.58711  1.0000
  H   H2646     1.0  0.58160  0.05145  0.63382  1.0000
  H   H2647     1.0  0.75341  0.20176  0.42825  1.0000
  H   H2648     1.0  0.69730  0.19636  0.56873  1.0000
  C   C1498     1.0  0.84583  0.11288  0.33732  1.0000
  H   H2649     1.0  0.76290  0.14326  0.40706  1.0000
  H   H2650     1.0  0.62302  0.07704  0.37335  1.0000
  H   H2651     1.0  0.71340  0.12756  0.49357  1.0000
  H   H2652     1.0  0.73652  0.10102  0.57334  1.0000
  H   H2653     1.0  0.68841  0.22149  0.63333  1.0000
  C   C1499     1.0  0.56450  0.09702  0.64250  1.0000
  C   C1500     1.0  0.64416  0.99725  0.45422  1.0000
  H   H2654     1.0  0.75509  0.18817  0.38956  1.0000
  H   H2655     1.0  0.77173  0.11193  0.54315  1.0000
  H   H2656     1.0  0.73822  0.13357  0.57336  1.0000
  H   H2657     1.0  0.67657  0.99945  0.51204  1.0000
  H   H2658     1.0  0.76979  0.10873  0.56931  1.0000
  H   H2659     1.0  0.58639  0.07984  0.61503  1.0000
  C   C1501     1.0  0.81491  0.15462  0.42006  1.0000
  H   H2660     1.0  0.73504  0.16677  0.56579  1.0000
  H   H2661     1.0  0.91833  0.22633  0.36892  1.0000
  H   H2662     1.0  0.77175  0.14729  0.42726  1.0000
  C   C1502     1.0  0.74265  0.10923  0.55923  1.0000
  H   H2663     1.0  0.78232  0.17761  0.41985  1.0000
  H   H2664     1.0  0.62290  0.04165  0.33864  1.0000
  H   H2665     1.0  0.61430  0.05663  0.62764  1.0000
  H   H2666     1.0  0.72158  0.17818  0.54651  1.0000
  H   H2667     1.0  0.60575  0.09043  0.35871  1.0000
  C   C1503     1.0  0.73598  0.12786  0.33167  1.0000
  C   C1504     1.0  0.71130  0.18898  0.57334  1.0000
  H   H2668     1.0  0.60973  0.03210  0.47263  1.0000
  C   C1505     1.0  0.72022  0.17219  0.56225  1.0000
  H   H2669     1.0  0.85680  0.22943  0.51632  1.0000
  H   H2670     1.0  0.70461  0.12882  0.33947  1.0000
  H   H2671     1.0  0.52826  0.01202  0.64253  1.0000
  Fe  Fe173     1.0  0.71000  0.18645  0.36810  1.0000
  C   C1506     1.0  0.79211  0.14445  0.34736  1.0000
  H   H2672     1.0  0.73075  0.12294  0.52112  1.0000
  H   H2673     1.0  0.59407  0.05836  0.39285  1.0000
  H   H2674     1.0  0.55175  0.01396  0.39128  1.0000
  H   H2675     1.0  0.58645  0.01394  0.38770  1.0000
  H   H2676     1.0  0.66246  0.02763  0.39418  1.0000
  H   H2677     1.0  0.66125  0.21015  0.32292  1.0000
  H   H2678     1.0  0.69469  0.99159  0.54565  1.0000
  C   C1507     1.0  0.78023  0.17753  0.40479  1.0000
  H   H2679     1.0  0.64301  0.22773  0.35805  1.0000
  C   C1508     1.0  0.70446  0.01349  0.52085  1.0000
  H   H2680     1.0  0.65572  0.01168  0.38091  1.0000
  S   S350      1.0  0.85928  0.21936  0.42028  1.0000
  H   H2681     1.0  0.83115  0.20251  0.64515  1.0000
  H   H2682     1.0  0.83772  0.12923  0.42099  1.0000
  H   H2683     1.0  0.70073  0.04632  0.49404  1.0000
  H   H2684     1.0  0.71328  0.15004  0.34264  1.0000
  H   H2685     1.0  0.69518  0.14584  0.50360  1.0000
  S   S351      1.0  0.73092  0.21717  0.62496  1.0000
  S   S352      1.0  0.73929  0.18342  0.34903  1.0000
  H   H2686     1.0  0.87538  0.22459  0.45276  1.0000
  H   H2687     1.0  0.57824  0.04835  0.35532  1.0000
  H   H2688     1.0  0.83999  0.17929  0.63877  1.0000
  H   H2689     1.0  0.84645  0.12056  0.36487  1.0000
  H   H2690     1.0  0.70584  0.11901  0.52910  1.0000
  H   H2691     1.0  0.79372  0.17048  0.36891  1.0000
  H   H2692     1.0  0.80732  0.13349  0.37124  1.0000
  C   C1509     1.0  0.63630  0.03946  0.38162  1.0000
  S   S353      1.0  0.70321  0.19912  0.39559  1.0000
  C   C1510     1.0  0.63392  0.99198  0.44146  1.0000
  H   H2693     1.0  0.62781  0.06185  0.34641  1.0000
  C   C1511     1.0  0.77269  0.10813  0.42654  1.0000
  H   H2694     1.0  0.50556  0.06457  0.56735  1.0000
  Fe  Fe174     1.0  0.50875  0.07932  0.63837  1.0000
  N   N80       1.0  0.71431  0.13877  0.55720  1.0000
  H   H2695     1.0  0.70876  0.18370  0.58927  1.0000
  H   H2696     1.0  0.72304  0.15560  0.52899  1.0000
  H   H2697     1.0  0.68075  0.04729  0.63221  1.0000
  H   H2698     1.0  0.76942  0.08851  0.55784  1.0000
  H   H2699     1.0  0.60062  0.22304  0.37443  1.0000
  H   H2700     1.0  0.61094  0.02663  0.39129  1.0000
  H   H2701     1.0  0.70612  0.11033  0.55994  1.0000
  H   H2702     1.0  0.70695  0.00280  0.57068  1.0000
  C   C1512     1.0  0.59552  0.08516  0.62326  1.0000
  C   C1513     1.0  0.67894  0.10893  0.41954  1.0000
  C   C1514     1.0  0.67630  0.10197  0.64732  1.0000
  C   C1515     1.0  0.78705  0.12174  0.41616  1.0000
  N   N81       1.0  0.51433  0.03425  0.57841  1.0000
  C   C1516     1.0  0.51288  0.02026  0.59739  1.0000
  C   C1517     1.0  0.57520  0.05305  0.64901  1.0000
  C   C1518     1.0  0.53537  0.03294  0.56895  1.0000
  H   H2703     1.0  0.77568  0.99195  0.49573  1.0000
  H   H2704     1.0  0.83165  0.22561  0.46158  1.0000
  C   C1519     1.0  0.52372  0.02387  0.61288  1.0000
  C   C1520     1.0  0.53936  0.04553  0.54855  1.0000
  C   C1521     1.0  0.80938  0.15332  0.40036  1.0000
  H   H2705     1.0  0.56420  0.02558  0.53666  1.0000
  H   H2706     1.0  0.72529  0.03633  0.48576  1.0000
  H   H2707     1.0  0.74379  0.00798  0.51007  1.0000
  C   C1522     1.0  0.84763  0.14536  0.34209  1.0000
  H   H2708     1.0  0.49741  0.01986  0.60406  1.0000
  H   H2709     1.0  0.56309  0.01227  0.36654  1.0000
  C   C1523     1.0  0.84370  0.19047  0.64575  1.0000
  C   C1524     1.0  0.73536  0.13117  0.55925  1.0000
  H   H2710     1.0  0.76169  0.10838  0.41734  1.0000
  H   H2711     1.0  0.54392  0.03776  0.57809  1.0000
  H   H2712     1.0  0.51720  0.06057  0.58774  1.0000
  C   C1525     1.0  0.66776  0.02194  0.64293  1.0000
  H   H2713     1.0  0.53032  0.04319  0.53849  1.0000
  H   H2714     1.0  0.72679  0.21949  0.36416  1.0000
  C   C1526     1.0  0.72615  0.99031  0.50054  1.0000
  H   H2715     1.0  0.86429  0.21121  0.63793  1.0000
  H   H2716     1.0  0.53632  0.06114  0.54986  1.0000
  C   C1527     1.0  0.84660  0.12582  0.34949  1.0000
  H   H2717     1.0  0.74722  0.13327  0.33701  1.0000
  C   C1528     1.0  0.61643  0.22022  0.37493  1.0000
  H   H2718     1.0  0.59173  0.02307  0.44998  1.0000
  H   H2719     1.0  0.68769  0.02174  0.48470  1.0000
  H   H2720     1.0  0.51199  0.99726  0.56930  1.0000
  H   H2721     1.0  0.66847  0.18552  0.64783  1.0000
  H   H2722     1.0  0.71498  0.02367  0.51839  1.0000
  Fe  Fe175     1.0  0.76677  0.08928  0.64520  1.0000
  C   C1529     1.0  0.57749  0.02756  0.38178  1.0000
  H   H2723     1.0  0.80632  0.23192  0.45954  1.0000
  N   N82       1.0  0.78798  0.15772  0.39920  1.0000
  H   H2724     1.0  0.64488  0.04683  0.36851  1.0000
  H   H2725     1.0  0.84599  0.15175  0.40899  1.0000
  H   H2726     1.0  0.71893  0.18109  0.62765  1.0000
  H   H2727     1.0  0.78849  0.18859  0.39514  1.0000
  H   H2728     1.0  0.60712  0.10736  0.38512  1.0000
  C   C1530     1.0  0.62555  0.07274  0.60037  1.0000
  C   C1531     1.0  0.75829  0.18515  0.40454  1.0000
  H   H2729     1.0  0.59778  0.09969  0.61485  1.0000
  C   C1532     1.0  0.77657  0.14309  0.41255  1.0000
  H   H2730     1.0  0.80248  0.15442  0.33983  1.0000
  H   H2731     1.0  0.84503  0.09785  0.34351  1.0000
  H   H2732     1.0  0.58129  0.07032  0.37378  1.0000
  H   H2733     1.0  0.82926  0.23098  0.50241  1.0000
  H   H2734     1.0  0.63969  0.06279  0.59949  1.0000
  H   H2735     1.0  0.62826  0.08765  0.59376  1.0000
  H   H2736     1.0  0.65433  0.02792  0.63658  1.0000
  Fe  Fe176     1.0  0.85910  0.23140  0.34727  1.0000
  H   H2737     1.0  0.64053  0.11666  0.42944  1.0000
  C   C1533     1.0  0.62591  0.14963  0.40530  1.0000
  H   H2738     1.0  0.67293  0.11057  0.43494  1.0000
  H   H2739     1.0  0.71701  0.12771  0.35958  1.0000
  H   H2740     1.0  0.68341  0.11029  0.61591  1.0000
  C   C1534     1.0  0.67955  0.13006  0.56700  1.0000
  H   H2741     1.0  0.74913  0.17460  0.41341  1.0000
  C   C1535     1.0  0.78569  0.15910  0.37826  1.0000
  H   H2742     1.0  0.73829  0.10395  0.54740  1.0000
  H   H2743     1.0  0.55738  0.08929  0.63440  1.0000
  C   C1536     1.0  0.83588  0.14499  0.42134  1.0000
  C   C1537     1.0  0.79235  0.14034  0.36925  1.0000
  H   H2744     1.0  0.65620  0.08540  0.64131  1.0000
  C   C1538     1.0  0.70866  0.04968  0.46308  1.0000
  H   H2745     1.0  0.69258  0.16292  0.56560  1.0000
  H   H2746     1.0  0.74521  0.13950  0.54794  1.0000
  Fe  Fe177     1.0  0.67632  0.21499  0.38388  1.0000
  H   H2747     1.0  0.73898  0.11179  0.33423  1.0000
  C   C1539     1.0  0.71537  0.13008  0.52304  1.0000
  C   C1540     1.0  0.86127  0.19879  0.63249  1.0000
  C   C1541     1.0  0.59927  0.09478  0.38840  1.0000
  H   H2748     1.0  0.76521  0.11247  0.44066  1.0000
  C   C1542     1.0  0.61871  0.03260  0.37686  1.0000
  H   H2749     1.0  0.77729  0.15096  0.34428  1.0000
  N   N83       1.0  0.66430  0.10211  0.41078  1.0000
  C   C1543     1.0  0.51930  0.01019  0.63210  1.0000
  H   H2750     1.0  0.67631  0.13754  0.55250  1.0000
  C   C1544     1.0  0.77209  0.19923  0.34519  1.0000
  C   C1545     1.0  0.66152  0.08205  0.42174  1.0000
  C   C1546     1.0  0.67236  0.10160  0.38954  1.0000
  C   C1547     1.0  0.65863  0.09743  0.37704  1.0000
  C   C1548     1.0  0.64147  0.07589  0.42317  1.0000
  C   C1549     1.0  0.64183  0.05450  0.43195  1.0000
  C   C1550     1.0  0.66753  0.10027  0.35545  1.0000
  H   H2751     1.0  0.63368  0.11140  0.40874  1.0000
  H   H2752     1.0  0.67289  0.07082  0.41548  1.0000
  H   H2753     1.0  0.66349  0.08058  0.43720  1.0000
  H   H2754     1.0  0.68542  0.09021  0.38799  1.0000
  H   H2755     1.0  0.64445  0.10719  0.37848  1.0000
  H   H2756     1.0  0.65633  0.08212  0.38123  1.0000
  H   H2757     1.0  0.63023  0.08436  0.43286  1.0000
  H   H2758     1.0  0.63681  0.07827  0.40885  1.0000
  H   H2759     1.0  0.64492  0.05179  0.44707  1.0000
  H   H2760     1.0  0.62744  0.05046  0.43237  1.0000
  H   H2761     1.0  0.65298  0.04513  0.42315  1.0000
  C   C1551     1.0  0.60303  0.06769  0.33129  1.0000
  H   H2762     1.0  0.68159  0.09040  0.35289  1.0000
  C   C1552     1.0  0.70172  0.12357  0.56675  1.0000
  C   C1553     1.0  0.71236  0.14580  0.53607  1.0000
  C   C1554     1.0  0.66095  0.03765  0.31720  1.0000
  H   H2763     1.0  0.77024  0.16370  0.37643  1.0000
  H   H2764     1.0  0.67354  0.14003  0.57770  1.0000
  H   H2765     1.0  0.59513  0.02654  0.35340  1.0000
  H   H2766     1.0  0.68411  0.19121  0.62499  1.0000
  H   H2767     1.0  0.69783  0.08060  0.42611  1.0000
  H   H2768     1.0  0.71022  0.01142  0.47221  1.0000
  H   H2769     1.0  0.61599  0.14414  0.39822  1.0000
  H   H2770     1.0  0.62413  0.02002  0.36902  1.0000
  H   H2771     1.0  0.86841  0.15663  0.63979  1.0000
  C   C1555     1.0  0.64611  0.13731  0.40294  1.0000
  C   C1556     1.0  0.69913  0.09576  0.41922  1.0000
  C   C1557     1.0  0.61576  0.05439  0.34570  1.0000
  C   C1558     1.0  0.61571  0.07198  0.62161  1.0000
  C   C1559     1.0  0.75202  0.20416  0.41264  1.0000
  S   S354      1.0  0.68456  0.20425  0.35557  1.0000
  H   H2772     1.0  0.65129  0.13757  0.38720  1.0000
  H   H2773     1.0  0.83976  0.14691  0.43514  1.0000
  H   H2774     1.0  0.68119  0.07652  0.63444  1.0000
  C   C1560     1.0  0.70752  0.15586  0.56789  1.0000
  H   H2775     1.0  0.80518  0.14777  0.43259  1.0000
  H   H2776     1.0  0.49395  0.01768  0.53314  1.0000
  H   H2777     1.0  0.63119  0.04942  0.39241  1.0000
  H   H2778     1.0  0.68188  0.12352  0.41192  1.0000
  H   H2779     1.0  0.65579  0.14439  0.40867  1.0000
  H   H2780     1.0  0.70392  0.11845  0.58214  1.0000
  H   H2781     1.0  0.79843  0.20922  0.34610  1.0000
  H   H2782     1.0  0.53355  0.12813  0.64784  1.0000
  H   H2783     1.0  0.62690  0.16486  0.39828  1.0000
  C   C1561     1.0  0.64998  0.02238  0.39088  1.0000
  C   C1562     1.0  0.66868  0.11278  0.57287  1.0000
  H   H2784     1.0  0.71264  0.06414  0.46230  1.0000
  C   C1563     1.0  0.56059  0.04087  0.53913  1.0000
  H   H2785     1.0  0.70668  0.15081  0.58389  1.0000
  H   H2786     1.0  0.60940  0.22310  0.33825  1.0000
  H   H2787     1.0  0.52423  0.01059  0.54771  1.0000
  H   H2788     1.0  0.50374  0.01348  0.63864  1.0000
  C   C1564     1.0  0.55923  0.02192  0.37770  1.0000
  H   H2789     1.0  0.71392  0.11819  0.42372  1.0000
  N   N84       1.0  0.58509  0.08701  0.64366  1.0000
  H   H2790     1.0  0.63070  0.20626  0.34122  1.0000
  H   H2791     1.0  0.59191  0.07836  0.33852  1.0000
  H   H2792     1.0  0.72646  0.09373  0.42927  1.0000
  H   H2793     1.0  0.59868  0.11207  0.64230  1.0000
  C   C1565     1.0  0.78284  0.21164  0.34991  1.0000
  S   S355      1.0  0.78141  0.22526  0.63644  1.0000
  C   C1566     1.0  0.76475  0.10438  0.55723  1.0000
  H   H2794     1.0  0.70537  0.10243  0.44574  1.0000
  H   H2795     1.0  0.62164  0.20432  0.37708  1.0000
  H   H2796     1.0  0.86987  0.21200  0.60250  1.0000
  C   C1567     1.0  0.68265  0.21058  0.64540  1.0000
  C   C1568     1.0  0.62519  0.22205  0.33829  1.0000
  H   H2797     1.0  0.81347  0.21706  0.48144  1.0000
  H   H2798     1.0  0.56326  0.05051  0.52488  1.0000
  H   H2799     1.0  0.87461  0.18777  0.63176  1.0000
  C   C1569     1.0  0.67052  0.08231  0.64636  1.0000
  H   H2800     1.0  0.65877  0.11967  0.62625  1.0000
  N   N85       1.0  0.70672  0.00326  0.50367  1.0000
  C   C1570     1.0  0.50215  0.02897  0.56570  1.0000
  H   H2801     1.0  0.51892  0.00523  0.59483  1.0000
  Fe  Fe178     1.0  0.81815  0.22868  0.36671  1.0000
  H   H2802     1.0  0.57040  0.04322  0.54848  1.0000
  C   C1571     1.0  0.51006  0.00982  0.55746  1.0000
  H   H2803     1.0  0.69802  0.99986  0.32624  1.0000
  C   C1572     1.0  0.77340  0.22680  0.35990  1.0000
  H   H2804     1.0  0.56930  0.11956  0.61675  1.0000
  H   H2805     1.0  0.67888  0.13003  0.62943  1.0000
  H   H2806     1.0  0.74602  0.00983  0.48396  1.0000
  C   C1573     1.0  0.74438  0.99991  0.49811  1.0000
  H   H2807     1.0  0.61884  0.22593  0.38756  1.0000
  C   C1574     1.0  0.62758  0.23023  0.35623  1.0000
  N   N86       1.0  0.63527  0.23101  0.31879  1.0000
  H   H2808     1.0  0.66102  0.23269  0.32955  1.0000
  C   C1575     1.0  0.65687  0.22603  0.31851  1.0000
  C   C1576     1.0  0.67332  0.19758  0.63654  1.0000
  C   C1577     1.0  0.69109  0.99064  0.50796  1.0000
  H   H2809     1.0  0.56884  0.12749  0.63940  1.0000
  C   C1578     1.0  0.56229  0.11852  0.63223  1.0000
  H   H2810     1.0  0.53996  0.14275  0.62456  1.0000
  H   H2811     1.0  0.89535  0.23489  0.36069  1.0000
  Fe  Fe179     1.0  0.83648  0.10776  0.77095  1.0000
  S   S356      1.0  0.86003  0.09557  0.74854  1.0000
  S   S357      1.0  0.81531  0.09089  0.79168  1.0000
  Fe  Fe180     1.0  0.84479  0.14868  0.75782  1.0000
  S   S358      1.0  0.86857  0.14011  0.73376  1.0000
  S   S359      1.0  0.83390  0.17785  0.76694  1.0000
  Fe  Fe181     1.0  0.84826  0.12171  0.72804  1.0000
  S   S360      1.0  0.83964  0.12403  0.69812  1.0000
  Fe  Fe182     1.0  0.87794  0.11492  0.75670  1.0000
  S   S361      1.0  0.90942  0.10599  0.76212  1.0000
  S   S362      1.0  0.82393  0.13273  0.75027  1.0000
  S   S363      1.0  0.85503  0.12470  0.78075  1.0000
  H   H2812     1.0  0.61220  0.11151  0.67867  1.0000
  Fe  Fe183     1.0  0.97179  0.11641  0.84608  1.0000
  S   S364      1.0  0.97200  0.09517  0.87415  1.0000
  S   S365      1.0  0.94349  0.12248  0.83324  1.0000
  Fe  Fe184     1.0  0.97888  0.11922  0.88629  1.0000
  S   S366      1.0  0.96666  0.12319  0.91772  1.0000
  S   S367      1.0  0.97783  0.14104  0.85872  1.0000
  Fe  Fe185     1.0  0.70757  0.14355  0.89691  1.0000
  S   S368      1.0  0.70991  0.11222  0.91072  1.0000
  S   S369      1.0  0.68783  0.16794  0.90981  1.0000
  Fe  Fe186     1.0  0.73723  0.13566  0.86182  1.0000
  S   S370      1.0  0.74239  0.10373  0.87283  1.0000
  S   S371      1.0  0.75235  0.15073  0.83385  1.0000
  Fe  Fe187     1.0  0.70979  0.10720  0.88031  1.0000
  S   S372      1.0  0.69420  0.08545  0.87273  1.0000
  Fe  Fe188     1.0  0.74219  0.11200  0.90184  1.0000
  S   S373      1.0  0.76620  0.09659  0.91915  1.0000
  S   S374      1.0  0.70488  0.13859  0.86744  1.0000
  S   S375      1.0  0.73967  0.14369  0.88999  1.0000
  C   C1579     1.0  0.84777  0.09653  0.83342  1.0000
  S   S376      1.0  0.87726  0.13510  0.95644  1.0000
  H   H2813     1.0  0.80787  0.12621  0.88469  1.0000
  H   H2814     1.0  0.74376  0.19818  0.76482  1.0000
  H   H2815     1.0  0.58991  0.12654  0.84305  1.0000
  C   C1580     1.0  0.72548  0.19039  0.85531  1.0000
  Fe  Fe189     1.0  0.62217  0.10433  0.79437  1.0000
  S   S377      1.0  0.64565  0.11679  0.77268  1.0000
  S   S378      1.0  0.62300  0.09751  0.82685  1.0000
  Fe  Fe190     1.0  0.59758  0.10376  0.76283  1.0000
  S   S379      1.0  0.61942  0.11633  0.73891  1.0000
  S   S380      1.0  0.56768  0.10066  0.75757  1.0000
  Fe  Fe191     1.0  0.64171  0.09589  0.75474  1.0000
  S   S381      1.0  0.66918  0.07953  0.74044  1.0000
  Fe  Fe192     1.0  0.62146  0.13617  0.75904  1.0000
  S   S382      1.0  0.62085  0.16800  0.74784  1.0000
  S   S383      1.0  0.61985  0.08155  0.77739  1.0000
  S   S384      1.0  0.59790  0.12541  0.78202  1.0000
  Fe  Fe193     1.0  0.51481  0.06735  0.68075  1.0000
  C   C1581     1.0  0.71011  0.19940  0.98202  1.0000
  S   S385      1.0  0.54136  0.06024  0.69631  1.0000
  H   H2816     1.0  0.83319  0.07191  0.84519  1.0000
  N   N87       1.0  0.77208  0.20610  0.78378  1.0000
  H   H2817     1.0  0.97836  0.05055  0.94527  1.0000
  C   C1582     1.0  0.56127  0.09051  0.73915  1.0000
  C   C1583     1.0  0.54238  0.09611  0.73457  1.0000
  C   C1584     1.0  0.53622  0.08750  0.72105  1.0000
  C   C1585     1.0  0.54873  0.07278  0.71229  1.0000
  C   C1586     1.0  0.56766  0.06725  0.71680  1.0000
  C   C1587     1.0  0.57398  0.07620  0.72994  1.0000
  H   H2818     1.0  0.53236  0.10706  0.74166  1.0000
  H   H2819     1.0  0.52160  0.09187  0.71784  1.0000
  H   H2820     1.0  0.57741  0.05575  0.71031  1.0000
  H   H2821     1.0  0.58839  0.07149  0.73354  1.0000
  C   C1588     1.0  0.63806  0.17881  0.75462  1.0000
  C   C1589     1.0  0.64004  0.19784  0.74595  1.0000
  C   C1590     1.0  0.65357  0.20703  0.75096  1.0000
  C   C1591     1.0  0.66492  0.19737  0.76499  1.0000
  C   C1592     1.0  0.66321  0.17819  0.77351  1.0000
  C   C1593     1.0  0.64965  0.16897  0.76845  1.0000
  H   H2822     1.0  0.63106  0.20543  0.73531  1.0000
  H   H2823     1.0  0.96958  0.07491  0.94993  1.0000
  H   H2824     1.0  0.67200  0.17064  0.78435  1.0000
  H   H2825     1.0  0.64794  0.15446  0.77554  1.0000
  C   C1594     1.0  0.69510  0.11835  0.68675  1.0000
  C   C1595     1.0  0.67804  0.12564  0.69832  1.0000
  C   C1596     1.0  0.67052  0.11409  0.71544  1.0000
  C   C1597     1.0  0.67979  0.09510  0.72073  1.0000
  C   C1598     1.0  0.69737  0.08825  0.70975  1.0000
  C   C1599     1.0  0.70515  0.09999  0.69295  1.0000
  H   H2826     1.0  0.67044  0.14007  0.69391  1.0000
  H   H2827     1.0  0.65745  0.11988  0.72434  1.0000
  H   H2828     1.0  0.70491  0.07382  0.71419  1.0000
  H   H2829     1.0  0.71886  0.09476  0.68483  1.0000
  C   C1600     1.0  0.64444  0.09467  0.83712  1.0000
  C   C1601     1.0  0.65060  0.07671  0.84807  1.0000
  C   C1602     1.0  0.66584  0.07432  0.85865  1.0000
  C   C1603     1.0  0.67492  0.08996  0.85900  1.0000
  C   C1604     1.0  0.66884  0.10809  0.84810  1.0000
  C   C1605     1.0  0.65372  0.11041  0.83707  1.0000
  H   H2830     1.0  0.64331  0.06459  0.84866  1.0000
  H   H2831     1.0  0.67032  0.06028  0.86701  1.0000
  H   H2832     1.0  0.67566  0.12029  0.84831  1.0000
  H   H2833     1.0  0.64874  0.12451  0.82913  1.0000
  C   C1606     1.0  0.77332  0.10615  0.93742  1.0000
  C   C1607     1.0  0.76427  0.12407  0.94264  1.0000
  C   C1608     1.0  0.76948  0.13049  0.95815  1.0000
  C   C1609     1.0  0.78426  0.11944  0.96814  1.0000
  H   H2834     1.0  0.75291  0.13274  0.93508  1.0000
  H   H2835     1.0  0.76190  0.14402  0.96254  1.0000
  H   H2836     1.0  0.54936  0.11446  0.85396  1.0000
  C   C1610     1.0  0.73071  0.18357  0.92994  1.0000
  C   C1611     1.0  0.71875  0.17249  0.92502  1.0000
  C   C1612     1.0  0.70190  0.18160  0.91752  1.0000
  H   H2837     1.0  0.52198  0.05854  0.86611  1.0000
  H   H2838     1.0  0.84403  0.11152  0.82557  1.0000
  H   H2839     1.0  0.74375  0.17647  0.93570  1.0000
  H   H2840     1.0  0.72251  0.15689  0.92711  1.0000
  C   C1613     1.0  0.79249  0.17519  0.68807  1.0000
  H   H2841     1.0  0.80379  0.20426  0.91916  1.0000
  C   C1614     1.0  0.94171  0.12582  0.92822  1.0000
  C   C1615     1.0  0.93651  0.12179  0.94858  1.0000
  C   C1616     1.0  0.91683  0.12395  0.95749  1.0000
  C   C1617     1.0  0.90219  0.13064  0.94610  1.0000
  C   C1618     1.0  0.90741  0.13470  0.92575  1.0000
  C   C1619     1.0  0.92704  0.13216  0.91683  1.0000
  H   H2842     1.0  0.94777  0.11701  0.95751  1.0000
  H   H2843     1.0  0.79093  0.16632  0.67746  1.0000
  H   H2844     1.0  0.89621  0.14000  0.91681  1.0000
  H   H2845     1.0  0.93086  0.13548  0.90116  1.0000
  C   C1620     1.0  0.82344  0.11142  0.69112  1.0000
  C   C1621     1.0  0.81575  0.11904  0.67386  1.0000
  C   C1622     1.0  0.80394  0.10899  0.66701  1.0000
  H   H2846     1.0  0.65167  0.22197  0.70859  1.0000
  H   H2847     1.0  0.85853  0.20271  0.93564  1.0000
  C   C1623     1.0  0.81885  0.09365  0.70163  1.0000
  S   S386      1.0  0.51044  0.09603  0.66134  1.0000
  H   H2848     1.0  0.96113  0.14821  0.79314  1.0000
  H   H2849     1.0  0.80857  0.15601  0.86017  1.0000
  H   H2850     1.0  0.82476  0.08745  0.71482  1.0000
  C   C1624     1.0  0.79756  0.10757  0.80300  1.0000
  C   C1625     1.0  0.79997  0.12695  0.80047  1.0000
  C   C1626     1.0  0.78593  0.14017  0.80987  1.0000
  C   C1627     1.0  0.76939  0.13412  0.82170  1.0000
  C   C1628     1.0  0.76690  0.11477  0.82420  1.0000
  C   C1629     1.0  0.78116  0.10141  0.81511  1.0000
  H   H2851     1.0  0.81285  0.13175  0.79163  1.0000
  H   H2852     1.0  0.78823  0.15491  0.80844  1.0000
  H   H2853     1.0  0.75401  0.11013  0.83306  1.0000
  H   H2854     1.0  0.77969  0.08630  0.81758  1.0000
  C   C1630     1.0  0.91855  0.10955  0.78260  1.0000
  C   C1631     1.0  0.93846  0.10370  0.78367  1.0000
  C   C1632     1.0  0.94638  0.10709  0.79921  1.0000
  C   C1633     1.0  0.93444  0.11635  0.81395  1.0000
  C   C1634     1.0  0.91449  0.12183  0.81306  1.0000
  C   C1635     1.0  0.90660  0.11852  0.79752  1.0000
  H   H2855     1.0  0.94787  0.09670  0.77227  1.0000
  H   H2856     1.0  0.96175  0.10278  0.79963  1.0000
  H   H2857     1.0  0.90509  0.12900  0.82435  1.0000
  H   H2858     1.0  0.89131  0.12316  0.79697  1.0000
  C   C1636     1.0  0.85082  0.19374  0.76216  1.0000
  C   C1637     1.0  0.86884  0.18972  0.75039  1.0000
  C   C1638     1.0  0.88169  0.20320  0.74595  1.0000
  C   C1639     1.0  0.87681  0.22037  0.75383  1.0000
  C   C1640     1.0  0.85895  0.22419  0.76586  1.0000
  C   C1641     1.0  0.84593  0.21097  0.76991  1.0000
  H   H2859     1.0  0.87264  0.17655  0.74423  1.0000
  C   C1642     1.0  0.82890  0.08796  0.84247  1.0000
  H   H2860     1.0  0.93460  0.03362  0.93656  1.0000
  H   H2861     1.0  0.83215  0.21416  0.77913  1.0000
  C   C1643     1.0  0.77958  0.20689  0.76228  1.0000
  H   H2862     1.0  0.96038  0.16011  0.82445  1.0000
  H   H2863     1.0  0.89766  0.14216  0.65548  1.0000
  H   H2864     1.0  0.63366  0.19624  0.79933  1.0000
  C   C1644     1.0  0.97606  0.06598  0.93839  1.0000
  C   C1645     1.0  0.96542  0.00668  0.92764  1.0000
  H   H2865     1.0  0.65638  0.23056  0.65307  1.0000
  H   H2866     1.0  0.57651  0.08724  0.79694  1.0000
  C   C1646     1.0  0.94815  0.03984  0.93478  1.0000
  C   C1647     1.0  0.69507  0.15237  0.96971  1.0000
  H   H2867     1.0  0.57066  0.11085  0.67286  1.0000
  N   N88       1.0  0.58092  0.23084  0.78852  1.0000
  H   H2868     1.0  0.74518  0.22918  0.72853  1.0000
  H   H2869     1.0  0.90781  0.07417  0.98067  1.0000
  C   C1648     1.0  0.58213  0.06299  0.81965  1.0000
  H   H2870     1.0  0.75034  0.23132  0.77817  1.0000
  H   H2871     1.0  0.96909  0.18167  0.81032  1.0000
  H   H2872     1.0  0.68684  0.03370  0.68777  1.0000
  H   H2873     1.0  0.57841  0.08959  0.84077  1.0000
  C   C1649     1.0  0.80746  0.08332  0.69448  1.0000
  C   C1650     1.0  0.53321  0.06789  0.83549  1.0000
  C   C1651     1.0  0.58781  0.04593  0.80850  1.0000
  H   H2874     1.0  0.68698  0.23085  0.96875  1.0000
  H   H2875     1.0  0.58616  0.20519  0.76122  1.0000
  H   H2876     1.0  0.81015  0.19618  0.73371  1.0000
  H   H2877     1.0  0.75260  0.17562  0.67435  1.0000
  H   H2878     1.0  0.77838  0.21462  0.81984  1.0000
  H   H2879     1.0  0.75105  0.09445  0.97733  1.0000
  C   C1652     1.0  0.76878  0.18740  0.97301  1.0000
  C   C1653     1.0  0.86410  0.16731  0.66778  1.0000
  C   C1654     1.0  0.96273  0.06989  0.92274  1.0000
  H   H2880     1.0  0.53574  0.09443  0.79146  1.0000
  H   H2881     1.0  0.51119  0.12056  0.77917  1.0000
  H   H2882     1.0  0.77707  0.08605  0.77943  1.0000
  H   H2883     1.0  0.52740  0.07134  0.82168  1.0000
  H   H2884     1.0  0.51090  0.05036  0.84916  1.0000
  H   H2885     1.0  0.55651  0.11768  0.79861  1.0000
  C   C1655     1.0  0.54218  0.08474  0.83922  1.0000
  H   H2886     1.0  0.73336  0.07384  0.92863  1.0000
  H   H2887     1.0  0.88561  0.12407  0.65052  1.0000
  H   H2888     1.0  0.79531  0.16543  0.70180  1.0000
  C   C1656     1.0  0.66300  0.05019  0.66117  1.0000
  C   C1657     1.0  0.60569  0.21196  0.81071  1.0000
  H   H2889     1.0  0.71590  0.18161  0.77968  1.0000
  H   H2890     1.0  0.85294  0.08370  0.80702  1.0000
  H   H2891     1.0  0.53006  0.09612  0.84408  1.0000
  H   H2892     1.0  0.68455  0.16024  0.96003  1.0000
  N   N89       1.0  0.66984  0.06766  0.66496  1.0000
  C   C1658     1.0  0.84823  0.18081  0.92453  1.0000
  C   C1659     1.0  0.73991  0.19580  0.78089  1.0000
  H   H2893     1.0  0.72381  0.17631  0.80302  1.0000
  H   H2894     1.0  0.84613  0.19083  0.91077  1.0000
  C   C1660     1.0  0.82872  0.17302  0.67652  1.0000
  C   C1661     1.0  0.57060  0.10143  0.83102  1.0000
  H   H2895     1.0  0.68382  0.20889  0.90940  1.0000
  H   H2896     1.0  0.70058  0.20947  0.67848  1.0000
  C   C1662     1.0  0.78113  0.05815  0.87614  1.0000
  C   C1663     1.0  0.79369  0.10181  0.96251  1.0000
  H   H2897     1.0  0.81962  0.09100  0.83102  1.0000
  C   C1664     1.0  0.82883  0.18066  0.93907  1.0000
  C   C1665     1.0  0.56212  0.11805  0.84299  1.0000
  C   C1666     1.0  0.58599  0.10375  0.67269  1.0000
  C   C1667     1.0  0.59660  0.11763  0.67882  1.0000
  H   H2898     1.0  0.73819  0.16524  0.78287  1.0000
  C   C1668     1.0  0.84846  0.19365  0.69849  1.0000
  C   C1669     1.0  0.96371  0.02855  0.92069  1.0000
  H   H2899     1.0  0.78623  0.12212  0.87742  1.0000
  H   H2900     1.0  0.58210  0.10669  0.81924  1.0000
  H   H2901     1.0  0.63969  0.08361  0.71764  1.0000
  H   H2902     1.0  0.80647  0.12141  0.84284  1.0000
  C   C1670     1.0  0.68997  0.06258  0.67009  1.0000
  C   C1671     1.0  0.67115  0.18828  0.83486  1.0000
  C   C1672     1.0  0.67239  0.16885  0.82836  1.0000
  C   C1673     1.0  0.86082  0.08455  0.81876  1.0000
  H   H2903     1.0  0.80259  0.17461  0.73037  1.0000
  C   C1674     1.0  0.80907  0.18677  0.67975  1.0000
  S   S387      1.0  0.74208  0.21773  0.93089  1.0000
  H   H2904     1.0  0.67163  0.19963  0.82168  1.0000
  H   H2905     1.0  0.65684  0.19117  0.84430  1.0000
  H   H2906     1.0  0.57078  0.13382  0.86218  1.0000
  H   H2907     1.0  0.67210  0.15693  0.84107  1.0000
  H   H2908     1.0  0.65983  0.16926  0.82110  1.0000
  H   H2909     1.0  0.68592  0.16591  0.81782  1.0000
  H   H2910     1.0  0.62975  0.19661  0.82505  1.0000
  C   C1675     1.0  0.75796  0.19200  0.79109  1.0000
  H   H2911     1.0  0.74561  0.06486  0.77304  1.0000
  H   H2912     1.0  0.96959  0.00275  0.94235  1.0000
  H   H2913     1.0  0.65542  0.22150  0.74374  1.0000
  H   H2914     1.0  0.59380  0.05087  0.79304  1.0000
  H   H2915     1.0  0.54932  0.07872  0.85226  1.0000
  C   C1676     1.0  0.78489  0.19990  0.81668  1.0000
  C   C1677     1.0  0.80356  0.19394  0.82541  1.0000
  S   S388      1.0  0.51472  0.05026  0.65709  1.0000
  H   H2916     1.0  0.75219  0.19198  0.80681  1.0000
  H   H2917     1.0  0.76552  0.17691  0.79024  1.0000
  H   H2918     1.0  0.68550  0.05276  0.70156  1.0000
  C   C1678     1.0  0.76193  0.22601  0.78729  1.0000
  H   H2919     1.0  0.86606  0.17800  0.94696  1.0000
  H   H2920     1.0  0.79849  0.11497  0.65354  1.0000
  H   H2921     1.0  0.68924  0.14058  0.74510  1.0000
  H   H2922     1.0  0.63509  0.21805  0.80801  1.0000
  H   H2923     1.0  0.77304  0.18042  0.75511  1.0000
  C   C1679     1.0  0.78589  0.18698  0.75522  1.0000
  H   H2924     1.0  0.51564  0.13631  0.79420  1.0000
  H   H2925     1.0  0.68088  0.23229  0.71191  1.0000
  H   H2926     1.0  0.77489  0.18965  0.82438  1.0000
  H   H2927     1.0  0.81388  0.20419  0.81865  1.0000
  H   H2928     1.0  0.93887  0.23165  0.75233  1.0000
  C   C1680     1.0  0.60190  0.22508  0.79122  1.0000
  C   C1681     1.0  0.94624  0.22012  0.74366  1.0000
  C   C1682     1.0  0.78916  0.19942  0.79448  1.0000
  N   N90       1.0  0.92729  0.17560  0.77886  1.0000
  C   C1683     1.0  0.93582  0.15980  0.76682  1.0000
  C   C1684     1.0  0.93754  0.17287  0.79621  1.0000
  C   C1685     1.0  0.90626  0.17370  0.78644  1.0000
  C   C1686     1.0  0.92793  0.19559  0.76704  1.0000
  C   C1687     1.0  0.94811  0.20025  0.75670  1.0000
  C   C1688     1.0  0.92553  0.15942  0.74960  1.0000
  C   C1689     1.0  0.89481  0.18791  0.80026  1.0000
  C   C1690     1.0  0.95945  0.16397  0.79351  1.0000
  H   H2929     1.0  0.57204  0.03347  0.67687  1.0000
  H   H2930     1.0  0.90318  0.06607  0.94098  1.0000
  C   C1691     1.0  0.93759  0.14533  0.73648  1.0000
  C   C1692     1.0  0.87498  0.18225  0.80948  1.0000
  H   H2931     1.0  0.93569  0.14539  0.77633  1.0000
  H   H2932     1.0  0.95132  0.16027  0.76077  1.0000
  H   H2933     1.0  0.93586  0.18688  0.80153  1.0000
  H   H2934     1.0  0.93066  0.16292  0.80872  1.0000
  H   H2935     1.0  0.90520  0.15868  0.79411  1.0000
  H   H2936     1.0  0.89794  0.17603  0.77430  1.0000
  H   H2937     1.0  0.91831  0.19849  0.75597  1.0000
  H   H2938     1.0  0.92186  0.20687  0.77638  1.0000
  H   H2939     1.0  0.95577  0.18948  0.74733  1.0000
  H   H2940     1.0  0.95707  0.20081  0.76763  1.0000
  H   H2941     1.0  0.91129  0.15444  0.75511  1.0000
  H   H2942     1.0  0.92317  0.17387  0.74042  1.0000
  H   H2943     1.0  0.89222  0.20287  0.79201  1.0000
  H   H2944     1.0  0.90265  0.18804  0.81223  1.0000
  C   C1693     1.0  0.58306  0.19824  0.77667  1.0000
  H   H2945     1.0  0.91303  0.12093  0.97317  1.0000
  H   H2946     1.0  0.72991  0.19308  0.83929  1.0000
  H   H2947     1.0  0.75774  0.18192  0.96740  1.0000
  H   H2948     1.0  0.59706  0.19132  0.78154  1.0000
  H   H2949     1.0  0.61913  0.08507  0.70581  1.0000
  H   H2950     1.0  0.62483  0.06490  0.72462  1.0000
  H   H2951     1.0  0.67864  0.20509  0.69383  1.0000
  H   H2952     1.0  0.74292  0.16745  0.65642  1.0000
  H   H2953     1.0  0.94089  0.13061  0.74504  1.0000
  H   H2954     1.0  0.92928  0.14429  0.72514  1.0000
  H   H2955     1.0  0.87676  0.16784  0.81897  1.0000
  H   H2956     1.0  0.86661  0.19317  0.81844  1.0000
  H   H2957     1.0  0.86657  0.18167  0.79808  1.0000
  N   N91       1.0  0.74685  0.12492  0.71668  1.0000
  C   C1694     1.0  0.75402  0.14084  0.70103  1.0000
  C   C1695     1.0  0.75802  0.12097  0.73352  1.0000
  C   C1696     1.0  0.75087  0.10663  0.70782  1.0000
  C   C1697     1.0  0.72528  0.12935  0.72365  1.0000
  C   C1698     1.0  0.71784  0.14828  0.73216  1.0000
  C   C1699     1.0  0.74235  0.14775  0.68391  1.0000
  C   C1700     1.0  0.75226  0.07009  0.71202  1.0000
  C   C1701     1.0  0.76475  0.13834  0.73897  1.0000
  C   C1702     1.0  0.77184  0.13269  0.75861  1.0000
  C   C1703     1.0  0.69565  0.15274  0.73528  1.0000
  H   H2958     1.0  0.63436  0.05695  0.69084  1.0000
  H   H2959     1.0  0.76955  0.13617  0.69490  1.0000
  H   H2960     1.0  0.75383  0.15412  0.70697  1.0000
  H   H2961     1.0  0.74941  0.11378  0.74685  1.0000
  H   H2962     1.0  0.77171  0.11049  0.73055  1.0000
  H   H2963     1.0  0.76652  0.10355  0.70140  1.0000
  H   H2964     1.0  0.74287  0.10837  0.69553  1.0000
  H   H2965     1.0  0.71716  0.12949  0.71172  1.0000
  H   H2966     1.0  0.72040  0.11762  0.73534  1.0000
  H   H2967     1.0  0.72338  0.16091  0.72246  1.0000
  H   H2968     1.0  0.72231  0.14662  0.74658  1.0000
  H   H2969     1.0  0.74138  0.13564  0.67680  1.0000
  H   H2970     1.0  0.72733  0.15468  0.68908  1.0000
  H   H2971     1.0  0.72330  0.17505  0.85966  1.0000
  H   H2972     1.0  0.75235  0.08524  0.73503  1.0000
  H   H2973     1.0  0.77709  0.14283  0.72780  1.0000
  H   H2974     1.0  0.75309  0.15106  0.73983  1.0000
  H   H2975     1.0  0.78356  0.11984  0.75852  1.0000
  H   H2976     1.0  0.77778  0.14483  0.76167  1.0000
  H   H2977     1.0  0.75973  0.12933  0.77054  1.0000
  H   H2978     1.0  0.69029  0.15533  0.72117  1.0000
  H   H2979     1.0  0.66063  0.21947  0.85036  1.0000
  H   H2980     1.0  0.69060  0.16597  0.74202  1.0000
  C   C1704     1.0  0.69348  0.22488  0.70273  1.0000
  H   H2981     1.0  0.80469  0.06926  0.70235  1.0000
  C   C1705     1.0  0.64413  0.06366  0.69697  1.0000
  N   N92       1.0  0.81261  0.17440  0.93225  1.0000
  C   C1706     1.0  0.79611  0.17237  0.94909  1.0000
  C   C1707     1.0  0.81910  0.15511  0.92536  1.0000
  C   C1708     1.0  0.78586  0.19131  0.95678  1.0000
  C   C1709     1.0  0.82864  0.13843  0.93978  1.0000
  C   C1710     1.0  0.83506  0.11991  0.93096  1.0000
  H   H2982     1.0  0.73259  0.10026  0.95039  1.0000
  H   H2983     1.0  0.80136  0.16232  0.96177  1.0000
  H   H2984     1.0  0.78492  0.16550  0.94535  1.0000
  H   H2985     1.0  0.80651  0.14986  0.92220  1.0000
  H   H2986     1.0  0.82936  0.15661  0.91133  1.0000
  H   H2987     1.0  0.83203  0.17143  0.95305  1.0000
  H   H2988     1.0  0.87734  0.18681  0.92271  1.0000
  H   H2989     1.0  0.78006  0.20240  0.94515  1.0000
  H   H2990     1.0  0.84157  0.14210  0.94365  1.0000
  H   H2991     1.0  0.81841  0.13516  0.95339  1.0000
  H   H2992     1.0  0.82242  0.11540  0.92711  1.0000
  H   H2993     1.0  0.84626  0.12215  0.91779  1.0000
  H   H2994     1.0  0.84145  0.10809  0.94172  1.0000
  C   C1711     1.0  0.80006  0.09083  0.67704  1.0000
  C   C1712     1.0  0.57724  0.12199  0.85364  1.0000
  H   H2995     1.0  0.69454  0.07553  0.67311  1.0000
  N   N93       1.0  0.94412  0.06154  0.92858  1.0000
  H   H2996     1.0  0.79230  0.21468  0.75794  1.0000
  C   C1713     1.0  0.93186  0.07052  0.94539  1.0000
  C   C1714     1.0  0.93381  0.06590  0.91116  1.0000
  H   H2997     1.0  0.70567  0.22859  0.91683  1.0000
  S   S389      1.0  0.70338  0.13203  0.66439  1.0000
  H   H2998     1.0  0.83569  0.18721  0.70666  1.0000
  C   C1715     1.0  0.92468  0.08740  0.90523  1.0000
  H   H2999     1.0  0.80493  0.09303  0.97019  1.0000
  H   H3000     1.0  0.66002  0.20941  0.67050  1.0000
  H   H3001     1.0  0.59562  0.06851  0.81993  1.0000
  H   H3002     1.0  0.57595  0.05754  0.83489  1.0000
  C   C1716     1.0  0.91666  0.09044  0.88625  1.0000
  C   C1717     1.0  0.62742  0.20536  0.81071  1.0000
  H   H3003     1.0  0.89606  0.09093  0.96217  1.0000
  H   H3004     1.0  0.93956  0.06701  0.95814  1.0000
  H   H3005     1.0  0.92971  0.08661  0.94170  1.0000
  H   H3006     1.0  0.92207  0.05702  0.91343  1.0000
  H   H3007     1.0  0.94404  0.06160  0.89814  1.0000
  H   H3008     1.0  0.57981  0.17155  0.76825  1.0000
  H   H3009     1.0  0.96088  0.22340  0.73665  1.0000
  H   H3010     1.0  0.95142  0.15043  0.72921  1.0000
  H   H3011     1.0  0.59906  0.03496  0.81513  1.0000
  H   H3012     1.0  0.70078  0.05829  0.65739  1.0000
  H   H3013     1.0  0.88600  0.06963  0.97444  1.0000
  H   H3014     1.0  0.93554  0.09713  0.90297  1.0000
  H   H3015     1.0  0.91251  0.09211  0.91658  1.0000
  C   C1718     1.0  0.84778  0.19882  0.67635  1.0000
  H   H3016     1.0  0.56869  0.17413  0.79284  1.0000
  H   H3017     1.0  0.58235  0.10883  0.86379  1.0000
  C   C1719     1.0  0.79733  0.18914  0.73458  1.0000
  H   H3018     1.0  0.74311  0.06598  0.96127  1.0000
  C   C1720     1.0  0.77205  0.07489  0.77361  1.0000
  H   H3019     1.0  0.70775  0.09762  0.95535  1.0000
  H   H3020     1.0  0.77546  0.07799  0.75749  1.0000
  H   H3021     1.0  0.70769  0.21429  0.72806  1.0000
  C   C1721     1.0  0.56773  0.07952  0.80983  1.0000
  H   H3022     1.0  0.78797  0.19797  0.72420  1.0000
  H   H3023     1.0  0.92846  0.08677  0.87411  1.0000
  H   H3024     1.0  0.90523  0.08138  0.88777  1.0000
  H   H3025     1.0  0.91022  0.10592  0.88246  1.0000
  N   N94       1.0  0.72422  0.07358  0.81211  1.0000
  C   C1722     1.0  0.71107  0.07075  0.79898  1.0000
  C   C1723     1.0  0.74528  0.06953  0.80268  1.0000
  C   C1724     1.0  0.72132  0.05896  0.83060  1.0000
  C   C1725     1.0  0.71926  0.09352  0.81768  1.0000
  C   C1726     1.0  0.72005  0.11093  0.80085  1.0000
  C   C1727     1.0  0.68898  0.07403  0.80698  1.0000
  C   C1728     1.0  0.73549  0.05741  0.84516  1.0000
  C   C1729     1.0  0.75020  0.07531  0.78024  1.0000
  H   H3026     1.0  0.74609  0.20758  0.85931  1.0000
  C   C1730     1.0  0.71160  0.13000  0.80831  1.0000
  C   C1731     1.0  0.67720  0.07190  0.79198  1.0000
  C   C1732     1.0  0.73158  0.04158  0.86272  1.0000
  H   H3027     1.0  0.71508  0.05578  0.79545  1.0000
  H   H3028     1.0  0.71302  0.08047  0.78474  1.0000
  H   H3029     1.0  0.75428  0.07656  0.80941  1.0000
  H   H3030     1.0  0.75101  0.05369  0.80555  1.0000
  H   H3031     1.0  0.72244  0.04421  0.82701  1.0000
  H   H3032     1.0  0.70648  0.06234  0.83896  1.0000
  H   H3033     1.0  0.70471  0.09536  0.82688  1.0000
  H   H3034     1.0  0.72925  0.09525  0.82715  1.0000
  H   H3035     1.0  0.71164  0.10996  0.78962  1.0000
  H   H3036     1.0  0.73538  0.11178  0.79415  1.0000
  H   H3037     1.0  0.68535  0.06325  0.82013  1.0000
  H   H3038     1.0  0.68403  0.08882  0.81058  1.0000
  H   H3039     1.0  0.73371  0.07119  0.85078  1.0000
  H   H3040     1.0  0.75088  0.05380  0.83836  1.0000
  C   C1733     1.0  0.57171  0.21323  0.78965  1.0000
  H   H3041     1.0  0.74276  0.08993  0.77491  1.0000
  H   H3042     1.0  0.70995  0.21747  0.86420  1.0000
  C   C1734     1.0  0.70375  0.20842  0.71629  1.0000
  H   H3043     1.0  0.69614  0.13007  0.81510  1.0000
  H   H3044     1.0  0.71993  0.13221  0.81916  1.0000
  H   H3045     1.0  0.71231  0.14226  0.79598  1.0000
  H   H3046     1.0  0.68113  0.05715  0.78806  1.0000
  H   H3047     1.0  0.66146  0.07432  0.79809  1.0000
  H   H3048     1.0  0.67976  0.08280  0.77861  1.0000
  H   H3049     1.0  0.71640  0.04465  0.87038  1.0000
  H   H3050     1.0  0.73406  0.02718  0.85809  1.0000
  H   H3051     1.0  0.74150  0.04108  0.87312  1.0000
  H   H3052     1.0  0.54432  0.05465  0.83477  1.0000
  H   H3053     1.0  0.77522  0.18706  0.91989  1.0000
  C   C1735     1.0  0.72439  0.06600  0.94117  1.0000
  H   H3054     1.0  0.79036  0.17262  0.90294  1.0000
  C   C1736     1.0  0.78801  0.09509  0.94746  1.0000
  H   H3055     1.0  0.91362  0.04841  0.95952  1.0000
  C   C1737     1.0  0.72881  0.17867  0.78703  1.0000
  C   C1738     1.0  0.69275  0.04684  0.68816  1.0000
  H   H3056     1.0  0.74675  0.05737  0.72168  1.0000
  H   H3057     1.0  0.82428  0.19562  0.94247  1.0000
  H   H3058     1.0  0.86434  0.16003  0.68315  1.0000
  C   C1739     1.0  0.70632  0.20371  0.86201  1.0000
  H   H3059     1.0  0.79480  0.08104  0.94383  1.0000
  C   C1740     1.0  0.86339  0.18753  0.93304  1.0000
  H   H3060     1.0  0.59882  0.19880  0.81342  1.0000
  C   C1741     1.0  0.71429  0.04053  0.68960  1.0000
  C   C1742     1.0  0.69685  0.20180  0.91519  1.0000
  C   C1743     1.0  0.78804  0.18664  0.90820  1.0000
  H   H3061     1.0  0.85445  0.16615  0.92101  1.0000
  H   H3062     1.0  0.80014  0.19426  0.84129  1.0000
  C   C1744     1.0  0.80633  0.18940  0.91550  1.0000
  H   H3063     1.0  0.81815  0.18955  0.90267  1.0000
  H   H3064     1.0  0.72112  0.05317  0.68993  1.0000
  C   C1745     1.0  0.72745  0.07071  0.96030  1.0000
  H   H3065     1.0  0.51750  0.10232  0.81117  1.0000
  H   H3066     1.0  0.83116  0.16450  0.69097  1.0000
  H   H3067     1.0  0.55701  0.21775  0.78547  1.0000
  H   H3068     1.0  0.97137  0.06488  0.90928  1.0000
  H   H3069     1.0  0.77687  0.06124  0.89127  1.0000
  H   H3070     1.0  0.77868  0.18531  0.69110  1.0000
  H   H3071     1.0  0.89520  0.20050  0.73612  1.0000
  H   H3072     1.0  0.64870  0.05473  0.65608  1.0000
  H   H3073     1.0  0.79502  0.20238  0.87866  1.0000
  C   C1746     1.0  0.78307  0.20268  0.89134  1.0000
  S   S390      1.0  0.78642  0.07693  0.66815  1.0000
  H   H3074     1.0  0.78751  0.15172  0.85197  1.0000
  H   H3075     1.0  0.53797  0.12197  0.81886  1.0000
  H   H3076     1.0  0.70114  0.17994  0.83854  1.0000
  H   H3077     1.0  0.78915  0.09458  0.85468  1.0000
  C   C1747     1.0  0.79520  0.14930  0.86461  1.0000
  H   H3078     1.0  0.79503  0.17653  0.76476  1.0000
  H   H3079     1.0  0.70042  0.19674  0.87684  1.0000
  H   H3080     1.0  0.76864  0.21565  0.75344  1.0000
  C   C1748     1.0  0.72618  0.20381  0.92665  1.0000
  C   C1749     1.0  0.68773  0.18783  0.84634  1.0000
  H   H3081     1.0  0.68438  0.17857  0.86080  1.0000
  H   H3082     1.0  0.76966  0.20069  0.88678  1.0000
  C   C1750     1.0  0.59581  0.09851  0.65243  1.0000
  C   C1751     1.0  0.79862  0.08734  0.86566  1.0000
  H   H3083     1.0  0.82698  0.07594  0.92717  1.0000
  H   H3084     1.0  0.65402  0.05196  0.70456  1.0000
  H   H3085     1.0  0.78279  0.04226  0.87666  1.0000
  H   H3086     1.0  0.76943  0.06540  0.86764  1.0000
  N   N95       1.0  0.69117  0.20732  0.84901  1.0000
  H   H3087     1.0  0.78546  0.15660  0.87620  1.0000
  H   H3088     1.0  0.79021  0.09106  0.87968  1.0000
  H   H3089     1.0  0.56913  0.20548  0.80491  1.0000
  C   C1752     1.0  0.80020  0.12761  0.87224  1.0000
  H   H3090     1.0  0.81058  0.17904  0.82309  1.0000
  C   C1753     1.0  0.84870  0.21181  0.70674  1.0000
  C   C1754     1.0  0.81335  0.11693  0.85620  1.0000
  H   H3091     1.0  0.75429  0.22549  0.80258  1.0000
  H   H3092     1.0  0.80381  0.06162  0.85160  1.0000
  H   H3093     1.0  0.70475  0.20913  0.81863  1.0000
  H   H3094     1.0  0.70886  0.07003  0.93946  1.0000
  H   H3095     1.0  0.78034  0.21709  0.89593  1.0000
  C   C1755     1.0  0.80027  0.06518  0.86657  1.0000
  H   H3096     1.0  0.58633  0.09051  0.68393  1.0000
  N   N96       1.0  0.81760  0.09505  0.86080  1.0000
  H   H3097     1.0  0.82703  0.12316  0.85270  1.0000
  C   C1756     1.0  0.96873  0.16615  0.81040  1.0000
  H   H3098     1.0  0.84289  0.06316  0.90921  1.0000
  H   H3099     1.0  0.80936  0.19630  0.69019  1.0000
  H   H3100     1.0  0.68422  0.22701  0.82306  1.0000
  H   H3101     1.0  0.81187  0.05698  0.87478  1.0000
  H   H3102     1.0  0.81008  0.09770  0.90241  1.0000
  C   C1757     1.0  0.75177  0.16267  0.66826  1.0000
  S   S391      1.0  0.68046  0.20959  0.77256  1.0000
  H   H3103     1.0  0.66742  0.20775  0.87321  1.0000
  C   C1758     1.0  0.81955  0.08452  0.89805  1.0000
  H   H3104     1.0  0.81041  0.07306  0.90041  1.0000
  C   C1759     1.0  0.83001  0.08825  0.87664  1.0000
  H   H3105     1.0  0.78025  0.06042  0.77865  1.0000
  S   S392      1.0  0.77956  0.22963  0.69231  1.0000
  C   C1760     1.0  0.74555  0.08801  0.72183  1.0000
  C   C1761     1.0  0.64445  0.23315  0.69799  1.0000
  H   H3106     1.0  0.85636  0.09700  0.84468  1.0000
  H   H3107     1.0  0.83976  0.07434  0.87430  1.0000
  H   H3108     1.0  0.87381  0.09144  0.81201  1.0000
  H   H3109     1.0  0.86584  0.06964  0.82606  1.0000
  H   H3110     1.0  0.83998  0.09873  0.87580  1.0000
  H   H3111     1.0  0.72208  0.03353  0.67698  1.0000
  C   C1762     1.0  0.54576  0.11066  0.81012  1.0000
  C   C1763     1.0  0.63118  0.07506  0.71212  1.0000
  C   C1764     1.0  0.51669  0.06276  0.85192  1.0000
  H   H3112     1.0  0.72986  0.20882  0.78500  1.0000
  C   C1765     1.0  0.69727  0.21891  0.82923  1.0000
  H   H3113     1.0  0.79605  0.19748  0.96283  1.0000
  C   C1766     1.0  0.83445  0.07751  0.91183  1.0000
  H   H3114     1.0  0.95251  0.03607  0.94945  1.0000
  C   C1767     1.0  0.70922  0.21293  0.91935  1.0000
  H   H3115     1.0  0.84466  0.08796  0.90974  1.0000
  C   C1768     1.0  0.67231  0.21721  0.85928  1.0000
  C   C1769     1.0  0.52235  0.12412  0.78621  1.0000
  C   C1770     1.0  0.74214  0.19292  0.86472  1.0000
  H   H3116     1.0  0.86173  0.18318  0.70138  1.0000
  H   H3117     1.0  0.73798  0.19085  0.88082  1.0000
  H   H3118     1.0  0.74676  0.07231  0.69804  1.0000
  H   H3119     1.0  0.95953  0.08586  0.91875  1.0000
  H   H3120     1.0  0.86125  0.20491  0.66964  1.0000
  C   C1771     1.0  0.70073  0.13127  0.96658  1.0000
  C   C1772     1.0  0.68708  0.21691  0.68658  1.0000
  H   H3121     1.0  0.70804  0.15969  0.96619  1.0000
  H   H3122     1.0  0.57020  0.23269  0.81894  1.0000
  H   H3123     1.0  0.57499  0.03898  0.80910  1.0000
  H   H3124     1.0  0.53426  0.12875  0.77458  1.0000
  H   H3125     1.0  0.72093  0.19944  0.96845  1.0000
  H   H3126     1.0  0.75508  0.18200  0.86090  1.0000
  H   H3127     1.0  0.57622  0.06910  0.67106  1.0000
  C   C1773     1.0  0.91176  0.06398  0.95287  1.0000
  C   C1774     1.0  0.65557  0.07705  0.68063  1.0000
  C   C1775     1.0  0.57145  0.18205  0.77770  1.0000
  H   H3128     1.0  0.59001  0.12012  0.69384  1.0000
  H   H3129     1.0  0.72962  0.08925  0.72643  1.0000
  H   H3130     1.0  0.66731  0.10880  0.65956  1.0000
  H   H3131     1.0  0.73073  0.12539  0.97017  1.0000
  H   H3132     1.0  0.71593  0.02995  0.70316  1.0000
  H   H3133     1.0  0.72883  0.05020  0.94103  1.0000
  H   H3134     1.0  0.68755  0.12428  0.97079  1.0000
  H   H3135     1.0  0.76836  0.06681  0.70916  1.0000
  H   H3136     1.0  0.59947  0.06039  0.65900  1.0000
  C   C1776     1.0  0.53006  0.10626  0.80009  1.0000
  H   H3137     1.0  0.64414  0.08800  0.67412  1.0000
  C   C1777     1.0  0.72166  0.09273  0.96112  1.0000
  H   H3138     1.0  0.66306  0.08538  0.68778  1.0000
  N   N97       1.0  0.55623  0.09376  0.82264  1.0000
  H   H3139     1.0  0.55740  0.18803  0.77253  1.0000
  H   H3140     1.0  0.83568  0.21104  0.67396  1.0000
  H   H3141     1.0  0.50467  0.07528  0.85273  1.0000
  H   H3142     1.0  0.69396  0.19774  0.72321  1.0000
  H   H3143     1.0  0.71721  0.20105  0.70814  1.0000
  H   H3144     1.0  0.96782  0.17071  0.77990  1.0000
  H   H3145     1.0  0.55809  0.07292  0.80349  1.0000
  H   H3146     1.0  0.70584  0.13132  0.95074  1.0000
  H   H3147     1.0  0.79586  0.18434  0.79272  1.0000
  N   N98       1.0  0.67592  0.23161  0.67264  1.0000
  H   H3148     1.0  0.55769  0.13177  0.83325  1.0000
  H   H3149     1.0  0.80101  0.20793  0.78781  1.0000
  H   H3150     1.0  0.82660  0.16233  0.66806  1.0000
  H   H3151     1.0  0.72585  0.22583  0.83037  1.0000
  H   H3152     1.0  0.69066  0.03161  0.65210  1.0000
  H   H3153     1.0  0.63651  0.22595  0.69028  1.0000
  H   H3154     1.0  0.61074  0.21797  0.77901  1.0000
  H   H3155     1.0  0.81926  0.13261  0.66541  1.0000
  N   N99       1.0  0.71973  0.09841  0.98090  1.0000
  H   H3156     1.0  0.95144  0.00176  0.92809  1.0000
  H   H3157     1.0  0.59529  0.13182  0.66892  1.0000
  S   S393      1.0  0.73623  0.08266  0.65177  1.0000
  H   H3158     1.0  0.66040  0.03956  0.67470  1.0000
  H   H3159     1.0  0.97825  0.03246  0.91979  1.0000
  H   H3160     1.0  0.57042  0.02318  0.65621  1.0000
  H   H3161     1.0  0.97678  0.99900  0.91743  1.0000
  H   H3162     1.0  0.76656  0.15619  0.66183  1.0000
  H   H3163     1.0  0.60006  0.22005  0.82303  1.0000
  C   C1778     1.0  0.71117  0.23352  0.82808  1.0000
  H   H3164     1.0  0.86256  0.21745  0.70099  1.0000
  C   C1779     1.0  0.66772  0.22079  0.66075  1.0000
  H   H3165     1.0  0.55542  0.09615  0.65724  1.0000
  H   H3166     1.0  0.66424  0.01186  0.65672  1.0000
  H   H3167     1.0  0.93773  0.22035  0.73207  1.0000
  C   C1780     1.0  0.57809  0.03287  0.66132  1.0000
  C   C1781     1.0  0.86648  0.15090  0.65560  1.0000
  N   N100      1.0  0.84611  0.18243  0.66658  1.0000
  H   H3168     1.0  0.95998  0.03169  0.90583  1.0000
  H   H3169     1.0  0.88252  0.12873  0.67499  1.0000
  C   C1782     1.0  0.89977  0.07541  0.96847  1.0000
  C   C1783     1.0  0.71710  0.12026  0.97811  1.0000
  C   C1784     1.0  0.88420  0.13559  0.65941  1.0000
  H   H3170     1.0  0.85367  0.14343  0.65925  1.0000
  C   C1785     1.0  0.58461  0.06744  0.65639  1.0000
  H   H3171     1.0  0.59376  0.02661  0.65997  1.0000
  H   H3172     1.0  0.83645  0.22328  0.70306  1.0000
  H   H3173     1.0  0.87742  0.17417  0.66351  1.0000
  H   H3174     1.0  0.80560  0.19602  0.66601  1.0000
  H   H3175     1.0  0.84701  0.20839  0.72280  1.0000
  H   H3176     1.0  0.61045  0.09031  0.65443  1.0000
  H   H3177     1.0  0.71880  0.06203  0.97239  1.0000
  H   H3178     1.0  0.76179  0.20107  0.97848  1.0000
  H   H3179     1.0  0.98385  0.15815  0.80913  1.0000
  H   H3180     1.0  0.69631  0.19623  0.97929  1.0000
  H   H3181     1.0  0.69501  0.20141  0.65187  1.0000
  H   H3182     1.0  0.63689  0.23921  0.17743  1.0000
  Fe  Fe194     1.0  0.66474  0.43788  0.14826  1.0000
  S   S394      1.0  0.68639  0.44011  0.12065  1.0000
  S   S395      1.0  0.67609  0.42306  0.17606  1.0000
  Fe  Fe195     1.0  0.66205  0.43585  0.10636  1.0000
  S   S396      1.0  0.66934  0.41112  0.08826  1.0000
  S   S397      1.0  0.64110  0.43205  0.13454  1.0000
  Fe  Fe196     1.0  0.68256  0.31764  0.23151  1.0000
  S   S398      1.0  0.71267  0.30051  0.22703  1.0000
  S   S399      1.0  0.66988  0.33444  0.20514  1.0000
  Fe  Fe197     1.0  0.67472  0.29940  0.27455  1.0000
  S   S400      1.0  0.70370  0.28048  0.27298  1.0000
  H   H3183     1.0  0.68445  0.33191  0.30011  1.0000
  Fe  Fe198     1.0  0.71480  0.30724  0.25595  1.0000
  S   S401      1.0  0.74080  0.31222  0.26656  1.0000
  Fe  Fe199     1.0  0.69857  0.27571  0.24440  1.0000
  S   S402      1.0  0.70605  0.24664  0.23490  1.0000
  S   S403      1.0  0.68593  0.32675  0.25906  1.0000
  S   S404      1.0  0.66832  0.29216  0.24738  1.0000
  Fe  Fe200     1.0  0.85491  0.37648  0.24604  1.0000
  S   S405      1.0  0.82532  0.37812  0.26429  1.0000
  S   S406      1.0  0.87482  0.39798  0.24644  1.0000
  Fe  Fe201     1.0  0.85180  0.33782  0.23296  1.0000
  S   S407      1.0  0.82254  0.33705  0.25118  1.0000
  S   S408      1.0  0.86498  0.31119  0.21848  1.0000
  Fe  Fe202     1.0  0.81639  0.36875  0.23940  1.0000
  S   S409      1.0  0.78845  0.37959  0.22744  1.0000
  Fe  Fe203     1.0  0.83469  0.34635  0.27392  1.0000
  C   C1786     1.0  0.75929  0.44985  0.17603  1.0000
  S   S410      1.0  0.84534  0.36945  0.21992  1.0000
  S   S411      1.0  0.86468  0.34490  0.25684  1.0000
  C   C1787     1.0  0.66329  0.41027  0.98761  1.0000
  H   H3184     1.0  0.50179  0.35375  0.98908  1.0000
  C   C1788     1.0  0.72429  0.28727  0.99402  1.0000
  Fe  Fe204     1.0  0.62715  0.35845  0.01915  1.0000
  S   S412      1.0  0.65065  0.33356  0.02572  1.0000
  S   S413      1.0  0.61995  0.38489  0.03465  1.0000
  Fe  Fe205     1.0  0.62980  0.31473  0.02335  1.0000
  S   S414      1.0  0.62364  0.28932  0.04670  1.0000
  S   S415      1.0  0.60529  0.33949  0.01893  1.0000
  H   H3185     1.0  0.69262  0.36763  0.04344  1.0000
  H   H3186     1.0  0.88652  0.38023  0.30716  1.0000
  S   S416      1.0  0.82794  0.27438  0.16184  1.0000
  H   H3187     1.0  0.74332  0.41830  0.19724  1.0000
  H   H3188     1.0  0.65128  0.23620  0.02785  1.0000
  H   H3189     1.0  0.70241  0.36324  0.00039  1.0000
  H   H3190     1.0  0.75096  0.28137  0.30964  1.0000
  H   H3191     1.0  0.85383  0.45604  0.17786  1.0000
  S   S417      1.0  0.69338  0.25438  0.14819  1.0000
  S   S418      1.0  0.65334  0.29981  0.30255  1.0000
  S   S419      1.0  0.64015  0.31349  0.99148  1.0000
  H   H3192     1.0  0.73546  0.47217  0.18269  1.0000
  H   H3193     1.0  0.84597  0.36979  0.31006  1.0000
  H   H3194     1.0  0.51298  0.33575  0.05981  1.0000
  H   H3195     1.0  0.49329  0.32274  0.06141  1.0000
  H   H3196     1.0  0.70026  0.29865  0.31634  1.0000
  C   C1789     1.0  0.85532  0.26530  0.25662  1.0000
  H   H3197     1.0  0.76541  0.25438  0.14214  1.0000
  C   C1790     1.0  0.64411  0.27273  0.05279  1.0000
  C   C1791     1.0  0.64165  0.25671  0.06751  1.0000
  C   C1792     1.0  0.91005  0.31989  0.30521  1.0000
  H   H3198     1.0  0.77299  0.30456  0.30445  1.0000
  C   C1793     1.0  0.67887  0.26145  0.04781  1.0000
  C   C1794     1.0  0.66278  0.27522  0.04308  1.0000
  H   H3199     1.0  0.62721  0.25464  0.07492  1.0000
  H   H3200     1.0  0.72105  0.30145  0.99919  1.0000
  H   H3201     1.0  0.69330  0.26320  0.04015  1.0000
  H   H3202     1.0  0.66475  0.28761  0.03176  1.0000
  H   H3203     1.0  0.71447  0.25067  0.99808  1.0000
  H   H3204     1.0  0.69101  0.43379  0.00330  1.0000
  H   H3205     1.0  0.71985  0.40132  0.98962  1.0000
  C   C1795     1.0  0.86092  0.30494  0.29919  1.0000
  C   C1796     1.0  0.69554  0.33845  0.30446  1.0000
  H   H3206     1.0  0.86763  0.31591  0.28887  1.0000
  C   C1797     1.0  0.83814  0.28394  0.17821  1.0000
  C   C1798     1.0  0.82862  0.30137  0.18458  1.0000
  C   C1799     1.0  0.83637  0.30969  0.19721  1.0000
  C   C1800     1.0  0.85394  0.30080  0.20343  1.0000
  C   C1801     1.0  0.86328  0.28318  0.19734  1.0000
  C   C1802     1.0  0.85542  0.27475  0.18489  1.0000
  H   H3207     1.0  0.81526  0.30865  0.17954  1.0000
  H   H3208     1.0  0.82896  0.32322  0.20176  1.0000
  H   H3209     1.0  0.87687  0.27617  0.20203  1.0000
  H   H3210     1.0  0.86297  0.26138  0.18010  1.0000
  C   C1803     1.0  0.70281  0.24875  0.21073  1.0000
  H   H3211     1.0  0.69947  0.33239  0.02273  1.0000
  H   H3212     1.0  0.75843  0.44346  0.19167  1.0000
  C   C1804     1.0  0.69727  0.25192  0.17218  1.0000
  C   C1805     1.0  0.69102  0.26778  0.18196  1.0000
  C   C1806     1.0  0.69380  0.26624  0.20119  1.0000
  C   C1807     1.0  0.70536  0.28128  0.99219  1.0000
  H   H3213     1.0  0.63816  0.25970  0.01896  1.0000
  H   H3214     1.0  0.68401  0.28132  0.17465  1.0000
  H   H3215     1.0  0.68877  0.27857  0.20865  1.0000
  C   C1808     1.0  0.77273  0.36295  0.23872  1.0000
  C   C1809     1.0  0.76005  0.35780  0.22849  1.0000
  C   C1810     1.0  0.74932  0.34272  0.23712  1.0000
  C   C1811     1.0  0.75124  0.33302  0.25599  1.0000
  C   C1812     1.0  0.76299  0.33905  0.26644  1.0000
  C   C1813     1.0  0.77379  0.35383  0.25784  1.0000
  H   H3216     1.0  0.75917  0.36486  0.21368  1.0000
  H   H3217     1.0  0.74017  0.33818  0.22899  1.0000
  H   H3218     1.0  0.76392  0.33210  0.28120  1.0000
  H   H3219     1.0  0.78315  0.35804  0.26600  1.0000
  C   C1814     1.0  0.65429  0.40373  0.07471  1.0000
  C   C1815     1.0  0.65876  0.38480  0.07032  1.0000
  C   C1816     1.0  0.64807  0.37864  0.05860  1.0000
  C   C1817     1.0  0.63305  0.39152  0.05062  1.0000
  C   C1818     1.0  0.62840  0.41038  0.05521  1.0000
  C   C1819     1.0  0.63886  0.41644  0.06725  1.0000
  H   H3220     1.0  0.67058  0.37483  0.07602  1.0000
  H   H3221     1.0  0.65138  0.36393  0.05577  1.0000
  H   H3222     1.0  0.61671  0.42045  0.04930  1.0000
  H   H3223     1.0  0.63524  0.43107  0.07041  1.0000
  C   C1820     1.0  0.67279  0.39895  0.18540  1.0000
  C   C1821     1.0  0.68265  0.38839  0.20043  1.0000
  C   C1822     1.0  0.68142  0.36866  0.20709  1.0000
  C   C1823     1.0  0.67008  0.35954  0.19892  1.0000
  C   C1824     1.0  0.65963  0.37032  0.18445  1.0000
  C   C1825     1.0  0.66102  0.38997  0.17768  1.0000
  H   H3224     1.0  0.69157  0.39534  0.20666  1.0000
  H   H3225     1.0  0.68947  0.36046  0.21831  1.0000
  H   H3226     1.0  0.65059  0.36338  0.17831  1.0000
  H   H3227     1.0  0.65299  0.39818  0.16647  1.0000
  C   C1826     1.0  0.86911  0.43970  0.29017  1.0000
  C   C1827     1.0  0.88737  0.43110  0.28165  1.0000
  C   C1828     1.0  0.88891  0.41783  0.26886  1.0000
  C   C1829     1.0  0.87226  0.41257  0.26478  1.0000
  C   C1830     1.0  0.85400  0.42057  0.27394  1.0000
  C   C1831     1.0  0.85246  0.43427  0.28628  1.0000
  H   H3228     1.0  0.90030  0.43542  0.28413  1.0000
  H   H3229     1.0  0.90309  0.41196  0.26168  1.0000
  H   H3230     1.0  0.84104  0.41679  0.27093  1.0000
  H   H3231     1.0  0.83825  0.44091  0.29264  1.0000
  H   H3232     1.0  0.78402  0.42388  0.22786  1.0000
  N   N101      1.0  0.64349  0.29401  0.10914  1.0000
  C   C1832     1.0  0.66396  0.28340  0.10447  1.0000
  C   C1833     1.0  0.62970  0.27947  0.11419  1.0000
  C   C1834     1.0  0.63870  0.30755  0.09081  1.0000
  C   C1835     1.0  0.64097  0.30581  0.12522  1.0000
  C   C1836     1.0  0.65333  0.29771  0.14168  1.0000
  C   C1837     1.0  0.67957  0.29645  0.09518  1.0000
  C   C1838     1.0  0.61735  0.31811  0.09159  1.0000
  C   C1839     1.0  0.63172  0.26404  0.13267  1.0000
  C   C1840     1.0  0.70097  0.33995  0.03445  1.0000
  C   C1841     1.0  0.64665  0.30923  0.15848  1.0000
  C   C1842     1.0  0.70009  0.28512  0.09566  1.0000
  C   C1843     1.0  0.61524  0.33459  0.07437  1.0000
  H   H3233     1.0  0.66454  0.27328  0.09417  1.0000
  H   H3234     1.0  0.66882  0.27387  0.11754  1.0000
  H   H3235     1.0  0.61437  0.28682  0.11672  1.0000
  H   H3236     1.0  0.63100  0.27185  0.10164  1.0000
  H   H3237     1.0  0.64211  0.29956  0.07825  1.0000
  H   H3238     1.0  0.64794  0.31910  0.08686  1.0000
  H   H3239     1.0  0.64443  0.32063  0.11917  1.0000
  H   H3240     1.0  0.62542  0.30819  0.13217  1.0000
  H   H3241     1.0  0.66884  0.29876  0.13610  1.0000
  H   H3242     1.0  0.65255  0.28232  0.14774  1.0000
  H   H3243     1.0  0.67830  0.30203  0.07965  1.0000
  H   H3244     1.0  0.67779  0.30903  0.10276  1.0000
  H   H3245     1.0  0.61205  0.32435  0.10514  1.0000
  H   H3246     1.0  0.60775  0.30785  0.09077  1.0000
  H   H3247     1.0  0.64692  0.25717  0.13335  1.0000
  H   H3248     1.0  0.62584  0.27084  0.14584  1.0000
  H   H3249     1.0  0.86399  0.39621  0.31046  1.0000
  H   H3250     1.0  0.90173  0.31275  0.29783  1.0000
  C   C1844     1.0  0.75451  0.24561  0.17294  1.0000
  H   H3251     1.0  0.65591  0.30361  0.16988  1.0000
  H   H3252     1.0  0.64770  0.32477  0.15333  1.0000
  H   H3253     1.0  0.63141  0.30784  0.16522  1.0000
  H   H3254     1.0  0.70226  0.27217  0.08848  1.0000
  H   H3255     1.0  0.71091  0.29448  0.08787  1.0000
  H   H3256     1.0  0.70268  0.28033  0.11091  1.0000
  H   H3257     1.0  0.61978  0.32886  0.06047  1.0000
  H   H3258     1.0  0.59981  0.34166  0.07516  1.0000
  H   H3259     1.0  0.62409  0.34575  0.07450  1.0000
  H   H3260     1.0  0.74154  0.47113  0.15769  1.0000
  H   H3261     1.0  0.55903  0.35968  0.00831  1.0000
  H   H3262     1.0  0.89287  0.45853  0.22246  1.0000
  H   H3263     1.0  0.72931  0.39819  0.22704  1.0000
  C   C1845     1.0  0.51337  0.34077  0.98818  1.0000
  C   C1846     1.0  0.87105  0.38103  0.31410  1.0000
  H   H3264     1.0  0.68099  0.45175  0.03069  1.0000
  H   H3265     1.0  0.74620  0.24004  0.14707  1.0000
  H   H3266     1.0  0.55569  0.32586  0.02490  1.0000
  H   H3267     1.0  0.79589  0.30975  0.27446  1.0000
  H   H3268     1.0  0.69385  0.45679  0.16740  1.0000
  C   C1847     1.0  0.70581  0.46469  0.16763  1.0000
  C   C1848     1.0  0.75102  0.25083  0.31162  1.0000
  N   N102      1.0  0.76912  0.25401  0.20030  1.0000
  C   C1849     1.0  0.77276  0.24791  0.18058  1.0000
  C   C1850     1.0  0.78838  0.25592  0.20494  1.0000
  H   H3269     1.0  0.51907  0.31540  0.03396  1.0000
  C   C1851     1.0  0.75591  0.27332  0.20036  1.0000
  C   C1852     1.0  0.76239  0.28999  0.18417  1.0000
  H   H3270     1.0  0.73148  0.27562  0.30054  1.0000
  C   C1853     1.0  0.75965  0.23899  0.21518  1.0000
  H   H3271     1.0  0.87368  0.45128  0.24152  1.0000
  H   H3272     1.0  0.55031  0.32118  0.98426  1.0000
  C   C1854     1.0  0.74897  0.30925  0.18630  1.0000
  H   H3273     1.0  0.77287  0.30066  0.22846  1.0000
  H   H3274     1.0  0.53555  0.31069  0.00488  1.0000
  H   H3275     1.0  0.78101  0.25795  0.16944  1.0000
  H   H3276     1.0  0.79677  0.26424  0.19223  1.0000
  H   H3277     1.0  0.82922  0.24782  0.20135  1.0000
  H   H3278     1.0  0.62144  0.23717  0.14702  1.0000
  H   H3279     1.0  0.82486  0.24585  0.25786  1.0000
  H   H3280     1.0  0.74079  0.27198  0.19950  1.0000
  H   H3281     1.0  0.75465  0.27829  0.21452  1.0000
  H   H3282     1.0  0.76214  0.28683  0.16959  1.0000
  H   H3283     1.0  0.77730  0.29208  0.18470  1.0000
  C   C1855     1.0  0.68757  0.43619  0.03329  1.0000
  H   H3284     1.0  0.74318  0.25866  0.17341  1.0000
  H   H3285     1.0  0.74397  0.25431  0.23904  1.0000
  C   C1856     1.0  0.67201  0.39321  0.00242  1.0000
  H   H3286     1.0  0.82271  0.27722  0.23907  1.0000
  H   H3287     1.0  0.70809  0.40286  0.02354  1.0000
  S   S420      1.0  0.65405  0.46984  0.14483  1.0000
  H   H3288     1.0  0.86861  0.35307  0.30730  1.0000
  H   H3289     1.0  0.75954  0.25009  0.29684  1.0000
  H   H3290     1.0  0.74928  0.31354  0.20042  1.0000
  H   H3291     1.0  0.75394  0.32076  0.17443  1.0000
  H   H3292     1.0  0.73384  0.30814  0.18538  1.0000
  C   C1857     1.0  0.86181  0.36853  0.30453  1.0000
  H   H3293     1.0  0.66785  0.42417  0.98772  1.0000
  C   C1858     1.0  0.70188  0.37222  0.01159  1.0000
  N   N103      1.0  0.70364  0.34920  0.13713  1.0000
  C   C1859     1.0  0.68244  0.34844  0.13804  1.0000
  C   C1860     1.0  0.71344  0.32978  0.14648  1.0000
  C   C1861     1.0  0.70473  0.36386  0.14946  1.0000
  C   C1862     1.0  0.71389  0.35509  0.11663  1.0000
  C   C1863     1.0  0.70673  0.34881  0.09986  1.0000
  C   C1864     1.0  0.66985  0.36810  0.13100  1.0000
  C   C1865     1.0  0.72540  0.36725  0.15048  1.0000
  C   C1866     1.0  0.71386  0.31201  0.13688  1.0000
  C   C1867     1.0  0.72441  0.29362  0.14790  1.0000
  C   C1868     1.0  0.72085  0.35203  0.08077  1.0000
  C   C1869     1.0  0.65136  0.36535  0.12479  1.0000
  C   C1870     1.0  0.72433  0.38262  0.16303  1.0000
  H   H3294     1.0  0.67575  0.34322  0.15330  1.0000
  H   H3295     1.0  0.68064  0.33761  0.12959  1.0000
  H   H3296     1.0  0.72892  0.33013  0.14659  1.0000
  H   H3297     1.0  0.70652  0.32646  0.16205  1.0000
  H   H3298     1.0  0.69738  0.35966  0.16466  1.0000
  H   H3299     1.0  0.69677  0.37837  0.14406  1.0000
  H   H3300     1.0  0.71254  0.37121  0.11291  1.0000
  H   H3301     1.0  0.72978  0.34975  0.11566  1.0000
  H   H3302     1.0  0.69252  0.35755  0.09733  1.0000
  H   H3303     1.0  0.70470  0.33348  0.10289  1.0000
  H   H3304     1.0  0.66540  0.37674  0.14292  1.0000
  H   H3305     1.0  0.67795  0.37706  0.11875  1.0000
  H   H3306     1.0  0.73318  0.37228  0.13574  1.0000
  H   H3307     1.0  0.73424  0.35398  0.15719  1.0000
  H   H3308     1.0  0.69901  0.30953  0.13675  1.0000
  H   H3309     1.0  0.72213  0.31381  0.12190  1.0000
  H   H3310     1.0  0.71801  0.29148  0.16357  1.0000
  H   H3311     1.0  0.72323  0.28080  0.14177  1.0000
  H   H3312     1.0  0.74004  0.29447  0.14641  1.0000
  H   H3313     1.0  0.72249  0.36757  0.07664  1.0000
  H   H3314     1.0  0.73529  0.34302  0.08213  1.0000
  H   H3315     1.0  0.71518  0.34784  0.06902  1.0000
  H   H3316     1.0  0.65490  0.35692  0.11263  1.0000
  H   H3317     1.0  0.64199  0.35791  0.13727  1.0000
  H   H3318     1.0  0.64311  0.37978  0.11966  1.0000
  H   H3319     1.0  0.73899  0.38628  0.16202  1.0000
  H   H3320     1.0  0.71439  0.39600  0.15816  1.0000
  H   H3321     1.0  0.71899  0.37703  0.17849  1.0000
  H   H3322     1.0  0.70139  0.44015  0.19768  1.0000
  H   H3323     1.0  0.66689  0.48224  0.17891  1.0000
  H   H3324     1.0  0.63569  0.41844  0.00598  1.0000
  H   H3325     1.0  0.77097  0.47483  0.17969  1.0000
  H   H3326     1.0  0.81725  0.29842  0.24935  1.0000
  C   C1871     1.0  0.54338  0.32325  0.99929  1.0000
  H   H3327     1.0  0.71728  0.37165  0.01314  1.0000
  H   H3328     1.0  0.86974  0.47420  0.22534  1.0000
  H   H3329     1.0  0.68363  0.26695  0.31286  1.0000
  C   C1872     1.0  0.75628  0.24231  0.23664  1.0000
  C   C1873     1.0  0.78770  0.30696  0.30526  1.0000
  H   H3330     1.0  0.56050  0.29099  0.02453  1.0000
  H   H3331     1.0  0.71923  0.45012  0.20499  1.0000
  N   N104      1.0  0.72314  0.45053  0.17382  1.0000
  H   H3332     1.0  0.85536  0.24964  0.25735  1.0000
  H   H3333     1.0  0.87612  0.28305  0.25909  1.0000
  H   H3334     1.0  0.84031  0.28962  0.27013  1.0000
  C   C1874     1.0  0.51978  0.34563  0.01914  1.0000
  C   C1875     1.0  0.81355  0.28361  0.25154  1.0000
  S   S421      1.0  0.82909  0.33311  0.30546  1.0000
  H   H3335     1.0  0.60119  0.25614  0.30641  1.0000
  H   H3336     1.0  0.88664  0.26177  0.24835  1.0000
  C   C1876     1.0  0.55902  0.38549  0.98683  1.0000
  H   H3337     1.0  0.68059  0.42954  0.04780  1.0000
  C   C1877     1.0  0.54849  0.36972  0.99998  1.0000
  C   C1878     1.0  0.87529  0.26750  0.25986  1.0000
  H   H3338     1.0  0.63542  0.40040  0.99149  1.0000
  C   C1879     1.0  0.80190  0.30143  0.28742  1.0000
  C   C1880     1.0  0.57045  0.30005  0.01434  1.0000
  C   C1881     1.0  0.87012  0.44890  0.21229  1.0000
  Fe  Fe206     1.0  0.61678  0.33960  0.98701  1.0000
  H   H3339     1.0  0.68439  0.39836  0.03481  1.0000
  H   H3340     1.0  0.84024  0.46005  0.22371  1.0000
  H   H3341     1.0  0.50915  0.35939  0.01816  1.0000
  H   H3342     1.0  0.66217  0.39305  0.01671  1.0000
  H   H3343     1.0  0.65022  0.25534  0.98529  1.0000
  C   C1882     1.0  0.69294  0.40429  0.02081  1.0000
  H   H3344     1.0  0.76416  0.43818  0.16709  1.0000
  H   H3345     1.0  0.67621  0.36172  0.02987  1.0000
  H   H3346     1.0  0.63168  0.23800  0.01461  1.0000
  C   C1883     1.0  0.81682  0.25116  0.27135  1.0000
  H   H3347     1.0  0.66789  0.24890  0.29562  1.0000
  H   H3348     1.0  0.70944  0.47236  0.15254  1.0000
  H   H3349     1.0  0.78666  0.43890  0.24469  1.0000
  H   H3350     1.0  0.77701  0.46902  0.15537  1.0000
  S   S422      1.0  0.60099  0.47938  0.13535  1.0000
  H   H3351     1.0  0.73194  0.27636  0.00461  1.0000
  C   C1884     1.0  0.77498  0.46277  0.17112  1.0000
  S   S423      1.0  0.86627  0.45894  0.30366  1.0000
  H   H3352     1.0  0.78716  0.32252  0.30583  1.0000
  H   H3353     1.0  0.81088  0.45378  0.21877  1.0000
  C   C1885     1.0  0.82931  0.47642  0.18790  1.0000
  C   C1886     1.0  0.62015  0.24786  0.13348  1.0000
  H   H3354     1.0  0.72772  0.42265  0.23105  1.0000
  H   H3355     1.0  0.78620  0.26466  0.21669  1.0000
  C   C1887     1.0  0.79216  0.28542  0.24870  1.0000
  N   N105      1.0  0.81859  0.27203  0.27060  1.0000
  H   H3356     1.0  0.71662  0.33862  0.03520  1.0000
  C   C1888     1.0  0.69164  0.36128  0.03073  1.0000
  H   H3357     1.0  0.53704  0.37710  0.01037  1.0000
  H   H3358     1.0  0.79048  0.31440  0.23134  1.0000
  H   H3359     1.0  0.50621  0.32798  0.99501  1.0000
  C   C1889     1.0  0.50908  0.32944  0.03213  1.0000
  H   H3360     1.0  0.70635  0.41429  0.22759  1.0000
  N   N106      1.0  0.83878  0.44068  0.20438  1.0000
  H   H3361     1.0  0.74064  0.24037  0.31482  1.0000
  C   C1890     1.0  0.84809  0.42068  0.20003  1.0000
  C   C1891     1.0  0.81778  0.43998  0.21345  1.0000
  C   C1892     1.0  0.84855  0.44651  0.21884  1.0000
  C   C1893     1.0  0.65779  0.24321  0.07259  1.0000
  C   C1894     1.0  0.81398  0.42352  0.23101  1.0000
  C   C1895     1.0  0.86554  0.41936  0.18306  1.0000
  C   C1896     1.0  0.87573  0.39843  0.18286  1.0000
  C   C1897     1.0  0.83887  0.45525  0.18576  1.0000
  C   C1898     1.0  0.79230  0.42500  0.23919  1.0000
  H   H3362     1.0  0.83141  0.45042  0.17561  1.0000
  H   H3363     1.0  0.70819  0.33920  0.29249  1.0000
  H   H3364     1.0  0.85276  0.41131  0.21337  1.0000
  H   H3365     1.0  0.83728  0.41338  0.19603  1.0000
  H   H3366     1.0  0.80935  0.43844  0.20233  1.0000
  H   H3367     1.0  0.78992  0.41288  0.25145  1.0000
  H   H3368     1.0  0.87830  0.25928  0.27425  1.0000
  H   H3369     1.0  0.84833  0.43552  0.23232  1.0000
  H   H3370     1.0  0.74614  0.45142  0.13594  1.0000
  H   H3371     1.0  0.87926  0.43436  0.21234  1.0000
  H   H3372     1.0  0.82150  0.42424  0.24302  1.0000
  H   H3373     1.0  0.81891  0.40903  0.22664  1.0000
  H   H3374     1.0  0.86033  0.42474  0.16891  1.0000
  H   H3375     1.0  0.87654  0.42804  0.18386  1.0000
  H   H3376     1.0  0.88145  0.39237  0.19667  1.0000
  H   H3377     1.0  0.86555  0.38927  0.18088  1.0000
  H   H3378     1.0  0.88812  0.39793  0.17062  1.0000
  H   H3379     1.0  0.67068  0.37967  0.99753  1.0000
  S   S424      1.0  0.65191  0.46827  0.09916  1.0000
  C   C1899     1.0  0.53926  0.35899  0.98802  1.0000
  N   N107      1.0  0.69263  0.39289  0.00511  1.0000
  H   H3380     1.0  0.78168  0.29070  0.26098  1.0000
  H   H3381     1.0  0.79790  0.29490  0.21725  1.0000
  H   H3382     1.0  0.76906  0.24631  0.24060  1.0000
  H   H3383     1.0  0.61124  0.28887  0.29955  1.0000
  H   H3384     1.0  0.49658  0.32756  0.02593  1.0000
  H   H3385     1.0  0.81049  0.27244  0.30152  1.0000
  C   C1900     1.0  0.83899  0.27404  0.27191  1.0000
  C   C1901     1.0  0.87141  0.28618  0.30303  1.0000
  H   H3386     1.0  0.88613  0.28277  0.29556  1.0000
  H   H3387     1.0  0.72229  0.40980  0.19391  1.0000
  H   H3388     1.0  0.67042  0.26929  0.00131  1.0000
  C   C1902     1.0  0.50103  0.33443  0.05245  1.0000
  C   C1903     1.0  0.56041  0.32112  0.01056  1.0000
  H   H3389     1.0  0.84772  0.47684  0.26290  1.0000
  C   C1904     1.0  0.72732  0.41996  0.20110  1.0000
  H   H3390     1.0  0.69358  0.33266  0.04846  1.0000
  H   H3391     1.0  0.91586  0.40295  0.30220  1.0000
  H   H3392     1.0  0.57140  0.32982  0.00174  1.0000
  H   H3393     1.0  0.81577  0.30615  0.28737  1.0000
  C   C1905     1.0  0.72231  0.41347  0.22306  1.0000
  H   H3394     1.0  0.85358  0.27283  0.24170  1.0000
  C   C1906     1.0  0.71722  0.44105  0.19470  1.0000
  H   H3395     1.0  0.90920  0.33534  0.29819  1.0000
  H   H3396     1.0  0.86385  0.37352  0.28854  1.0000
  H   H3397     1.0  0.71569  0.42786  0.16212  1.0000
  H   H3398     1.0  0.53047  0.34791  0.02754  1.0000
  C   C1907     1.0  0.80500  0.27930  0.28772  1.0000
  H   H3399     1.0  0.79048  0.27495  0.28939  1.0000
  C   C1908     1.0  0.78819  0.29969  0.23027  1.0000
  H   H3400     1.0  0.68214  0.24630  0.01103  1.0000
  Fe  Fe207     1.0  0.65878  0.33502  0.99330  1.0000
  H   H3401     1.0  0.72269  0.30713  0.30701  1.0000
  H   H3402     1.0  0.70332  0.43521  0.03334  1.0000
  H   H3403     1.0  0.69508  0.47522  0.19582  1.0000
  C   C1909     1.0  0.69747  0.48100  0.18002  1.0000
  C   C1910     1.0  0.83351  0.48160  0.25773  1.0000
  Fe  Fe208     1.0  0.63238  0.46465  0.12823  1.0000
  H   H3404     1.0  0.84249  0.26762  0.28665  1.0000
  H   H3405     1.0  0.78900  0.45409  0.17452  1.0000
  H   H3406     1.0  0.66836  0.42793  0.01801  1.0000
  N   N108      1.0  0.52931  0.34207  0.99891  1.0000
  H   H3407     1.0  0.63628  0.25912  0.30056  1.0000
  C   C1911     1.0  0.72826  0.43550  0.16057  1.0000
  H   H3408     1.0  0.74035  0.42409  0.16481  1.0000
  H   H3409     1.0  0.75369  0.41657  0.13216  1.0000
  H   H3410     1.0  0.56565  0.39270  0.99577  1.0000
  Fe  Fe209     1.0  0.83698  0.24446  0.15251  1.0000
  H   H3411     1.0  0.72147  0.45213  0.13254  1.0000
  H   H3412     1.0  0.93697  0.39221  0.31330  1.0000
  C   C1912     1.0  0.73407  0.44299  0.13858  1.0000
  C   C1913     1.0  0.74077  0.42622  0.12710  1.0000
  H   H3413     1.0  0.92552  0.31287  0.30319  1.0000
  C   C1914     1.0  0.73941  0.46179  0.17220  1.0000
  H   H3414     1.0  0.57507  0.29405  0.00059  1.0000
  C   C1915     1.0  0.68431  0.42613  0.01740  1.0000
  H   H3415     1.0  0.58353  0.29921  0.02100  1.0000
  H   H3416     1.0  0.72890  0.41768  0.12869  1.0000
  H   H3417     1.0  0.74475  0.43208  0.11142  1.0000
  Fe  Fe210     1.0  0.67425  0.47197  0.11634  1.0000
  H   H3418     1.0  0.68903  0.35344  0.30682  1.0000
  H   H3419     1.0  0.78904  0.27114  0.24743  1.0000
  C   C1916     1.0  0.67640  0.24543  0.06256  1.0000
  H   H3420     1.0  0.60455  0.25383  0.13334  1.0000
  H   H3421     1.0  0.80141  0.24989  0.27172  1.0000
  H   H3422     1.0  0.58815  0.28832  0.31544  1.0000
  H   H3423     1.0  0.72885  0.47893  0.10630  1.0000
  C   C1917     1.0  0.75951  0.24194  0.15193  1.0000
  H   H3424     1.0  0.83665  0.48230  0.19730  1.0000
  C   C1918     1.0  0.84218  0.30960  0.30939  1.0000
  C   C1919     1.0  0.67615  0.25446  0.99786  1.0000
  H   H3425     1.0  0.69586  0.28093  0.00659  1.0000
  H   H3426     1.0  0.82514  0.46937  0.26169  1.0000
  H   H3427     1.0  0.81805  0.25026  0.22596  1.0000
  S   S425      1.0  0.63640  0.36111  0.98667  1.0000
  C   C1920     1.0  0.64112  0.41376  0.99160  1.0000
  H   H3428     1.0  0.87279  0.45773  0.19764  1.0000
  H   H3429     1.0  0.62592  0.24010  0.12091  1.0000
  C   C1921     1.0  0.70914  0.26113  0.98570  1.0000
  H   H3430     1.0  0.81547  0.24081  0.30298  1.0000
  C   C1922     1.0  0.60398  0.28286  0.31423  1.0000
  C   C1923     1.0  0.87692  0.45884  0.22631  1.0000
  H   H3431     1.0  0.83936  0.23607  0.28901  1.0000
  C   C1924     1.0  0.70525  0.40060  0.98660  1.0000
  H   H3432     1.0  0.80716  0.48366  0.29273  1.0000
  H   H3433     1.0  0.74509  0.23845  0.21211  1.0000
  H   H3434     1.0  0.81366  0.47735  0.19410  1.0000
  C   C1925     1.0  0.82095  0.24069  0.21487  1.0000
  C   C1926     1.0  0.74017  0.27144  0.31252  1.0000
  C   C1927     1.0  0.65823  0.24590  0.99645  1.0000
  C   C1928     1.0  0.64405  0.24488  0.01568  1.0000
  C   C1929     1.0  0.80195  0.23668  0.21086  1.0000
  C   C1930     1.0  0.82366  0.23668  0.28904  1.0000
  C   C1931     1.0  0.62970  0.25277  0.31543  1.0000
  H   H3435     1.0  0.49059  0.34825  0.05157  1.0000
  H   H3436     1.0  0.75789  0.48483  0.11724  1.0000
  C   C1932     1.0  0.92193  0.40025  0.31591  1.0000
  S   S426      1.0  0.78667  0.24180  0.36693  1.0000
  S   S427      1.0  0.87190  0.45054  0.35661  1.0000
  H   H3437     1.0  0.97023  0.39936  0.61672  1.0000
  C   C1933     1.0  0.82600  0.30553  0.46181  1.0000
  H   H3438     1.0  0.84483  0.24256  0.48295  1.0000
  Fe  Fe211     1.0  0.90272  0.44363  0.36169  1.0000
  S   S428      1.0  0.91421  0.41285  0.37517  1.0000
  H   H3439     1.0  0.88483  0.27124  0.38091  1.0000
  H   H3440     1.0  0.89035  0.33851  0.38799  1.0000
  S   S429      1.0  0.91504  0.45485  0.33054  1.0000
  Fe  Fe212     1.0  0.91192  0.48358  0.34106  1.0000
  H   H3441     1.0  0.92556  0.36713  0.46133  1.0000
  H   H3442     1.0  0.88799  0.24319  0.50611  1.0000
  S   S430      1.0  0.96393  0.34953  0.56987  1.0000
  H   H3443     1.0  0.87664  0.30580  0.59563  1.0000
  C   C1934     1.0  0.91144  0.37729  0.50600  1.0000
  S   S431      1.0  0.66441  0.24661  0.38358  1.0000
  Fe  Fe213     1.0  0.86238  0.31782  0.50592  1.0000
  S   S432      1.0  0.88600  0.29278  0.49976  1.0000
  S   S433      1.0  0.83316  0.31656  0.52536  1.0000
  Fe  Fe214     1.0  0.88349  0.34712  0.47551  1.0000
  S   S434      1.0  0.90838  0.32415  0.46729  1.0000
  S   S435      1.0  0.88082  0.37906  0.46255  1.0000
  Fe  Fe215     1.0  0.88567  0.30566  0.46809  1.0000
  S   S436      1.0  0.88350  0.29367  0.44106  1.0000
  Fe  Fe216     1.0  0.90634  0.31375  0.49970  1.0000
  S   S437      1.0  0.93365  0.30551  0.51409  1.0000
  S   S438      1.0  0.86101  0.32967  0.47445  1.0000
  S   S439      1.0  0.88248  0.33778  0.50785  1.0000
  H   H3444     1.0  0.88654  0.32665  0.32788  1.0000
  S   S440      1.0  0.75586  0.26378  0.61281  1.0000
  H   H3445     1.0  0.81704  0.41933  0.35906  1.0000
  C   C1935     1.0  0.83606  0.28801  0.47439  1.0000
  H   H3446     1.0  0.78899  0.31891  0.59563  1.0000
  S   S441      1.0  0.72697  0.30161  0.64805  1.0000
  H   H3447     1.0  0.92252  0.41431  0.32004  1.0000
  H   H3448     1.0  0.91234  0.31403  0.36416  1.0000
  Fe  Fe217     1.0  0.78612  0.25496  0.62019  1.0000
  S   S442      1.0  0.81596  0.25483  0.60142  1.0000
  C   C1936     1.0  0.72648  0.27285  0.33229  1.0000
  H   H3449     1.0  0.90923  0.37447  0.32750  1.0000
  H   H3450     1.0  0.96735  0.33316  0.43893  1.0000
  C   C1937     1.0  0.96206  0.40456  0.64667  1.0000
  H   H3451     1.0  0.67222  0.25428  0.63605  1.0000
  C   C1938     1.0  0.82866  0.29896  0.54618  1.0000
  C   C1939     1.0  0.84339  0.28430  0.55232  1.0000
  C   C1940     1.0  0.83911  0.27042  0.56892  1.0000
  C   C1941     1.0  0.82022  0.27133  0.57966  1.0000
  C   C1942     1.0  0.80549  0.28587  0.57340  1.0000
  C   C1943     1.0  0.80971  0.29962  0.55669  1.0000
  H   H3452     1.0  0.85803  0.28371  0.54432  1.0000
  H   H3453     1.0  0.85056  0.25913  0.57367  1.0000
  H   H3454     1.0  0.79090  0.28666  0.58158  1.0000
  H   H3455     1.0  0.79825  0.31092  0.55195  1.0000
  C   C1944     1.0  0.87489  0.27314  0.43718  1.0000
  H   H3456     1.0  0.85453  0.24660  0.63313  1.0000
  C   C1945     1.0  0.87843  0.34835  0.39544  1.0000
  H   H3457     1.0  0.71195  0.33403  0.32777  1.0000
  C   C1946     1.0  0.95577  0.33668  0.55473  1.0000
  C   C1947     1.0  0.93750  0.34366  0.54894  1.0000
  C   C1948     1.0  0.93045  0.33425  0.53669  1.0000
  C   C1949     1.0  0.94176  0.31791  0.52971  1.0000
  C   C1950     1.0  0.95999  0.31088  0.53557  1.0000
  C   C1951     1.0  0.96692  0.32010  0.54808  1.0000
  H   H3458     1.0  0.92869  0.35642  0.55403  1.0000
  H   H3459     1.0  0.91624  0.33957  0.53273  1.0000
  H   H3460     1.0  0.96884  0.29818  0.53038  1.0000
  H   H3461     1.0  0.92554  0.29060  0.36235  1.0000
  H   H3462     1.0  0.83273  0.43655  0.35878  1.0000
  H   H3463     1.0  0.88459  0.35602  0.40435  1.0000
  C   C1952     1.0  0.92537  0.29791  0.39828  1.0000
  H   H3464     1.0  0.83567  0.28092  0.62698  1.0000
  C   C1953     1.0  0.85565  0.40049  0.35582  1.0000
  H   H3465     1.0  0.81708  0.26866  0.53214  1.0000
  H   H3466     1.0  0.85972  0.26263  0.49391  1.0000
  C   C1954     1.0  0.67577  0.25777  0.34388  1.0000
  C   C1955     1.0  0.66273  0.26147  0.36079  1.0000
  C   C1956     1.0  0.64807  0.27766  0.35974  1.0000
  C   C1957     1.0  0.64584  0.28957  0.34186  1.0000
  N   N109      1.0  0.93928  0.38256  0.47690  1.0000
  H   H3467     1.0  0.68747  0.24559  0.34468  1.0000
  H   H3468     1.0  0.63809  0.28077  0.37277  1.0000
  H   H3469     1.0  0.63406  0.30172  0.34119  1.0000
  C   C1958     1.0  0.88970  0.38786  0.43797  1.0000
  C   C1959     1.0  0.88431  0.40755  0.43053  1.0000
  C   C1960     1.0  0.89154  0.41531  0.41126  1.0000
  C   C1961     1.0  0.90451  0.40349  0.39933  1.0000
  C   C1962     1.0  0.91001  0.38379  0.40677  1.0000
  C   C1963     1.0  0.90253  0.37596  0.42598  1.0000
  H   H3470     1.0  0.87443  0.41687  0.43972  1.0000
  H   H3471     1.0  0.88722  0.43050  0.40571  1.0000
  H   H3472     1.0  0.92007  0.37457  0.39764  1.0000
  H   H3473     1.0  0.90684  0.36080  0.43158  1.0000
  H   H3474     1.0  0.86334  0.28899  0.41182  1.0000
  H   H3475     1.0  0.84600  0.33610  0.35249  1.0000
  H   H3476     1.0  0.76352  0.28049  0.33700  1.0000
  H   H3477     1.0  0.86197  0.30090  0.58052  1.0000
  H   H3478     1.0  0.84594  0.27784  0.60283  1.0000
  H   H3479     1.0  0.85067  0.24271  0.53644  1.0000
  C   C1964     1.0  0.82219  0.28090  0.49305  1.0000
  H   H3480     1.0  0.84924  0.27404  0.51445  1.0000
  C   C1965     1.0  0.86616  0.27493  0.42068  1.0000
  H   H3481     1.0  0.83783  0.32159  0.37565  1.0000
  C   C1966     1.0  0.84216  0.32175  0.35973  1.0000
  H   H3482     1.0  0.87196  0.30458  0.38053  1.0000
  C   C1967     1.0  0.92873  0.31889  0.61076  1.0000
  H   H3483     1.0  0.84450  0.39186  0.36448  1.0000
  C   C1968     1.0  0.87678  0.30742  0.36457  1.0000
  H   H3484     1.0  0.91022  0.32615  0.33345  1.0000
  H   H3485     1.0  0.86819  0.33946  0.40541  1.0000
  H   H3486     1.0  0.89501  0.30269  0.39728  1.0000
  H   H3487     1.0  0.74575  0.24145  0.37245  1.0000
  H   H3488     1.0  0.93909  0.28886  0.39261  1.0000
  H   H3489     1.0  0.87920  0.35975  0.33816  1.0000
  H   H3490     1.0  0.94513  0.41181  0.46643  1.0000
  H   H3491     1.0  0.80780  0.28165  0.48897  1.0000
  C   C1969     1.0  0.92682  0.28704  0.60435  1.0000
  H   H3492     1.0  0.94195  0.43263  0.43355  1.0000
  H   H3493     1.0  0.96311  0.29735  0.60318  1.0000
  Fe  Fe218     1.0  0.87195  0.47956  0.36414  1.0000
  H   H3494     1.0  0.84173  0.27642  0.46549  1.0000
  H   H3495     1.0  0.88314  0.32477  0.55620  1.0000
  H   H3496     1.0  0.93199  0.35816  0.60178  1.0000
  H   H3497     1.0  0.86609  0.27650  0.63762  1.0000
  H   H3498     1.0  0.95112  0.32681  0.46118  1.0000
  H   H3499     1.0  0.69388  0.26868  0.40248  1.0000
  H   H3500     1.0  0.93299  0.42304  0.41603  1.0000
  H   H3501     1.0  0.84867  0.29241  0.47837  1.0000
  C   C1970     1.0  0.94202  0.41924  0.42777  1.0000
  H   H3502     1.0  0.87783  0.30474  0.62908  1.0000
  C   C1971     1.0  0.85923  0.30564  0.35554  1.0000
  C   C1972     1.0  0.93816  0.36462  0.46916  1.0000
  C   C1973     1.0  0.78273  0.25714  0.54373  1.0000
  H   H3503     1.0  0.90856  0.39229  0.47716  1.0000
  H   H3504     1.0  0.96113  0.40549  0.49167  1.0000
  C   C1974     1.0  0.70177  0.32652  0.32321  1.0000
  H   H3505     1.0  0.91845  0.41023  0.44920  1.0000
  H   H3506     1.0  0.91275  0.28317  0.57125  1.0000
  H   H3507     1.0  0.67753  0.28160  0.38615  1.0000
  H   H3508     1.0  0.88640  0.38482  0.37448  1.0000
  H   H3509     1.0  0.92107  0.25914  0.37212  1.0000
  C   C1975     1.0  0.92443  0.35360  0.61675  1.0000
  H   H3510     1.0  0.86302  0.30659  0.33959  1.0000
  N   N110      1.0  0.82915  0.26106  0.50381  1.0000
  C   C1976     1.0  0.87264  0.23869  0.44383  1.0000
  N   N111      1.0  0.84631  0.30617  0.60884  1.0000
  C   C1977     1.0  0.95667  0.35656  0.45561  1.0000
  C   C1978     1.0  0.95395  0.33853  0.44861  1.0000
  C   C1979     1.0  0.90824  0.29369  0.39071  1.0000
  S   S443      1.0  0.77822  0.26887  0.64702  1.0000
  S   S444      1.0  0.84006  0.24518  0.37169  1.0000
  H   H3511     1.0  0.82078  0.43814  0.33828  1.0000
  H   H3512     1.0  0.82953  0.31956  0.35389  1.0000
  C   C1980     1.0  0.86750  0.31850  0.62855  1.0000
  H   H3513     1.0  0.88176  0.27003  0.35717  1.0000
  H   H3514     1.0  0.98406  0.38002  0.50911  1.0000
  H   H3515     1.0  0.75784  0.30395  0.37018  1.0000
  N   N112      1.0  0.89541  0.29412  0.35883  1.0000
  H   H3516     1.0  0.83938  0.40665  0.33151  1.0000
  H   H3517     1.0  0.76121  0.24662  0.32229  1.0000
  H   H3518     1.0  0.81386  0.30159  0.45652  1.0000
  C   C1981     1.0  0.95499  0.29221  0.61777  1.0000
  H   H3519     1.0  0.83686  0.26534  0.33591  1.0000
  C   C1982     1.0  0.80870  0.30840  0.61677  1.0000
  H   H3520     1.0  0.92056  0.37575  0.51734  1.0000
  H   H3521     1.0  0.78959  0.33608  0.61109  1.0000
  H   H3522     1.0  0.73350  0.26295  0.34391  1.0000
  C   C1983     1.0  0.84771  0.28452  0.61508  1.0000
  H   H3523     1.0  0.94171  0.34199  0.44027  1.0000
  S   S445      1.0  0.97840  0.35635  0.61606  1.0000
  H   H3524     1.0  0.95883  0.26115  0.61556  1.0000
  N   N113      1.0  0.93339  0.29734  0.61790  1.0000
  H   H3525     1.0  0.96131  0.39420  0.45436  1.0000
  H   H3526     1.0  0.94122  0.39889  0.51013  1.0000
  H   H3527     1.0  0.82036  0.31760  0.47022  1.0000
  C   C1984     1.0  0.88882  0.39963  0.33747  1.0000
  C   C1985     1.0  0.91106  0.29840  0.36814  1.0000
  C   C1986     1.0  0.83376  0.29531  0.32298  1.0000
  C   C1987     1.0  0.95375  0.37712  0.49077  1.0000
  H   H3528     1.0  0.79228  0.29814  0.31875  1.0000
  H   H3529     1.0  0.85897  0.40914  0.36589  1.0000
  C   C1988     1.0  0.96932  0.38543  0.51657  1.0000
  H   H3530     1.0  0.82669  0.30837  0.58844  1.0000
  H   H3531     1.0  0.86961  0.24782  0.60948  1.0000
  H   H3532     1.0  0.88427  0.40847  0.32394  1.0000
  H   H3533     1.0  0.95062  0.36403  0.50162  1.0000
  C   C1989     1.0  0.93365  0.40399  0.44384  1.0000
  H   H3534     1.0  0.70639  0.27454  0.63665  1.0000
  H   H3535     1.0  0.81798  0.25961  0.46604  1.0000
  H   H3536     1.0  0.85449  0.37043  0.34199  1.0000
  C   C1990     1.0  0.91936  0.39022  0.48701  1.0000
  C   C1991     1.0  0.83033  0.24498  0.49234  1.0000
  H   H3537     1.0  0.88551  0.37637  0.52788  1.0000
  H   H3538     1.0  0.87369  0.32911  0.61644  1.0000
  H   H3539     1.0  0.83662  0.31056  0.44899  1.0000
  C   C1992     1.0  0.90958  0.38833  0.33216  1.0000
  H   H3540     1.0  0.90854  0.35592  0.61676  1.0000
  C   C1993     1.0  0.65847  0.28568  0.32483  1.0000
  H   H3541     1.0  0.81987  0.29197  0.50274  1.0000
  H   H3542     1.0  0.59985  0.25558  0.33209  1.0000
  H   H3543     1.0  0.81938  0.29885  0.33108  1.0000
  H   H3544     1.0  0.82472  0.32978  0.59830  1.0000
  H   H3545     1.0  0.89143  0.33293  0.57526  1.0000
  C   C1994     1.0  0.87960  0.24280  0.52110  1.0000
  H   H3546     1.0  0.85500  0.42416  0.33061  1.0000
  H   H3547     1.0  0.80756  0.29297  0.61738  1.0000
  H   H3548     1.0  0.98224  0.47942  0.34101  1.0000
  C   C1995     1.0  0.89080  0.38593  0.51431  1.0000
  H   H3549     1.0  0.95211  0.28695  0.58068  1.0000
  C   C1996     1.0  0.67372  0.26995  0.32590  1.0000
  C   C1997     1.0  0.79437  0.25800  0.52311  1.0000
  H   H3550     1.0  0.89500  0.36505  0.36159  1.0000
  C   C1998     1.0  0.69193  0.28089  0.39025  1.0000
  H   H3551     1.0  0.92791  0.26067  0.64299  1.0000
  H   H3552     1.0  0.74938  0.27608  0.36043  1.0000
  Fe  Fe219     1.0  0.88376  0.46311  0.32606  1.0000
  H   H3553     1.0  0.93337  0.39138  0.43704  1.0000
  H   H3554     1.0  0.71360  0.26640  0.33185  1.0000
  C   C1999     1.0  0.86639  0.27353  0.62278  1.0000
  C   C2000     1.0  0.71139  0.30560  0.32023  1.0000
  H   H3555     1.0  0.88083  0.38709  0.50376  1.0000
  S   S446      1.0  0.90178  0.47159  0.37234  1.0000
  H   H3556     1.0  0.92954  0.27110  0.60898  1.0000
  N   N114      1.0  0.87383  0.38735  0.34847  1.0000
  H   H3557     1.0  0.77077  0.31100  0.34600  1.0000
  H   H3558     1.0  0.91685  0.28943  0.33328  1.0000
  H   H3559     1.0  0.91337  0.32286  0.60829  1.0000
  H   H3560     1.0  0.89046  0.40052  0.51775  1.0000
  C   C2001     1.0  0.92867  0.27885  0.57088  1.0000
  C   C2002     1.0  0.88173  0.37532  0.36613  1.0000
  C   C2003     1.0  0.95541  0.39321  0.50191  1.0000
  H   H3561     1.0  0.91080  0.29112  0.60505  1.0000
  H   H3562     1.0  0.93526  0.35254  0.48137  1.0000
  H   H3563     1.0  0.92405  0.32889  0.63925  1.0000
  C   C2004     1.0  0.79004  0.32053  0.61059  1.0000
  H   H3564     1.0  0.68846  0.32632  0.33439  1.0000
  C   C2005     1.0  0.93607  0.29088  0.58259  1.0000
  H   H3565     1.0  0.92297  0.29441  0.41443  1.0000
  H   H3566     1.0  0.93589  0.28130  0.55547  1.0000
  H   H3567     1.0  0.85624  0.37243  0.38914  1.0000
  C   C2006     1.0  0.82694  0.31368  0.60209  1.0000
  H   H3568     1.0  0.78333  0.27018  0.54979  1.0000
  H   H3569     1.0  0.90698  0.27823  0.39621  1.0000
  C   C2007     1.0  0.90160  0.31862  0.32684  1.0000
  C   C2008     1.0  0.92232  0.29291  0.63837  1.0000
  H   H3570     1.0  0.96859  0.37279  0.48284  1.0000
  H   H3571     1.0  0.96932  0.35237  0.46336  1.0000
  Fe  Fe220     1.0  0.74757  0.27445  0.64164  1.0000
  C   C2009     1.0  0.94577  0.39825  0.46066  1.0000
  C   C2010     1.0  0.86637  0.32619  0.64742  1.0000
  H   H3572     1.0  0.81888  0.47342  0.32427  1.0000
  N   N115      1.0  0.72011  0.29302  0.33717  1.0000
  C   C2011     1.0  0.86782  0.25165  0.62421  1.0000
  C   C2012     1.0  0.70417  0.29269  0.35473  1.0000
  H   H3573     1.0  0.97041  0.39716  0.52431  1.0000
  C   C2013     1.0  0.73666  0.30180  0.34053  1.0000
  C   C2014     1.0  0.75393  0.28772  0.34869  1.0000
  C   C2015     1.0  0.69693  0.26878  0.62929  1.0000
  C   C2016     1.0  0.85811  0.24293  0.52113  1.0000
  C   C2017     1.0  0.70826  0.27778  0.37306  1.0000
  C   C2018     1.0  0.76621  0.29854  0.35685  1.0000
  C   C2019     1.0  0.87931  0.33488  0.56694  1.0000
  H   H3574     1.0  0.76729  0.25669  0.54342  1.0000
  H   H3575     1.0  0.69212  0.29461  0.39531  1.0000
  H   H3576     1.0  0.74330  0.31024  0.32674  1.0000
  H   H3577     1.0  0.70032  0.30713  0.35943  1.0000
  H   H3578     1.0  0.69064  0.28990  0.35086  1.0000
  C   C2020     1.0  0.86107  0.25872  0.41552  1.0000
  H   H3579     1.0  0.88466  0.25326  0.46162  1.0000
  H   H3580     1.0  0.96392  0.37345  0.52758  1.0000
  H   H3581     1.0  0.73102  0.31281  0.35028  1.0000
  H   H3582     1.0  0.98640  0.38148  0.64669  1.0000
  C   C2021     1.0  0.81531  0.24776  0.47844  1.0000
  H   H3583     1.0  0.69037  0.28087  0.61890  1.0000
  H   H3584     1.0  0.72166  0.27939  0.37772  1.0000
  C   C2022     1.0  0.93184  0.33236  0.62420  1.0000
  H   H3585     1.0  0.79260  0.24505  0.51761  1.0000
  H   H3586     1.0  0.95938  0.30006  0.62779  1.0000
  C   C2023     1.0  0.96299  0.27057  0.62416  1.0000
  H   H3587     1.0  0.77943  0.28850  0.36078  1.0000
  C   C2024     1.0  0.84924  0.26115  0.50779  1.0000
  C   C2025     1.0  0.86937  0.37396  0.33644  1.0000
  H   H3588     1.0  0.78783  0.27130  0.51418  1.0000
  H   H3589     1.0  0.87909  0.32279  0.36125  1.0000
  C   C2026     1.0  0.86772  0.36298  0.38070  1.0000
  C   C2027     1.0  0.84713  0.31588  0.62570  1.0000
  C   C2028     1.0  0.90182  0.29722  0.33703  1.0000
  H   H3590     1.0  0.87971  0.27756  0.61318  1.0000
  H   H3591     1.0  0.92730  0.36286  0.62637  1.0000
  C   C2029     1.0  0.84519  0.41473  0.34027  1.0000
  C   C2030     1.0  0.82788  0.42796  0.34976  1.0000
  H   H3592     1.0  0.84873  0.33435  0.57159  1.0000
  H   H3593     1.0  0.87749  0.34995  0.55883  1.0000
  H   H3594     1.0  0.93202  0.26313  0.57664  1.0000
  C   C2031     1.0  0.86200  0.31009  0.59153  1.0000
  H   H3595     1.0  0.86069  0.35485  0.37305  1.0000
  H   H3596     1.0  0.88053  0.24398  0.63109  1.0000
  H   H3597     1.0  0.85682  0.34181  0.59095  1.0000
  H   H3598     1.0  0.83833  0.33069  0.62438  1.0000
  C   C2032     1.0  0.91570  0.27275  0.64479  1.0000
  H   H3599     1.0  0.96030  0.36736  0.44248  1.0000
  H   H3600     1.0  0.91699  0.38489  0.34510  1.0000
  H   H3601     1.0  0.70937  0.26275  0.37034  1.0000
  H   H3602     1.0  0.90477  0.27145  0.63616  1.0000
  C   C2033     1.0  0.89207  0.27343  0.36548  1.0000
  H   H3603     1.0  0.99014  0.27546  0.63075  1.0000
  H   H3604     1.0  0.93216  0.30630  0.57615  1.0000
  C   C2034     1.0  0.87780  0.25495  0.44897  1.0000
  H   H3605     1.0  0.80022  0.25141  0.48585  1.0000
  H   H3606     1.0  0.91885  0.40494  0.49031  1.0000
  H   H3607     1.0  0.85449  0.26038  0.40270  1.0000
  C   C2035     1.0  0.86041  0.33132  0.58064  1.0000
  H   H3608     1.0  0.70598  0.25763  0.62096  1.0000
  H   H3609     1.0  0.62204  0.24600  0.35499  1.0000
  H   H3610     1.0  0.94750  0.33104  0.62476  1.0000
  H   H3611     1.0  0.91753  0.25854  0.34785  1.0000
  S   S447      1.0  0.87661  0.24902  0.32281  1.0000
  H   H3612     1.0  0.89015  0.41055  0.34618  1.0000
  H   H3613     1.0  0.85421  0.29154  0.36172  1.0000
  H   H3614     1.0  0.91105  0.36269  0.50319  1.0000
  H   H3615     1.0  0.80933  0.31067  0.63161  1.0000
  H   H3616     1.0  0.82102  0.24332  0.53174  1.0000
  H   H3617     1.0  0.93787  0.32310  0.59648  1.0000
  H   H3618     1.0  0.94960  0.41800  0.62077  1.0000
  H   H3619     1.0  0.92676  0.31349  0.39398  1.0000
  C   C2036     1.0  0.98516  0.26701  0.62165  1.0000
  H   H3620     1.0  0.77725  0.31554  0.62065  1.0000
  H   H3621     1.0  0.90865  0.30349  0.64042  1.0000
  C   C2037     1.0  0.91040  0.25768  0.36329  1.0000
  H   H3622     1.0  0.89283  0.29058  0.32986  1.0000
  H   H3623     1.0  0.95708  0.41353  0.42134  1.0000
  C   C2038     1.0  0.84390  0.27640  0.32616  1.0000
  H   H3624     1.0  0.60960  0.28819  0.32536  1.0000
  C   C2039     1.0  0.81149  0.48141  0.35246  1.0000
  H   H3625     1.0  0.95764  0.26612  0.63986  1.0000
  H   H3626     1.0  0.88146  0.25544  0.52710  1.0000
  H   H3627     1.0  0.63581  0.25915  0.32544  1.0000
  H   H3628     1.0  0.84019  0.30784  0.63964  1.0000
  H   H3629     1.0  0.98100  0.31455  0.55232  1.0000
  H   H3630     1.0  0.82301  0.47119  0.35941  1.0000
  C   C2040     1.0  0.81612  0.25772  0.52329  1.0000
  C   C2041     1.0  0.95688  0.40354  0.62708  1.0000
  H   H3631     1.0  0.94689  0.39292  0.62885  1.0000
  C   C2042     1.0  0.86462  0.24039  0.42684  1.0000
  H   H3632     1.0  0.78850  0.24396  0.55349  1.0000
  C   C2043     1.0  0.90502  0.23744  0.37007  1.0000
  H   H3633     1.0  0.79830  0.47451  0.35516  1.0000
  H   H3634     1.0  0.85596  0.33998  0.64774  1.0000
  Fe  Fe221     1.0  0.98801  0.34286  0.58882  1.0000
  C   C2044     1.0  0.68094  0.26011  0.64414  1.0000
  H   H3635     1.0  0.88086  0.32899  0.64863  1.0000
  H   H3636     1.0  0.97192  0.41544  0.64390  1.0000
  C   C2045     1.0  0.60764  0.26070  0.31742  1.0000
  H   H3637     1.0  0.89755  0.23573  0.38546  1.0000
  H   H3638     1.0  0.93085  0.29482  0.64926  1.0000
  Fe  Fe222     1.0  0.75083  0.23509  0.63092  1.0000
  C   C2046     1.0  0.86299  0.27196  0.31677  1.0000
  Fe  Fe223     1.0  0.87577  0.26668  0.74041  1.0000
  S   S448      1.0  0.87316  0.29368  0.75330  1.0000
  Fe  Fe224     1.0  0.85109  0.28659  0.70985  1.0000
  S   S449      1.0  0.84585  0.31506  0.72016  1.0000
  S   S450      1.0  0.84235  0.28300  0.68232  1.0000
  Fe  Fe225     1.0  0.87761  0.30887  0.72210  1.0000
  S   S451      1.0  0.89497  0.33295  0.70798  1.0000
  Fe  Fe226     1.0  0.84166  0.29751  0.75024  1.0000
  S   S452      1.0  0.81640  0.30830  0.77237  1.0000
  S   S453      1.0  0.88302  0.28151  0.70975  1.0000
  S   S454      1.0  0.84402  0.26943  0.73959  1.0000
  C   C2047     1.0  0.92575  0.33979  0.67892  1.0000
  H   H3639     1.0  0.84121  0.27412  0.85622  1.0000
  S   S455      1.0  0.76686  0.25904  0.89774  1.0000
  H   H3640     1.0  0.57240  0.25510  0.90778  1.0000
  Fe  Fe227     1.0  0.71714  0.27254  0.88039  1.0000
  S   S456      1.0  0.74134  0.28965  0.86784  1.0000
  S   S457      1.0  0.68809  0.27979  0.87059  1.0000
  Fe  Fe228     1.0  0.76033  0.26051  0.86779  1.0000
  S   S458      1.0  0.78365  0.24899  0.84440  1.0000
  Fe  Fe229     1.0  0.74517  0.28641  0.89891  1.0000
  S   S459      1.0  0.75122  0.31060  0.91157  1.0000
  C   C2048     1.0  0.90598  0.27010  0.66605  1.0000
  S   S460      1.0  0.71960  0.27141  0.91157  1.0000
  H   H3641     1.0  0.75212  0.31904  0.72612  1.0000
  H   H3642     1.0  0.49942  0.38554  0.92670  1.0000
  H   H3643     1.0  0.59840  0.31939  0.83925  1.0000
  Fe  Fe230     1.0  0.67634  0.28072  0.77293  1.0000
  S   S461      1.0  0.64764  0.29660  0.76558  1.0000
  S   S462      1.0  0.69901  0.29522  0.77921  1.0000
  N   N116      1.0  0.69194  0.25523  0.98022  1.0000
  S   S463      1.0  0.63951  0.25426  0.76024  1.0000
  H   H3644     1.0  0.68305  0.32610  0.71066  1.0000
  Fe  Fe231     1.0  0.65472  0.27818  0.74191  1.0000
  S   S464      1.0  0.65113  0.29045  0.71079  1.0000
  Fe  Fe232     1.0  0.63544  0.27109  0.78472  1.0000
  S   S465      1.0  0.61146  0.26659  0.81050  1.0000
  S   S466      1.0  0.68419  0.26401  0.74830  1.0000
  S   S467      1.0  0.66386  0.25670  0.79386  1.0000
  Fe  Fe233     1.0  0.52595  0.30363  0.91434  1.0000
  S   S468      1.0  0.52308  0.33278  0.89554  1.0000
  S   S469      1.0  0.54833  0.29438  0.93498  1.0000
  Fe  Fe234     1.0  0.52214  0.31656  0.87181  1.0000
  S   S470      1.0  0.53944  0.32620  0.84229  1.0000
  S   S471      1.0  0.52660  0.28701  0.89021  1.0000
  C   C2049     1.0  0.59140  0.28355  0.81834  1.0000
  C   C2050     1.0  0.58740  0.30235  0.80809  1.0000
  C   C2051     1.0  0.57126  0.31534  0.81541  1.0000
  C   C2052     1.0  0.55919  0.30957  0.83296  1.0000
  C   C2053     1.0  0.56317  0.29070  0.84296  1.0000
  C   C2054     1.0  0.57913  0.27773  0.83563  1.0000
  H   H3645     1.0  0.59677  0.30691  0.79468  1.0000
  H   H3646     1.0  0.56824  0.32993  0.80755  1.0000
  H   H3647     1.0  0.55395  0.28599  0.85632  1.0000
  H   H3648     1.0  0.58207  0.26314  0.84353  1.0000
  H   H3649     1.0  0.59730  0.26476  0.77242  1.0000
  C   C2055     1.0  0.67256  0.29323  0.69378  1.0000
  C   C2056     1.0  0.68996  0.28037  0.69552  1.0000
  H   H3650     1.0  0.70015  0.30329  0.73531  1.0000
  H   H3651     1.0  0.78309  0.31331  0.73933  1.0000
  H   H3652     1.0  0.69045  0.26840  0.70743  1.0000
  C   C2057     1.0  0.68879  0.31089  0.66409  1.0000
  C   C2058     1.0  0.56294  0.30889  0.94147  1.0000
  C   C2059     1.0  0.92212  0.38197  0.70706  1.0000
  C   C2060     1.0  0.58478  0.33142  0.95484  1.0000
  C   C2061     1.0  0.57219  0.34003  0.94140  1.0000
  C   C2062     1.0  0.56137  0.32886  0.93470  1.0000
  H   H3653     1.0  0.57055  0.35552  0.93640  1.0000
  H   H3654     1.0  0.55143  0.33576  0.92473  1.0000
  C   C2063     1.0  0.69073  0.28615  0.84516  1.0000
  C   C2064     1.0  0.67472  0.28806  0.83585  1.0000
  C   C2065     1.0  0.67703  0.29187  0.81548  1.0000
  C   C2066     1.0  0.69524  0.29423  0.80441  1.0000
  C   C2067     1.0  0.71105  0.29312  0.81370  1.0000
  C   C2068     1.0  0.70887  0.28862  0.83400  1.0000
  H   H3655     1.0  0.66072  0.28591  0.84433  1.0000
  H   H3656     1.0  0.66478  0.29267  0.80831  1.0000
  H   H3657     1.0  0.72524  0.29455  0.80518  1.0000
  H   H3658     1.0  0.72139  0.28662  0.84085  1.0000
  C   C2069     1.0  0.73337  0.31818  0.93080  1.0000
  C   C2070     1.0  0.71399  0.31537  0.93320  1.0000
  C   C2071     1.0  0.70031  0.32144  0.94900  1.0000
  C   C2072     1.0  0.70613  0.33015  0.96243  1.0000
  C   C2073     1.0  0.72540  0.33311  0.95981  1.0000
  C   C2074     1.0  0.73889  0.32730  0.94403  1.0000
  H   H3659     1.0  0.70944  0.30894  0.92268  1.0000
  H   H3660     1.0  0.68538  0.31930  0.95083  1.0000
  H   H3661     1.0  0.61841  0.23884  0.71911  1.0000
  H   H3662     1.0  0.75376  0.32959  0.94225  1.0000
  C   C2075     1.0  0.82607  0.26661  0.68641  1.0000
  C   C2076     1.0  0.81470  0.26203  0.70464  1.0000
  H   H3663     1.0  0.59695  0.30448  0.97090  1.0000
  C   C2077     1.0  0.58664  0.27425  0.74541  1.0000
  H   H3664     1.0  0.59414  0.34917  0.85861  1.0000
  C   C2078     1.0  0.51294  0.38721  0.91604  1.0000
  H   H3665     1.0  0.81592  0.26858  0.71669  1.0000
  H   H3666     1.0  0.69538  0.25231  0.66889  1.0000
  H   H3667     1.0  0.57752  0.28473  0.95956  1.0000
  C   C2079     1.0  0.80664  0.29121  0.79138  1.0000
  C   C2080     1.0  0.78970  0.29731  0.80398  1.0000
  C   C2081     1.0  0.78225  0.28435  0.82005  1.0000
  C   C2082     1.0  0.79173  0.26520  0.82359  1.0000
  C   C2083     1.0  0.80840  0.25896  0.81073  1.0000
  C   C2084     1.0  0.81586  0.27194  0.79466  1.0000
  H   H3668     1.0  0.78244  0.31217  0.80140  1.0000
  H   H3669     1.0  0.76928  0.28923  0.82976  1.0000
  H   H3670     1.0  0.66105  0.27604  0.92399  1.0000
  H   H3671     1.0  0.82895  0.26714  0.78503  1.0000
  C   C2085     1.0  0.95381  0.31557  0.67090  1.0000
  C   C2086     1.0  0.94520  0.30169  0.68504  1.0000
  C   C2087     1.0  0.92692  0.30682  0.69611  1.0000
  C   C2088     1.0  0.91725  0.32593  0.69327  1.0000
  H   H3672     1.0  0.67493  0.28268  0.96941  1.0000
  H   H3673     1.0  0.79122  0.28957  0.75202  1.0000
  H   H3674     1.0  0.95279  0.28695  0.68762  1.0000
  H   H3675     1.0  0.92061  0.29610  0.70727  1.0000
  N   N117      1.0  0.60305  0.30953  0.87815  1.0000
  C   C2089     1.0  0.61836  0.31422  0.86069  1.0000
  C   C2090     1.0  0.61027  0.30956  0.89688  1.0000
  C   C2091     1.0  0.59948  0.28929  0.87836  1.0000
  C   C2092     1.0  0.58404  0.32320  0.87708  1.0000
  C   C2093     1.0  0.58516  0.34511  0.87296  1.0000
  C   C2094     1.0  0.61360  0.31291  0.84066  1.0000
  C   C2095     1.0  0.58452  0.28136  0.89565  1.0000
  C   C2096     1.0  0.62536  0.32295  0.89593  1.0000
  C   C2097     1.0  0.62818  0.32455  0.91627  1.0000
  C   C2098     1.0  0.62671  0.32344  0.82389  1.0000
  C   C2099     1.0  0.58337  0.26026  0.89536  1.0000
  H   H3676     1.0  0.63228  0.30420  0.86240  1.0000
  H   H3677     1.0  0.62178  0.32893  0.85968  1.0000
  H   H3678     1.0  0.59787  0.31301  0.90862  1.0000
  H   H3679     1.0  0.61761  0.29480  0.90259  1.0000
  H   H3680     1.0  0.61342  0.27891  0.87818  1.0000
  H   H3681     1.0  0.59393  0.28855  0.86503  1.0000
  H   H3682     1.0  0.57650  0.32018  0.86595  1.0000
  H   H3683     1.0  0.57378  0.32066  0.89101  1.0000
  H   H3684     1.0  0.59120  0.34906  0.88457  1.0000
  H   H3685     1.0  0.61596  0.29747  0.83879  1.0000
  H   H3686     1.0  0.56979  0.28981  0.89470  1.0000
  H   H3687     1.0  0.58830  0.28207  0.90987  1.0000
  H   H3688     1.0  0.63967  0.31682  0.88810  1.0000
  H   H3689     1.0  0.62109  0.33783  0.88831  1.0000
  H   H3690     1.0  0.61511  0.33328  0.92352  1.0000
  H   H3691     1.0  0.63080  0.31001  0.92530  1.0000
  H   H3692     1.0  0.64080  0.33193  0.91523  1.0000
  H   H3693     1.0  0.62435  0.32049  0.80983  1.0000
  Fe  Fe235     1.0  0.77148  0.23981  0.66262  1.0000
  H   H3694     1.0  0.82892  0.27361  0.88099  1.0000
  S   S472      1.0  0.74046  0.24636  0.65898  1.0000
  C   C2100     1.0  0.77732  0.31038  0.66889  1.0000
  H   H3695     1.0  0.69818  0.29273  0.98179  1.0000
  H   H3696     1.0  0.71043  0.32259  0.74018  1.0000
  H   H3697     1.0  0.69776  0.27721  0.95471  1.0000
  H   H3698     1.0  0.86170  0.31542  0.66024  1.0000
  C   C2101     1.0  0.93751  0.38917  0.69033  1.0000
  H   H3699     1.0  0.59763  0.25091  0.89675  1.0000
  C   C2102     1.0  0.77820  0.29979  0.74789  1.0000
  H   H3700     1.0  0.95479  0.36179  0.68799  1.0000
  C   C2103     1.0  0.68875  0.33151  0.72170  1.0000
  H   H3701     1.0  0.49630  0.39639  0.83023  1.0000
  H   H3702     1.0  0.71681  0.31126  0.69928  1.0000
  C   C2104     1.0  0.70578  0.31695  0.72867  1.0000
  H   H3703     1.0  0.55778  0.35349  0.86166  1.0000
  H   H3704     1.0  0.59968  0.26674  0.73684  1.0000
  S   S473      1.0  0.89290  0.23713  0.74859  1.0000
  H   H3705     1.0  0.53111  0.44150  0.83839  1.0000
  C   C2105     1.0  0.57605  0.30019  0.95436  1.0000
  H   H3706     1.0  0.65861  0.31829  0.67633  1.0000
  H   H3707     1.0  0.52982  0.42598  0.82151  1.0000
  C   C2106     1.0  0.70670  0.28272  0.68151  1.0000
  C   C2107     1.0  0.73546  0.24277  0.73175  1.0000
  N   N118      1.0  0.73969  0.29817  0.71612  1.0000
  H   H3708     1.0  0.54148  0.25705  0.83258  1.0000
  C   C2108     1.0  0.70863  0.38856  0.96988  1.0000
  S   S474      1.0  0.59706  0.34648  0.96371  1.0000
  C   C2109     1.0  0.70617  0.29801  0.66572  1.0000
  H   H3709     1.0  0.67685  0.33346  0.73421  1.0000
  H   H3710     1.0  0.68717  0.25471  0.93954  1.0000
  C   C2110     1.0  0.95734  0.37571  0.69097  1.0000
  H   H3711     1.0  0.92079  0.36675  0.70681  1.0000
  H   H3712     1.0  0.95041  0.34524  0.65659  1.0000
  C   C2111     1.0  0.97210  0.38452  0.65621  1.0000
  H   H3713     1.0  0.76916  0.30803  0.65800  1.0000
  C   C2112     1.0  0.76347  0.26110  0.78812  1.0000
  H   H3714     1.0  0.78113  0.24449  0.76700  1.0000
  H   H3715     1.0  0.72440  0.25551  0.80700  1.0000
  H   H3716     1.0  0.94859  0.41021  0.65591  1.0000
  H   H3717     1.0  0.96606  0.41307  0.67926  1.0000
  H   H3718     1.0  0.77867  0.28773  0.72264  1.0000
  H   H3719     1.0  0.64087  0.24632  0.86706  1.0000
  H   H3720     1.0  0.97813  0.39933  0.69810  1.0000
  N   N119      1.0  0.97468  0.38247  0.67718  1.0000
  H   H3721     1.0  0.81579  0.24415  0.81338  1.0000
  H   H3722     1.0  0.73899  0.30426  0.74493  1.0000
  H   H3723     1.0  0.75105  0.26623  0.78007  1.0000
  H   H3724     1.0  0.62202  0.25878  0.69942  1.0000
  H   H3725     1.0  0.71831  0.27958  0.71837  1.0000
  C   C2113     1.0  0.74473  0.26021  0.72061  1.0000
  H   H3726     1.0  0.67809  0.29025  0.92727  1.0000
  H   H3727     1.0  0.72663  0.27854  0.74045  1.0000
  H   H3728     1.0  0.76466  0.27664  0.74458  1.0000
  H   H3729     1.0  0.49953  0.43376  0.86050  1.0000
  H   H3730     1.0  0.65503  0.29016  0.94345  1.0000
  H   H3731     1.0  0.54565  0.25687  0.78864  1.0000
  H   H3732     1.0  0.91819  0.35455  0.67650  1.0000
  C   C2114     1.0  0.75343  0.29632  0.69717  1.0000
  H   H3733     1.0  0.79216  0.24617  0.72103  1.0000
  H   H3734     1.0  0.69940  0.25563  0.80606  1.0000
  H   H3735     1.0  0.55033  0.42150  0.83400  1.0000
  C   C2115     1.0  0.53438  0.42635  0.83548  1.0000
  C   C2116     1.0  0.71543  0.40033  0.95013  1.0000
  H   H3736     1.0  0.74563  0.29305  0.68636  1.0000
  H   H3737     1.0  0.96024  0.37276  0.70623  1.0000
  H   H3738     1.0  0.67462  0.24791  0.85021  1.0000
  H   H3739     1.0  0.73002  0.33973  0.97018  1.0000
  H   H3740     1.0  0.80924  0.23976  0.66091  1.0000
  C   C2117     1.0  0.67201  0.30834  0.67787  1.0000
  H   H3741     1.0  0.72139  0.24313  0.72709  1.0000
  C   C2118     1.0  0.82422  0.25830  0.67084  1.0000
  H   H3742     1.0  0.66806  0.40694  0.97262  1.0000
  H   H3743     1.0  0.58870  0.28946  0.74457  1.0000
  H   H3744     1.0  0.74693  0.25930  0.70488  1.0000
  C   C2119     1.0  0.66700  0.28116  0.93503  1.0000
  H   H3745     1.0  0.89278  0.28125  0.66807  1.0000
  C   C2120     1.0  0.94397  0.33459  0.66767  1.0000
  H   H3746     1.0  0.86526  0.30125  0.81609  1.0000
  H   H3747     1.0  0.72900  0.40573  0.95032  1.0000
  H   H3748     1.0  0.72010  0.37576  0.97246  1.0000
  H   H3749     1.0  0.50553  0.37260  0.89581  1.0000
  H   H3750     1.0  0.57884  0.25894  0.88165  1.0000
  C   C2121     1.0  0.50183  0.41975  0.85513  1.0000
  C   C2122     1.0  0.82729  0.27242  0.86609  1.0000
  H   H3751     1.0  0.60849  0.23810  0.79039  1.0000
  H   H3752     1.0  0.56616  0.24402  0.76392  1.0000
  H   H3753     1.0  0.90778  0.39115  0.70570  1.0000
  H   H3754     1.0  0.96392  0.37327  0.65469  1.0000
  H   H3755     1.0  0.75805  0.25947  0.80403  1.0000
  H   H3756     1.0  0.57176  0.27310  0.77476  1.0000
  C   C2123     1.0  0.65277  0.24514  0.87547  1.0000
  C   C2124     1.0  0.76809  0.29061  0.73582  1.0000
  H   H3757     1.0  0.52828  0.35007  0.95817  1.0000
  H   H3758     1.0  0.52974  0.41349  0.86542  1.0000
  H   H3759     1.0  0.53981  0.23714  0.80756  1.0000
  C   C2125     1.0  0.53943  0.26377  0.81747  1.0000
  H   H3760     1.0  0.83306  0.26168  0.65689  1.0000
  C   C2126     1.0  0.54807  0.24945  0.80340  1.0000
  H   H3761     1.0  0.77198  0.31771  0.69740  1.0000
  C   C2127     1.0  0.50958  0.38687  0.89554  1.0000
  H   H3762     1.0  0.97997  0.33993  0.68967  1.0000
  C   C2128     1.0  0.74915  0.30391  0.73086  1.0000
  H   H3763     1.0  0.52818  0.39810  0.84851  1.0000
  C   C2129     1.0  0.76338  0.31420  0.68752  1.0000
  H   H3764     1.0  0.68822  0.32276  0.65197  1.0000
  C   C2130     1.0  0.72289  0.31401  0.71160  1.0000
  H   H3765     1.0  0.55587  0.35507  0.88715  1.0000
  H   H3766     1.0  0.65093  0.25443  0.67280  1.0000
  H   H3767     1.0  0.76835  0.30323  0.76139  1.0000
  H   H3768     1.0  0.52858  0.32429  0.96507  1.0000
  H   H3769     1.0  0.69327  0.34578  0.71531  1.0000
  H   H3770     1.0  0.64221  0.31841  0.82521  1.0000
  H   H3771     1.0  0.56632  0.37294  0.86856  1.0000
  H   H3772     1.0  0.85518  0.23735  0.77210  1.0000
  H   H3773     1.0  0.71839  0.39098  0.93875  1.0000
  H   H3774     1.0  0.52362  0.26823  0.81723  1.0000
  H   H3775     1.0  0.70402  0.41280  0.94629  1.0000
  C   C2131     1.0  0.58701  0.31135  0.96092  1.0000
  N   N120      1.0  0.81291  0.30864  0.85604  1.0000
  C   C2132     1.0  0.79594  0.32109  0.84741  1.0000
  C   C2133     1.0  0.83133  0.31200  0.84207  1.0000
  C   C2134     1.0  0.81019  0.28770  0.85925  1.0000
  C   C2135     1.0  0.81404  0.31372  0.87533  1.0000
  C   C2136     1.0  0.81575  0.33515  0.87503  1.0000
  C   C2137     1.0  0.77626  0.32325  0.86143  1.0000
  C   C2138     1.0  0.50220  0.34033  0.95639  1.0000
  C   C2139     1.0  0.83359  0.30518  0.82220  1.0000
  C   C2140     1.0  0.85265  0.30924  0.80919  1.0000
  C   C2141     1.0  0.81332  0.33939  0.89570  1.0000
  C   C2142     1.0  0.75979  0.33403  0.85054  1.0000
  H   H3776     1.0  0.79351  0.31518  0.83491  1.0000
  H   H3777     1.0  0.79909  0.33595  0.84105  1.0000
  H   H3778     1.0  0.83225  0.32775  0.83864  1.0000
  H   H3779     1.0  0.84436  0.30515  0.84886  1.0000
  H   H3780     1.0  0.80706  0.28403  0.84585  1.0000
  H   H3781     1.0  0.79714  0.28519  0.87034  1.0000
  H   H3782     1.0  0.80133  0.30984  0.88641  1.0000
  H   H3783     1.0  0.82695  0.30488  0.88118  1.0000
  H   H3784     1.0  0.80463  0.34548  0.86766  1.0000
  H   H3785     1.0  0.83029  0.33814  0.86731  1.0000
  H   H3786     1.0  0.77258  0.30892  0.86868  1.0000
  H   H3787     1.0  0.77668  0.33155  0.87294  1.0000
  S   S475      1.0  0.73574  0.24363  0.87815  1.0000
  H   H3788     1.0  0.78861  0.29750  0.67192  1.0000
  H   H3789     1.0  0.83353  0.28938  0.82404  1.0000
  H   H3790     1.0  0.82165  0.31299  0.81428  1.0000
  H   H3791     1.0  0.85365  0.30435  0.79507  1.0000
  H   H3792     1.0  0.85325  0.32502  0.80619  1.0000
  C   C2143     1.0  0.51973  0.33874  0.96638  1.0000
  H   H3793     1.0  0.79864  0.33727  0.90380  1.0000
  H   H3794     1.0  0.82449  0.32972  0.90364  1.0000
  H   H3795     1.0  0.81497  0.35467  0.89514  1.0000
  H   H3796     1.0  0.75814  0.32592  0.83929  1.0000
  H   H3797     1.0  0.74594  0.33545  0.86097  1.0000
  H   H3798     1.0  0.76263  0.34879  0.84348  1.0000
  C   C2144     1.0  0.58412  0.26427  0.76663  1.0000
  H   H3799     1.0  0.72779  0.32831  0.70668  1.0000
  C   C2145     1.0  0.73155  0.27956  0.72444  1.0000
  H   H3800     1.0  0.75257  0.32710  0.68345  1.0000
  H   H3801     1.0  0.69531  0.38313  0.96899  1.0000
  C   C2146     1.0  0.81072  0.24591  0.67318  1.0000
  H   H3802     1.0  0.76538  0.28387  0.69892  1.0000
  H   H3803     1.0  0.62328  0.33934  0.82377  1.0000
  H   H3804     1.0  0.73391  0.28893  0.97963  1.0000
  H   H3805     1.0  0.72149  0.26093  0.97327  1.0000
  C   C2147     1.0  0.56500  0.35733  0.87256  1.0000
  H   H3806     1.0  0.68366  0.23723  0.87269  1.0000
  H   H3807     1.0  0.91613  0.27131  0.67563  1.0000
  C   C2148     1.0  0.52407  0.41292  0.85212  1.0000
  C   C2149     1.0  0.56989  0.24191  0.80440  1.0000
  H   H3808     1.0  0.83576  0.24117  0.87248  1.0000
  H   H3809     1.0  0.72009  0.27293  0.68317  1.0000
  H   H3810     1.0  0.69948  0.41577  0.98084  1.0000
  C   C2150     1.0  0.82382  0.25182  0.86665  1.0000
  H   H3811     1.0  0.57709  0.25426  0.80487  1.0000
  H   H3812     1.0  0.75906  0.25889  0.72490  1.0000
  C   C2151     1.0  0.80114  0.24947  0.70706  1.0000
  C   C2152     1.0  0.62946  0.24693  0.70941  1.0000
  H   H3813     1.0  0.66488  0.25373  0.69083  1.0000
  H   H3814     1.0  0.82354  0.24942  0.85175  1.0000
  H   H3815     1.0  0.63661  0.25334  0.71855  1.0000
  H   H3816     1.0  0.90150  0.25558  0.67045  1.0000
  H   H3817     1.0  0.93821  0.40423  0.69157  1.0000
  H   H3818     1.0  0.66443  0.25506  0.95564  1.0000
  H   H3819     1.0  0.92587  0.38273  0.72130  1.0000
  C   C2153     1.0  0.68529  0.27046  0.96364  1.0000
  H   H3820     1.0  0.50765  0.37907  0.86210  1.0000
  H   H3821     1.0  0.50817  0.36082  0.83586  1.0000
  H   H3822     1.0  0.93238  0.38908  0.67658  1.0000
  H   H3823     1.0  0.57080  0.37918  0.97604  1.0000
  H   H3824     1.0  0.78469  0.32312  0.66263  1.0000
  C   C2154     1.0  0.79880  0.24190  0.69110  1.0000
  H   H3825     1.0  0.65308  0.25978  0.87842  1.0000
  C   C2155     1.0  0.67594  0.26377  0.94864  1.0000
  H   H3826     1.0  0.77310  0.27224  0.78440  1.0000
  H   H3827     1.0  0.78720  0.23795  0.79111  1.0000
  C   C2156     1.0  0.71335  0.24621  0.80810  1.0000
  H   H3828     1.0  0.50728  0.33859  0.94092  1.0000
  C   C2157     1.0  0.77501  0.24194  0.78274  1.0000
  H   H3829     1.0  0.80986  0.24920  0.87611  1.0000
  H   H3830     1.0  0.52443  0.37494  0.92021  1.0000
  C   C2158     1.0  0.58036  0.24313  0.76864  1.0000
  H   H3831     1.0  0.57362  0.27442  0.73893  1.0000
  C   C2159     1.0  0.97809  0.40102  0.68217  1.0000
  C   C2160     1.0  0.65936  0.24419  0.68328  1.0000
  Fe  Fe236     1.0  0.66872  0.24152  0.76839  1.0000
  H   H3832     1.0  0.52350  0.38757  0.88555  1.0000
  H   H3833     1.0  0.51766  0.40099  0.91663  1.0000
  Fe  Fe237     1.0  0.74083  0.24432  0.90805  1.0000
  H   H3834     1.0  0.54642  0.27696  0.81311  1.0000
  H   H3835     1.0  0.73303  0.24274  0.74767  1.0000
  H   H3836     1.0  0.49348  0.32876  0.96352  1.0000
  H   H3837     1.0  0.70602  0.24319  0.83909  1.0000
  H   H3838     1.0  0.71769  0.23742  0.79631  1.0000
  S   S476      1.0  0.97705  0.30855  0.65798  1.0000
  C   C2161     1.0  0.68964  0.24436  0.65993  1.0000
  H   H3839     1.0  0.49559  0.41712  0.89268  1.0000
  H   H3840     1.0  0.98584  0.43879  0.66508  1.0000
  H   H3841     1.0  0.98779  0.34621  0.66383  1.0000
  H   H3842     1.0  0.55083  0.35428  0.97608  1.0000
  C   C2162     1.0  0.49301  0.40330  0.88936  1.0000
  H   H3843     1.0  0.49721  0.42364  0.84059  1.0000
  H   H3844     1.0  0.71040  0.23706  0.96062  1.0000
  H   H3845     1.0  0.63543  0.42533  0.98023  1.0000
  S   S477      1.0  0.69049  0.33702  0.98328  1.0000
  C   C2163     1.0  0.67234  0.23748  0.86393  1.0000
  H   H3846     1.0  0.49286  0.35473  0.95674  1.0000
  Fe  Fe238     1.0  0.49382  0.29131  0.89721  1.0000
  S   S478      1.0  0.49362  0.30493  0.92338  1.0000
  H   H3847     1.0  0.52877  0.37049  0.98072  1.0000
  C   C2164     1.0  0.49245  0.36662  0.83631  1.0000
  H   H3848     1.0  0.64978  0.23543  0.88962  1.0000
  Fe  Fe239     1.0  0.49080  0.33317  0.90281  1.0000
  C   C2165     1.0  0.49251  0.38668  0.86202  1.0000
  C   C2166     1.0  0.69878  0.23575  0.97367  1.0000
  H   H3849     1.0  0.59129  0.23615  0.75751  1.0000
  H   H3850     1.0  0.54873  0.39660  0.97900  1.0000
  H   H3851     1.0  0.70269  0.23541  0.65286  1.0000
  H   H3852     1.0  0.67147  0.27210  0.65103  1.0000
  H   H3853     1.0  0.70371  0.23525  0.69631  1.0000
  H   H3854     1.0  0.52170  0.50849  0.07293  1.0000
  H   H3855     1.0  0.70758  0.49167  0.17720  1.0000
  H   H3856     1.0  0.75168  0.61923  0.20952  1.0000
  S   S479      1.0  0.87609  0.68570  0.14273  1.0000
  Fe  Fe240     1.0  0.88574  0.67133  0.19543  1.0000
  S   S480      1.0  0.90759  0.66244  0.17016  1.0000
  S   S481      1.0  0.89030  0.66103  0.22641  1.0000
  Fe  Fe241     1.0  0.89954  0.69336  0.15576  1.0000
  Fe  Fe242     1.0  0.88196  0.65570  0.15982  1.0000
  S   S482      1.0  0.88381  0.62805  0.14766  1.0000
  S   S483      1.0  0.86093  0.66234  0.18627  1.0000
  H   H3857     1.0  0.97083  0.70366  0.24566  1.0000
  H   H3858     1.0  0.53144  0.59315  0.04676  1.0000
  Fe  Fe243     1.0  0.53889  0.58415  0.10343  1.0000
  S   S484      1.0  0.53558  0.61215  0.08196  1.0000
  S   S485      1.0  0.56527  0.56250  0.09339  1.0000
  Fe  Fe244     1.0  0.53041  0.62662  0.10854  1.0000
  S   S486      1.0  0.54062  0.65261  0.11601  1.0000
  C   C2167     1.0  0.81730  0.72684  0.18047  1.0000
  S   S487      1.0  0.53498  0.59876  0.12953  1.0000
  H   H3859     1.0  0.95018  0.71187  0.23311  1.0000
  C   C2168     1.0  0.54381  0.52073  0.08093  1.0000
  H   H3860     1.0  0.94353  0.67235  0.29870  1.0000
  H   H3861     1.0  0.67759  0.73156  0.22019  1.0000
  S   S488      1.0  0.63583  0.67315  0.16934  1.0000
  Fe  Fe245     1.0  0.66606  0.67967  0.16443  1.0000
  S   S489      1.0  0.68891  0.65760  0.17771  1.0000
  Fe  Fe246     1.0  0.80099  0.56234  0.15177  1.0000
  S   S490      1.0  0.77921  0.58655  0.16219  1.0000
  S   S491      1.0  0.83325  0.56273  0.14918  1.0000
  Fe  Fe247     1.0  0.76916  0.53986  0.14747  1.0000
  S   S492      1.0  0.74506  0.56267  0.15791  1.0000
  S   S493      1.0  0.76406  0.51229  0.13878  1.0000
  Fe  Fe248     1.0  0.76335  0.58369  0.13894  1.0000
  S   S494      1.0  0.74995  0.61030  0.12056  1.0000
  Fe  Fe249     1.0  0.76324  0.56333  0.18016  1.0000
  S   S495      1.0  0.75024  0.56773  0.21064  1.0000
  S   S496      1.0  0.78641  0.56107  0.12669  1.0000
  S   S497      1.0  0.78615  0.53872  0.17151  1.0000
  Fe  Fe250     1.0  0.80562  0.58878  0.28255  1.0000
  S   S498      1.0  0.81527  0.57199  0.25780  1.0000
  H   H3862     1.0  0.79308  0.63615  0.17434  1.0000
  C   C2169     1.0  0.94933  0.66998  0.31259  1.0000
  H   H3863     1.0  0.75331  0.71520  0.27587  1.0000
  H   H3864     1.0  0.68970  0.62591  0.12684  1.0000
  H   H3865     1.0  0.84611  0.48989  0.16121  1.0000
  H   H3866     1.0  0.76556  0.63729  0.21120  1.0000
  C   C2170     1.0  0.74278  0.50905  0.13108  1.0000
  H   H3867     1.0  0.58914  0.71222  0.29604  1.0000
  H   H3868     1.0  0.56335  0.71563  0.30558  1.0000
  C   C2171     1.0  0.70939  0.50164  0.11937  1.0000
  C   C2172     1.0  0.70813  0.51696  0.12958  1.0000
  C   C2173     1.0  0.72472  0.52066  0.13545  1.0000
  H   H3869     1.0  0.52552  0.59937  0.19616  1.0000
  H   H3870     1.0  0.50849  0.57072  0.06597  1.0000
  H   H3871     1.0  0.69424  0.52593  0.13302  1.0000
  H   H3872     1.0  0.72353  0.53236  0.14345  1.0000
  C   C2174     1.0  0.76840  0.56984  0.22320  1.0000
  C   C2175     1.0  0.76334  0.57804  0.24020  1.0000
  C   C2176     1.0  0.77775  0.57934  0.25057  1.0000
  C   C2177     1.0  0.79717  0.57193  0.24429  1.0000
  C   C2178     1.0  0.80226  0.56395  0.22716  1.0000
  C   C2179     1.0  0.78793  0.56314  0.21649  1.0000
  H   H3873     1.0  0.74826  0.58340  0.24533  1.0000
  H   H3874     1.0  0.77370  0.58575  0.26359  1.0000
  H   H3875     1.0  0.81727  0.55829  0.22215  1.0000
  H   H3876     1.0  0.79197  0.55696  0.20329  1.0000
  C   C2180     1.0  0.70604  0.64511  0.16146  1.0000
  C   C2181     1.0  0.71712  0.62779  0.16882  1.0000
  C   C2182     1.0  0.73061  0.61716  0.15619  1.0000
  C   C2183     1.0  0.73348  0.62409  0.13621  1.0000
  C   C2184     1.0  0.72294  0.64181  0.12885  1.0000
  C   C2185     1.0  0.70897  0.65222  0.14147  1.0000
  H   H3877     1.0  0.71498  0.62233  0.18429  1.0000
  H   H3878     1.0  0.73869  0.60354  0.16204  1.0000
  H   H3879     1.0  0.72534  0.64735  0.11341  1.0000
  H   H3880     1.0  0.70067  0.66580  0.13579  1.0000
  C   C2186     1.0  0.90263  0.54347  0.30206  1.0000
  C   C2187     1.0  0.72747  0.49021  0.11488  1.0000
  C   C2188     1.0  0.77950  0.53831  0.30264  1.0000
  Fe  Fe251     1.0  0.89977  0.72735  0.29136  1.0000
  H   H3881     1.0  0.69956  0.69230  0.28476  1.0000
  C   C2189     1.0  0.57473  0.53937  0.10534  1.0000
  C   C2190     1.0  0.59331  0.53041  0.09769  1.0000
  C   C2191     1.0  0.60163  0.51216  0.10683  1.0000
  C   C2192     1.0  0.59132  0.50256  0.12360  1.0000
  C   C2193     1.0  0.57267  0.51148  0.13116  1.0000
  C   C2194     1.0  0.56442  0.52985  0.12214  1.0000
  H   H3882     1.0  0.60136  0.53764  0.08465  1.0000
  H   H3883     1.0  0.61596  0.50541  0.10083  1.0000
  H   H3884     1.0  0.56458  0.50410  0.14409  1.0000
  H   H3885     1.0  0.55010  0.53657  0.12814  1.0000
  C   C2195     1.0  0.56390  0.65800  0.11701  1.0000
  C   C2196     1.0  0.56512  0.67148  0.12860  1.0000
  C   C2197     1.0  0.58319  0.67623  0.12980  1.0000
  C   C2198     1.0  0.60031  0.66809  0.11881  1.0000
  C   C2199     1.0  0.59903  0.65498  0.10683  1.0000
  C   C2200     1.0  0.58100  0.64995  0.10597  1.0000
  H   H3886     1.0  0.55197  0.67853  0.13653  1.0000
  H   H3887     1.0  0.58381  0.68661  0.13878  1.0000
  H   H3888     1.0  0.58017  0.64052  0.09614  1.0000
  H   H3889     1.0  0.50550  0.62373  0.16254  1.0000
  C   C2201     1.0  0.86814  0.61113  0.14860  1.0000
  C   C2202     1.0  0.87622  0.59468  0.14007  1.0000
  C   C2203     1.0  0.86513  0.58041  0.14031  1.0000
  C   C2204     1.0  0.84551  0.58236  0.14873  1.0000
  C   C2205     1.0  0.83710  0.59888  0.15734  1.0000
  C   C2206     1.0  0.84851  0.61315  0.15747  1.0000
  H   H3890     1.0  0.89133  0.59284  0.13327  1.0000
  H   H3891     1.0  0.87187  0.56773  0.13381  1.0000
  H   H3892     1.0  0.82209  0.60030  0.16438  1.0000
  H   H3893     1.0  0.84232  0.62551  0.16456  1.0000
  C   C2207     1.0  0.90988  0.70654  0.25169  1.0000
  C   C2208     1.0  0.90308  0.69051  0.26396  1.0000
  C   C2209     1.0  0.89775  0.67619  0.25606  1.0000
  C   C2210     1.0  0.89873  0.67812  0.23591  1.0000
  C   C2211     1.0  0.90588  0.69396  0.22363  1.0000
  H   H3894     1.0  0.82394  0.50481  0.17007  1.0000
  H   H3895     1.0  0.90194  0.68908  0.27951  1.0000
  H   H3896     1.0  0.89246  0.66385  0.26561  1.0000
  H   H3897     1.0  0.90717  0.69527  0.20804  1.0000
  H   H3898     1.0  0.67394  0.64704  0.08966  1.0000
  H   H3899     1.0  0.50643  0.68084  0.12191  1.0000
  C   C2212     1.0  0.62643  0.73286  0.20942  1.0000
  N   N121      1.0  0.60607  0.57374  0.13285  1.0000
  C   C2213     1.0  0.60756  0.57930  0.11105  1.0000
  C   C2214     1.0  0.62309  0.55825  0.13727  1.0000
  C   C2215     1.0  0.58706  0.56649  0.14085  1.0000
  C   C2216     1.0  0.60648  0.59085  0.14223  1.0000
  C   C2217     1.0  0.62357  0.60227  0.13362  1.0000
  C   C2218     1.0  0.59257  0.59677  0.10376  1.0000
  C   C2219     1.0  0.58394  0.55758  0.16277  1.0000
  C   C2220     1.0  0.62393  0.53873  0.13036  1.0000
  C   C2221     1.0  0.64149  0.52408  0.13594  1.0000
  C   C2222     1.0  0.62231  0.61917  0.14436  1.0000
  C   C2223     1.0  0.59622  0.60176  0.08156  1.0000
  C   C2224     1.0  0.56422  0.55079  0.16897  1.0000
  H   H3900     1.0  0.60545  0.56700  0.10462  1.0000
  H   H3901     1.0  0.62239  0.58226  0.10425  1.0000
  H   H3902     1.0  0.63694  0.56343  0.13025  1.0000
  H   H3903     1.0  0.62370  0.55519  0.15313  1.0000
  H   H3904     1.0  0.58509  0.55561  0.13252  1.0000
  H   H3905     1.0  0.57469  0.57849  0.13880  1.0000
  H   H3906     1.0  0.59264  0.60132  0.14186  1.0000
  H   H3907     1.0  0.60728  0.58604  0.15796  1.0000
  H   H3908     1.0  0.62349  0.60843  0.11803  1.0000
  H   H3909     1.0  0.63772  0.59281  0.13502  1.0000
  H   H3910     1.0  0.57760  0.59348  0.10828  1.0000
  H   H3911     1.0  0.59332  0.60979  0.10958  1.0000
  H   H3912     1.0  0.58429  0.56840  0.17189  1.0000
  H   H3913     1.0  0.59519  0.54480  0.16603  1.0000
  H   H3914     1.0  0.61079  0.53210  0.13694  1.0000
  H   H3915     1.0  0.62531  0.54081  0.11431  1.0000
  H   H3916     1.0  0.65521  0.52991  0.12995  1.0000
  H   H3917     1.0  0.64018  0.52003  0.15200  1.0000
  H   H3918     1.0  0.64221  0.51079  0.12973  1.0000
  H   H3919     1.0  0.60829  0.62914  0.14356  1.0000
  H   H3920     1.0  0.62370  0.61379  0.15987  1.0000
  H   H3921     1.0  0.63421  0.62759  0.13754  1.0000
  H   H3922     1.0  0.58480  0.61375  0.07670  1.0000
  H   H3923     1.0  0.61058  0.60649  0.07628  1.0000
  H   H3924     1.0  0.59565  0.58904  0.07496  1.0000
  H   H3925     1.0  0.55225  0.56302  0.16609  1.0000
  H   H3926     1.0  0.56352  0.53910  0.16100  1.0000
  H   H3927     1.0  0.56206  0.54493  0.18479  1.0000
  H   H3928     1.0  0.85257  0.54626  0.29737  1.0000
  H   H3929     1.0  0.77760  0.61492  0.20258  1.0000
  N   N122      1.0  0.98325  0.72709  0.20872  1.0000
  C   C2225     1.0  0.53981  0.65445  0.17832  1.0000
  C   C2226     1.0  0.55585  0.66468  0.18097  1.0000
  H   H3930     1.0  0.80302  0.71620  0.24504  1.0000
  H   H3931     1.0  0.80856  0.50375  0.26029  1.0000
  H   H3932     1.0  0.54088  0.65467  0.16255  1.0000
  H   H3933     1.0  0.54278  0.63920  0.18575  1.0000
  H   H3934     1.0  0.55583  0.66442  0.19665  1.0000
  C   C2227     1.0  0.55790  0.50160  0.08074  1.0000
  C   C2228     1.0  0.69862  0.58705  0.13424  1.0000
  H   H3935     1.0  0.72262  0.68005  0.15846  1.0000
  H   H3936     1.0  0.75240  0.55851  0.30269  1.0000
  C   C2229     1.0  0.84469  0.51833  0.29701  1.0000
  H   H3937     1.0  0.89992  0.70906  0.10587  1.0000
  C   C2230     1.0  0.85702  0.53430  0.28874  1.0000
  C   C2231     1.0  0.81757  0.49418  0.28905  1.0000
  C   C2232     1.0  0.80088  0.61930  0.11012  1.0000
  S   S499      1.0  0.63136  0.71921  0.30134  1.0000
  H   H3938     1.0  0.80290  0.71975  0.30886  1.0000
  H   H3939     1.0  0.82270  0.53422  0.28023  1.0000
  H   H3940     1.0  0.76184  0.55011  0.27984  1.0000
  C   C2233     1.0  0.93277  0.72880  0.14374  1.0000
  H   H3941     1.0  0.82919  0.73180  0.23783  1.0000
  H   H3942     1.0  0.87250  0.52820  0.28937  1.0000
  H   H3943     1.0  0.82305  0.73308  0.30122  1.0000
  H   H3944     1.0  0.52292  0.59180  0.17420  1.0000
  H   H3945     1.0  0.82502  0.70054  0.21693  1.0000
  N   N123      1.0  0.85873  0.59757  0.22012  1.0000
  C   C2234     1.0  0.86140  0.57661  0.21766  1.0000
  C   C2235     1.0  0.85902  0.59843  0.24112  1.0000
  C   C2236     1.0  0.83877  0.60704  0.21571  1.0000
  C   C2237     1.0  0.87368  0.60858  0.20666  1.0000
  C   C2238     1.0  0.89437  0.59698  0.20145  1.0000
  C   C2239     1.0  0.85790  0.57326  0.19781  1.0000
  C   C2240     1.0  0.83118  0.62747  0.22125  1.0000
  C   C2241     1.0  0.87801  0.58922  0.24909  1.0000
  C   C2242     1.0  0.87555  0.58990  0.27080  1.0000
  C   C2243     1.0  0.90927  0.61051  0.19308  1.0000
  C   C2244     1.0  0.86500  0.55224  0.19490  1.0000
  C   C2245     1.0  0.81379  0.63772  0.21151  1.0000
  H   H3946     1.0  0.85124  0.56879  0.22913  1.0000
  H   H3947     1.0  0.87604  0.56883  0.21993  1.0000
  H   H3948     1.0  0.85646  0.61369  0.24349  1.0000
  H   H3949     1.0  0.84693  0.59170  0.25074  1.0000
  H   H3950     1.0  0.82771  0.59777  0.22326  1.0000
  H   H3951     1.0  0.83841  0.60837  0.19992  1.0000
  H   H3952     1.0  0.86885  0.61492  0.19241  1.0000
  H   H3953     1.0  0.87506  0.62138  0.21279  1.0000
  H   H3954     1.0  0.89446  0.58804  0.19029  1.0000
  H   H3955     1.0  0.89957  0.58703  0.21404  1.0000
  H   H3956     1.0  0.84212  0.57647  0.19706  1.0000
  H   H3957     1.0  0.86539  0.58276  0.18556  1.0000
  H   H3958     1.0  0.84265  0.63669  0.21707  1.0000
  H   H3959     1.0  0.82630  0.62618  0.23721  1.0000
  H   H3960     1.0  0.88248  0.57383  0.24722  1.0000
  H   H3961     1.0  0.88976  0.59763  0.24176  1.0000
  H   H3962     1.0  0.88952  0.58386  0.27606  1.0000
  H   H3963     1.0  0.87139  0.60511  0.27345  1.0000
  H   H3964     1.0  0.86427  0.58133  0.27924  1.0000
  H   H3965     1.0  0.92383  0.60185  0.18932  1.0000
  H   H3966     1.0  0.90534  0.62005  0.17963  1.0000
  H   H3967     1.0  0.91007  0.61961  0.20381  1.0000
  H   H3968     1.0  0.88095  0.54847  0.19449  1.0000
  H   H3969     1.0  0.85753  0.54226  0.20677  1.0000
  H   H3970     1.0  0.86170  0.55030  0.18083  1.0000
  H   H3971     1.0  0.80817  0.65188  0.21645  1.0000
  H   H3972     1.0  0.81814  0.64039  0.19545  1.0000
  H   H3973     1.0  0.80201  0.62879  0.21552  1.0000
  H   H3974     1.0  0.49693  0.52229  0.09411  1.0000
  H   H3975     1.0  0.73350  0.56657  0.11819  1.0000
  H   H3976     1.0  0.61206  0.64892  0.09791  1.0000
  H   H3977     1.0  0.51506  0.68945  0.15128  1.0000
  H   H3978     1.0  0.55218  0.58360  0.03033  1.0000
  C   C2246     1.0  0.72962  0.56955  0.10341  1.0000
  N   N124      1.0  0.83015  0.70286  0.25484  1.0000
  C   C2247     1.0  0.81193  0.70154  0.24768  1.0000
  H   H3979     1.0  0.98494  0.64394  0.31097  1.0000
  C   C2248     1.0  0.95936  0.71095  0.30222  1.0000
  C   C2249     1.0  0.84420  0.68407  0.25506  1.0000
  C   C2250     1.0  0.83621  0.66573  0.26676  1.0000
  C   C2251     1.0  0.81506  0.69301  0.22861  1.0000
  H   H3980     1.0  0.95622  0.72779  0.27353  1.0000
  S   S500      1.0  0.49802  0.62730  0.11175  1.0000
  C   C2252     1.0  0.61381  0.71495  0.24042  1.0000
  C   C2253     1.0  0.85093  0.64759  0.26326  1.0000
  C   C2254     1.0  0.79585  0.69487  0.22133  1.0000
  H   H3981     1.0  0.79138  0.60808  0.11538  1.0000
  S   S501      1.0  0.82567  0.70683  0.16857  1.0000
  H   H3982     1.0  0.80246  0.69282  0.25903  1.0000
  C   C2255     1.0  0.49562  0.68954  0.13166  1.0000
  H   H3983     1.0  0.75342  0.67959  0.16943  1.0000
  C   C2256     1.0  0.97936  0.65300  0.28121  1.0000
  H   H3984     1.0  0.74658  0.68671  0.31059  1.0000
  H   H3985     1.0  0.85029  0.68149  0.23993  1.0000
  H   H3986     1.0  0.85696  0.68487  0.26151  1.0000
  H   H3987     1.0  0.82246  0.66406  0.26271  1.0000
  H   H3988     1.0  0.83352  0.66629  0.28253  1.0000
  C   C2257     1.0  0.82470  0.70736  0.27526  1.0000
  H   H3989     1.0  0.82144  0.67741  0.23082  1.0000
  C   C2258     1.0  0.50005  0.54041  0.05359  1.0000
  H   H3990     1.0  0.55013  0.48911  0.08691  1.0000
  H   H3991     1.0  0.94364  0.71007  0.30565  1.0000
  H   H3992     1.0  0.76230  0.69364  0.14658  1.0000
  C   C2259     1.0  0.72732  0.64488  0.31057  1.0000
  H   H3993     1.0  0.87405  0.67698  0.31228  1.0000
  C   C2260     1.0  0.67326  0.55476  0.09071  1.0000
  H   H3994     1.0  0.86471  0.64794  0.26815  1.0000
  H   H3995     1.0  0.84514  0.63453  0.27154  1.0000
  H   H3996     1.0  0.85395  0.64643  0.24758  1.0000
  H   H3997     1.0  0.79857  0.68902  0.20750  1.0000
  H   H3998     1.0  0.78570  0.68658  0.23221  1.0000
  H   H3999     1.0  0.78903  0.71033  0.21843  1.0000
  H   H4000     1.0  0.80195  0.64846  0.11198  1.0000
  H   H4001     1.0  0.75865  0.55662  0.09164  1.0000
  C   C2261     1.0  0.68914  0.62675  0.11123  1.0000
  N   N125      1.0  0.67721  0.66445  0.24570  1.0000
  C   C2262     1.0  0.66567  0.66369  0.23024  1.0000
  C   C2263     1.0  0.68680  0.68240  0.24050  1.0000
  C   C2264     1.0  0.69312  0.64692  0.24604  1.0000
  C   C2265     1.0  0.66496  0.66345  0.26569  1.0000
  C   C2266     1.0  0.64634  0.67877  0.26790  1.0000
  C   C2267     1.0  0.65474  0.64617  0.23383  1.0000
  C   C2268     1.0  0.70822  0.64590  0.25945  1.0000
  C   C2269     1.0  0.67554  0.70112  0.22996  1.0000
  C   C2270     1.0  0.68554  0.71858  0.22846  1.0000
  C   C2271     1.0  0.63258  0.67314  0.28673  1.0000
  C   C2272     1.0  0.64268  0.64773  0.21788  1.0000
  C   C2273     1.0  0.72412  0.62819  0.25774  1.0000
  H   H4002     1.0  0.67544  0.66373  0.21594  1.0000
  H   H4003     1.0  0.65462  0.67687  0.22791  1.0000
  H   H4004     1.0  0.69054  0.68593  0.25375  1.0000
  H   H4005     1.0  0.70085  0.67968  0.23046  1.0000
  H   H4006     1.0  0.70125  0.64607  0.23102  1.0000
  H   H4007     1.0  0.68689  0.63329  0.25097  1.0000
  H   H4008     1.0  0.66090  0.64876  0.27083  1.0000
  H   H4009     1.0  0.67350  0.66520  0.27657  1.0000
  H   H4010     1.0  0.63801  0.68051  0.25592  1.0000
  H   H4011     1.0  0.65031  0.69293  0.26842  1.0000
  H   H4012     1.0  0.66504  0.63233  0.23379  1.0000
  H   H4013     1.0  0.64463  0.64549  0.24789  1.0000
  H   H4014     1.0  0.70118  0.64472  0.27492  1.0000
  H   H4015     1.0  0.71548  0.65888  0.25558  1.0000
  H   H4016     1.0  0.67504  0.69940  0.21487  1.0000
  H   H4017     1.0  0.66047  0.70448  0.23747  1.0000
  C   C2274     1.0  0.87680  0.73393  0.10275  1.0000
  H   H4018     1.0  0.86583  0.72429  0.10451  1.0000
  H   H4019     1.0  0.99000  0.63244  0.26119  1.0000
  H   H4020     1.0  0.72285  0.72413  0.26173  1.0000
  C   C2275     1.0  0.73250  0.69026  0.15039  1.0000
  H   H4021     1.0  0.62775  0.65925  0.28672  1.0000
  H   H4022     1.0  0.63465  0.63530  0.22097  1.0000
  H   H4023     1.0  0.63198  0.66138  0.21713  1.0000
  H   H4024     1.0  0.65229  0.64740  0.20357  1.0000
  H   H4025     1.0  0.73464  0.62782  0.26752  1.0000
  H   H4026     1.0  0.71780  0.61460  0.26207  1.0000
  H   H4027     1.0  0.73212  0.62887  0.24260  1.0000
  H   H4028     1.0  0.67138  0.58953  0.18068  1.0000
  C   C2276     1.0  0.76448  0.62632  0.20253  1.0000
  Fe  Fe252     1.0  0.63404  0.68989  0.13932  1.0000
  H   H4029     1.0  0.82769  0.68388  0.13881  1.0000
  H   H4030     1.0  0.66758  0.60812  0.11452  1.0000
  S   S502      1.0  0.67247  0.67520  0.31652  1.0000
  H   H4031     1.0  0.60571  0.70381  0.24870  1.0000
  N   N126      1.0  0.80960  0.51116  0.29960  1.0000
  H   H4032     1.0  0.51373  0.65559  0.15208  1.0000
  C   C2277     1.0  0.61616  0.71833  0.22006  1.0000
  H   H4033     1.0  0.75011  0.65382  0.14878  1.0000
  S   S503      1.0  0.82155  0.57893  0.30774  1.0000
  N   N127      1.0  0.50225  0.65798  0.18244  1.0000
  H   H4034     1.0  0.65813  0.55755  0.09851  1.0000
  H   H4035     1.0  0.71346  0.59250  0.08482  1.0000
  H   H4036     1.0  0.53726  0.52166  0.09629  1.0000
  C   C2278     1.0  0.82311  0.52593  0.29518  1.0000
  H   H4037     1.0  0.79347  0.52708  0.27678  1.0000
  H   H4038     1.0  0.89626  0.71849  0.08121  1.0000
  C   C2279     1.0  0.51610  0.60154  0.18493  1.0000
  S   S504      1.0  0.62348  0.67428  0.11881  1.0000
  S   S505      1.0  0.80964  0.61953  0.27973  1.0000
  H   H4039     1.0  0.76066  0.62428  0.17403  1.0000
  H   H4040     1.0  0.86823  0.71197  0.25117  1.0000
  S   S506      1.0  0.87918  0.70263  0.18187  1.0000
  H   H4041     1.0  0.78903  0.73189  0.17204  1.0000
  C   C2280     1.0  0.96433  0.70223  0.23320  1.0000
  C   C2281     1.0  0.52800  0.52212  0.06824  1.0000
  C   C2282     1.0  0.86376  0.65086  0.31124  1.0000
  H   H4042     1.0  0.85168  0.73106  0.26150  1.0000
  H   H4043     1.0  0.70362  0.62877  0.10266  1.0000
  H   H4044     1.0  0.50015  0.50986  0.05236  1.0000
  Fe  Fe253     1.0  0.82240  0.61008  0.30710  1.0000
  H   H4045     1.0  0.67066  0.60382  0.14625  1.0000
  H   H4046     1.0  0.55251  0.53258  0.07534  1.0000
  H   H4047     1.0  0.76359  0.73113  0.30998  1.0000
  C   C2283     1.0  0.76214  0.63582  0.18170  1.0000
  H   H4048     1.0  0.81851  0.65317  0.15979  1.0000
  C   C2284     1.0  0.68576  0.57303  0.11163  1.0000
  H   H4049     1.0  0.67608  0.58478  0.08330  1.0000
  C   C2285     1.0  0.83070  0.48974  0.16813  1.0000
  H   H4050     1.0  0.90062  0.54926  0.28679  1.0000
  H   H4051     1.0  0.53543  0.52152  0.05299  1.0000
  N   N128      1.0  0.51207  0.53948  0.06908  1.0000
  C   C2286     1.0  0.85685  0.72458  0.24809  1.0000
  C   C2287     1.0  0.77955  0.64621  0.17125  1.0000
  H   H4052     1.0  0.77918  0.65864  0.17871  1.0000
  S   S507      1.0  0.66552  0.69461  0.13358  1.0000
  H   H4053     1.0  0.78578  0.66875  0.31496  1.0000
  N   N129      1.0  0.69561  0.58934  0.11343  1.0000
  H   H4054     1.0  0.69407  0.57402  0.17414  1.0000
  C   C2288     1.0  0.75988  0.54571  0.29590  1.0000
  C   C2289     1.0  0.84771  0.64124  0.31521  1.0000
  H   H4055     1.0  0.96595  0.69174  0.28132  1.0000
  H   H4056     1.0  0.57022  0.65721  0.17459  1.0000
  H   H4057     1.0  0.79229  0.67812  0.15110  1.0000
  H   H4058     1.0  0.74836  0.64631  0.18236  1.0000
  H   H4059     1.0  0.84604  0.66287  0.13565  1.0000
  H   H4060     1.0  0.51935  0.66129  0.20326  1.0000
  Fe  Fe254     1.0  0.85647  0.69266  0.17008  1.0000
  C   C2290     1.0  0.51956  0.66420  0.18730  1.0000
  C   C2291     1.0  0.50234  0.63643  0.18894  1.0000
  C   C2292     1.0  0.89653  0.72257  0.09542  1.0000
  H   H4061     1.0  0.97372  0.67085  0.23605  1.0000
  C   C2293     1.0  0.81676  0.65644  0.14425  1.0000
  H   H4062     1.0  0.77819  0.64420  0.11072  1.0000
  H   H4063     1.0  0.50806  0.53988  0.10000  1.0000
  Fe  Fe255     1.0  0.65494  0.72191  0.14683  1.0000
  H   H4064     1.0  0.67964  0.65787  0.10825  1.0000
  C   C2294     1.0  0.83109  0.66985  0.13339  1.0000
  H   H4065     1.0  0.70069  0.71589  0.22066  1.0000
  S   S508      1.0  0.62325  0.71877  0.14971  1.0000
  H   H4066     1.0  0.55395  0.67997  0.17339  1.0000
  C   C2295     1.0  0.54301  0.58043  0.04478  1.0000
  H   H4067     1.0  0.95227  0.67983  0.22481  1.0000
  C   C2296     1.0  0.67991  0.58955  0.14960  1.0000
  C   C2297     1.0  0.50124  0.66344  0.16097  1.0000
  H   H4068     1.0  0.83104  0.51096  0.26178  1.0000
  C   C2298     1.0  0.96183  0.72891  0.28672  1.0000
  C   C2299     1.0  0.74399  0.49378  0.12085  1.0000
  H   H4069     1.0  0.83795  0.70663  0.28171  1.0000
  C   C2300     1.0  0.80886  0.73150  0.29796  1.0000
  N   N130      1.0  0.78058  0.65270  0.14956  1.0000
  C   C2301     1.0  0.79552  0.66600  0.14257  1.0000
  H   H4070     1.0  0.82102  0.64285  0.13809  1.0000
  C   C2302     1.0  0.53421  0.56225  0.04594  1.0000
  C   C2303     1.0  0.70720  0.67919  0.29208  1.0000
  H   H4071     1.0  0.69324  0.55888  0.11846  1.0000
  H   H4072     1.0  0.54639  0.55010  0.04402  1.0000
  C   C2304     1.0  0.81131  0.72709  0.27738  1.0000
  C   C2305     1.0  0.49988  0.53741  0.08913  1.0000
  H   H4073     1.0  0.62063  0.72293  0.26561  1.0000
  H   H4074     1.0  0.67124  0.57800  0.15039  1.0000
  H   H4075     1.0  0.79791  0.62453  0.14613  1.0000
  C   C2306     1.0  0.82218  0.49917  0.26654  1.0000
  H   H4076     1.0  0.96397  0.71328  0.31548  1.0000
  H   H4077     1.0  0.63978  0.67163  0.29956  1.0000
  H   H4078     1.0  0.98670  0.69456  0.29007  1.0000
  H   H4079     1.0  0.69866  0.56813  0.08173  1.0000
  H   H4080     1.0  0.72235  0.71014  0.29731  1.0000
  C   C2307     1.0  0.96008  0.68153  0.23630  1.0000
  C   C2308     1.0  0.78591  0.63486  0.13994  1.0000
  H   H4081     1.0  0.77357  0.62667  0.14322  1.0000
  H   H4082     1.0  0.70663  0.57235  0.13891  1.0000
  H   H4083     1.0  0.72354  0.55704  0.10140  1.0000
  H   H4084     1.0  0.83066  0.67259  0.11753  1.0000
  H   H4085     1.0  0.87787  0.64369  0.30519  1.0000
  H   H4086     1.0  0.52624  0.56484  0.03350  1.0000
  H   H4087     1.0  0.72258  0.60034  0.10262  1.0000
  H   H4088     1.0  0.67074  0.57458  0.11994  1.0000
  S   S509      1.0  0.67631  0.72858  0.29002  1.0000
  H   H4089     1.0  0.75564  0.58242  0.09083  1.0000
  H   H4090     1.0  0.66012  0.64401  0.11405  1.0000
  C   C2309     1.0  0.69726  0.66783  0.30774  1.0000
  C   C2310     1.0  0.50063  0.68525  0.15219  1.0000
  H   H4091     1.0  0.73141  0.69291  0.13468  1.0000
  H   H4092     1.0  0.96429  0.65020  0.28296  1.0000
  C   C2311     1.0  0.86160  0.66974  0.31519  1.0000
  C   C2312     1.0  0.52036  0.55804  0.06554  1.0000
  C   C2313     1.0  0.72930  0.72190  0.29964  1.0000
  H   H4093     1.0  0.76525  0.70070  0.30223  1.0000
  H   H4094     1.0  0.61955  0.68455  0.28803  1.0000
  C   C2314     1.0  0.67480  0.64495  0.10539  1.0000
  C   C2315     1.0  0.79142  0.63829  0.11742  1.0000
  C   C2316     1.0  0.83991  0.71851  0.24116  1.0000
  H   H4095     1.0  0.70818  0.59717  0.13561  1.0000
  H   H4096     1.0  0.67276  0.55340  0.07553  1.0000
  H   H4097     1.0  0.80352  0.62178  0.09397  1.0000
  H   H4098     1.0  0.84600  0.71382  0.22686  1.0000
  H   H4099     1.0  0.81501  0.61373  0.11527  1.0000
  C   C2317     1.0  0.91157  0.70809  0.23150  1.0000
  H   H4100     1.0  0.52822  0.55840  0.07749  1.0000
  H   H4101     1.0  0.91482  0.72956  0.17181  1.0000
  C   C2318     1.0  0.75335  0.68221  0.15355  1.0000
  H   H4102     1.0  0.52824  0.62594  0.16791  1.0000
  H   H4103     1.0  0.50925  0.54133  0.03896  1.0000
  C   C2319     1.0  0.68410  0.57126  0.09062  1.0000
  H   H4104     1.0  0.84383  0.72562  0.19111  1.0000
  C   C2320     1.0  0.62238  0.72568  0.25000  1.0000
  C   C2321     1.0  0.72716  0.67365  0.28594  1.0000
  H   H4105     1.0  0.69283  0.60005  0.17004  1.0000
  Fe  Fe256     1.0  0.50359  0.60960  0.08752  1.0000
  H   H4106     1.0  0.98975  0.57717  0.30847  1.0000
  Fe  Fe257     1.0  0.62714  0.70191  0.17932  1.0000
  S   S510      1.0  0.68892  0.49894  0.10992  1.0000
  H   H4107     1.0  0.74574  0.57283  0.07379  1.0000
  H   H4108     1.0  0.95060  0.67840  0.25059  1.0000
  C   C2322     1.0  0.68492  0.58816  0.16982  1.0000
  C   C2323     1.0  0.74262  0.72785  0.28009  1.0000
  H   H4109     1.0  0.79474  0.67333  0.12732  1.0000
  C   C2324     1.0  0.97130  0.69239  0.29482  1.0000
  H   H4110     1.0  0.68084  0.54080  0.09776  1.0000
  H   H4111     1.0  0.68261  0.61075  0.09151  1.0000
  C   C2325     1.0  0.76130  0.66349  0.14459  1.0000
  C   C2326     1.0  0.68294  0.60836  0.10739  1.0000
  C   C2327     1.0  0.74853  0.57050  0.08897  1.0000
  C   C2328     1.0  0.71514  0.58884  0.10042  1.0000
  S   S511      1.0  0.65762  0.70687  0.17714  1.0000
  H   H4112     1.0  0.76228  0.66787  0.12854  1.0000
  H   H4113     1.0  0.72768  0.70418  0.15597  1.0000
  Fe  Fe258     1.0  0.78078  0.62312  0.29948  1.0000
  C   C2329     1.0  0.73734  0.65666  0.29534  1.0000
  S   S512      1.0  0.76271  0.65156  0.28834  1.0000
  Fe  Fe259     1.0  0.50298  0.59893  0.13143  1.0000
  H   H4114     1.0  0.81791  0.53707  0.30479  1.0000
  H   H4115     1.0  0.85559  0.54015  0.27330  1.0000
  H   H4116     1.0  0.56534  0.50021  0.06568  1.0000
  H   H4117     1.0  0.92151  0.64663  0.31105  1.0000
  H   H4118     1.0  0.95296  0.73160  0.11679  1.0000
  H   H4119     1.0  0.89888  0.52863  0.30599  1.0000
  S   S513      1.0  0.77591  0.59267  0.30050  1.0000
  S   S514      1.0  0.92164  0.71150  0.13686  1.0000
  H   H4120     1.0  0.67298  0.50438  0.18279  1.0000
  H   H4121     1.0  0.78088  0.51028  0.29426  1.0000
  Fe  Fe260     1.0  0.66012  0.70727  0.31127  1.0000
  S   S515      1.0  0.50740  0.58113  0.10766  1.0000
  H   H4122     1.0  0.73481  0.68271  0.27402  1.0000
  S   S516      1.0  0.89809  0.70233  0.31594  1.0000
  C   C2330     1.0  0.75353  0.69760  0.31472  1.0000
  H   H4123     1.0  0.81690  0.69606  0.28499  1.0000
  H   H4124     1.0  0.71731  0.73427  0.30179  1.0000
  H   H4125     1.0  0.97444  0.72797  0.17227  1.0000
  H   H4126     1.0  0.98459  0.72986  0.23827  1.0000
  N   N131      1.0  0.97003  0.67364  0.30886  1.0000
  H   H4127     1.0  0.96987  0.70470  0.20246  1.0000
  H   H4128     1.0  0.55230  0.57823  0.05611  1.0000
  H   H4129     1.0  0.51877  0.68020  0.18319  1.0000
  S   S517      1.0  0.91626  0.72474  0.26135  1.0000
  S   S518      1.0  0.60698  0.70407  0.20779  1.0000
  H   H4130     1.0  0.50773  0.63162  0.20309  1.0000
  H   H4131     1.0  0.85102  0.50617  0.28897  1.0000
  C   C2331     1.0  0.79082  0.52103  0.29258  1.0000
  H   H4132     1.0  0.90821  0.73142  0.09346  1.0000
  C   C2332     1.0  0.51366  0.62262  0.17462  1.0000
  S   S519      1.0  0.85059  0.61738  0.31105  1.0000
  C   C2333     1.0  0.82931  0.73321  0.19041  1.0000
  C   C2334     1.0  0.97778  0.70705  0.21361  1.0000
  H   H4133     1.0  0.91818  0.54254  0.30306  1.0000
  H   H4134     1.0  0.91691  0.72040  0.22193  1.0000
  H   H4135     1.0  0.83108  0.48590  0.29405  1.0000
  H   H4136     1.0  0.67937  0.49762  0.15892  1.0000
  H   H4137     1.0  0.50176  0.59742  0.19193  1.0000
  H   H4138     1.0  0.98150  0.66531  0.26918  1.0000
  H   H4139     1.0  0.50024  0.59474  0.03653  1.0000
  H   H4140     1.0  0.68555  0.72167  0.24318  1.0000
  H   H4141     1.0  0.75050  0.53431  0.30029  1.0000
  H   H4142     1.0  0.97733  0.73072  0.28274  1.0000
  C   C2335     1.0  0.88985  0.55674  0.31565  1.0000
  H   H4143     1.0  0.56911  0.50114  0.08977  1.0000
  H   H4144     1.0  0.49206  0.65834  0.22281  1.0000
  C   C2336     1.0  0.57727  0.72062  0.30518  1.0000
  H   H4145     1.0  0.79667  0.72677  0.27435  1.0000
  C   C2337     1.0  0.67800  0.49197  0.17478  1.0000
  C   C2338     1.0  0.98998  0.72212  0.17261  1.0000
  H   H4146     1.0  0.83627  0.48568  0.24166  1.0000
  H   H4147     1.0  0.78787  0.55051  0.29887  1.0000
  H   H4148     1.0  0.87623  0.72703  0.13380  1.0000
  H   H4149     1.0  0.70008  0.73005  0.15253  1.0000
  H   H4150     1.0  0.87262  0.73337  0.21912  1.0000
  H   H4151     1.0  0.84625  0.51371  0.31248  1.0000
  H   H4152     1.0  0.84065  0.73455  0.13557  1.0000
  H   H4153     1.0  0.87477  0.55919  0.31262  1.0000
  C   C2339     1.0  0.98387  0.65754  0.30012  1.0000
  H   H4154     1.0  0.49573  0.70512  0.12557  1.0000
  H   H4155     1.0  0.89509  0.57086  0.31190  1.0000
  H   H4156     1.0  0.82288  0.48500  0.15829  1.0000
  C   C2340     1.0  0.94441  0.51702  0.34550  1.0000
  H   H4157     1.0  0.90530  0.54030  0.33895  1.0000
  H   H4158     1.0  0.91451  0.65961  0.33138  1.0000
  H   H4159     1.0  0.85702  0.53866  0.38166  1.0000
  H   H4160     1.0  0.68798  0.70613  0.35785  1.0000
  S   S520      1.0  0.79395  0.61565  0.32691  1.0000
  S   S521      1.0  0.87228  0.73434  0.34296  1.0000
  H   H4161     1.0  0.84420  0.67900  0.40900  1.0000
  H   H4162     1.0  0.96270  0.50852  0.38787  1.0000
  H   H4163     1.0  0.86374  0.62362  0.38426  1.0000
  N   N132      1.0  0.88230  0.56074  0.35197  1.0000
  Fe  Fe261     1.0  0.96940  0.60953  0.38941  1.0000
  S   S522      1.0  0.93895  0.62594  0.39507  1.0000
  H   H4164     1.0  0.80382  0.51620  0.32949  1.0000
  H   H4165     1.0  0.87343  0.67791  0.37075  1.0000
  H   H4166     1.0  0.80950  0.66022  0.36767  1.0000
  H   H4167     1.0  0.88189  0.53523  0.33996  1.0000
  H   H4168     1.0  0.81649  0.68556  0.39564  1.0000
  S   S523      1.0  0.84661  0.49314  0.38413  1.0000
  H   H4169     1.0  0.98888  0.69001  0.35539  1.0000
  H   H4170     1.0  0.88374  0.70507  0.38037  1.0000
  H   H4171     1.0  0.86340  0.65983  0.40462  1.0000
  H   H4172     1.0  0.90049  0.54258  0.37180  1.0000
  Fe  Fe262     1.0  0.98942  0.57091  0.37826  1.0000
  C   C2341     1.0  0.84925  0.65240  0.37212  1.0000
  C   C2342     1.0  0.94574  0.64978  0.32415  1.0000
  C   C2343     1.0  0.79915  0.53429  0.37988  1.0000
  S   S524      1.0  0.78461  0.56314  0.35261  1.0000
  C   C2344     1.0  0.89295  0.57784  0.34801  1.0000
  C   C2345     1.0  0.82735  0.66947  0.32674  1.0000
  C   C2346     1.0  0.80267  0.54417  0.36079  1.0000
  C   C2347     1.0  0.83028  0.51312  0.37486  1.0000
  C   C2348     1.0  0.83394  0.52298  0.35575  1.0000
  C   C2349     1.0  0.82021  0.53853  0.34878  1.0000
  H   H4173     1.0  0.84728  0.51860  0.34636  1.0000
  C   C2350     1.0  0.76404  0.68767  0.33204  1.0000
  H   H4174     1.0  0.97598  0.66022  0.33759  1.0000
  H   H4175     1.0  0.89276  0.51572  0.39892  1.0000
  H   H4176     1.0  0.82485  0.62324  0.44251  1.0000
  H   H4177     1.0  0.94931  0.54121  0.32261  1.0000
  H   H4178     1.0  0.94254  0.49482  0.37084  1.0000
  Fe  Fe263     1.0  0.79231  0.58472  0.32575  1.0000
  H   H4179     1.0  0.92192  0.63380  0.33563  1.0000
  H   H4180     1.0  0.94085  0.58697  0.33855  1.0000
  H   H4181     1.0  0.80732  0.66289  0.42141  1.0000
  C   C2351     1.0  0.92481  0.59091  0.34199  1.0000
  C   C2352     1.0  0.96691  0.53318  0.36535  1.0000
  H   H4182     1.0  0.82724  0.68655  0.37100  1.0000
  H   H4183     1.0  0.85331  0.69706  0.37486  1.0000
  H   H4184     1.0  0.78567  0.53848  0.38928  1.0000
  C   C2353     1.0  0.95174  0.53432  0.33711  1.0000
  C   C2354     1.0  0.96258  0.54255  0.34708  1.0000
  H   H4185     1.0  0.73505  0.63172  0.31788  1.0000
  H   H4186     1.0  0.96832  0.55566  0.34024  1.0000
  C   C2355     1.0  0.89024  0.54740  0.33726  1.0000
  C   C2356     1.0  0.95935  0.51604  0.37384  1.0000
  C   C2357     1.0  0.87726  0.52262  0.39997  1.0000
  C   C2358     1.0  0.87584  0.69487  0.39161  1.0000
  S   S525      1.0  0.93226  0.50646  0.33148  1.0000
  H   H4187     1.0  0.86817  0.51107  0.40565  1.0000
  C   C2359     1.0  0.82224  0.67632  0.38420  1.0000
  C   C2360     1.0  0.83231  0.64518  0.40557  1.0000
  H   H4188     1.0  0.77471  0.69654  0.33347  1.0000
  H   H4189     1.0  0.79016  0.49975  0.32502  1.0000
  C   C2361     1.0  0.93034  0.68892  0.36416  1.0000
  C   C2362     1.0  0.91750  0.67663  0.36355  1.0000
  C   C2363     1.0  0.92019  0.65732  0.37314  1.0000
  C   C2364     1.0  0.93615  0.65002  0.38275  1.0000
  C   C2365     1.0  0.94930  0.66217  0.38295  1.0000
  C   C2366     1.0  0.94615  0.68169  0.37402  1.0000
  H   H4190     1.0  0.90542  0.68211  0.35583  1.0000
  H   H4191     1.0  0.91017  0.64789  0.37279  1.0000
  H   H4192     1.0  0.96152  0.65670  0.39055  1.0000
  H   H4193     1.0  0.95603  0.69120  0.37468  1.0000
  H   H4194     1.0  0.85323  0.55592  0.35175  1.0000
  C   C2367     1.0  0.86771  0.63716  0.37491  1.0000
  S   S526      1.0  0.98403  0.54051  0.37663  1.0000
  H   H4195     1.0  0.80795  0.49451  0.35947  1.0000
  C   C2368     1.0  0.88503  0.54949  0.37187  1.0000
  C   C2369     1.0  0.72328  0.71222  0.33490  1.0000
  C   C2370     1.0  0.87867  0.63189  0.35546  1.0000
  H   H4196     1.0  0.92127  0.59692  0.35577  1.0000
  C   C2371     1.0  0.71073  0.69685  0.33456  1.0000
  C   C2372     1.0  0.85249  0.67079  0.39738  1.0000
  C   C2373     1.0  0.82887  0.58736  0.36365  1.0000
  C   C2374     1.0  0.81256  0.63464  0.43850  1.0000
  H   H4197     1.0  0.96430  0.68460  0.33605  1.0000
  C   C2375     1.0  0.69745  0.69261  0.35406  1.0000
  C   C2376     1.0  0.80487  0.66874  0.37971  1.0000
  C   C2377     1.0  0.81295  0.51899  0.38693  1.0000
  H   H4198     1.0  0.72927  0.70800  0.34863  1.0000
  H   H4199     1.0  0.80999  0.51141  0.40170  1.0000
  H   H4200     1.0  0.88676  0.68375  0.39861  1.0000
  H   H4201     1.0  0.86655  0.70318  0.40266  1.0000
  H   H4202     1.0  0.82780  0.59569  0.34884  1.0000
  H   H4203     1.0  0.76501  0.65792  0.32819  1.0000
  H   H4204     1.0  0.94888  0.64801  0.33914  1.0000
  H   H4205     1.0  0.75382  0.68541  0.34587  1.0000
  H   H4206     1.0  0.77674  0.67984  0.37097  1.0000
  H   H4207     1.0  0.82905  0.65792  0.43203  1.0000
  C   C2378     1.0  0.82947  0.65068  0.32270  1.0000
  H   H4208     1.0  0.82403  0.63644  0.39984  1.0000
  S   S527      1.0  0.98160  0.58152  0.40718  1.0000
  H   H4209     1.0  0.82307  0.54577  0.33403  1.0000
  H   H4210     1.0  0.85311  0.66397  0.35974  1.0000
  C   C2379     1.0  0.86116  0.56815  0.35081  1.0000
  C   C2380     1.0  0.94791  0.50818  0.36417  1.0000
  H   H4211     1.0  0.85038  0.57283  0.38116  1.0000
  Fe  Fe264     1.0  0.86688  0.71604  0.32288  1.0000
  Fe  Fe265     1.0  0.90380  0.72266  0.33362  1.0000
  H   H4212     1.0  0.83356  0.48941  0.32851  1.0000
  H   H4213     1.0  0.70613  0.68601  0.36578  1.0000
  H   H4214     1.0  0.89189  0.62121  0.35789  1.0000
  H   H4215     1.0  0.68802  0.68225  0.35303  1.0000
  S   S528      1.0  0.65341  0.72487  0.33540  1.0000
  H   H4216     1.0  0.79805  0.65940  0.39262  1.0000
  N   N133      1.0  0.73899  0.71571  0.31748  1.0000
  C   C2381     1.0  0.87281  0.53298  0.37997  1.0000
  H   H4217     1.0  0.80291  0.62831  0.43184  1.0000
  S   S529      1.0  0.92724  0.71320  0.35235  1.0000
  H   H4218     1.0  0.92061  0.56685  0.33053  1.0000
  H   H4219     1.0  0.84501  0.63474  0.41023  1.0000
  H   H4220     1.0  0.88900  0.58580  0.36056  1.0000
  S   S530      1.0  0.97596  0.59840  0.36111  1.0000
  N   N134      1.0  0.83906  0.66114  0.38984  1.0000
  H   H4221     1.0  0.88203  0.55936  0.38281  1.0000
  H   H4222     1.0  0.87787  0.64255  0.38168  1.0000
  C   C2382     1.0  0.86352  0.68535  0.38209  1.0000
  C   C2383     1.0  0.82007  0.65177  0.42444  1.0000
  H   H4223     1.0  0.86945  0.62543  0.34841  1.0000
  H   H4224     1.0  0.87611  0.52191  0.37032  1.0000
  C   C2384     1.0  0.85012  0.58086  0.36614  1.0000
  H   H4225     1.0  0.87397  0.53294  0.41045  1.0000
  H   H4226     1.0  0.82138  0.57462  0.36597  1.0000
  H   H4227     1.0  0.80409  0.63963  0.45200  1.0000
  H   H4228     1.0  0.85960  0.57714  0.33631  1.0000
  H   H4229     1.0  0.82132  0.59679  0.37445  1.0000
  H   H4230     1.0  0.83938  0.64499  0.36692  1.0000
  C   C2385     1.0  0.91545  0.57291  0.34419  1.0000
  H   H4231     1.0  0.98903  0.51211  0.32920  1.0000
  H   H4232     1.0  0.88321  0.64496  0.34561  1.0000
  H   H4233     1.0  0.69962  0.64147  0.32870  1.0000
  H   H4234     1.0  0.88830  0.58868  0.33549  1.0000
  H   H4235     1.0  0.85662  0.59413  0.36452  1.0000
  H   H4236     1.0  0.92089  0.56223  0.35632  1.0000
  C   C2386     1.0  0.80482  0.50416  0.32130  1.0000
  H   H4237     1.0  0.71984  0.68295  0.33155  1.0000
  C   C2387     1.0  0.92462  0.64737  0.32558  1.0000
  H   H4238     1.0  0.79496  0.69500  0.36024  1.0000
  H   H4239     1.0  0.95487  0.63779  0.31713  1.0000
  C   C2388     1.0  0.97557  0.67465  0.32800  1.0000
  C   C2389     1.0  0.84345  0.67888  0.32332  1.0000
  H   H4240     1.0  0.93972  0.68073  0.32112  1.0000
  H   H4241     1.0  0.81704  0.64341  0.32568  1.0000
  S   S531      1.0  0.88172  0.49292  0.33347  1.0000
  H   H4242     1.0  0.91979  0.60207  0.32995  1.0000
  C   C2390     1.0  0.77522  0.66768  0.32877  1.0000
  S   S532      1.0  0.84058  0.70132  0.33088  1.0000
  H   H4243     1.0  0.81329  0.67664  0.33279  1.0000
  H   H4244     1.0  0.78377  0.69445  0.38550  1.0000
  H   H4245     1.0  0.75712  0.72040  0.34834  1.0000
  H   H4246     1.0  0.77665  0.53427  0.31872  1.0000
  H   H4247     1.0  0.71314  0.72598  0.33662  1.0000
  C   C2391     1.0  0.78916  0.68560  0.37373  1.0000
  C   C2392     1.0  0.74893  0.73212  0.31916  1.0000
  H   H4248     1.0  0.78324  0.66107  0.34100  1.0000
  H   H4249     1.0  0.70117  0.70227  0.32339  1.0000
  H   H4250     1.0  0.58058  0.71776  0.32023  1.0000
  C   C2393     1.0  0.81855  0.48653  0.33059  1.0000
  H   H4251     1.0  0.99007  0.48756  0.36016  1.0000
  C   C2394     1.0  0.75109  0.73427  0.33991  1.0000
  C   C2395     1.0  0.70728  0.65043  0.31668  1.0000
  Fe  Fe266     1.0  0.75287  0.80143  0.15731  1.0000
  S   S533      1.0  0.74553  0.79929  0.18977  1.0000
  S   S534      1.0  0.74424  0.77742  0.14510  1.0000
  Fe  Fe267     1.0  0.77885  0.83320  0.15418  1.0000
  S   S535      1.0  0.77289  0.83233  0.18628  1.0000
  S   S536      1.0  0.79968  0.85337  0.13615  1.0000
  Fe  Fe268     1.0  0.77686  0.80025  0.18867  1.0000
  S   S537      1.0  0.79563  0.78053  0.20871  1.0000
  Fe  Fe269     1.0  0.74219  0.83173  0.18383  1.0000
  S   S538      1.0  0.71763  0.84950  0.20090  1.0000
  S   S539      1.0  0.78498  0.80064  0.15660  1.0000
  S   S540      1.0  0.74746  0.83432  0.15127  1.0000
  C   C2396     1.0  0.60983  0.80108  0.25285  1.0000
  Fe  Fe270     1.0  0.84867  0.93918  0.15344  1.0000
  S   S541      1.0  0.85864  0.94198  0.12128  1.0000
  S   S542      1.0  0.82990  0.91660  0.17023  1.0000
  H   H4252     1.0  0.70855  0.78430  0.21602  1.0000
  C   C2397     1.0  0.87720  0.76384  0.15407  1.0000
  C   C2398     1.0  0.87582  0.76220  0.17606  1.0000
  Fe  Fe271     1.0  0.88807  0.94196  0.12877  1.0000
  S   S543      1.0  0.91383  0.92230  0.11409  1.0000
  S   S544      1.0  0.87822  0.93838  0.16104  1.0000
  H   H4253     1.0  0.76361  0.80700  0.22846  1.0000
  H   H4254     1.0  0.75122  0.86846  0.19102  1.0000
  S   S545      1.0  0.86802  0.73925  0.29660  1.0000
  H   H4255     1.0  0.69782  0.96387  0.28590  1.0000
  H   H4256     1.0  0.58134  0.74406  0.23638  1.0000
  S   S546      1.0  0.96166  0.77453  0.16020  1.0000
  C   C2399     1.0  0.96898  0.90677  0.19462  1.0000
  H   H4257     1.0  0.55965  0.78546  0.24084  1.0000
  H   H4258     1.0  0.88859  0.76710  0.17918  1.0000
  H   H4259     1.0  0.52961  0.90211  0.29803  1.0000
  H   H4260     1.0  0.56714  0.85842  0.30568  1.0000
  H   H4261     1.0  0.76116  0.93177  0.29761  1.0000
  C   C2400     1.0  0.77398  0.92634  0.18430  1.0000
  H   H4262     1.0  0.74506  0.82749  0.23248  1.0000
  H   H4263     1.0  0.87774  0.77927  0.14763  1.0000
  H   H4264     1.0  0.85967  0.81671  0.15180  1.0000
  H   H4265     1.0  0.83191  0.75472  0.20678  1.0000
  C   C2401     1.0  0.71181  0.76276  0.19789  1.0000
  H   H4266     1.0  0.88248  0.87773  0.20117  1.0000
  H   H4267     1.0  0.94618  0.83665  0.13268  1.0000
  H   H4268     1.0  0.86732  0.90100  0.19632  1.0000
  H   H4269     1.0  0.59176  0.77493  0.27968  1.0000
  H   H4270     1.0  0.84070  0.74833  0.11180  1.0000
  H   H4271     1.0  0.94254  0.81405  0.14821  1.0000
  H   H4272     1.0  0.95221  0.74011  0.23794  1.0000
  C   C2402     1.0  0.53380  0.77354  0.28467  1.0000
  H   H4273     1.0  0.72850  0.97851  0.31331  1.0000
  C   C2403     1.0  0.95068  0.75726  0.15309  1.0000
  C   C2404     1.0  0.55397  0.78013  0.27902  1.0000
  H   H4274     1.0  0.55040  0.76346  0.24852  1.0000
  H   H4275     1.0  0.59015  0.90123  0.30765  1.0000
  H   H4276     1.0  0.93010  0.75482  0.17981  1.0000
  C   C2405     1.0  0.79839  0.73673  0.17974  1.0000
  H   H4277     1.0  0.72024  0.98122  0.29096  1.0000
  C   C2406     1.0  0.93068  0.90434  0.12600  1.0000
  C   C2407     1.0  0.93148  0.90289  0.14574  1.0000
  C   C2408     1.0  0.94557  0.88893  0.15444  1.0000
  C   C2409     1.0  0.95900  0.87619  0.14358  1.0000
  C   C2410     1.0  0.95780  0.87721  0.12399  1.0000
  C   C2411     1.0  0.94380  0.89130  0.11524  1.0000
  H   H4278     1.0  0.92150  0.91280  0.15421  1.0000
  H   H4279     1.0  0.94618  0.88812  0.16964  1.0000
  H   H4280     1.0  0.96808  0.86763  0.11539  1.0000
  H   H4281     1.0  0.94333  0.89230  0.09995  1.0000
  H   H4282     1.0  0.93289  0.82052  0.12579  1.0000
  C   C2412     1.0  0.72118  0.77089  0.14531  1.0000
  C   C2413     1.0  0.71889  0.75124  0.15036  1.0000
  C   C2414     1.0  0.70159  0.74519  0.14871  1.0000
  C   C2415     1.0  0.68659  0.75862  0.14128  1.0000
  C   C2416     1.0  0.68885  0.77828  0.13632  1.0000
  C   C2417     1.0  0.70588  0.78442  0.13856  1.0000
  H   H4283     1.0  0.50537  0.78191  0.30142  1.0000
  H   H4284     1.0  0.80468  0.88304  0.24805  1.0000
  H   H4285     1.0  0.67750  0.78880  0.13032  1.0000
  H   H4286     1.0  0.70755  0.79949  0.13409  1.0000
  C   C2418     1.0  0.80369  0.75953  0.19849  1.0000
  H   H4287     1.0  0.70330  0.75356  0.19320  1.0000
  H   H4288     1.0  0.80947  0.90179  0.31208  1.0000
  H   H4289     1.0  0.73967  0.94197  0.18217  1.0000
  S   S547      1.0  0.86265  0.78860  0.31427  1.0000
  C   C2419     1.0  0.79164  0.75320  0.18857  1.0000
  C   C2420     1.0  0.58986  0.79576  0.25363  1.0000
  H   H4290     1.0  0.83329  0.83134  0.22833  1.0000
  C   C2421     1.0  0.74851  0.94867  0.16865  1.0000
  H   H4291     1.0  0.77712  0.76102  0.18764  1.0000
  C   C2422     1.0  0.80859  0.87051  0.14585  1.0000
  C   C2423     1.0  0.81874  0.88437  0.13315  1.0000
  C   C2424     1.0  0.82564  0.89840  0.14032  1.0000
  C   C2425     1.0  0.82280  0.89850  0.16036  1.0000
  C   C2426     1.0  0.81315  0.88429  0.17306  1.0000
  C   C2427     1.0  0.80591  0.87056  0.16588  1.0000
  H   H4292     1.0  0.82094  0.88450  0.11763  1.0000
  H   H4293     1.0  0.83287  0.90932  0.13031  1.0000
  H   H4294     1.0  0.81083  0.88418  0.18859  1.0000
  H   H4295     1.0  0.79823  0.86007  0.17589  1.0000
  C   C2428     1.0  0.72729  0.86288  0.21379  1.0000
  C   C2429     1.0  0.71852  0.86515  0.23279  1.0000
  C   C2430     1.0  0.72785  0.87314  0.24418  1.0000
  C   C2431     1.0  0.74586  0.87902  0.23654  1.0000
  C   C2432     1.0  0.75404  0.87789  0.21715  1.0000
  C   C2433     1.0  0.74473  0.86980  0.20582  1.0000
  H   H4296     1.0  0.70501  0.85985  0.23903  1.0000
  H   H4297     1.0  0.76513  0.95199  0.19904  1.0000
  H   H4298     1.0  0.76798  0.88236  0.21120  1.0000
  H   H4299     1.0  0.83968  0.83682  0.15090  1.0000
  C   C2434     1.0  0.93509  0.76321  0.22146  1.0000
  Fe  Fe272     1.0  0.87107  0.97114  0.15701  1.0000
  C   C2435     1.0  0.75734  0.81760  0.23844  1.0000
  Fe  Fe273     1.0  0.75471  0.83597  0.31271  1.0000
  H   H4300     1.0  0.81221  0.96014  0.12396  1.0000
  H   H4301     1.0  0.84837  0.82467  0.13034  1.0000
  H   H4302     1.0  0.89263  0.89793  0.18556  1.0000
  H   H4303     1.0  0.61921  0.80773  0.30383  1.0000
  C   C2436     1.0  0.82781  0.81255  0.31114  1.0000
  H   H4304     1.0  0.75061  0.73945  0.28097  1.0000
  N   N135      1.0  0.68353  0.79196  0.20129  1.0000
  C   C2437     1.0  0.66986  0.80130  0.21722  1.0000
  C   C2438     1.0  0.67258  0.78165  0.19137  1.0000
  C   C2439     1.0  0.69857  0.77702  0.21079  1.0000
  C   C2440     1.0  0.69400  0.80650  0.18666  1.0000
  C   C2441     1.0  0.68132  0.82252  0.17444  1.0000
  C   C2442     1.0  0.67920  0.81085  0.23013  1.0000
  C   C2443     1.0  0.77703  0.93942  0.19810  1.0000
  C   C2444     1.0  0.65120  0.79091  0.18936  1.0000
  C   C2445     1.0  0.64383  0.78251  0.17453  1.0000
  C   C2446     1.0  0.69347  0.83678  0.16092  1.0000
  C   C2447     1.0  0.66379  0.81956  0.24569  1.0000
  H   H4305     1.0  0.66177  0.79024  0.22713  1.0000
  H   H4306     1.0  0.65863  0.81274  0.21123  1.0000
  H   H4307     1.0  0.68083  0.77952  0.17671  1.0000
  H   H4308     1.0  0.67155  0.76676  0.19954  1.0000
  H   H4309     1.0  0.70260  0.81355  0.19384  1.0000
  H   H4310     1.0  0.70486  0.79910  0.17586  1.0000
  H   H4311     1.0  0.66979  0.83091  0.18385  1.0000
  H   H4312     1.0  0.67476  0.81599  0.16490  1.0000
  H   H4313     1.0  0.68973  0.80010  0.23795  1.0000
  H   H4314     1.0  0.68671  0.82271  0.22127  1.0000
  H   H4315     1.0  0.71985  0.77062  0.18477  1.0000
  H   H4316     1.0  0.72127  0.87428  0.25906  1.0000
  H   H4317     1.0  0.64166  0.78800  0.20365  1.0000
  H   H4318     1.0  0.64919  0.80681  0.18484  1.0000
  H   H4319     1.0  0.64693  0.76641  0.17714  1.0000
  H   H4320     1.0  0.62791  0.78717  0.17542  1.0000
  H   H4321     1.0  0.65091  0.78782  0.15957  1.0000
  H   H4322     1.0  0.68408  0.84782  0.15201  1.0000
  H   H4323     1.0  0.70014  0.84437  0.16944  1.0000
  H   H4324     1.0  0.70510  0.82909  0.15094  1.0000
  H   H4325     1.0  0.65618  0.80811  0.25537  1.0000
  H   H4326     1.0  0.67087  0.82621  0.25474  1.0000
  H   H4327     1.0  0.95812  0.90012  0.20616  1.0000
  N   N136      1.0  0.56951  0.76798  0.26677  1.0000
  S   S548      1.0  0.97795  0.86059  0.15472  1.0000
  H   H4328     1.0  0.81718  0.73933  0.26728  1.0000
  H   H4329     1.0  0.85727  0.74336  0.15857  1.0000
  C   C2448     1.0  0.73115  0.94024  0.29267  1.0000
  H   H4330     1.0  0.92541  0.75385  0.21887  1.0000
  H   H4331     1.0  0.57943  0.80677  0.29929  1.0000
  H   H4332     1.0  0.76372  0.92332  0.22519  1.0000
  H   H4333     1.0  0.53989  0.87908  0.29049  1.0000
  H   H4334     1.0  0.81002  0.87831  0.30600  1.0000
  H   H4335     1.0  0.76524  0.83992  0.24987  1.0000
  H   H4336     1.0  0.52533  0.78571  0.31157  1.0000
  H   H4337     1.0  0.78463  0.91445  0.14847  1.0000
  H   H4338     1.0  0.87577  0.74689  0.18327  1.0000
  Fe  Fe274     1.0  0.66773  0.74703  0.31335  1.0000
  H   H4339     1.0  0.75544  0.92139  0.27867  1.0000
  S   S549      1.0  0.66511  0.75157  0.13729  1.0000
  C   C2449     1.0  0.54335  0.89188  0.29504  1.0000
  S   S550      1.0  0.84067  0.97157  0.15258  1.0000
  C   C2450     1.0  0.84052  0.77825  0.26952  1.0000
  C   C2451     1.0  0.81653  0.85365  0.26051  1.0000
  H   H4340     1.0  0.79638  0.87650  0.27379  1.0000
  H   H4341     1.0  0.74711  0.88084  0.15539  1.0000
  H   H4342     1.0  0.96938  0.75518  0.19567  1.0000
  N   N137      1.0  0.85993  0.75595  0.12821  1.0000
  C   C2452     1.0  0.93525  0.74969  0.16608  1.0000
  C   C2453     1.0  0.85938  0.75753  0.14918  1.0000
  H   H4343     1.0  0.58972  0.74656  0.29813  1.0000
  C   C2454     1.0  0.86114  0.77532  0.11510  1.0000
  C   C2455     1.0  0.88179  0.78006  0.10614  1.0000
  H   H4344     1.0  0.76432  0.92772  0.13865  1.0000
  H   H4345     1.0  0.66022  0.93223  0.29448  1.0000
  C   C2456     1.0  0.88089  0.80106  0.09575  1.0000
  H   H4346     1.0  0.64316  0.75430  0.21071  1.0000
  S   S551      1.0  0.54230  0.82419  0.31613  1.0000
  H   H4347     1.0  0.74447  0.90293  0.13799  1.0000
  H   H4348     1.0  0.78705  0.89301  0.31399  1.0000
  H   H4349     1.0  0.84680  0.76831  0.15424  1.0000
  Fe  Fe275     1.0  0.64724  0.74186  0.28175  1.0000
  C   C2457     1.0  0.76929  0.92132  0.15269  1.0000
  H   H4350     1.0  0.69098  0.93028  0.30617  1.0000
  H   H4351     1.0  0.85357  0.77661  0.10247  1.0000
  H   H4352     1.0  0.85310  0.78728  0.12299  1.0000
  H   H4353     1.0  0.88895  0.77068  0.09518  1.0000
  H   H4354     1.0  0.89136  0.77775  0.11717  1.0000
  H   H4355     1.0  0.80033  0.83125  0.30832  1.0000
  H   H4356     1.0  0.55323  0.89927  0.28300  1.0000
  H   H4357     1.0  0.82228  0.77799  0.12726  1.0000
  H   H4358     1.0  0.98653  0.87174  0.18884  1.0000
  H   H4359     1.0  0.87470  0.81120  0.10622  1.0000
  H   H4360     1.0  0.89577  0.80384  0.08904  1.0000
  H   H4361     1.0  0.87187  0.80392  0.08408  1.0000
  H   H4362     1.0  0.55841  0.75872  0.21325  1.0000
  C   C2458     1.0  0.51982  0.78660  0.29777  1.0000
  H   H4363     1.0  0.78762  0.91583  0.18205  1.0000
  H   H4364     1.0  0.79879  0.74539  0.29918  1.0000
  C   C2459     1.0  0.79869  0.97093  0.12574  1.0000
  H   H4365     1.0  0.87331  0.74661  0.09142  1.0000
  H   H4366     1.0  0.62125  0.79158  0.24441  1.0000
  H   H4367     1.0  0.71987  0.74081  0.22233  1.0000
  C   C2460     1.0  0.67371  0.79669  0.30780  1.0000
  H   H4368     1.0  0.70878  0.96217  0.17112  1.0000
  C   C2461     1.0  0.68645  0.82531  0.30962  1.0000
  H   H4369     1.0  0.76821  0.97229  0.13576  1.0000
  H   H4370     1.0  0.51800  0.80195  0.29035  1.0000
  C   C2462     1.0  0.74987  0.92549  0.29330  1.0000
  C   C2463     1.0  0.75785  0.90458  0.16257  1.0000
  H   H4371     1.0  0.78374  0.81027  0.26446  1.0000
  H   H4372     1.0  0.78947  0.91513  0.21834  1.0000
  H   H4373     1.0  0.73595  0.73898  0.19946  1.0000
  N   N138      1.0  0.76845  0.93661  0.16494  1.0000
  H   H4374     1.0  0.73078  0.93834  0.15199  1.0000
  C   C2464     1.0  0.67253  0.81693  0.30432  1.0000
  Fe  Fe276     1.0  0.71397  0.85627  0.30744  1.0000
  S   S552      1.0  0.73890  0.84282  0.28734  1.0000
  H   H4375     1.0  0.79095  0.76515  0.13530  1.0000
  H   H4376     1.0  0.52727  0.77435  0.27154  1.0000
  C   C2465     1.0  0.55261  0.88573  0.31342  1.0000
  H   H4377     1.0  0.61318  0.79958  0.26775  1.0000
  H   H4378     1.0  0.73070  0.74059  0.15532  1.0000
  H   H4379     1.0  0.59318  0.76510  0.22951  1.0000
  S   S553      1.0  0.72177  0.88608  0.30017  1.0000
  H   H4380     1.0  0.74725  0.91218  0.30385  1.0000
  S   S554      1.0  0.75901  0.88579  0.25178  1.0000
  H   H4381     1.0  0.92800  0.76981  0.23452  1.0000
  C   C2466     1.0  0.80457  0.75628  0.12914  1.0000
  H   H4382     1.0  0.96696  0.90448  0.18020  1.0000
  C   C2467     1.0  0.57904  0.76000  0.23176  1.0000
  H   H4383     1.0  0.82985  0.77368  0.28247  1.0000
  C   C2468     1.0  0.80248  0.88861  0.31599  1.0000
  H   H4384     1.0  0.79365  0.80291  0.24182  1.0000
  C   C2469     1.0  0.77788  0.92808  0.21863  1.0000
  C   C2470     1.0  0.57231  0.76408  0.21202  1.0000
  H   H4385     1.0  0.60121  0.77659  0.30944  1.0000
  H   H4386     1.0  0.93695  0.77498  0.20872  1.0000
  H   H4387     1.0  0.86240  0.77135  0.18222  1.0000
  C   C2471     1.0  0.86637  0.73956  0.23260  1.0000
  C   C2472     1.0  0.56373  0.76992  0.24709  1.0000
  S   S555      1.0  0.68453  0.85053  0.30634  1.0000
  N   N139      1.0  0.88822  0.86472  0.14444  1.0000
  C   C2473     1.0  0.90742  0.85397  0.13574  1.0000
  C   C2474     1.0  0.88197  0.88274  0.13033  1.0000
  C   C2475     1.0  0.89130  0.87096  0.16257  1.0000
  C   C2476     1.0  0.87261  0.85209  0.15036  1.0000
  C   C2477     1.0  0.86728  0.84373  0.13401  1.0000
  C   C2478     1.0  0.91686  0.83616  0.14910  1.0000
  C   C2479     1.0  0.87429  0.88496  0.17226  1.0000
  C   C2480     1.0  0.88742  0.88162  0.10824  1.0000
  C   C2481     1.0  0.87681  0.89904  0.09602  1.0000
  C   C2482     1.0  0.85294  0.82958  0.14236  1.0000
  C   C2483     1.0  0.93573  0.82630  0.13818  1.0000
  C   C2484     1.0  0.87959  0.89069  0.18992  1.0000
  H   H4388     1.0  0.91818  0.86413  0.13100  1.0000
  H   H4389     1.0  0.90628  0.84882  0.12236  1.0000
  H   H4390     1.0  0.86603  0.88758  0.13379  1.0000
  H   H4391     1.0  0.88865  0.89505  0.13204  1.0000
  H   H4392     1.0  0.90442  0.87814  0.15927  1.0000
  H   H4393     1.0  0.89415  0.85819  0.17406  1.0000
  H   H4394     1.0  0.87644  0.83991  0.16212  1.0000
  H   H4395     1.0  0.85877  0.86045  0.15680  1.0000
  H   H4396     1.0  0.88022  0.83584  0.12574  1.0000
  H   H4397     1.0  0.85995  0.85563  0.12400  1.0000
  H   H4398     1.0  0.92075  0.84055  0.16177  1.0000
  H   H4399     1.0  0.90701  0.82526  0.15437  1.0000
  H   H4400     1.0  0.86107  0.87815  0.17743  1.0000
  H   H4401     1.0  0.87064  0.89848  0.16201  1.0000
  H   H4402     1.0  0.90327  0.88165  0.10347  1.0000
  H   H4403     1.0  0.88403  0.86838  0.10471  1.0000
  H   H4404     1.0  0.88114  0.91263  0.09779  1.0000
  H   H4405     1.0  0.88078  0.89763  0.08040  1.0000
  H   H4406     1.0  0.86083  0.89993  0.10030  1.0000
  C   C2485     1.0  0.58855  0.77499  0.26503  1.0000
  H   H4407     1.0  0.67929  0.97473  0.30279  1.0000
  H   H4408     1.0  0.55143  0.79540  0.27143  1.0000
  H   H4409     1.0  0.76653  0.89417  0.17267  1.0000
  H   H4410     1.0  0.98392  0.87065  0.21424  1.0000
  H   H4411     1.0  0.57891  0.80663  0.26078  1.0000
  C   C2486     1.0  0.80749  0.81660  0.31241  1.0000
  H   H4412     1.0  0.95476  0.73691  0.20053  1.0000
  H   H4413     1.0  0.72152  0.98128  0.15677  1.0000
  H   H4414     1.0  0.72115  0.93433  0.28607  1.0000
  H   H4415     1.0  0.89096  0.75477  0.14875  1.0000
  H   H4416     1.0  0.79826  0.94024  0.15404  1.0000
  H   H4417     1.0  0.74979  0.96311  0.17158  1.0000
  H   H4418     1.0  0.60085  0.76479  0.25848  1.0000
  H   H4419     1.0  0.75157  0.80979  0.25293  1.0000
  H   H4420     1.0  0.84711  0.81957  0.19680  1.0000
  H   H4421     1.0  0.78110  0.93743  0.22796  1.0000
  S   S556      1.0  0.88354  0.97464  0.12504  1.0000
  C   C2487     1.0  0.69104  0.96199  0.30153  1.0000
  H   H4422     1.0  0.80396  0.74081  0.13546  1.0000
  Fe  Fe277     1.0  0.85330  0.97437  0.12067  1.0000
  H   H4423     1.0  0.60938  0.86030  0.30731  1.0000
  C   C2488     1.0  0.95705  0.75058  0.13533  1.0000
  H   H4424     1.0  0.82824  0.83823  0.18786  1.0000
  H   H4425     1.0  0.83057  0.81381  0.18337  1.0000
  H   H4426     1.0  0.58756  0.79709  0.23842  1.0000
  C   C2489     1.0  0.83188  0.82268  0.19411  1.0000
  H   H4427     1.0  0.61008  0.81633  0.24554  1.0000
  C   C2490     1.0  0.78973  0.81586  0.24908  1.0000
  C   C2491     1.0  0.81796  0.81752  0.21294  1.0000
  C   C2492     1.0  0.72144  0.94426  0.31337  1.0000
  H   H4428     1.0  0.85566  0.75281  0.22923  1.0000
  S   S557      1.0  0.90776  0.74693  0.30842  1.0000
  H   H4429     1.0  0.79108  0.94485  0.19280  1.0000
  H   H4430     1.0  0.74067  0.74640  0.31333  1.0000
  C   C2493     1.0  0.95475  0.75121  0.22491  1.0000
  H   H4431     1.0  0.82904  0.85313  0.24846  1.0000
  H   H4432     1.0  0.81162  0.84550  0.22136  1.0000
  H   H4433     1.0  0.76808  0.88800  0.13879  1.0000
  C   C2494     1.0  0.72699  0.74924  0.20889  1.0000
  C   C2495     1.0  0.81789  0.83062  0.22794  1.0000
  C   C2496     1.0  0.82249  0.74952  0.19948  1.0000
  S   S558      1.0  0.64481  0.75316  0.25037  1.0000
  C   C2497     1.0  0.80906  0.87499  0.26200  1.0000
  C   C2498     1.0  0.73567  0.95203  0.15260  1.0000
  S   S559      1.0  0.76650  0.86385  0.30536  1.0000
  C   C2499     1.0  0.84126  0.74942  0.12707  1.0000
  C   C2500     1.0  0.78118  0.96081  0.13471  1.0000
  Fe  Fe278     1.0  0.74806  0.87195  0.28198  1.0000
  H   H4434     1.0  0.82187  0.84647  0.27427  1.0000
  H   H4435     1.0  0.53480  0.75850  0.29278  1.0000
  C   C2501     1.0  0.77259  0.82925  0.24025  1.0000
  H   H4436     1.0  0.76275  0.91756  0.19257  1.0000
  H   H4437     1.0  0.65304  0.83100  0.23884  1.0000
  H   H4438     1.0  0.83287  0.81815  0.26245  1.0000
  H   H4439     1.0  0.79117  0.85414  0.24800  1.0000
  H   H4440     1.0  0.80329  0.81946  0.20917  1.0000
  H   H4441     1.0  0.82220  0.80198  0.21846  1.0000
  C   C2502     1.0  0.63489  0.74350  0.21902  1.0000
  H   H4442     1.0  0.82069  0.88165  0.26516  1.0000
  H   H4443     1.0  0.69133  0.76800  0.22387  1.0000
  H   H4444     1.0  0.84129  0.79469  0.24089  1.0000
  C   C2503     1.0  0.80038  0.84329  0.25734  1.0000
  C   C2504     1.0  0.87651  0.74028  0.12250  1.0000
  H   H4445     1.0  0.55881  0.78093  0.29267  1.0000
  C   C2505     1.0  0.82208  0.76261  0.13409  1.0000
  H   H4446     1.0  0.74367  0.90994  0.17109  1.0000
  H   H4447     1.0  0.85117  0.78529  0.27398  1.0000
  N   N140      1.0  0.80729  0.82509  0.24838  1.0000
  C   C2506     1.0  0.82057  0.81135  0.26098  1.0000
  H   H4448     1.0  0.74349  0.95712  0.13798  1.0000
  H   H4449     1.0  0.77762  0.83746  0.22578  1.0000
  C   C2507     1.0  0.83014  0.79196  0.25401  1.0000
  C   C2508     1.0  0.78354  0.94924  0.15519  1.0000
  H   H4450     1.0  0.96889  0.75624  0.12518  1.0000
  C   C2509     1.0  0.75418  0.89346  0.14772  1.0000
  H   H4451     1.0  0.84849  0.76514  0.26360  1.0000
  H   H4452     1.0  0.58116  0.87719  0.29706  1.0000
  H   H4453     1.0  0.87834  0.74366  0.23806  1.0000
  H   H4454     1.0  0.79083  0.84018  0.27167  1.0000
  H   H4455     1.0  0.81247  0.80790  0.27599  1.0000
  C   C2510     1.0  0.96550  0.74246  0.20656  1.0000
  H   H4456     1.0  0.81941  0.78427  0.25069  1.0000
  H   H4457     1.0  0.78383  0.96032  0.16409  1.0000
  H   H4458     1.0  0.77995  0.95135  0.12455  1.0000
  Fe  Fe279     1.0  0.98825  0.78989  0.14931  1.0000
  C   C2511     1.0  0.66769  0.94506  0.29096  1.0000
  C   C2512     1.0  0.94802  0.73656  0.13064  1.0000
  H   H4459     1.0  0.95340  0.74200  0.29248  1.0000
  H   H4460     1.0  0.62730  0.83063  0.29405  1.0000
  H   H4461     1.0  0.79666  0.97933  0.11115  1.0000
  C   C2513     1.0  0.57150  0.87087  0.31009  1.0000
  H   H4462     1.0  0.59152  0.83450  0.30322  1.0000
  H   H4463     1.0  0.57042  0.77987  0.20622  1.0000
  Fe  Fe280     1.0  0.87564  0.75681  0.31600  1.0000
  H   H4464     1.0  0.96339  0.76101  0.22846  1.0000
  H   H4465     1.0  0.73500  0.95354  0.28284  1.0000
  H   H4466     1.0  0.58418  0.73838  0.26751  1.0000
  H   H4467     1.0  0.72002  0.74850  0.26687  1.0000
  C   C2514     1.0  0.57535  0.79772  0.31305  1.0000
  H   H4468     1.0  0.80531  0.75828  0.11314  1.0000
  S   S560      1.0  0.64034  0.76271  0.30286  1.0000
  C   C2515     1.0  0.62047  0.82184  0.30743  1.0000
  H   H4469     1.0  0.96642  0.92264  0.19467  1.0000
  C   C2516     1.0  0.63317  0.73982  0.23924  1.0000
  H   H4470     1.0  0.67654  0.94519  0.27620  1.0000
  H   H4471     1.0  0.81965  0.76170  0.15011  1.0000
  H   H4472     1.0  0.89079  0.74446  0.12217  1.0000
  H   H4473     1.0  0.65645  0.95831  0.29095  1.0000
  H   H4474     1.0  0.73679  0.75769  0.21280  1.0000
  C   C2517     1.0  0.68056  0.94404  0.30609  1.0000
  C   C2518     1.0  0.57181  0.74687  0.27600  1.0000
  H   H4475     1.0  0.70837  0.96876  0.14536  1.0000
  H   H4476     1.0  0.58342  0.75644  0.20155  1.0000
  H   H4477     1.0  0.66108  0.82609  0.29729  1.0000
  H   H4478     1.0  0.62787  0.73590  0.19373  1.0000
  C   C2519     1.0  0.71514  0.97974  0.30693  1.0000
  H   H4479     1.0  0.83629  0.82416  0.30618  1.0000
  H   H4480     1.0  0.80043  0.98113  0.13498  1.0000
  C   C2520     1.0  0.71749  0.96699  0.15679  1.0000
  C   C2521     1.0  0.92652  0.73536  0.16158  1.0000
  H   H4481     1.0  0.98714  0.83961  0.20427  1.0000
  C   C2522     1.0  0.98963  0.89808  0.19807  1.0000
  S   S561      1.0  0.98890  0.80753  0.17202  1.0000
  H   H4482     1.0  0.55892  0.74048  0.27541  1.0000
  H   H4483     1.0  0.66300  0.79028  0.30362  1.0000
  H   H4484     1.0  0.56405  0.74995  0.30717  1.0000
  C   C2523     1.0  0.57577  0.74231  0.29729  1.0000
  C   C2524     1.0  0.60037  0.83231  0.31489  1.0000
  H   H4485     1.0  0.98968  0.81967  0.23668  1.0000
  C   C2525     1.0  0.83723  0.79346  0.31600  1.0000
  H   H4486     1.0  0.61231  0.88834  0.31574  1.0000
  H   H4487     1.0  0.74053  0.73953  0.24985  1.0000
  N   N141      1.0  0.70573  0.96182  0.31423  1.0000
  C   C2526     1.0  0.73071  0.73545  0.26367  1.0000
  H   H4488     1.0  0.67239  0.91544  0.36276  1.0000
  C   C2527     1.0  0.56644  0.82805  0.37450  1.0000
  C   C2528     1.0  0.85287  0.82879  0.35503  1.0000
  S   S562      1.0  0.72878  0.84710  0.33359  1.0000
  C   C2529     1.0  0.70171  0.81349  0.31808  1.0000
  H   H4489     1.0  0.75898  0.76320  0.33055  1.0000
  S   S563      1.0  0.74265  0.89258  0.34637  1.0000
  C   C2530     1.0  0.50223  0.87582  0.41907  1.0000
  H   H4490     1.0  0.80149  0.85118  0.33157  1.0000
  C   C2531     1.0  0.59844  0.91250  0.32998  1.0000
  C   C2532     1.0  0.65528  0.83912  0.35767  1.0000
  H   H4491     1.0  0.73574  0.89679  0.38612  1.0000
  Fe  Fe281     1.0  0.64105  0.93800  0.39306  1.0000
  S   S564      1.0  0.61224  0.94058  0.41278  1.0000
  S   S565      1.0  0.66642  0.91783  0.40409  1.0000
  Fe  Fe282     1.0  0.59953  0.94008  0.38611  1.0000
  S   S566      1.0  0.58059  0.91656  0.38846  1.0000
  H   H4492     1.0  0.56489  0.84083  0.33692  1.0000
  H   H4493     1.0  0.60495  0.90753  0.34346  1.0000
  S   S567      1.0  0.62885  0.93553  0.36720  1.0000
  H   H4494     1.0  0.69329  0.97900  0.52065  1.0000
  H   H4495     1.0  0.70584  0.90646  0.40875  1.0000
  C   C2533     1.0  0.76430  0.74900  0.33913  1.0000
  S   S568      1.0  0.51456  0.84780  0.36198  1.0000
  S   S569      1.0  0.51189  0.90451  0.34786  1.0000
  Fe  Fe283     1.0  0.51470  0.83710  0.33427  1.0000
  C   C2534     1.0  0.66591  0.87056  0.35174  1.0000
  H   H4496     1.0  0.81931  0.87693  0.33869  1.0000
  H   H4497     1.0  0.70223  0.90386  0.34038  1.0000
  H   H4498     1.0  0.50896  0.92093  0.39603  1.0000
  H   H4499     1.0  0.67178  0.96138  0.48492  1.0000
  H   H4500     1.0  0.80505  0.86432  0.39628  1.0000
  C   C2535     1.0  0.55212  0.79087  0.34225  1.0000
  C   C2536     1.0  0.56449  0.77346  0.34782  1.0000
  H   H4501     1.0  0.66916  0.89726  0.31762  1.0000
  H   H4502     1.0  0.55615  0.86120  0.34848  1.0000
  H   H4503     1.0  0.76950  0.80175  0.36269  1.0000
  H   H4504     1.0  0.53831  0.79473  0.35130  1.0000
  H   H4505     1.0  0.56017  0.76396  0.36122  1.0000
  H   H4506     1.0  0.77037  0.89694  0.38993  1.0000
  H   H4507     1.0  0.58374  0.92091  0.33364  1.0000
  H   H4508     1.0  0.63744  0.89154  0.37583  1.0000
  H   H4509     1.0  0.75798  0.84352  0.37128  1.0000
  H   H4510     1.0  0.51732  0.83685  0.43237  1.0000
  C   C2537     1.0  0.56168  0.91358  0.37668  1.0000
  C   C2538     1.0  0.55549  0.89539  0.38037  1.0000
  C   C2539     1.0  0.54045  0.89229  0.37158  1.0000
  C   C2540     1.0  0.53131  0.90740  0.35898  1.0000
  C   C2541     1.0  0.53743  0.92559  0.35536  1.0000
  C   C2542     1.0  0.55253  0.92867  0.36409  1.0000
  H   H4511     1.0  0.56235  0.88363  0.39018  1.0000
  H   H4512     1.0  0.53584  0.87827  0.37466  1.0000
  H   H4513     1.0  0.53043  0.93742  0.34572  1.0000
  H   H4514     1.0  0.55701  0.94275  0.36114  1.0000
  C   C2543     1.0  0.58229  0.76819  0.33597  1.0000
  H   H4515     1.0  0.59360  0.83322  0.35709  1.0000
  H   H4516     1.0  0.57328  0.82105  0.38744  1.0000
  H   H4517     1.0  0.77954  0.86472  0.34133  1.0000
  H   H4518     1.0  0.71267  0.81976  0.32197  1.0000
  C   C2544     1.0  0.57914  0.84186  0.36108  1.0000
  C   C2545     1.0  0.51183  0.91619  0.41117  1.0000
  C   C2546     1.0  0.81791  0.84383  0.36598  1.0000
  C   C2547     1.0  0.65458  0.89924  0.32681  1.0000
  N   N142      1.0  0.58219  0.86387  0.32719  1.0000
  S   S570      1.0  0.59725  0.74591  0.34254  1.0000
  Fe  Fe284     1.0  0.61126  0.97275  0.40323  1.0000
  C   C2548     1.0  0.56980  0.85198  0.34294  1.0000
  H   H4519     1.0  0.54178  0.87928  0.32508  1.0000
  H   H4520     1.0  0.50540  0.94597  0.41676  1.0000
  H   H4521     1.0  0.64174  0.84526  0.35154  1.0000
  H   H4522     1.0  0.65406  0.90989  0.33644  1.0000
  C   C2549     1.0  0.51380  0.84010  0.41740  1.0000
  C   C2550     1.0  0.76753  0.83265  0.36299  1.0000
  C   C2551     1.0  0.72102  0.89975  0.36175  1.0000
  C   C2552     1.0  0.70309  0.90480  0.35517  1.0000
  C   C2553     1.0  0.68621  0.91127  0.36781  1.0000
  C   C2554     1.0  0.68719  0.91162  0.38723  1.0000
  C   C2555     1.0  0.70506  0.90620  0.39376  1.0000
  C   C2556     1.0  0.72196  0.90069  0.38097  1.0000
  H   H4523     1.0  0.52681  0.84371  0.40682  1.0000
  H   H4524     1.0  0.65276  0.80448  0.34652  1.0000
  C   C2557     1.0  0.70811  0.96223  0.35004  1.0000
  H   H4525     1.0  0.76604  0.83722  0.34743  1.0000
  H   H4526     1.0  0.56472  0.81649  0.36681  1.0000
  C   C2558     1.0  0.79657  0.80153  0.31853  1.0000
  C   C2559     1.0  0.55750  0.80292  0.32470  1.0000
  C   C2560     1.0  0.83202  0.83216  0.35115  1.0000
  Fe  Fe285     1.0  0.50130  0.87641  0.34676  1.0000
  N   N143      1.0  0.66091  0.85377  0.36738  1.0000
  H   H4527     1.0  0.72699  0.97769  0.51258  1.0000
  C   C2561     1.0  0.67890  0.84411  0.37597  1.0000
  Fe  Fe286     1.0  0.62629  0.73923  0.32323  1.0000
  C   C2562     1.0  0.64425  0.85971  0.38301  1.0000
  C   C2563     1.0  0.64220  0.88038  0.38794  1.0000
  C   C2564     1.0  0.78480  0.86045  0.37831  1.0000
  C   C2565     1.0  0.65174  0.81951  0.37070  1.0000
  C   C2566     1.0  0.68801  0.85665  0.38604  1.0000
  C   C2567     1.0  0.70756  0.84611  0.39143  1.0000
  C   C2568     1.0  0.62699  0.88317  0.40603  1.0000
  H   H4528     1.0  0.80341  0.88290  0.37530  1.0000
  H   H4529     1.0  0.68262  0.97323  0.33579  1.0000
  H   H4530     1.0  0.57201  0.88867  0.34193  1.0000
  H   H4531     1.0  0.66933  0.88225  0.35799  1.0000
  H   H4532     1.0  0.67581  0.83145  0.38733  1.0000
  H   H4533     1.0  0.69034  0.83830  0.36443  1.0000
  H   H4534     1.0  0.52468  0.90456  0.41133  1.0000
  H   H4535     1.0  0.53049  0.93774  0.40748  1.0000
  C   C2569     1.0  0.69540  0.96141  0.33495  1.0000
  H   H4536     1.0  0.64507  0.84913  0.39676  1.0000
  H   H4537     1.0  0.79724  0.82182  0.35362  1.0000
  H   H4538     1.0  0.65597  0.88353  0.39052  1.0000
  H   H4539     1.0  0.51451  0.87902  0.40723  1.0000
  H   H4540     1.0  0.66668  0.83567  0.34511  1.0000
  H   H4541     1.0  0.64174  0.82179  0.38444  1.0000
  H   H4542     1.0  0.66567  0.81071  0.37423  1.0000
  H   H4543     1.0  0.69073  0.87041  0.37654  1.0000
  H   H4544     1.0  0.67838  0.85973  0.39976  1.0000
  H   H4545     1.0  0.70585  0.83218  0.40136  1.0000
  H   H4546     1.0  0.71810  0.84324  0.37816  1.0000
  H   H4547     1.0  0.71350  0.85536  0.39891  1.0000
  H   H4548     1.0  0.63129  0.87283  0.41893  1.0000
  H   H4549     1.0  0.74515  0.81479  0.36691  1.0000
  H   H4550     1.0  0.61255  0.88117  0.40377  1.0000
  C   C2570     1.0  0.80379  0.87947  0.33714  1.0000
  C   C2571     1.0  0.79495  0.87352  0.38678  1.0000
  H   H4551     1.0  0.75960  0.80906  0.38610  1.0000
  H   H4552     1.0  0.68686  0.95286  0.37510  1.0000
  C   C2572     1.0  0.49388  0.90914  0.42503  1.0000
  H   H4553     1.0  0.67555  0.95676  0.50990  1.0000
  H   H4554     1.0  0.61115  0.84920  0.33153  1.0000
  C   C2573     1.0  0.64294  0.80744  0.36020  1.0000
  H   H4555     1.0  0.64096  0.79332  0.36963  1.0000
  C   C2574     1.0  0.59724  0.89532  0.32061  1.0000
  H   H4556     1.0  0.70304  0.96983  0.48762  1.0000
  H   H4557     1.0  0.79145  0.82127  0.37921  1.0000
  H   H4558     1.0  0.77937  0.74361  0.33252  1.0000
  H   H4559     1.0  0.59435  0.87520  0.34737  1.0000
  H   H4560     1.0  0.77181  0.86969  0.37278  1.0000
  H   H4561     1.0  0.50981  0.82689  0.41419  1.0000
  H   H4562     1.0  0.58077  0.85278  0.36956  1.0000
  S   S571      1.0  0.50236  0.86612  0.31851  1.0000
  S   S572      1.0  0.59586  0.97281  0.37804  1.0000
  C   C2575     1.0  0.51736  0.93338  0.41744  1.0000
  H   H4563     1.0  0.68561  0.97887  0.36860  1.0000
  C   C2576     1.0  0.76005  0.81336  0.37014  1.0000
  H   H4564     1.0  0.77875  0.85041  0.39123  1.0000
  H   H4565     1.0  0.82431  0.85688  0.36565  1.0000
  H   H4566     1.0  0.81863  0.83520  0.38080  1.0000
  C   C2577     1.0  0.79512  0.86047  0.34283  1.0000
  C   C2578     1.0  0.78922  0.83050  0.36495  1.0000
  C   C2579     1.0  0.68956  0.98011  0.49128  1.0000
  C   C2580     1.0  0.80602  0.78249  0.32338  1.0000
  H   H4567     1.0  0.49790  0.90439  0.43983  1.0000
  C   C2581     1.0  0.78014  0.88670  0.39911  1.0000
  H   H4568     1.0  0.60753  0.92232  0.31965  1.0000
  H   H4569     1.0  0.68918  0.94782  0.34029  1.0000
  H   H4570     1.0  0.52076  0.92939  0.43246  1.0000
  H   H4571     1.0  0.62573  0.89811  0.40898  1.0000
  H   H4572     1.0  0.78782  0.89529  0.40564  1.0000
  N   N144      1.0  0.79699  0.84920  0.36287  1.0000
  H   H4573     1.0  0.49344  0.90060  0.38815  1.0000
  H   H4574     1.0  0.49322  0.85862  0.40094  1.0000
  H   H4575     1.0  0.82815  0.81763  0.35212  1.0000
  H   H4576     1.0  0.71459  0.78432  0.32844  1.0000
  H   H4577     1.0  0.76450  0.75127  0.35409  1.0000
  H   H4578     1.0  0.50823  0.87252  0.43294  1.0000
  H   H4579     1.0  0.77130  0.87799  0.41105  1.0000
  H   H4580     1.0  0.62856  0.81507  0.35676  1.0000
  C   C2582     1.0  0.65018  0.87986  0.33883  1.0000
  H   H4581     1.0  0.65888  0.97778  0.50110  1.0000
  H   H4582     1.0  0.62989  0.81893  0.31876  1.0000
  H   H4583     1.0  0.71587  0.93094  0.32149  1.0000
  H   H4584     1.0  0.64981  0.87025  0.32843  1.0000
  C   C2583     1.0  0.58588  0.88060  0.33525  1.0000
  S   S573      1.0  0.64103  0.97005  0.38524  1.0000
  H   H4585     1.0  0.63007  0.85908  0.37896  1.0000
  H   H4586     1.0  0.55189  0.83607  0.37950  1.0000
  H   H4587     1.0  0.67952  0.86593  0.34181  1.0000
  H   H4588     1.0  0.63551  0.88221  0.34768  1.0000
  H   H4589     1.0  0.71852  0.94849  0.35220  1.0000
  Fe  Fe287     1.0  0.62613  0.96800  0.36089  1.0000
  H   H4590     1.0  0.70499  0.96440  0.38058  1.0000
  H   H4591     1.0  0.83344  0.76368  0.32584  1.0000
  C   C2584     1.0  0.69557  0.96476  0.36975  1.0000
  H   H4592     1.0  0.76230  0.97454  0.51201  1.0000
  H   H4593     1.0  0.86250  0.82018  0.34436  1.0000
  H   H4594     1.0  0.83200  0.84006  0.33606  1.0000
  C   C2585     1.0  0.67293  0.96830  0.49725  1.0000
  H   H4595     1.0  0.85389  0.82055  0.36989  1.0000
  H   H4596     1.0  0.79543  0.89024  0.34625  1.0000
  S   S574      1.0  0.63441  0.98204  0.32956  1.0000
  C   C2586     1.0  0.49681  0.85681  0.41573  1.0000
  Fe  Fe288     1.0  0.73932  0.87559  0.32425  1.0000
  C   C2587     1.0  0.58770  0.78052  0.31870  1.0000
  S   S575      1.0  0.77117  0.80578  0.32017  1.0000
  H   H4597     1.0  0.85811  0.84280  0.35340  1.0000
  H   H4598     1.0  0.76443  0.97632  0.48591  1.0000
  C   C2588     1.0  0.82628  0.77844  0.32210  1.0000
  H   H4599     1.0  0.59393  0.82250  0.32763  1.0000
  C   C2589     1.0  0.60146  0.85200  0.32041  1.0000
  H   H4600     1.0  0.71645  0.97441  0.34543  1.0000
  C   C2590     1.0  0.70281  0.79336  0.32172  1.0000
  H   H4601     1.0  0.64074  0.98078  0.43289  1.0000
  H   H4602     1.0  0.73663  0.73961  0.34804  1.0000
  H   H4603     1.0  0.79767  0.77080  0.32811  1.0000
  S   S576      1.0  0.69044  0.75972  0.32211  1.0000
  H   H4604     1.0  0.64361  0.90513  0.31711  1.0000
  H   H4605     1.0  0.73321  0.94554  0.32107  1.0000
  H   H4606     1.0  0.55537  0.89908  0.31744  1.0000
  H   H4607     1.0  0.67095  0.94354  0.32047  1.0000
  H   H4608     1.0  0.72782  0.98388  0.48717  1.0000
  C   C2591     1.0  0.76277  0.98468  0.49793  1.0000
  C   C2592     1.0  0.68876  0.78493  0.31672  1.0000
