data_image0
_chemical_formula_structural       CSH2S2H2C2FeCH2CH7C2HFeH2CH2CFeH5C3H3FeS2FeHSFeSFeS2CH3C2HCH2C2H7C2HC2HCH4CH5CH2CHCHCH3CH2C2H4CHC2NH3CH2CHC2NCH2CHCH3CHSH6SH3CSH4CH2C2H4C3H2C3H3SHC2FeSCH2CFeSNSHFeS2FeS2FeSFeS3C6HCH2C4H4C6H4C6H6CSH2CHC3NC2HC2H2CHCH7CH12NH3CHCH3C4H3C2H2C2H2CH4CH4CHNHCH2CH2C2H6SH12CH6SHCH2C2H4SH4FeH2CH5CHCHC2H2CH7C2HC2HCH3CH2CH2CH2C5FeH6CFeCNCHCHCHC2H5CHC2H2CHCH5CHCH11CHCHC4H2FeS2H3C2HFeSHFeSHFeHFeSHS2C6H5CH2CHC2H3CH2CHC3HC2H2CHC2H3CHNC3H9NHCHSH2CH4C3H2SHC2NC5HCH3NC11H13CH5CH6CH9CH5SCHCH3CSH2FeHC3H2CHCHC2SH3SHSHCH2CH2CH2CH2C2HC2H4C2NH2Fe2S2FeSFeSHFeCHFeCHSFeS2FeS2FeSHS2FeS2FeS2FeSFeS3HSH6CH3C4H3C6H4C5H6C7H3C5SH3C2HC6H6C3H2C2H2CHCNHCH2CHCH2SH12C5H2CHC4HCH2CH2NC4HC5H2CH18NC4HC4HCH6CHCH5NH2C2HSH6NC11H27CH2C2H8CHCH11NHCHCH2FeSH4CH7CH2CSH5CHCNH2CH2C2HC2SH2SHCHCH4CH4CH2SFeS2FeS2FeSFeS4H2SFeS2FeS2FeSFeCS2FeS2FeCH2FeCS2HC6H7CH5CHCHC5H3C7H4C5H4CHC4SH2CNC4HC2H2C2H6SH7CHCSH7NC3H3C3H2CH8CHCH5CH2CH4SH3CH2CHNC10H24CSH3CH9FeCHFeH2FeSCH2CHCH8CSHCH3C2HC4H2NHCFeCH8CH10CH2CH3CHCSCHC5HCNH2C6H2CHC2H4CH2CH2CH3CH2CHCH4C2HCHC2HFeC2HC2HCFeHCFeSCH3FeSFeSH3FeCSCFeSHSFeS2FeSHFeSFeS3HC4H5C7H3C7H2C7H11CH2NHC2H4CH2C2H7CHSH2CHCSH3CH3CNHC2H2CH3CH2NSH3CHCH3C4HSNC11H24C4H10CH5CHC2H3CHCHFeHNCH5CH9C2H6CH2SH2CHC4HC2HCH4CH3C2SCSH4CSH3CH7CH4CSH3SHFeS2CFeS2FeS2FeSFeS3FeS2FeSCFeSFeCS2FeHSCHCFeC2SHC6HCH2C6H4CHC4H4C4H7C3HSC2HC3H4C6H7C3HSC2H3CH3NC2H3CH6SH2CH3SHSHC2H3CH3CHCH3C2H6CH10CH4NFeH3SC2H9CSH5C2NCH4NC2H3C2H4CH4SCHC2H3C2HCHCHSH2CH2CHCH2CH2CFeCH2CH6CH2C2HC2H2SC2H4CH3SHC4H4C3HSHC2H5CH3C2H2CFeHCHC3H2CH2C2HCHCH2CH3FeC3H4NCH7FeH2NH4NH4N2H3C2H3CHCH4CH3SFeS2FeS2FeSFeS3HC6H4C2H2CH2C6H2CHCH2C4H2CNC12H27CHCH2CHCSCH3CH2CH6C2HCH6C3H3C3NH2C4HCHCH4CHSH4CH4SCH5CH2FeHCH3NHCH7CHCHCH2NHCH2CH8CH8CNC2H2CH3CH3C2HCH7CH4SFeS2FeS2FeSFeS3CFeS2FeS2FeHFeS3CHC4H4C2H3C2H3C3SHC6H4C6H3C4H5CHCH6CHC2H4CHCSHCHCHCH8C2H5NC5H2CHCH3CHNH10CH8CH2CHC2H8NHC3H2C3SH3CH17CHCH5CHCHC2H2C2H10CNH5CHC2H2CH2NC11H6CH2CHCHFeH3CH3C4H3CHCH2SH2CFeCS2HCFeHC3H2SHC4HSH7SCSHSFeCH3
_chemical_formula_sum              "C864 S192 H1536 Fe96 N48"
_cell_length_a       59.3499
_cell_length_b       59.5205
_cell_length_c       41.9264
_cell_angle_alpha    91.4056
_cell_angle_beta     91.3462
_cell_angle_gamma    119.044

_space_group_name_H-M_alt    "P 1"
_space_group_IT_number       1

loop_
  _space_group_symop_operation_xyz
  'x, y, z'

loop_
  _atom_site_type_symbol
  _atom_site_label
  _atom_site_symmetry_multiplicity
  _atom_site_fract_x
  _atom_site_fract_y
  _atom_site_fract_z
  _atom_site_occupancy
  C   C1        1.0  0.32079  0.48235  0.28945  1.0000
  S   S1        1.0  0.29562  0.47244  0.46467  1.0000
  H   H1        1.0  0.31380  0.48725  0.26811  1.0000
  H   H2        1.0  0.18221  0.44649  0.48313  1.0000
  S   S2        1.0  0.29362  0.45684  0.37689  1.0000
  S   S3        1.0  0.28843  0.41435  0.45277  1.0000
  H   H3        1.0  0.29538  0.30062  0.41285  1.0000
  H   H4        1.0  0.22012  0.43948  0.47879  1.0000
  C   C2        1.0  0.30530  0.47402  0.31621  1.0000
  C   C3        1.0  0.31401  0.46742  0.34407  1.0000
  Fe  Fe1       1.0  0.30579  0.45179  0.42685  1.0000
  C   C4        1.0  0.31927  0.29101  0.44343  1.0000
  H   H5        1.0  0.28982  0.24674  0.48188  1.0000
  H   H6        1.0  0.17465  0.48498  0.13124  1.0000
  C   C5        1.0  0.33191  0.49225  0.08198  1.0000
  H   H7        1.0  0.25850  0.49275  0.45382  1.0000
  H   H8        1.0  0.07623  0.41121  0.46318  1.0000
  H   H9        1.0  0.31715  0.32651  0.43992  1.0000
  H   H10       1.0  0.28641  0.47258  0.31529  1.0000
  H   H11       1.0  0.08851  0.32466  0.44176  1.0000
  H   H12       1.0  0.31315  0.49011  0.08939  1.0000
  H   H13       1.0  0.06757  0.33689  0.48390  1.0000
  C   C6        1.0  0.09643  0.41751  0.47136  1.0000
  C   C7        1.0  0.30419  0.30538  0.43745  1.0000
  H   H14       1.0  0.09417  0.38099  0.46170  1.0000
  Fe  Fe2       1.0  0.32891  0.43001  0.47458  1.0000
  H   H15       1.0  0.10927  0.42641  0.45123  1.0000
  H   H16       1.0  0.30786  0.23059  0.47085  1.0000
  C   C8        1.0  0.10072  0.32308  0.46111  1.0000
  H   H17       1.0  0.11890  0.32584  0.45073  1.0000
  H   H18       1.0  0.30560  0.27018  0.44043  1.0000
  C   C9        1.0  0.30256  0.23933  0.49092  1.0000
  Fe  Fe3       1.0  0.28090  0.43655  0.49199  1.0000
  H   H19       1.0  0.31386  0.46552  0.04266  1.0000
  H   H20       1.0  0.10221  0.43236  0.49102  1.0000
  H   H21       1.0  0.09055  0.30352  0.47071  1.0000
  H   H22       1.0  0.28854  0.29974  0.45461  1.0000
  H   H23       1.0  0.11789  0.36258  0.47712  1.0000
  C   C10       1.0  0.09921  0.39468  0.48253  1.0000
  C   C11       1.0  0.10695  0.34357  0.48762  1.0000
  C   C12       1.0  0.33067  0.48509  0.04648  1.0000
  H   H24       1.0  0.11971  0.40204  0.48975  1.0000
  H   H25       1.0  0.19658  0.49970  0.08030  1.0000
  H   H26       1.0  0.31988  0.29919  0.49448  1.0000
  Fe  Fe4       1.0  0.06840  0.41960  0.59960  1.0000
  S   S4        1.0  0.07789  0.45294  0.63408  1.0000
  S   S5        1.0  0.02873  0.38519  0.58432  1.0000
  Fe  Fe5       1.0  0.12440  0.44562  0.57407  1.0000
  H   H27       1.0  0.23324  0.48363  0.60814  1.0000
  S   S6        1.0  0.14985  0.44349  0.53464  1.0000
  Fe  Fe6       1.0  0.11586  0.45381  0.64424  1.0000
  S   S7        1.0  0.14036  0.46159  0.69029  1.0000
  Fe  Fe7       1.0  0.09826  0.47762  0.59308  1.0000
  S   S8        1.0  0.10492  0.41801  0.61300  1.0000
  S   S9        1.0  0.08722  0.44462  0.55824  1.0000
  C   C13       1.0  0.28748  0.48395  0.87568  1.0000
  H   H28       1.0  0.10152  0.48310  0.78074  1.0000
  H   H29       1.0  0.20751  0.40853  0.84994  1.0000
  H   H30       1.0  0.19171  0.48047  0.78375  1.0000
  C   C14       1.0  0.01640  0.44699  0.54046  1.0000
  C   C15       1.0  0.17717  0.43847  0.53313  1.0000
  H   H31       1.0  0.13415  0.42639  0.85691  1.0000
  C   C16       1.0  0.21099  0.43726  0.50140  1.0000
  H   H32       1.0  0.13926  0.47848  0.87837  1.0000
  H   H33       1.0  0.11318  0.38988  0.75188  1.0000
  C   C17       1.0  0.18686  0.43172  0.55979  1.0000
  C   C18       1.0  0.18943  0.44121  0.50396  1.0000
  H   H34       1.0  0.11549  0.41820  0.73386  1.0000
  H   H35       1.0  0.17810  0.43010  0.58254  1.0000
  H   H36       1.0  0.29119  0.47207  0.93586  1.0000
  H   H37       1.0  0.13053  0.42126  0.79780  1.0000
  H   H38       1.0  0.12007  0.34181  0.50544  1.0000
  H   H39       1.0  0.01874  0.33088  0.58422  1.0000
  H   H40       1.0  0.29005  0.46769  0.86901  1.0000
  C   C19       1.0  0.11505  0.35662  0.56834  1.0000
  C   C20       1.0  0.22035  0.42998  0.52792  1.0000
  H   H41       1.0  0.20264  0.44691  0.86293  1.0000
  C   C21       1.0  0.20800  0.42711  0.55705  1.0000
  C   C22       1.0  0.13733  0.45938  0.88315  1.0000
  H   H42       1.0  0.32362  0.47349  0.58578  1.0000
  C   C23       1.0  0.16532  0.46148  0.83680  1.0000
  H   H43       1.0  0.16611  0.47905  0.82695  1.0000
  H   H44       1.0  0.14389  0.45146  0.77985  1.0000
  H   H45       1.0  0.27260  0.42666  0.95124  1.0000
  H   H46       1.0  0.19275  0.48176  0.58648  1.0000
  C   C24       1.0  0.12561  0.40691  0.73801  1.0000
  H   H47       1.0  0.28035  0.22523  0.53373  1.0000
  H   H48       1.0  0.28962  0.45181  0.57906  1.0000
  H   H49       1.0  0.27400  0.49336  0.60031  1.0000
  H   H50       1.0  0.07398  0.32116  0.51524  1.0000
  H   H51       1.0  0.15278  0.46171  0.90058  1.0000
  C   C25       1.0  0.18515  0.42811  0.85853  1.0000
  H   H52       1.0  0.29175  0.46408  0.99269  1.0000
  H   H53       1.0  0.10870  0.33720  0.55744  1.0000
  C   C26       1.0  0.01649  0.31962  0.56169  1.0000
  H   H54       1.0  0.21855  0.48782  0.83636  1.0000
  C   C27       1.0  0.14086  0.47969  0.72494  1.0000
  H   H55       1.0  0.12876  0.40018  0.71444  1.0000
  C   C28       1.0  0.11814  0.47567  0.73914  1.0000
  H   H56       1.0  0.15577  0.37219  0.55807  1.0000
  H   H57       1.0  0.16406  0.43875  0.73954  1.0000
  H   H58       1.0  0.19977  0.40993  0.89096  1.0000
  C   C29       1.0  0.22027  0.47817  0.81449  1.0000
  H   H59       1.0  0.00668  0.39492  0.64222  1.0000
  H   H60       1.0  0.30119  0.47302  0.61442  1.0000
  C   C30       1.0  0.26299  0.48007  0.88324  1.0000
  C   C31       1.0  0.08198  0.33993  0.50339  1.0000
  H   H61       1.0  0.10403  0.35430  0.59023  1.0000
  H   H62       1.0  0.28623  0.43175  0.91237  1.0000
  H   H63       1.0  0.22617  0.46377  0.82101  1.0000
  H   H64       1.0  0.08270  0.39629  0.52775  1.0000
  C   C32       1.0  0.14344  0.36848  0.57898  1.0000
  H   H65       1.0  0.02049  0.43133  0.54726  1.0000
  C   C33       1.0  0.30445  0.46526  0.94476  1.0000
  C   C34       1.0  0.15158  0.42352  0.75580  1.0000
  N   N1        1.0  0.08461  0.36096  0.52669  1.0000
  H   H66       1.0  0.15462  0.40670  0.82367  1.0000
  H   H67       1.0  0.30359  0.42823  0.94598  1.0000
  H   H68       1.0  0.02185  0.48920  0.60012  1.0000
  C   C35       1.0  0.13865  0.44633  0.85202  1.0000
  H   H69       1.0  0.20306  0.49809  0.62509  1.0000
  H   H70       1.0  0.12326  0.44533  0.83541  1.0000
  C   C36       1.0  0.19224  0.40724  0.86584  1.0000
  H   H71       1.0  0.16041  0.41121  0.76073  1.0000
  C   C37       1.0  0.03544  0.33666  0.53724  1.0000
  C   C38       1.0  0.17364  0.42461  0.82391  1.0000
  N   N2        1.0  0.17080  0.44671  0.81115  1.0000
  C   C39       1.0  0.06375  0.34936  0.55078  1.0000
  H   H72       1.0  0.25963  0.48096  0.51446  1.0000
  H   H73       1.0  0.06615  0.36422  0.56937  1.0000
  C   C40       1.0  0.29088  0.43615  0.93837  1.0000
  H   H74       1.0  0.18556  0.41993  0.80777  1.0000
  C   C41       1.0  0.27495  0.48991  0.57432  1.0000
  H   H75       1.0  0.01967  0.30317  0.56702  1.0000
  H   H76       1.0  0.11835  0.44753  0.89379  1.0000
  H   H77       1.0  0.17503  0.38785  0.86269  1.0000
  C   C42       1.0  0.14835  0.43608  0.78698  1.0000
  H   H78       1.0  0.19838  0.45517  0.77396  1.0000
  S   S10       1.0  0.24731  0.42431  0.52623  1.0000
  H   H79       1.0  0.06545  0.33414  0.56374  1.0000
  H   H80       1.0  0.03252  0.32453  0.51540  1.0000
  H   H81       1.0  0.12660  0.38233  0.52868  1.0000
  H   H82       1.0  0.32011  0.46158  0.98990  1.0000
  H   H83       1.0  0.14955  0.38675  0.59290  1.0000
  H   H84       1.0  0.21505  0.42159  0.57780  1.0000
  S   S11       1.0  0.13681  0.48109  0.60558  1.0000
  H   H85       1.0  0.26009  0.46953  0.56882  1.0000
  H   H86       1.0  0.09968  0.46305  0.72724  1.0000
  H   H87       1.0  0.17097  0.42693  0.87612  1.0000
  C   C43       1.0  0.19467  0.46509  0.79429  1.0000
  S   S12       1.0  0.31981  0.44897  0.51593  1.0000
  H   H88       1.0  0.24677  0.46081  0.88242  1.0000
  H   H89       1.0  0.06129  0.37296  0.49879  1.0000
  H   H90       1.0  0.18048  0.46907  0.85621  1.0000
  H   H91       1.0  0.30524  0.48951  0.54491  1.0000
  C   C44       1.0  0.11031  0.37390  0.54498  1.0000
  H   H92       1.0  0.03177  0.46531  0.55184  1.0000
  H   H93       1.0  0.14623  0.35514  0.59456  1.0000
  C   C45       1.0  0.08099  0.38124  0.50996  1.0000
  C   C46       1.0  0.11922  0.48692  0.76961  1.0000
  H   H94       1.0  0.22770  0.48156  0.55024  1.0000
  H   H95       1.0  0.11240  0.39081  0.55940  1.0000
  H   H96       1.0  0.03016  0.35164  0.53133  1.0000
  H   H97       1.0  0.24553  0.48990  0.77408  1.0000
  C   C47       1.0  0.31062  0.47236  0.98086  1.0000
  C   C48       1.0  0.28678  0.21778  0.51332  1.0000
  C   C49       1.0  0.32661  0.26122  0.50880  1.0000
  H   H98       1.0  0.26940  0.20251  0.50012  1.0000
  H   H99       1.0  0.18229  0.49891  0.73047  1.0000
  C   C50       1.0  0.30409  0.47129  0.58859  1.0000
  C   C51       1.0  0.24214  0.49864  0.79587  1.0000
  C   C52       1.0  0.16461  0.49575  0.74112  1.0000
  H   H100      1.0  0.31904  0.26894  0.52764  1.0000
  H   H101      1.0  0.29834  0.20905  0.52258  1.0000
  H   H102      1.0  0.01722  0.44872  0.51415  1.0000
  S   S13       1.0  0.22904  0.49544  0.90347  1.0000
  H   H103      1.0  0.32215  0.47381  0.93081  1.0000
  C   C53       1.0  0.30174  0.49199  0.57025  1.0000
  C   C54       1.0  0.20801  0.49919  0.59957  1.0000
  Fe  Fe8       1.0  0.10576  0.64147  0.46989  1.0000
  S   S14       1.0  0.11333  0.61912  0.43142  1.0000
  C   C55       1.0  0.03285  0.60825  0.47553  1.0000
  H   H104      1.0  0.19668  0.56425  0.32866  1.0000
  H   H105      1.0  0.16202  0.55189  0.26748  1.0000
  C   C56       1.0  0.15919  0.56359  0.33148  1.0000
  Fe  Fe9       1.0  0.14610  0.65726  0.41818  1.0000
  S   S15       1.0  0.16344  0.67252  0.37026  1.0000
  N   N3        1.0  0.24347  0.54764  0.07290  1.0000
  S   S16       1.0  0.13664  0.68031  0.45366  1.0000
  H   H106      1.0  0.32362  0.53431  0.29108  1.0000
  Fe  Fe10      1.0  0.18251  0.60914  0.21306  1.0000
  S   S17       1.0  0.17858  0.61907  0.16233  1.0000
  S   S18       1.0  0.15217  0.59918  0.25039  1.0000
  Fe  Fe11      1.0  0.23138  0.60697  0.20035  1.0000
  S   S19       1.0  0.23222  0.61696  0.14917  1.0000
  S   S20       1.0  0.26282  0.60160  0.22331  1.0000
  Fe  Fe12      1.0  0.22119  0.64581  0.16741  1.0000
  S   S21       1.0  0.23916  0.68332  0.14297  1.0000
  Fe  Fe13      1.0  0.18985  0.58953  0.14729  1.0000
  S   S22       1.0  0.17028  0.56012  0.10622  1.0000
  S   S23       1.0  0.22440  0.63859  0.21926  1.0000
  S   S24       1.0  0.18984  0.57688  0.19747  1.0000
  C   C57       1.0  0.26725  0.70675  0.16334  1.0000
  C   C58       1.0  0.28902  0.72221  0.14614  1.0000
  C   C59       1.0  0.31215  0.73982  0.16224  1.0000
  C   C60       1.0  0.31330  0.74279  0.19552  1.0000
  C   C61       1.0  0.29094  0.72869  0.21251  1.0000
  C   C62       1.0  0.26814  0.71011  0.19656  1.0000
  H   H107      1.0  0.28810  0.72027  0.12040  1.0000
  C   C63       1.0  0.01240  0.60780  0.49250  1.0000
  H   H108      1.0  0.29131  0.73178  0.23806  1.0000
  H   H109      1.0  0.25112  0.69874  0.20982  1.0000
  C   C64       1.0  0.20865  0.60000  0.02972  1.0000
  C   C65       1.0  0.19975  0.59382  0.06079  1.0000
  C   C66       1.0  0.18152  0.56861  0.06723  1.0000
  C   C67       1.0  0.17254  0.54960  0.04240  1.0000
  H   H110      1.0  0.02580  0.54854  0.48304  1.0000
  H   H111      1.0  0.20693  0.60861  0.07970  1.0000
  H   H112      1.0  0.15853  0.53000  0.04724  1.0000
  H   H113      1.0  0.09756  0.61253  0.17130  1.0000
  C   C68       1.0  0.26821  0.57836  0.20370  1.0000
  C   C69       1.0  0.24788  0.55627  0.18877  1.0000
  C   C70       1.0  0.25257  0.53720  0.17504  1.0000
  C   C71       1.0  0.27763  0.54058  0.17536  1.0000
  C   C72       1.0  0.29790  0.56293  0.18961  1.0000
  C   C73       1.0  0.29318  0.58160  0.20404  1.0000
  H   H114      1.0  0.22848  0.55352  0.18877  1.0000
  H   H115      1.0  0.06759  0.54498  0.09406  1.0000
  H   H116      1.0  0.31727  0.56580  0.18973  1.0000
  H   H117      1.0  0.30900  0.59860  0.21531  1.0000
  C   C74       1.0  0.16009  0.65203  0.33696  1.0000
  C   C75       1.0  0.13807  0.62805  0.33180  1.0000
  C   C76       1.0  0.13575  0.61234  0.30484  1.0000
  C   C77       1.0  0.15555  0.62028  0.28299  1.0000
  C   C78       1.0  0.17753  0.64437  0.28800  1.0000
  C   C79       1.0  0.17965  0.66026  0.31471  1.0000
  H   H118      1.0  0.12266  0.62174  0.34840  1.0000
  H   H119      1.0  0.11856  0.59386  0.30102  1.0000
  H   H120      1.0  0.19282  0.65084  0.27124  1.0000
  H   H121      1.0  0.19659  0.67896  0.31824  1.0000
  H   H122      1.0  0.30321  0.82701  0.49048  1.0000
  H   H123      1.0  0.18350  0.74025  0.47878  1.0000
  C   C80       1.0  0.27728  0.62234  0.08879  1.0000
  S   S25       1.0  0.14614  0.58337  0.46975  1.0000
  H   H124      1.0  0.09636  0.56540  0.40602  1.0000
  H   H125      1.0  0.12680  0.59317  0.18912  1.0000
  C   C81       1.0  0.07236  0.55034  0.14613  1.0000
  H   H126      1.0  0.23678  0.51965  0.16472  1.0000
  C   C82       1.0  0.14070  0.57601  0.37591  1.0000
  C   C83       1.0  0.18490  0.60442  0.36108  1.0000
  C   C84       1.0  0.11618  0.55397  0.14978  1.0000
  N   N4        1.0  0.20534  0.76783  0.44364  1.0000
  C   C85       1.0  0.18005  0.74935  0.45766  1.0000
  C   C86       1.0  0.22182  0.75497  0.44102  1.0000
  H   H127      1.0  0.16442  0.52837  0.43526  1.0000
  C   C87       1.0  0.20194  0.77733  0.41169  1.0000
  C   C88       1.0  0.17828  0.75852  0.38992  1.0000
  H   H128      1.0  0.20824  0.80139  0.46899  1.0000
  H   H129      1.0  0.27111  0.71970  0.48575  1.0000
  C   C89       1.0  0.21085  0.73009  0.41960  1.0000
  H   H130      1.0  0.30500  0.66779  0.30504  1.0000
  C   C90       1.0  0.18011  0.76850  0.35631  1.0000
  H   H131      1.0  0.07343  0.52125  0.11324  1.0000
  H   H132      1.0  0.17125  0.51126  0.11605  1.0000
  H   H133      1.0  0.14436  0.52979  0.16725  1.0000
  H   H134      1.0  0.16823  0.73303  0.44072  1.0000
  H   H135      1.0  0.24072  0.76814  0.43100  1.0000
  H   H136      1.0  0.22619  0.75041  0.46528  1.0000
  H   H137      1.0  0.12604  0.72898  0.45172  1.0000
  C   C91       1.0  0.17317  0.52549  0.41343  1.0000
  H   H138      1.0  0.20004  0.79498  0.41497  1.0000
  H   H139      1.0  0.21961  0.78350  0.39776  1.0000
  H   H140      1.0  0.16021  0.75643  0.39984  1.0000
  H   H141      1.0  0.17618  0.73904  0.38763  1.0000
  H   H142      1.0  0.27724  0.84863  0.47596  1.0000
  H   H143      1.0  0.32556  0.55229  0.06954  1.0000
  H   H144      1.0  0.24811  0.81690  0.43440  1.0000
  H   H145      1.0  0.07796  0.57346  0.47842  1.0000
  H   H146      1.0  0.19130  0.71556  0.42631  1.0000
  H   H147      1.0  0.21034  0.73464  0.39419  1.0000
  H   H148      1.0  0.07675  0.53250  0.39167  1.0000
  H   H149      1.0  0.11441  0.54485  0.12580  1.0000
  N   N5        1.0  0.16486  0.57656  0.36437  1.0000
  H   H150      1.0  0.16266  0.75502  0.34163  1.0000
  H   H151      1.0  0.18135  0.78774  0.35714  1.0000
  H   H152      1.0  0.19728  0.76977  0.34462  1.0000
  C   C92       1.0  0.32343  0.55126  0.30223  1.0000
  H   H153      1.0  0.01194  0.51677  0.49568  1.0000
  C   C93       1.0  0.00092  0.56997  0.44490  1.0000
  H   H154      1.0  0.26399  0.55179  0.01068  1.0000
  H   H155      1.0  0.27741  0.71293  0.44585  1.0000
  H   H156      1.0  0.24506  0.84388  0.47940  1.0000
  C   C94       1.0  0.02686  0.58915  0.45158  1.0000
  C   C95       1.0  0.22799  0.71760  0.42223  1.0000
  C   C96       1.0  0.29729  0.66769  0.28056  1.0000
  C   C97       1.0  0.17533  0.54895  0.28379  1.0000
  H   H157      1.0  0.21947  0.65992  0.41022  1.0000
  H   H158      1.0  0.27051  0.55078  0.11051  1.0000
  H   H159      1.0  0.29323  0.68135  0.22040  1.0000
  C   C98       1.0  0.27768  0.67782  0.28363  1.0000
  C   C99       1.0  0.25493  0.66011  0.30349  1.0000
  H   H160      1.0  0.18165  0.62479  0.00529  1.0000
  H   H161      1.0  0.05868  0.55350  0.44459  1.0000
  C   C100      1.0  0.18148  0.55581  0.01124  1.0000
  C   C101      1.0  0.26885  0.59452  0.09686  1.0000
  H   H162      1.0  0.22815  0.71122  0.44689  1.0000
  H   H163      1.0  0.29622  0.56949  0.05857  1.0000
  C   C102      1.0  0.13550  0.74025  0.47425  1.0000
  H   H164      1.0  0.23127  0.54943  0.12094  1.0000
  H   H165      1.0  0.21050  0.52833  0.03950  1.0000
  H   H166      1.0  0.06465  0.53786  0.16689  1.0000
  H   H167      1.0  0.09772  0.59937  0.24186  1.0000
  C   C103      1.0  0.11723  0.54927  0.38078  1.0000
  H   H168      1.0  0.28694  0.69724  0.29558  1.0000
  H   H169      1.0  0.26976  0.67912  0.26001  1.0000
  H   H170      1.0  0.26172  0.65888  0.32796  1.0000
  H   H171      1.0  0.24127  0.66781  0.30531  1.0000
  C   C104      1.0  0.23083  0.53213  0.04217  1.0000
  H   H172      1.0  0.04484  0.51431  0.47504  1.0000
  N   N6        1.0  0.10095  0.56824  0.15106  1.0000
  H   H173      1.0  0.20358  0.60591  0.35433  1.0000
  C   C105      1.0  0.18311  0.56732  0.31310  1.0000
  H   H174      1.0  0.13450  0.58633  0.35923  1.0000
  H   H175      1.0  0.32765  0.80580  0.47372  1.0000
  C   C106      1.0  0.11036  0.58916  0.12683  1.0000
  H   H176      1.0  0.13961  0.53367  0.48505  1.0000
  H   H177      1.0  0.12082  0.54095  0.40251  1.0000
  C   C107      1.0  0.12162  0.58460  0.09579  1.0000
  C   C108      1.0  0.12671  0.60533  0.07183  1.0000
  H   H178      1.0  0.17488  0.62698  0.39402  1.0000
  H   H179      1.0  0.08593  0.55085  0.45987  1.0000
  H   H180      1.0  0.09475  0.59358  0.11982  1.0000
  H   H181      1.0  0.12618  0.60760  0.13757  1.0000
  H   H182      1.0  0.19278  0.61332  0.41304  1.0000
  H   H183      1.0  0.28590  0.64701  0.27285  1.0000
  S   S26       1.0  0.17472  0.65531  0.45193  1.0000
  H   H184      1.0  0.14043  0.58559  0.10155  1.0000
  H   H185      1.0  0.10875  0.56566  0.08385  1.0000
  H   H186      1.0  0.14044  0.62469  0.08244  1.0000
  H   H187      1.0  0.13540  0.60182  0.05038  1.0000
  H   H188      1.0  0.10843  0.60487  0.06425  1.0000
  H   H189      1.0  0.19351  0.58718  0.30434  1.0000
  H   H190      1.0  0.17109  0.56887  0.41305  1.0000
  H   H191      1.0  0.14885  0.57097  0.31604  1.0000
  H   H192      1.0  0.23911  0.56038  0.00525  1.0000
  H   H193      1.0  0.29473  0.69024  0.08755  1.0000
  H   H194      1.0  0.22016  0.70049  0.40556  1.0000
  H   H195      1.0  0.07163  0.58608  0.19022  1.0000
  C   C109      1.0  0.30374  0.55569  0.28314  1.0000
  H   H196      1.0  0.13709  0.56779  0.15352  1.0000
  H   H197      1.0  0.29639  0.67692  0.16113  1.0000
  H   H198      1.0  0.23228  0.64450  0.38470  1.0000
  H   H199      1.0  0.28993  0.62800  0.06809  1.0000
  H   H200      1.0  0.08747  0.55817  0.36403  1.0000
  H   H201      1.0  0.26020  0.62473  0.08309  1.0000
  S   S27       1.0  0.06535  0.63272  0.48575  1.0000
  H   H202      1.0  0.17128  0.64580  0.02332  1.0000
  C   C110      1.0  0.09298  0.55152  0.38592  1.0000
  H   H203      1.0  0.31445  0.55857  0.10653  1.0000
  H   H204      1.0  0.24438  0.64050  0.29195  1.0000
  C   C111      1.0  0.16307  0.76111  0.46859  1.0000
  C   C112      1.0  0.10207  0.61287  0.22216  1.0000
  H   H205      1.0  0.29935  0.78419  0.49471  1.0000
  H   H206      1.0  0.14440  0.58648  0.39944  1.0000
  H   H207      1.0  0.17349  0.53117  0.36310  1.0000
  H   H208      1.0  0.31479  0.65459  0.01288  1.0000
  S   S28       1.0  0.28384  0.51717  0.15771  1.0000
  H   H209      1.0  0.30881  0.65451  0.16300  1.0000
  H   H210      1.0  0.22271  0.61958  0.02499  1.0000
  H   H211      1.0  0.02878  0.50250  0.09184  1.0000
  H   H212      1.0  0.14398  0.52421  0.38127  1.0000
  Fe  Fe14      1.0  0.14164  0.61899  0.46785  1.0000
  H   H213      1.0  0.25666  0.59006  0.11786  1.0000
  H   H214      1.0  0.31766  0.71735  0.25845  1.0000
  C   C113      1.0  0.18524  0.50577  0.12628  1.0000
  H   H215      1.0  0.19278  0.55279  0.27058  1.0000
  H   H216      1.0  0.14576  0.54267  0.33225  1.0000
  H   H217      1.0  0.28468  0.53792  0.28231  1.0000
  H   H218      1.0  0.28164  0.53623  0.04423  1.0000
  H   H219      1.0  0.09211  0.62431  0.22640  1.0000
  C   C114      1.0  0.16520  0.53543  0.38436  1.0000
  H   H220      1.0  0.11295  0.53582  0.35999  1.0000
  C   C115      1.0  0.25428  0.57601  0.06779  1.0000
  H   H221      1.0  0.26806  0.58256  0.04829  1.0000
  C   C116      1.0  0.17512  0.56480  0.38832  1.0000
  C   C117      1.0  0.24290  0.54421  0.01025  1.0000
  H   H222      1.0  0.22958  0.51285  0.04302  1.0000
  H   H223      1.0  0.11605  0.54145  0.19881  1.0000
  C   C118      1.0  0.30524  0.69837  0.06549  1.0000
  H   H224      1.0  0.19449  0.53564  0.41708  1.0000
  H   H225      1.0  0.31637  0.54674  0.32677  1.0000
  H   H226      1.0  0.17911  0.61295  0.34130  1.0000
  H   H227      1.0  0.16578  0.52865  0.29100  1.0000
  H   H228      1.0  0.24064  0.67108  0.00093  1.0000
  H   H229      1.0  0.23843  0.57970  0.05964  1.0000
  H   H230      1.0  0.29713  0.65389  0.21993  1.0000
  C   C119      1.0  0.31405  0.67514  0.16483  1.0000
  C   C120      1.0  0.19932  0.58117  0.00471  1.0000
  H   H231      1.0  0.12319  0.62630  0.22262  1.0000
  C   C121      1.0  0.05237  0.53297  0.48874  1.0000
  C   C122      1.0  0.22283  0.54008  0.09719  1.0000
  H   H232      1.0  0.24801  0.73118  0.41572  1.0000
  C   C123      1.0  0.09292  0.59815  0.18989  1.0000
  H   H233      1.0  0.28647  0.59343  0.10374  1.0000
  H   H234      1.0  0.30157  0.57161  0.29432  1.0000
  H   H235      1.0  0.31888  0.61791  0.03408  1.0000
  C   C124      1.0  0.18837  0.64457  0.01536  1.0000
  H   H236      1.0  0.20926  0.54709  0.09020  1.0000
  H   H237      1.0  0.28813  0.63538  0.10958  1.0000
  C   C125      1.0  0.10569  0.58106  0.18395  1.0000
  H   H238      1.0  0.04219  0.58920  0.43808  1.0000
  H   H239      1.0  0.30944  0.50397  0.03367  1.0000
  C   C126      1.0  0.28556  0.71818  0.47074  1.0000
  H   H240      1.0  0.32932  0.71141  0.31670  1.0000
  H   H241      1.0  0.06182  0.56150  0.14544  1.0000
  C   C127      1.0  0.30784  0.67506  0.22436  1.0000
  C   C128      1.0  0.32716  0.68688  0.19743  1.0000
  C   C129      1.0  0.26372  0.54168  0.08618  1.0000
  C   C130      1.0  0.28749  0.54928  0.06576  1.0000
  C   C131      1.0  0.10952  0.53274  0.17432  1.0000
  Fe  Fe15      1.0  0.32444  0.52675  0.17194  1.0000
  H   H242      1.0  0.33267  0.64456  0.22626  1.0000
  H   H243      1.0  0.19655  0.57404  0.38798  1.0000
  H   H244      1.0  0.21368  0.65837  0.36759  1.0000
  H   H245      1.0  0.08853  0.51910  0.17397  1.0000
  H   H246      1.0  0.17111  0.77231  0.49155  1.0000
  H   H247      1.0  0.09860  0.56659  0.20275  1.0000
  C   C132      1.0  0.19077  0.62238  0.39112  1.0000
  Fe  Fe16      1.0  0.16452  0.67695  0.48829  1.0000
  C   C133      1.0  0.32760  0.50476  0.02569  1.0000
  N   N7        1.0  0.31898  0.68173  0.25818  1.0000
  C   C134      1.0  0.21562  0.64783  0.38805  1.0000
  H   H248      1.0  0.16237  0.77420  0.45068  1.0000
  C   C135      1.0  0.06971  0.55405  0.46664  1.0000
  H   H249      1.0  0.32141  0.67323  0.06632  1.0000
  C   C136      1.0  0.30839  0.54633  0.08417  1.0000
  H   H250      1.0  0.32941  0.69749  0.01255  1.0000
  C   C137      1.0  0.32396  0.62405  0.00928  1.0000
  C   C138      1.0  0.06365  0.53302  0.11523  1.0000
  H   H251      1.0  0.20155  0.64829  0.03650  1.0000
  H   H252      1.0  0.11870  0.50254  0.18539  1.0000
  H   H253      1.0  0.21840  0.50296  0.11272  1.0000
  H   H254      1.0  0.30624  0.75843  0.46226  1.0000
  H   H255      1.0  0.19366  0.51685  0.14919  1.0000
  C   C139      1.0  0.24710  0.81069  0.45931  1.0000
  H   H256      1.0  0.31539  0.54150  0.01340  1.0000
  C   C140      1.0  0.25722  0.83449  0.48183  1.0000
  C   C141      1.0  0.21913  0.79061  0.46699  1.0000
  H   H257      1.0  0.30974  0.56046  0.25823  1.0000
  H   H258      1.0  0.29178  0.68856  0.04461  1.0000
  C   C142      1.0  0.03463  0.51441  0.11445  1.0000
  H   H259      1.0  0.26026  0.80254  0.46271  1.0000
  C   C143      1.0  0.31072  0.74378  0.47156  1.0000
  H   H260      1.0  0.31145  0.63188  0.25883  1.0000
  H   H261      1.0  0.30109  0.52598  0.09038  1.0000
  H   H262      1.0  0.32893  0.75151  0.14884  1.0000
  H   H263      1.0  0.02366  0.52511  0.11566  1.0000
  H   H264      1.0  0.32388  0.74172  0.45480  1.0000
  C   C144      1.0  0.20633  0.51082  0.10273  1.0000
  H   H265      1.0  0.21995  0.78395  0.49131  1.0000
  C   C145      1.0  0.12313  0.51710  0.16704  1.0000
  H   H266      1.0  0.25541  0.52073  0.08970  1.0000
  H   H267      1.0  0.02955  0.50135  0.13473  1.0000
  H   H268      1.0  0.25834  0.52235  0.44658  1.0000
  H   H269      1.0  0.16633  0.50459  0.40975  1.0000
  H   H270      1.0  0.28901  0.70259  0.47948  1.0000
  H   H271      1.0  0.11655  0.50698  0.14324  1.0000
  H   H272      1.0  0.32765  0.53760  0.39696  1.0000
  H   H273      1.0  0.32739  0.68539  0.14564  1.0000
  H   H274      1.0  0.28775  0.52331  0.46071  1.0000
  H   H275      1.0  0.31150  0.71927  0.06580  1.0000
  H   H276      1.0  0.12407  0.74924  0.48293  1.0000
  C   C146      1.0  0.26643  0.51310  0.46240  1.0000
  H   H277      1.0  0.13546  0.72702  0.49254  1.0000
  C   C147      1.0  0.32859  0.69408  0.06437  1.0000
  H   H278      1.0  0.20636  0.68334  0.00067  1.0000
  C   C148      1.0  0.33138  0.64565  0.25259  1.0000
  C   C149      1.0  0.33147  0.71040  0.26411  1.0000
  C   C150      1.0  0.33171  0.65242  0.00663  1.0000
  C   C151      1.0  0.25888  0.51434  0.49672  1.0000
  H   H279      1.0  0.23745  0.50368  0.49677  1.0000
  H   H280      1.0  0.31897  0.57239  0.84510  1.0000
  Fe  Fe17      1.0  0.31143  0.84649  0.59664  1.0000
  S   S29       1.0  0.18324  0.52420  0.90791  1.0000
  S   S30       1.0  0.26837  0.82147  0.58100  1.0000
  H   H281      1.0  0.22339  0.63962  0.89956  1.0000
  H   H282      1.0  0.18803  0.74645  0.53820  1.0000
  H   H283      1.0  0.32077  0.58816  0.56631  1.0000
  C   C152      1.0  0.27018  0.50208  0.51996  1.0000
  C   C153      1.0  0.31242  0.58583  0.85418  1.0000
  H   H284      1.0  0.17414  0.54115  0.99216  1.0000
  Fe  Fe18      1.0  0.22078  0.52768  0.89269  1.0000
  S   S31       1.0  0.21631  0.53637  0.84202  1.0000
  H   H285      1.0  0.24423  0.71121  0.79002  1.0000
  Fe  Fe19      1.0  0.20650  0.56649  0.92103  1.0000
  S   S32       1.0  0.19956  0.57780  0.87221  1.0000
  H   H286      1.0  0.19415  0.65007  0.86592  1.0000
  Fe  Fe20      1.0  0.18014  0.53558  0.85749  1.0000
  H   H287      1.0  0.31725  0.55931  0.94526  1.0000
  Fe  Fe21      1.0  0.23587  0.57755  0.85977  1.0000
  S   S33       1.0  0.26735  0.60881  0.83302  1.0000
  H   H288      1.0  0.23287  0.68344  0.90134  1.0000
  S   S34       1.0  0.24434  0.56902  0.90899  1.0000
  S   S35       1.0  0.27419  0.71711  0.85535  1.0000
  C   C154      1.0  0.26852  0.63854  0.83947  1.0000
  C   C155      1.0  0.24642  0.64112  0.83544  1.0000
  C   C156      1.0  0.24820  0.66545  0.83955  1.0000
  C   C157      1.0  0.27193  0.68696  0.84825  1.0000
  C   C158      1.0  0.29390  0.68428  0.85216  1.0000
  C   C159      1.0  0.29218  0.66014  0.84781  1.0000
  H   H289      1.0  0.22812  0.62450  0.82855  1.0000
  H   H290      1.0  0.23131  0.66762  0.83586  1.0000
  H   H291      1.0  0.31227  0.70079  0.85857  1.0000
  H   H292      1.0  0.30906  0.65811  0.85200  1.0000
  H   H293      1.0  0.29098  0.65765  0.91325  1.0000
  C   C160      1.0  0.30887  0.50861  0.87850  1.0000
  H   H294      1.0  0.31205  0.58540  0.88063  1.0000
  H   H295      1.0  0.22193  0.64410  0.97529  1.0000
  C   C161      1.0  0.20911  0.64381  0.91105  1.0000
  H   H296      1.0  0.31439  0.51495  0.94904  1.0000
  C   C162      1.0  0.28071  0.52585  0.89334  1.0000
  C   C163      1.0  0.30544  0.52959  0.88705  1.0000
  H   H297      1.0  0.23836  0.68464  0.76322  1.0000
  H   H298      1.0  0.30918  0.62375  0.69294  1.0000
  H   H299      1.0  0.27815  0.54207  0.90027  1.0000
  C   C164      1.0  0.30283  0.83265  0.76973  1.0000
  H   H300      1.0  0.01826  0.50602  0.63432  1.0000
  H   H301      1.0  0.32993  0.73669  0.51068  1.0000
  C   C165      1.0  0.06031  0.58528  0.57122  1.0000
  H   H302      1.0  0.17930  0.61708  0.87720  1.0000
  C   C166      1.0  0.25032  0.78958  0.56327  1.0000
  C   C167      1.0  0.22356  0.77903  0.55709  1.0000
  C   C168      1.0  0.28645  0.53540  0.56538  1.0000
  H   H303      1.0  0.31278  0.57302  0.98141  1.0000
  C   C169      1.0  0.24687  0.74990  0.53999  1.0000
  C   C170      1.0  0.26176  0.77457  0.55505  1.0000
  H   H304      1.0  0.28924  0.63681  0.94450  1.0000
  H   H305      1.0  0.12171  0.58974  0.52562  1.0000
  C   C171      1.0  0.31892  0.80122  0.49733  1.0000
  H   H306      1.0  0.28206  0.78194  0.56042  1.0000
  C   C172      1.0  0.10771  0.53101  0.55259  1.0000
  C   C173      1.0  0.10898  0.55510  0.55145  1.0000
  H   H307      1.0  0.32363  0.62586  0.85467  1.0000
  H   H308      1.0  0.04902  0.51863  0.61611  1.0000
  H   H309      1.0  0.20053  0.63066  0.93080  1.0000
  C   C174      1.0  0.11904  0.52341  0.52878  1.0000
  H   H310      1.0  0.32187  0.83412  0.91852  1.0000
  N   N8        1.0  0.26884  0.50754  0.55504  1.0000
  C   C175      1.0  0.08388  0.61208  0.57104  1.0000
  C   C176      1.0  0.33015  0.57596  0.56455  1.0000
  C   C177      1.0  0.18719  0.63727  0.88638  1.0000
  H   H311      1.0  0.23993  0.53372  0.95985  1.0000
  H   H312      1.0  0.08752  0.62159  0.59516  1.0000
  H   H313      1.0  0.31902  0.64397  0.74714  1.0000
  H   H314      1.0  0.21432  0.79021  0.56368  1.0000
  H   H315      1.0  0.17137  0.63921  0.89743  1.0000
  H   H316      1.0  0.26993  0.68476  0.91954  1.0000
  H   H317      1.0  0.30653  0.67130  0.95183  1.0000
  H   H318      1.0  0.05242  0.53107  0.56001  1.0000
  H   H319      1.0  0.24826  0.63751  0.93740  1.0000
  N   N9        1.0  0.23995  0.68050  0.95158  1.0000
  H   H320      1.0  0.23632  0.51449  0.54924  1.0000
  C   C178      1.0  0.32804  0.62916  0.70516  1.0000
  H   H321      1.0  0.26015  0.50772  0.81117  1.0000
  S   S36       1.0  0.09055  0.51045  0.58306  1.0000
  H   H322      1.0  0.31551  0.73827  0.64921  1.0000
  H   H323      1.0  0.10067  0.56124  0.57014  1.0000
  C   C179      1.0  0.23437  0.50075  0.59663  1.0000
  H   H324      1.0  0.18794  0.65935  0.96956  1.0000
  H   H325      1.0  0.29251  0.57917  0.84458  1.0000
  H   H326      1.0  0.04392  0.58769  0.57924  1.0000
  H   H327      1.0  0.25741  0.82916  0.50704  1.0000
  C   C180      1.0  0.16571  0.50737  0.77127  1.0000
  C   C181      1.0  0.32539  0.62969  0.74131  1.0000
  C   C182      1.0  0.33071  0.61318  0.84448  1.0000
  H   H328      1.0  0.25414  0.75713  0.95718  1.0000
  H   H329      1.0  0.29141  0.53696  0.59143  1.0000
  S   S37       1.0  0.20980  0.59079  0.96573  1.0000
  H   H330      1.0  0.30804  0.74703  0.52291  1.0000
  C   C183      1.0  0.25956  0.50100  0.89215  1.0000
  C   C184      1.0  0.22694  0.66444  0.97974  1.0000
  N   N10       1.0  0.03062  0.54568  0.53392  1.0000
  C   C185      1.0  0.00743  0.54932  0.53870  1.0000
  C   C186      1.0  0.22220  0.67256  0.92217  1.0000
  C   C187      1.0  0.05459  0.57163  0.53781  1.0000
  C   C188      1.0  0.26446  0.67957  0.94466  1.0000
  C   C189      1.0  0.23098  0.52457  0.98227  1.0000
  H   H331      1.0  0.32408  0.65364  0.79935  1.0000
  C   C190      1.0  0.02026  0.52417  0.58934  1.0000
  H   H332      1.0  0.23441  0.50800  0.98557  1.0000
  H   H333      1.0  0.20694  0.67808  0.92531  1.0000
  H   H334      1.0  0.32316  0.78858  0.54296  1.0000
  N   N11       1.0  0.27223  0.76758  0.71887  1.0000
  C   C191      1.0  0.24869  0.75733  0.69657  1.0000
  C   C192      1.0  0.26719  0.75010  0.74660  1.0000
  C   C193      1.0  0.27737  0.79361  0.73214  1.0000
  C   C194      1.0  0.29587  0.77146  0.70172  1.0000
  C   C195      1.0  0.29408  0.74780  0.68320  1.0000
  C   C196      1.0  0.25103  0.77383  0.66740  1.0000
  C   C197      1.0  0.29716  0.80528  0.76092  1.0000
  C   C198      1.0  0.25013  0.72069  0.73978  1.0000
  C   C199      1.0  0.25103  0.70558  0.76834  1.0000
  C   C200      1.0  0.28942  0.65512  0.93936  1.0000
  C   C201      1.0  0.22657  0.76093  0.64583  1.0000
  H   H335      1.0  0.24896  0.51837  0.61000  1.0000
  H   H336      1.0  0.23181  0.75508  0.71010  1.0000
  H   H337      1.0  0.24302  0.73773  0.68690  1.0000
  H   H338      1.0  0.28581  0.75369  0.75824  1.0000
  H   H339      1.0  0.25691  0.75468  0.76546  1.0000
  H   H340      1.0  0.25912  0.79266  0.74001  1.0000
  H   H341      1.0  0.28464  0.80809  0.71328  1.0000
  H   H342      1.0  0.30190  0.78744  0.68497  1.0000
  H   H343      1.0  0.02662  0.54309  0.60156  1.0000
  H   H344      1.0  0.27653  0.73802  0.66736  1.0000
  H   H345      1.0  0.29445  0.73405  0.70031  1.0000
  H   H346      1.0  0.25383  0.79301  0.67516  1.0000
  H   H347      1.0  0.26738  0.77657  0.65264  1.0000
  C   C202      1.0  0.03200  0.52661  0.55605  1.0000
  H   H348      1.0  0.28978  0.79379  0.78244  1.0000
  H   H349      1.0  0.22971  0.71594  0.73545  1.0000
  H   H350      1.0  0.25597  0.71366  0.71863  1.0000
  H   H351      1.0  0.28485  0.83295  0.77569  1.0000
  H   H352      1.0  0.31208  0.60994  0.79921  1.0000
  C   C203      1.0  0.20855  0.75417  0.54252  1.0000
  H   H353      1.0  0.26549  0.53472  0.50388  1.0000
  H   H354      1.0  0.31562  0.80605  0.75544  1.0000
  H   H355      1.0  0.01663  0.62248  0.51098  1.0000
  H   H356      1.0  0.20939  0.75746  0.65938  1.0000
  H   H357      1.0  0.22835  0.77370  0.62606  1.0000
  H   H358      1.0  0.22376  0.74240  0.63525  1.0000
  C   C204      1.0  0.31717  0.75556  0.66209  1.0000
  H   H359      1.0  0.18414  0.51967  0.78327  1.0000
  H   H360      1.0  0.25609  0.73871  0.53351  1.0000
  H   H361      1.0  0.06481  0.57427  0.58883  1.0000
  H   H362      1.0  0.07202  0.57013  0.53255  1.0000
  H   H363      1.0  0.31194  0.84549  0.74966  1.0000
  H   H364      1.0  0.28057  0.76954  0.93076  1.0000
  H   H365      1.0  0.10126  0.61075  0.56460  1.0000
  H   H366      1.0  0.06421  0.53199  0.50889  1.0000
  H   H367      1.0  0.30998  0.61033  0.74740  1.0000
  C   C205      1.0  0.26456  0.65395  0.95037  1.0000
  H   H368      1.0  0.29120  0.50258  0.97898  1.0000
  H   H369      1.0  0.30686  0.61221  0.99312  1.0000
  H   H370      1.0  0.20990  0.51754  0.97963  1.0000
  H   H371      1.0  0.30653  0.83316  0.95551  1.0000
  H   H372      1.0  0.32253  0.53917  0.54548  1.0000
  S   S38       1.0  0.14342  0.51428  0.82575  1.0000
  C   C206      1.0  0.33187  0.61472  0.80764  1.0000
  H   H373      1.0  0.28057  0.72782  0.92956  1.0000
  C   C207      1.0  0.02913  0.53611  0.49978  1.0000
  H   H374      1.0  0.25077  0.72525  0.91420  1.0000
  H   H375      1.0  0.28101  0.69434  0.95980  1.0000
  H   H376      1.0  0.08066  0.62420  0.55375  1.0000
  C   C208      1.0  0.26288  0.72840  0.93618  1.0000
  S   S39       1.0  0.32563  0.86529  0.64625  1.0000
  H   H377      1.0  0.11819  0.50486  0.52958  1.0000
  H   H378      1.0  0.23752  0.51390  0.78894  1.0000
  Fe  Fe22      1.0  0.31508  0.74503  0.87104  1.0000
  H   H379      1.0  0.31257  0.77800  0.71887  1.0000
  C   C209      1.0  0.24747  0.70802  0.96089  1.0000
  C   C210      1.0  0.31235  0.51396  0.97541  1.0000
  C   C211      1.0  0.22017  0.73952  0.53334  1.0000
  H   H380      1.0  0.27099  0.70910  0.77336  1.0000
  H   H381      1.0  0.02213  0.50684  0.54480  1.0000
  C   C212      1.0  0.12097  0.57131  0.52630  1.0000
  H   H382      1.0  0.29023  0.50809  0.51332  1.0000
  C   C213      1.0  0.27111  0.75552  0.94955  1.0000
  H   H383      1.0  0.05383  0.58493  0.52005  1.0000
  C   C214      1.0  0.31199  0.55012  0.54757  1.0000
  C   C215      1.0  0.32118  0.54180  0.98853  1.0000
  S   S40       1.0  0.13316  0.63976  0.50721  1.0000
  H   H384      1.0  0.23009  0.71002  0.96506  1.0000
  H   H385      1.0  0.27634  0.54690  0.56255  1.0000
  H   H386      1.0  0.32198  0.54862  0.88940  1.0000
  S   S41       1.0  0.32615  0.78448  0.89037  1.0000
  H   H387      1.0  0.26332  0.65004  0.97623  1.0000
  S   S42       1.0  0.20274  0.70866  0.51281  1.0000
  H   H388      1.0  0.31790  0.76935  0.64418  1.0000
  C   C216      1.0  0.30885  0.55470  0.96913  1.0000
  H   H389      1.0  0.31642  0.84020  0.79089  1.0000
  H   H390      1.0  0.25907  0.71395  0.98391  1.0000
  C   C217      1.0  0.24129  0.50086  0.56114  1.0000
  H   H391      1.0  0.31712  0.51080  0.58023  1.0000
  H   H392      1.0  0.30642  0.82085  0.53164  1.0000
  C   C218      1.0  0.13191  0.56363  0.50217  1.0000
  H   H393      1.0  0.32989  0.69678  0.78951  1.0000
  H   H394      1.0  0.28765  0.54209  0.96615  1.0000
  C   C219      1.0  0.32238  0.83120  0.94456  1.0000
  H   H395      1.0  0.20816  0.51647  0.58989  1.0000
  H   H396      1.0  0.31902  0.81144  0.94836  1.0000
  C   C220      1.0  0.31559  0.82410  0.50822  1.0000
  C   C221      1.0  0.32349  0.75104  0.50571  1.0000
  H   H397      1.0  0.00668  0.55523  0.56374  1.0000
  C   C222      1.0  0.13110  0.53970  0.50357  1.0000
  C   C223      1.0  0.02780  0.50851  0.61121  1.0000
  H   H398      1.0  0.28507  0.76056  0.97016  1.0000
  H   H399      1.0  0.30794  0.55405  0.52297  1.0000
  H   H400      1.0  0.33228  0.75343  0.57073  1.0000
  H   H401      1.0  0.00908  0.56562  0.52459  1.0000
  C   C224      1.0  0.14299  0.50251  0.78611  1.0000
  C   C225      1.0  0.20190  0.66430  0.99005  1.0000
  N   N12       1.0  0.32623  0.50069  0.98978  1.0000
  H   H402      1.0  0.57896  0.23039  0.07508  1.0000
  H   H403      1.0  0.61432  0.17497  0.02133  1.0000
  Fe  Fe23      1.0  0.33456  0.48368  0.48647  1.0000
  Fe  Fe24      1.0  0.43227  0.33482  0.45439  1.0000
  S   S43       1.0  0.47370  0.36608  0.45353  1.0000
  S   S44       1.0  0.39961  0.34156  0.43471  1.0000
  Fe  Fe25      1.0  0.48170  0.33558  0.43230  1.0000
  S   S45       1.0  0.51233  0.34111  0.39691  1.0000
  Fe  Fe26      1.0  0.44728  0.29452  0.47893  1.0000
  S   S46       1.0  0.44009  0.30510  0.42967  1.0000
  H   H404      1.0  0.60690  0.28359  0.16782  1.0000
  Fe  Fe27      1.0  0.62338  0.09510  0.44427  1.0000
  C   C226      1.0  0.39474  0.37344  0.48081  1.0000
  H   H405      1.0  0.63715  0.38564  0.07196  1.0000
  Fe  Fe28      1.0  0.61077  0.04199  0.46984  1.0000
  C   C227      1.0  0.63759  0.19950  0.36141  1.0000
  H   H406      1.0  0.39419  0.31874  0.36610  1.0000
  S   S47       1.0  0.58717  0.06200  0.46130  1.0000
  Fe  Fe29      1.0  0.59850  0.14520  0.23401  1.0000
  S   S48       1.0  0.62094  0.15554  0.18873  1.0000
  S   S49       1.0  0.58435  0.10835  0.26135  1.0000
  Fe  Fe30      1.0  0.60056  0.19656  0.24183  1.0000
  S   S50       1.0  0.62357  0.21181  0.19866  1.0000
  S   S51       1.0  0.59193  0.22125  0.27516  1.0000
  Fe  Fe31      1.0  0.59674  0.17367  0.17400  1.0000
  S   S52       1.0  0.59206  0.18531  0.12382  1.0000
  H   H407      1.0  0.62002  0.26187  0.16512  1.0000
  S   S53       1.0  0.57154  0.15972  0.21678  1.0000
  S   S54       1.0  0.62591  0.18167  0.26094  1.0000
  Fe  Fe32      1.0  0.59414  0.35495  0.20839  1.0000
  S   S55       1.0  0.57957  0.32451  0.16925  1.0000
  S   S56       1.0  0.63385  0.36927  0.23032  1.0000
  Fe  Fe33      1.0  0.54201  0.35159  0.21731  1.0000
  S   S57       1.0  0.52342  0.32152  0.17748  1.0000
  S   S58       1.0  0.51539  0.35995  0.24773  1.0000
  Fe  Fe34      1.0  0.54527  0.30361  0.19897  1.0000
  S   S59       1.0  0.52457  0.26065  0.20237  1.0000
  Fe  Fe35      1.0  0.55904  0.34490  0.15006  1.0000
  S   S60       1.0  0.55505  0.34094  0.09587  1.0000
  S   S61       1.0  0.56174  0.33203  0.24028  1.0000
  S   S62       1.0  0.57603  0.37732  0.18779  1.0000
  H   H408      1.0  0.50878  0.04885  0.44476  1.0000
  S   S63       1.0  0.34636  0.46625  0.44647  1.0000
  H   H409      1.0  0.36802  0.28906  0.44720  1.0000
  H   H410      1.0  0.42225  0.39312  0.40792  1.0000
  H   H411      1.0  0.65305  0.22990  0.01710  1.0000
  H   H412      1.0  0.37243  0.47814  0.31866  1.0000
  H   H413      1.0  0.44780  0.35620  0.34255  1.0000
  H   H414      1.0  0.40823  0.44879  0.34798  1.0000
  C   C228      1.0  0.51061  0.27679  0.35197  1.0000
  H   H415      1.0  0.52321  0.29730  0.36016  1.0000
  H   H416      1.0  0.60798  0.10584  0.08922  1.0000
  H   H417      1.0  0.44092  0.20682  0.48958  1.0000
  C   C229      1.0  0.56408  0.35840  0.03549  1.0000
  C   C230      1.0  0.56802  0.36555  0.06813  1.0000
  C   C231      1.0  0.58247  0.39160  0.07747  1.0000
  C   C232      1.0  0.59295  0.41027  0.05413  1.0000
  H   H418      1.0  0.35630  0.24108  0.48583  1.0000
  H   H419      1.0  0.55222  0.33841  0.02807  1.0000
  H   H420      1.0  0.58538  0.39736  0.10256  1.0000
  C   C233      1.0  0.57323  0.23217  0.25492  1.0000
  C   C234      1.0  0.55127  0.21490  0.23665  1.0000
  C   C235      1.0  0.53607  0.22369  0.22099  1.0000
  C   C236      1.0  0.54334  0.24986  0.22271  1.0000
  C   C237      1.0  0.56564  0.26721  0.24030  1.0000
  C   C238      1.0  0.58029  0.25829  0.25699  1.0000
  H   H421      1.0  0.54582  0.19472  0.23498  1.0000
  H   H422      1.0  0.51890  0.21027  0.20719  1.0000
  H   H423      1.0  0.57167  0.28750  0.24095  1.0000
  H   H424      1.0  0.59750  0.27172  0.27074  1.0000
  C   C239      1.0  0.54196  0.13115  0.05798  1.0000
  C   C240      1.0  0.55581  0.14276  0.08702  1.0000
  C   C241      1.0  0.57475  0.16869  0.08831  1.0000
  C   C242      1.0  0.58011  0.18261  0.06039  1.0000
  C   C243      1.0  0.56612  0.17116  0.03165  1.0000
  H   H425      1.0  0.52710  0.11118  0.05711  1.0000
  H   H426      1.0  0.55156  0.13181  0.10839  1.0000
  H   H427      1.0  0.59513  0.20248  0.06099  1.0000
  H   H428      1.0  0.40310  0.36394  0.36583  1.0000
  H   H429      1.0  0.34637  0.38429  0.42789  1.0000
  H   H430      1.0  0.38797  0.39148  0.36046  1.0000
  C   C244      1.0  0.57526  0.24098  0.02758  1.0000
  C   C245      1.0  0.61841  0.11553  0.36337  1.0000
  C   C246      1.0  0.63172  0.13429  0.34117  1.0000
  C   C247      1.0  0.62208  0.13145  0.30959  1.0000
  C   C248      1.0  0.59834  0.11040  0.30000  1.0000
  C   C249      1.0  0.58529  0.09113  0.32192  1.0000
  C   C250      1.0  0.59538  0.09357  0.35348  1.0000
  H   H431      1.0  0.63347  0.39737  0.01595  1.0000
  H   H432      1.0  0.56706  0.07456  0.31465  1.0000
  H   H433      1.0  0.58489  0.07897  0.37038  1.0000
  C   C251      1.0  0.46591  0.40771  0.34939  1.0000
  C   C252      1.0  0.38785  0.36199  0.45008  1.0000
  C   C253      1.0  0.37041  0.36614  0.43110  1.0000
  C   C254      1.0  0.35989  0.38144  0.44269  1.0000
  C   C255      1.0  0.36625  0.39236  0.47379  1.0000
  S   S64       1.0  0.63015  0.12223  0.40363  1.0000
  H   H434      1.0  0.52158  0.24320  0.32068  1.0000
  H   H435      1.0  0.36479  0.35730  0.40732  1.0000
  H   H436      1.0  0.46772  0.44944  0.45896  1.0000
  C   C256      1.0  0.49431  0.41141  0.30323  1.0000
  C   C257      1.0  0.61201  0.13916  0.06399  1.0000
  H   H437      1.0  0.41485  0.36890  0.32683  1.0000
  C   C258      1.0  0.51237  0.34603  0.35545  1.0000
  C   C259      1.0  0.53504  0.35273  0.33916  1.0000
  C   C260      1.0  0.53601  0.35669  0.30616  1.0000
  C   C261      1.0  0.51431  0.35410  0.28906  1.0000
  C   C262      1.0  0.49152  0.34725  0.30533  1.0000
  C   C263      1.0  0.49049  0.34296  0.33836  1.0000
  H   H438      1.0  0.55207  0.35513  0.35220  1.0000
  H   H439      1.0  0.55376  0.36232  0.29407  1.0000
  H   H440      1.0  0.47461  0.34510  0.29225  1.0000
  H   H441      1.0  0.47283  0.33705  0.35064  1.0000
  H   H442      1.0  0.47874  0.42850  0.35553  1.0000
  H   H443      1.0  0.33828  0.26044  0.44416  1.0000
  C   C264      1.0  0.37316  0.24516  0.44032  1.0000
  C   C265      1.0  0.61319  0.12621  0.09452  1.0000
  C   C266      1.0  0.45803  0.42927  0.41258  1.0000
  H   H444      1.0  0.44331  0.43597  0.35015  1.0000
  H   H445      1.0  0.35470  0.23097  0.42800  1.0000
  C   C267      1.0  0.64185  0.33111  0.12788  1.0000
  C   C268      1.0  0.48447  0.26859  0.40187  1.0000
  H   H446      1.0  0.48937  0.18844  0.10491  1.0000
  H   H447      1.0  0.48524  0.14902  0.07971  1.0000
  C   C269      1.0  0.64870  0.34562  0.07086  1.0000
  H   H448      1.0  0.65997  0.26445  0.17664  1.0000
  C   C270      1.0  0.65908  0.21951  0.09658  1.0000
  N   N13       1.0  0.63060  0.15062  0.00775  1.0000
  H   H449      1.0  0.61184  0.35572  0.01355  1.0000
  C   C271      1.0  0.57543  0.37688  0.01230  1.0000
  H   H450      1.0  0.62905  0.12033  0.03707  1.0000
  H   H451      1.0  0.64738  0.39853  0.17276  1.0000
  C   C272      1.0  0.50368  0.16260  0.09256  1.0000
  H   H452      1.0  0.49455  0.40830  0.27702  1.0000
  C   C273      1.0  0.65993  0.35979  0.01544  1.0000
  H   H453      1.0  0.46557  0.26486  0.41097  1.0000
  H   H454      1.0  0.49964  0.28716  0.41289  1.0000
  S   S65       1.0  0.64661  0.07461  0.44953  1.0000
  H   H455      1.0  0.64424  0.18970  0.13163  1.0000
  H   H456      1.0  0.47855  0.28463  0.35928  1.0000
  H   H457      1.0  0.38402  0.23506  0.44720  1.0000
  H   H458      1.0  0.47141  0.04493  0.47462  1.0000
  H   H459      1.0  0.48819  0.25288  0.40930  1.0000
  H   H460      1.0  0.49323  0.19544  0.30718  1.0000
  H   H461      1.0  0.45195  0.44270  0.40277  1.0000
  H   H462      1.0  0.34831  0.48406  0.04134  1.0000
  H   H463      1.0  0.51715  0.24636  0.46755  1.0000
  H   H464      1.0  0.58929  0.13589  0.00036  1.0000
  H   H465      1.0  0.64691  0.18709  0.03453  1.0000
  H   H466      1.0  0.46842  0.25092  0.35575  1.0000
  C   C274      1.0  0.65732  0.43909  0.25596  1.0000
  C   C275      1.0  0.33843  0.46925  0.34497  1.0000
  C   C276      1.0  0.50474  0.24899  0.48498  1.0000
  C   C277      1.0  0.39363  0.42805  0.34579  1.0000
  C   C278      1.0  0.44167  0.40160  0.39788  1.0000
  H   H467      1.0  0.47850  0.01927  0.48192  1.0000
  H   H468      1.0  0.40656  0.41799  0.38839  1.0000
  C   C279      1.0  0.63200  0.14024  0.03988  1.0000
  H   H469      1.0  0.60351  0.34606  0.05283  1.0000
  C   C280      1.0  0.45540  0.42962  0.44876  1.0000
  C   C281      1.0  0.41076  0.32428  0.35042  1.0000
  C   C282      1.0  0.66045  0.43100  0.04329  1.0000
  C   C283      1.0  0.58995  0.40291  0.02150  1.0000
  H   H470      1.0  0.65097  0.42653  0.23386  1.0000
  C   C284      1.0  0.47848  0.19965  0.29635  1.0000
  H   H471      1.0  0.54908  0.20931  0.05411  1.0000
  H   H472      1.0  0.37573  0.42548  0.35686  1.0000
  C   C285      1.0  0.43157  0.35205  0.35816  1.0000
  H   H473      1.0  0.46546  0.22738  0.30000  1.0000
  H   H474      1.0  0.57001  0.18238  0.01063  1.0000
  N   N14       1.0  0.51194  0.27370  0.31616  1.0000
  C   C286      1.0  0.49303  0.27977  0.29881  1.0000
  C   C287      1.0  0.42870  0.41519  0.34817  1.0000
  C   C288      1.0  0.53868  0.29307  0.30664  1.0000
  C   C289      1.0  0.50795  0.24736  0.30675  1.0000
  H   H475      1.0  0.47533  0.39774  0.36142  1.0000
  C   C290      1.0  0.49215  0.27745  0.26183  1.0000
  C   C291      1.0  0.56159  0.29252  0.32468  1.0000
  C   C292      1.0  0.46705  0.40459  0.31267  1.0000
  C   C293      1.0  0.47168  0.28312  0.24728  1.0000
  C   C294      1.0  0.58738  0.31498  0.31561  1.0000
  H   H476      1.0  0.49729  0.29968  0.30574  1.0000
  H   H477      1.0  0.47302  0.26721  0.30599  1.0000
  C   C295      1.0  0.48082  0.22443  0.31133  1.0000
  H   H478      1.0  0.34529  0.46414  0.36624  1.0000
  H   H479      1.0  0.54147  0.31290  0.30952  1.0000
  H   H480      1.0  0.54116  0.29014  0.28099  1.0000
  H   H481      1.0  0.51294  0.24672  0.28138  1.0000
  H   H482      1.0  0.51761  0.07588  0.47212  1.0000
  H   H483      1.0  0.47875  0.43670  0.40797  1.0000
  H   H484      1.0  0.51077  0.29140  0.25218  1.0000
  H   H485      1.0  0.48739  0.25778  0.25339  1.0000
  H   H486      1.0  0.56200  0.27449  0.31845  1.0000
  H   H487      1.0  0.56048  0.29403  0.35093  1.0000
  H   H488      1.0  0.52602  0.05134  0.48185  1.0000
  H   H489      1.0  0.47745  0.22140  0.33716  1.0000
  H   H490      1.0  0.47188  0.28182  0.22082  1.0000
  H   H491      1.0  0.45218  0.26902  0.25488  1.0000
  H   H492      1.0  0.47579  0.30287  0.25452  1.0000
  H   H493      1.0  0.59013  0.31414  0.28959  1.0000
  H   H494      1.0  0.58834  0.33365  0.32211  1.0000
  H   H495      1.0  0.60345  0.31407  0.32852  1.0000
  N   N15       1.0  0.54080  0.23694  0.10800  1.0000
  C   C296      1.0  0.53130  0.20885  0.11382  1.0000
  C   C297      1.0  0.56131  0.25302  0.13328  1.0000
  C   C298      1.0  0.51838  0.24195  0.11249  1.0000
  C   C299      1.0  0.55064  0.24442  0.07481  1.0000
  H   H496      1.0  0.60676  0.30520  0.03750  1.0000
  C   C300      1.0  0.50674  0.18961  0.09386  1.0000
  C   C301      1.0  0.52449  0.27038  0.11081  1.0000
  C   C302      1.0  0.58598  0.25036  0.13461  1.0000
  C   C303      1.0  0.51104  0.05495  0.47041  1.0000
  H   H497      1.0  0.42673  0.06664  0.48507  1.0000
  C   C304      1.0  0.49974  0.27234  0.10944  1.0000
  H   H498      1.0  0.52687  0.20496  0.13948  1.0000
  H   H499      1.0  0.54648  0.20346  0.10968  1.0000
  H   H500      1.0  0.56826  0.27385  0.13039  1.0000
  H   H501      1.0  0.55283  0.24863  0.15721  1.0000
  H   H502      1.0  0.50961  0.23495  0.13597  1.0000
  H   H503      1.0  0.50282  0.23095  0.09399  1.0000
  C   C305      1.0  0.65243  0.40435  0.02845  1.0000
  H   H504      1.0  0.56461  0.26540  0.07473  1.0000
  C   C306      1.0  0.63303  0.17688  0.01402  1.0000
  H   H505      1.0  0.63901  0.21557  0.37686  1.0000
  H   H506      1.0  0.51968  0.16256  0.07947  1.0000
  H   H507      1.0  0.53558  0.27955  0.08951  1.0000
  H   H508      1.0  0.53576  0.28162  0.13249  1.0000
  H   H509      1.0  0.58172  0.23009  0.13418  1.0000
  N   N16       1.0  0.43942  0.39895  0.36192  1.0000
  H   H510      1.0  0.59208  0.12823  0.05349  1.0000
  H   H511      1.0  0.64372  0.32556  0.06424  1.0000
  C   C307      1.0  0.48389  0.26970  0.36547  1.0000
  C   C308      1.0  0.60347  0.31714  0.02021  1.0000
  H   H512      1.0  0.50364  0.15582  0.11703  1.0000
  S   S66       1.0  0.48934  0.32356  0.48002  1.0000
  H   H513      1.0  0.50469  0.29287  0.10868  1.0000
  H   H514      1.0  0.48773  0.26207  0.08769  1.0000
  H   H515      1.0  0.48849  0.26418  0.13102  1.0000
  H   H516      1.0  0.48105  0.20136  0.27017  1.0000
  H   H517      1.0  0.61324  0.33321  0.09777  1.0000
  H   H518      1.0  0.56455  0.30449  0.03621  1.0000
  N   N17       1.0  0.58731  0.17479  0.36131  1.0000
  C   C309      1.0  0.56448  0.16505  0.33786  1.0000
  C   C310      1.0  0.58886  0.19650  0.38253  1.0000
  C   C311      1.0  0.61136  0.18547  0.34215  1.0000
  C   C312      1.0  0.58660  0.15354  0.38090  1.0000
  C   C313      1.0  0.56302  0.13927  0.40179  1.0000
  C   C314      1.0  0.56109  0.14360  0.31327  1.0000
  C   C315      1.0  0.65108  0.38569  0.05455  1.0000
  C   C316      1.0  0.56301  0.19528  0.39139  1.0000
  C   C317      1.0  0.56732  0.21551  0.41749  1.0000
  C   C318      1.0  0.56342  0.11654  0.41750  1.0000
  C   C319      1.0  0.53678  0.13482  0.29201  1.0000
  H   H519      1.0  0.59813  0.26016  0.11426  1.0000
  H   H520      1.0  0.56577  0.18138  0.32401  1.0000
  H   H521      1.0  0.54609  0.15741  0.35029  1.0000
  H   H522      1.0  0.60016  0.19850  0.40505  1.0000
  H   H523      1.0  0.59963  0.21523  0.37071  1.0000
  H   H524      1.0  0.61106  0.19911  0.32458  1.0000
  H   H525      1.0  0.61200  0.16985  0.32795  1.0000
  H   H526      1.0  0.58816  0.13907  0.36528  1.0000
  H   H527      1.0  0.60372  0.16110  0.39765  1.0000
  H   H528      1.0  0.54462  0.13162  0.38759  1.0000
  H   H529      1.0  0.56355  0.15240  0.42139  1.0000
  H   H530      1.0  0.57748  0.15060  0.29718  1.0000
  H   H531      1.0  0.55934  0.12648  0.32532  1.0000
  H   H532      1.0  0.51839  0.26566  0.36471  1.0000
  H   H533      1.0  0.33370  0.29627  0.42460  1.0000
  H   H534      1.0  0.55416  0.19922  0.37008  1.0000
  H   H535      1.0  0.54887  0.17627  0.39987  1.0000
  H   H536      1.0  0.54866  0.21466  0.42269  1.0000
  H   H537      1.0  0.57524  0.21182  0.43982  1.0000
  H   H538      1.0  0.58085  0.23511  0.40966  1.0000
  H   H539      1.0  0.56200  0.10211  0.39910  1.0000
  H   H540      1.0  0.58145  0.12310  0.43234  1.0000
  H   H541      1.0  0.54680  0.10712  0.43319  1.0000
  H   H542      1.0  0.53773  0.15125  0.27891  1.0000
  H   H543      1.0  0.53521  0.11992  0.27421  1.0000
  H   H544      1.0  0.51931  0.12637  0.30646  1.0000
  H   H545      1.0  0.53464  0.24150  0.05779  1.0000
  C   C320      1.0  0.40345  0.41183  0.36273  1.0000
  H   H546      1.0  0.45906  0.18329  0.30042  1.0000
  H   H547      1.0  0.59869  0.11201  0.99795  1.0000
  C   C321      1.0  0.54691  0.14542  0.03025  1.0000
  C   C322      1.0  0.60199  0.26307  0.16536  1.0000
  H   H548      1.0  0.46149  0.41660  0.46002  1.0000
  H   H549      1.0  0.66164  0.44415  0.02424  1.0000
  H   H550      1.0  0.45033  0.39021  0.40769  1.0000
  H   H551      1.0  0.59927  0.12658  0.11151  1.0000
  H   H552      1.0  0.45387  0.38466  0.30359  1.0000
  H   H553      1.0  0.60387  0.43043  0.06139  1.0000
  H   H554      1.0  0.50810  0.43189  0.30970  1.0000
  H   H555      1.0  0.63305  0.14571  0.29270  1.0000
  C   C323      1.0  0.34499  0.48373  0.29012  1.0000
  H   H556      1.0  0.49169  0.25443  0.47191  1.0000
  C   C324      1.0  0.63449  0.34430  0.10198  1.0000
  H   H557      1.0  0.42448  0.41081  0.32204  1.0000
  H   H558      1.0  0.65584  0.23518  0.14224  1.0000
  H   H559      1.0  0.66335  0.41287  0.28418  1.0000
  H   H560      1.0  0.59122  0.25286  0.18644  1.0000
  H   H561      1.0  0.66030  0.19537  0.32378  1.0000
  H   H562      1.0  0.40390  0.32184  0.32503  1.0000
  H   H563      1.0  0.50085  0.39904  0.31529  1.0000
  H   H564      1.0  0.38907  0.42202  0.32010  1.0000
  H   H565      1.0  0.43508  0.42342  0.45458  1.0000
  H   H566      1.0  0.64037  0.18599  0.37664  1.0000
  H   H567      1.0  0.43844  0.35322  0.38326  1.0000
  N   N18       1.0  0.64350  0.35852  0.04323  1.0000
  H   H568      1.0  0.46165  0.41763  0.30018  1.0000
  C   C325      1.0  0.42116  0.37109  0.35248  1.0000
  H   H569      1.0  0.41886  0.31119  0.35453  1.0000
  C   C326      1.0  0.61528  0.34530  0.03301  1.0000
  H   H570      1.0  0.59113  0.26100  0.03129  1.0000
  H   H571      1.0  0.64412  0.24522  0.11033  1.0000
  Fe  Fe36      1.0  0.64612  0.19308  0.21518  1.0000
  S   S67       1.0  0.36509  0.49408  0.25698  1.0000
  H   H572      1.0  0.65907  0.30644  0.17741  1.0000
  H   H573      1.0  0.63278  0.13653  0.10621  1.0000
  H   H574      1.0  0.63220  0.33115  0.15025  1.0000
  H   H575      1.0  0.63987  0.43547  0.26901  1.0000
  C   C327      1.0  0.56352  0.22978  0.05928  1.0000
  H   H576      1.0  0.50715  0.19576  0.06900  1.0000
  H   H577      1.0  0.66357  0.12534  0.00764  1.0000
  H   H578      1.0  0.63973  0.36378  0.11178  1.0000
  H   H579      1.0  0.63571  0.31088  0.12036  1.0000
  H   H580      1.0  0.64607  0.43000  0.06043  1.0000
  H   H581      1.0  0.64011  0.20988  0.08327  1.0000
  H   H582      1.0  0.65589  0.09048  0.35182  1.0000
  C   C328      1.0  0.35373  0.47713  0.31797  1.0000
  H   H583      1.0  0.61582  0.15881  0.07105  1.0000
  H   H584      1.0  0.65160  0.15197  0.05147  1.0000
  C   C329      1.0  0.35437  0.27270  0.46131  1.0000
  S   S68       1.0  0.63543  0.11511  0.49310  1.0000
  H   H585      1.0  0.38709  0.26958  0.48250  1.0000
  H   H586      1.0  0.66302  0.34160  0.13317  1.0000
  H   H587      1.0  0.34844  0.31899  0.47479  1.0000
  H   H588      1.0  0.40829  0.37068  0.49560  1.0000
  H   H589      1.0  0.38484  0.26030  0.42357  1.0000
  C   C330      1.0  0.36810  0.25702  0.47019  1.0000
  H   H590      1.0  0.64951  0.15135  0.34847  1.0000
  C   C331      1.0  0.65826  0.37645  0.20321  1.0000
  N   N19       1.0  0.34523  0.28266  0.48883  1.0000
  H   H591      1.0  0.66121  0.18421  0.10003  1.0000
  H   H592      1.0  0.53164  0.39152  0.49241  1.0000
  C   C332      1.0  0.66144  0.39231  0.17764  1.0000
  H   H593      1.0  0.65861  0.22490  0.32328  1.0000
  H   H594      1.0  0.58335  0.22941  0.01658  1.0000
  C   C333      1.0  0.33334  0.29856  0.47684  1.0000
  C   C334      1.0  0.66009  0.21083  0.33896  1.0000
  H   H595      1.0  0.56035  0.24048  0.01059  1.0000
  C   C335      1.0  0.48529  0.04006  0.48646  1.0000
  C   C336      1.0  0.66106  0.19912  0.11624  1.0000
  S   S69       1.0  0.43514  0.25206  0.48662  1.0000
  H   H596      1.0  0.57868  0.42164  0.49074  1.0000
  H   H597      1.0  0.38383  0.31471  0.49509  1.0000
  S   S70       1.0  0.35227  0.41030  0.49093  1.0000
  H   H598      1.0  0.33639  0.47934  0.09629  1.0000
  C   C337      1.0  0.57440  0.30509  0.01377  1.0000
  H   H599      1.0  0.62069  0.21535  0.99939  1.0000
  C   C338      1.0  0.66055  0.24216  0.11767  1.0000
  H   H600      1.0  0.66486  0.28952  0.07372  1.0000
  H   H601      1.0  0.65489  0.25716  0.05963  1.0000
  H   H602      1.0  0.56661  0.28515  0.00375  1.0000
  H   H603      1.0  0.54284  0.12945  0.49595  1.0000
  C   C339      1.0  0.38377  0.38822  0.49267  1.0000
  H   H604      1.0  0.64824  0.31808  0.01075  1.0000
  H   H605      1.0  0.66558  0.28516  0.01455  1.0000
  H   H606      1.0  0.49294  0.23040  0.49641  1.0000
  H   H607      1.0  0.66602  0.23795  0.25032  1.0000
  C   C340      1.0  0.66570  0.33712  0.01035  1.0000
  H   H608      1.0  0.66602  0.16691  0.46157  1.0000
  H   H609      1.0  0.50589  0.45396  0.49420  1.0000
  S   S71       1.0  0.49690  0.37628  0.54497  1.0000
  Fe  Fe37      1.0  0.45269  0.15514  0.60770  1.0000
  S   S72       1.0  0.49416  0.16534  0.61673  1.0000
  S   S73       1.0  0.44458  0.18928  0.60430  1.0000
  Fe  Fe38      1.0  0.43454  0.09631  0.61153  1.0000
  S   S74       1.0  0.47482  0.10344  0.62063  1.0000
  S   S75       1.0  0.40108  0.05512  0.60194  1.0000
  Fe  Fe39      1.0  0.47979  0.13579  0.65444  1.0000
  S   S76       1.0  0.50539  0.14269  0.69913  1.0000
  Fe  Fe40      1.0  0.48561  0.13237  0.58256  1.0000
  S   S77       1.0  0.51070  0.13627  0.54098  1.0000
  S   S78       1.0  0.43850  0.12705  0.64798  1.0000
  S   S79       1.0  0.44498  0.12373  0.57108  1.0000
  S   S80       1.0  0.61707  0.45196  0.53928  1.0000
  H   H610      1.0  0.37942  0.45545  0.55213  1.0000
  H   H611      1.0  0.43794  0.23390  0.60118  1.0000
  S   S81       1.0  0.57541  0.07784  0.54980  1.0000
  Fe  Fe41      1.0  0.57622  0.16651  0.89429  1.0000
  S   S82       1.0  0.58181  0.18197  0.94447  1.0000
  S   S83       1.0  0.60530  0.15703  0.87386  1.0000
  Fe  Fe42      1.0  0.52566  0.16634  0.88342  1.0000
  S   S84       1.0  0.52663  0.18174  0.93369  1.0000
  S   S85       1.0  0.49299  0.15823  0.84736  1.0000
  Fe  Fe43      1.0  0.56839  0.20834  0.92540  1.0000
  S   S86       1.0  0.59200  0.24897  0.94460  1.0000
  Fe  Fe44      1.0  0.54013  0.15418  0.94948  1.0000
  C   C341      1.0  0.41276  0.02050  0.63243  1.0000
  S   S87       1.0  0.56665  0.19551  0.87420  1.0000
  S   S88       1.0  0.53518  0.13615  0.90002  1.0000
  Fe  Fe45      1.0  0.60216  0.37141  0.89555  1.0000
  S   S89       1.0  0.61841  0.37737  0.94594  1.0000
  S   S90       1.0  0.57316  0.33190  0.87566  1.0000
  Fe  Fe46      1.0  0.63592  0.42718  0.87905  1.0000
  C   C342      1.0  0.55954  0.46973  0.64019  1.0000
  H   H612      1.0  0.66328  0.20220  0.98236  1.0000
  H   H613      1.0  0.40550  0.47404  0.52621  1.0000
  Fe  Fe47      1.0  0.61501  0.41316  0.94664  1.0000
  C   C343      1.0  0.55324  0.48362  0.61430  1.0000
  S   S91       1.0  0.64061  0.39227  0.87339  1.0000
  S   S92       1.0  0.59571  0.40576  0.89749  1.0000
  H   H614      1.0  0.63268  0.19620  0.77345  1.0000
  C   C344      1.0  0.58646  0.27139  0.92453  1.0000
  C   C345      1.0  0.60490  0.29741  0.92786  1.0000
  C   C346      1.0  0.60118  0.31581  0.91197  1.0000
  C   C347      1.0  0.57848  0.30849  0.89381  1.0000
  C   C348      1.0  0.55993  0.28241  0.89050  1.0000
  C   C349      1.0  0.56405  0.26376  0.90546  1.0000
  H   H615      1.0  0.62232  0.30330  0.94230  1.0000
  H   H616      1.0  0.61601  0.33563  0.91363  1.0000
  H   H617      1.0  0.54222  0.27680  0.87699  1.0000
  H   H618      1.0  0.54967  0.24364  0.90304  1.0000
  H   H619      1.0  0.51572  0.22519  0.62038  1.0000
  H   H620      1.0  0.35715  0.32792  0.52892  1.0000
  H   H621      1.0  0.57760  0.48537  0.78078  1.0000
  C   C350      1.0  0.49226  0.04857  0.62895  1.0000
  H   H622      1.0  0.47415  0.04341  0.64133  1.0000
  H   H623      1.0  0.48866  0.25757  0.54053  1.0000
  H   H624      1.0  0.42944  0.03719  0.64301  1.0000
  H   H625      1.0  0.65091  0.25952  0.91388  1.0000
  H   H626      1.0  0.47772  0.07160  0.82697  1.0000
  C   C351      1.0  0.39628  0.02394  0.61115  1.0000
  H   H627      1.0  0.40355  0.00898  0.76557  1.0000
  C   C352      1.0  0.55130  0.48106  0.53297  1.0000
  H   H628      1.0  0.61821  0.47326  0.73696  1.0000
  C   C353      1.0  0.53023  0.12169  0.54420  1.0000
  C   C354      1.0  0.53170  0.11037  0.57240  1.0000
  C   C355      1.0  0.54591  0.09725  0.57388  1.0000
  C   C356      1.0  0.55911  0.09574  0.54736  1.0000
  C   C357      1.0  0.55835  0.10770  0.51938  1.0000
  H   H629      1.0  0.58695  0.16060  0.76840  1.0000
  H   H630      1.0  0.52189  0.11172  0.59310  1.0000
  H   H631      1.0  0.54680  0.08832  0.59569  1.0000
  C   C358      1.0  0.63497  0.42720  0.78738  1.0000
  C   C359      1.0  0.50138  0.14760  0.74000  1.0000
  C   C360      1.0  0.47962  0.14834  0.75085  1.0000
  C   C361      1.0  0.47729  0.15175  0.78382  1.0000
  C   C362      1.0  0.49659  0.15432  0.80610  1.0000
  C   C363      1.0  0.51832  0.15366  0.79517  1.0000
  C   C364      1.0  0.52070  0.15037  0.76231  1.0000
  H   H632      1.0  0.46460  0.14618  0.73390  1.0000
  H   H633      1.0  0.46038  0.15217  0.79213  1.0000
  H   H634      1.0  0.53319  0.15545  0.81211  1.0000
  H   H635      1.0  0.53754  0.14973  0.75414  1.0000
  C   C365      1.0  0.53031  0.39680  0.54321  1.0000
  C   C366      1.0  0.54474  0.40928  0.57129  1.0000
  C   C367      1.0  0.57142  0.42593  0.57043  1.0000
  C   C368      1.0  0.58374  0.43063  0.54139  1.0000
  C   C369      1.0  0.54263  0.40112  0.51420  1.0000
  H   H636      1.0  0.66329  0.19926  0.81547  1.0000
  H   H637      1.0  0.53531  0.40584  0.59382  1.0000
  H   H638      1.0  0.58244  0.43494  0.59225  1.0000
  H   H639      1.0  0.55003  0.25745  0.78675  1.0000
  C   C370      1.0  0.43793  0.23505  0.51975  1.0000
  H   H640      1.0  0.56969  0.45212  0.74778  1.0000
  C   C371      1.0  0.44301  0.19902  0.53934  1.0000
  C   C372      1.0  0.44215  0.20642  0.57106  1.0000
  C   C373      1.0  0.43900  0.22816  0.57683  1.0000
  C   C374      1.0  0.43697  0.24240  0.55146  1.0000
  S   S93       1.0  0.65212  0.45842  0.84261  1.0000
  H   H641      1.0  0.44519  0.18227  0.53435  1.0000
  H   H642      1.0  0.59482  0.48287  0.84802  1.0000
  C   C375      1.0  0.38943  0.33167  0.55722  1.0000
  N   N20       1.0  0.43966  0.05646  0.73637  1.0000
  C   C376      1.0  0.42211  0.06795  0.73157  1.0000
  C   C377      1.0  0.44629  0.05783  0.77162  1.0000
  C   C378      1.0  0.46345  0.07152  0.71759  1.0000
  C   C379      1.0  0.42678  0.02867  0.72476  1.0000
  H   H643      1.0  0.48333  0.09417  0.77577  1.0000
  C   C380      1.0  0.40959  0.06425  0.69750  1.0000
  C   C381      1.0  0.48474  0.06365  0.72107  1.0000
  H   H644      1.0  0.50889  0.24080  0.56947  1.0000
  H   H645      1.0  0.50380  0.06983  0.62802  1.0000
  C   C382      1.0  0.39178  0.07604  0.69592  1.0000
  C   C383      1.0  0.50989  0.08373  0.70722  1.0000
  H   H646      1.0  0.43292  0.08908  0.73704  1.0000
  H   H647      1.0  0.40637  0.06037  0.74884  1.0000
  H   H648      1.0  0.60688  0.15021  0.94553  1.0000
  H   H649      1.0  0.49645  0.25099  0.60211  1.0000
  H   H650      1.0  0.47207  0.09245  0.72356  1.0000
  H   H651      1.0  0.45837  0.06963  0.69160  1.0000
  S   S94       1.0  0.60494  0.42637  0.99269  1.0000
  H   H652      1.0  0.59780  0.45430  0.84323  1.0000
  H   H653      1.0  0.52535  0.44828  0.56041  1.0000
  H   H654      1.0  0.41173  0.47894  0.72719  1.0000
  H   H655      1.0  0.42448  0.07367  0.67959  1.0000
  H   H656      1.0  0.39773  0.04362  0.69018  1.0000
  H   H657      1.0  0.47853  0.04501  0.70791  1.0000
  H   H658      1.0  0.48912  0.06161  0.74631  1.0000
  C   C384      1.0  0.52394  0.46063  0.54195  1.0000
  H   H659      1.0  0.65266  0.16044  0.96490  1.0000
  C   C385      1.0  0.59570  0.17115  0.79152  1.0000
  S   S95       1.0  0.52890  0.13088  0.99424  1.0000
  H   H660      1.0  0.38885  0.39648  0.51675  1.0000
  H   H661      1.0  0.38376  0.07380  0.67109  1.0000
  H   H662      1.0  0.37548  0.06616  0.71199  1.0000
  H   H663      1.0  0.63819  0.33731  0.80769  1.0000
  H   H664      1.0  0.52399  0.07654  0.70679  1.0000
  H   H665      1.0  0.50650  0.08806  0.68251  1.0000
  H   H666      1.0  0.51839  0.10185  0.72218  1.0000
  N   N21       1.0  0.51873  0.29366  0.56123  1.0000
  C   C386      1.0  0.53157  0.28245  0.58212  1.0000
  C   C387      1.0  0.53916  0.31904  0.54953  1.0000
  C   C388      1.0  0.49948  0.29705  0.58078  1.0000
  H   H667      1.0  0.46607  0.00032  0.54557  1.0000
  H   H668      1.0  0.49525  0.28425  0.51749  1.0000
  H   H669      1.0  0.38962  0.45866  0.69547  1.0000
  C   C389      1.0  0.48585  0.31055  0.56433  1.0000
  C   C390      1.0  0.55258  0.34124  0.57524  1.0000
  C   C391      1.0  0.57417  0.36520  0.56098  1.0000
  H   H670      1.0  0.50176  0.04012  0.53248  1.0000
  H   H671      1.0  0.58283  0.38117  0.57940  1.0000
  C   C392      1.0  0.46919  0.31550  0.58768  1.0000
  H   H672      1.0  0.53889  0.29394  0.60502  1.0000
  H   H673      1.0  0.54903  0.28392  0.57092  1.0000
  H   H674      1.0  0.39739  0.44153  0.53443  1.0000
  H   H675      1.0  0.53112  0.32582  0.53006  1.0000
  H   H676      1.0  0.50868  0.30772  0.60378  1.0000
  H   H677      1.0  0.48382  0.27809  0.58772  1.0000
  H   H678      1.0  0.62149  0.24301  0.86791  1.0000
  H   H679      1.0  0.60369  0.46031  0.78580  1.0000
  C   C393      1.0  0.50902  0.44292  0.51311  1.0000
  H   H680      1.0  0.43623  0.03238  0.50385  1.0000
  C   C394      1.0  0.57278  0.49160  0.58718  1.0000
  H   H681      1.0  0.64078  0.24819  0.76753  1.0000
  H   H682      1.0  0.47298  0.29839  0.54412  1.0000
  H   H683      1.0  0.49987  0.32931  0.55508  1.0000
  H   H684      1.0  0.53874  0.34678  0.58521  1.0000
  H   H685      1.0  0.56124  0.33566  0.59513  1.0000
  C   C395      1.0  0.65503  0.16925  0.88873  1.0000
  H   H686      1.0  0.63657  0.11142  0.97939  1.0000
  H   H687      1.0  0.56648  0.37150  0.54073  1.0000
  C   C396      1.0  0.39891  0.45954  0.54491  1.0000
  H   H688      1.0  0.37724  0.28900  0.52086  1.0000
  H   H689      1.0  0.45542  0.09764  0.78352  1.0000
  H   H690      1.0  0.57056  0.45517  0.82473  1.0000
  H   H691      1.0  0.55921  0.45217  0.62995  1.0000
  S   S96       1.0  0.65463  0.43765  0.92847  1.0000
  H   H692      1.0  0.45460  0.29721  0.59767  1.0000
  H   H693      1.0  0.48143  0.32905  0.60743  1.0000
  H   H694      1.0  0.45896  0.32431  0.57502  1.0000
  C   C397      1.0  0.36429  0.31500  0.53781  1.0000
  H   H695      1.0  0.54618  0.24696  0.60399  1.0000
  H   H696      1.0  0.56115  0.11708  0.95149  1.0000
  C   C398      1.0  0.64534  0.44386  0.73376  1.0000
  H   H697      1.0  0.57886  0.48267  0.65156  1.0000
  N   N22       1.0  0.51177  0.24047  0.80609  1.0000
  C   C399      1.0  0.53905  0.24480  0.80609  1.0000
  C   C400      1.0  0.51174  0.26585  0.81033  1.0000
  C   C401      1.0  0.49910  0.22451  0.83443  1.0000
  C   C402      1.0  0.49624  0.22569  0.77637  1.0000
  C   C403      1.0  0.50784  0.23672  0.74401  1.0000
  C   C404      1.0  0.54185  0.22029  0.80258  1.0000
  C   C405      1.0  0.47152  0.21973  0.84107  1.0000
  C   C406      1.0  0.49199  0.21810  0.71623  1.0000
  C   C407      1.0  0.56997  0.22717  0.79912  1.0000
  C   C408      1.0  0.46170  0.20473  0.87139  1.0000
  H   H698      1.0  0.54969  0.25530  0.82864  1.0000
  H   H699      1.0  0.49334  0.26409  0.80045  1.0000
  H   H700      1.0  0.51238  0.27111  0.83617  1.0000
  H   H701      1.0  0.51140  0.23336  0.85659  1.0000
  H   H702      1.0  0.49723  0.20512  0.83140  1.0000
  H   H703      1.0  0.49220  0.20537  0.77653  1.0000
  H   H704      1.0  0.47685  0.22429  0.77602  1.0000
  H   H705      1.0  0.52782  0.24004  0.74235  1.0000
  H   H706      1.0  0.50759  0.25500  0.74050  1.0000
  H   H707      1.0  0.53511  0.20869  0.82408  1.0000
  H   H708      1.0  0.53084  0.20824  0.78123  1.0000
  H   H709      1.0  0.45780  0.20816  0.82113  1.0000
  H   H710      1.0  0.47099  0.23802  0.84436  1.0000
  H   H711      1.0  0.49239  0.19967  0.71786  1.0000
  H   H712      1.0  0.47164  0.21409  0.71618  1.0000
  H   H713      1.0  0.50022  0.22663  0.69320  1.0000
  H   H714      1.0  0.57116  0.20917  0.79680  1.0000
  H   H715      1.0  0.58173  0.23854  0.82057  1.0000
  H   H716      1.0  0.46109  0.18579  0.86896  1.0000
  H   H717      1.0  0.47440  0.21572  0.89241  1.0000
  H   H718      1.0  0.44190  0.20130  0.87565  1.0000
  H   H719      1.0  0.61609  0.12575  0.94350  1.0000
  H   H720      1.0  0.43410  0.25870  0.55642  1.0000
  H   H721      1.0  0.39687  0.31954  0.56795  1.0000
  C   C409      1.0  0.63273  0.42317  0.75393  1.0000
  S   S97       1.0  0.62367  0.05889  0.51999  1.0000
  H   H722      1.0  0.54986  0.48925  0.50994  1.0000
  H   H723      1.0  0.64801  0.23365  0.97542  1.0000
  H   H724      1.0  0.61181  0.31644  0.99706  1.0000
  C   C410      1.0  0.46420  0.08509  0.78667  1.0000
  H   H725      1.0  0.54498  0.46390  0.65882  1.0000
  H   H726      1.0  0.42817  0.03691  0.54289  1.0000
  H   H727      1.0  0.57434  0.11180  0.91565  1.0000
  H   H728      1.0  0.56143  0.46994  0.52739  1.0000
  H   H729      1.0  0.51246  0.30955  0.78453  1.0000
  H   H730      1.0  0.62915  0.20822  0.90365  1.0000
  H   H731      1.0  0.57779  0.23830  0.77742  1.0000
  H   H732      1.0  0.62475  0.41121  0.80265  1.0000
  H   H733      1.0  0.41075  0.45366  0.59130  1.0000
  Fe  Fe48      1.0  0.65642  0.40110  0.92398  1.0000
  C   C411      1.0  0.53440  0.28999  0.79647  1.0000
  H   H734      1.0  0.52774  0.31755  0.82423  1.0000
  Fe  Fe49      1.0  0.65335  0.46850  0.65445  1.0000
  H   H735      1.0  0.62079  0.40397  0.74361  1.0000
  H   H736      1.0  0.48228  0.10360  0.83254  1.0000
  Fe  Fe50      1.0  0.64063  0.47265  0.58425  1.0000
  S   S98       1.0  0.62277  0.47425  0.62977  1.0000
  C   C412      1.0  0.64750  0.35583  0.79543  1.0000
  H   H737      1.0  0.53720  0.28677  0.77111  1.0000
  H   H738      1.0  0.54684  0.33033  0.78986  1.0000
  C   C413      1.0  0.57806  0.46048  0.72481  1.0000
  H   H739      1.0  0.51968  0.43349  0.50318  1.0000
  C   C414      1.0  0.52995  0.31319  0.79892  1.0000
  H   H740      1.0  0.55262  0.29524  0.81033  1.0000
  H   H741      1.0  0.36189  0.00425  0.58074  1.0000
  H   H742      1.0  0.58037  0.17184  0.80552  1.0000
  H   H743      1.0  0.41839  0.07118  0.52518  1.0000
  H   H744      1.0  0.64985  0.15039  0.87857  1.0000
  H   H745      1.0  0.50503  0.04154  0.58443  1.0000
  H   H746      1.0  0.63105  0.20353  0.83536  1.0000
  H   H747      1.0  0.60179  0.49396  0.51708  1.0000
  C   C415      1.0  0.45168  0.00646  0.53880  1.0000
  S   S99       1.0  0.43571  0.32141  0.50323  1.0000
  H   H748      1.0  0.57013  0.31619  0.99596  1.0000
  C   C416      1.0  0.47043  0.04565  0.57507  1.0000
  H   H749      1.0  0.56858  0.10664  0.49887  1.0000
  H   H750      1.0  0.38595  0.34241  0.57678  1.0000
  H   H751      1.0  0.53318  0.47087  0.60540  1.0000
  C   C417      1.0  0.46886  0.08398  0.82247  1.0000
  C   C418      1.0  0.45544  0.07203  0.52233  1.0000
  H   H752      1.0  0.42049  0.45977  0.70180  1.0000
  C   C419      1.0  0.63660  0.17744  0.88961  1.0000
  C   C420      1.0  0.42022  0.48367  0.64462  1.0000
  C   C421      1.0  0.59149  0.46681  0.83106  1.0000
  C   C422      1.0  0.50470  0.27595  0.53274  1.0000
  H   H753      1.0  0.40433  0.34582  0.54192  1.0000
  H   H754      1.0  0.51245  0.46945  0.55073  1.0000
  N   N23       1.0  0.65096  0.24086  0.81446  1.0000
  H   H755      1.0  0.55472  0.31662  0.53836  1.0000
  C   C423      1.0  0.41803  0.46893  0.57360  1.0000
  Fe  Fe51      1.0  0.60145  0.07980  0.51037  1.0000
  C   C424      1.0  0.52153  0.26982  0.51020  1.0000
  H   H756      1.0  0.38666  0.01788  0.73670  1.0000
  H   H757      1.0  0.35020  0.30162  0.55446  1.0000
  H   H758      1.0  0.50403  0.49745  0.63101  1.0000
  H   H759      1.0  0.39922  0.47405  0.63791  1.0000
  H   H760      1.0  0.62568  0.25549  0.79896  1.0000
  H   H761      1.0  0.58453  0.44546  0.67988  1.0000
  H   H762      1.0  0.42839  0.04958  0.78540  1.0000
  H   H763      1.0  0.45049  0.07650  0.83508  1.0000
  C   C425      1.0  0.59901  0.49508  0.78362  1.0000
  H   H764      1.0  0.61115  0.21680  0.82615  1.0000
  H   H765      1.0  0.65902  0.35953  0.89591  1.0000
  H   H766      1.0  0.45520  0.04557  0.77692  1.0000
  H   H767      1.0  0.50363  0.04164  0.64292  1.0000
  H   H768      1.0  0.60933  0.20706  0.76886  1.0000
  H   H769      1.0  0.64961  0.35191  0.76996  1.0000
  H   H770      1.0  0.57040  0.09225  0.94943  1.0000
  H   H771      1.0  0.55570  0.42352  0.69932  1.0000
  H   H772      1.0  0.58958  0.36136  0.55241  1.0000
  H   H773      1.0  0.42521  0.46787  0.64412  1.0000
  C   C426      1.0  0.44056  0.21303  0.51394  1.0000
  H   H774      1.0  0.40256  0.09689  0.70278  1.0000
  H   H775      1.0  0.44262  0.09807  0.50477  1.0000
  C   C427      1.0  0.65556  0.12863  0.98510  1.0000
  H   H776      1.0  0.48180  0.06700  0.57574  1.0000
  H   H777      1.0  0.46019  0.48700  0.60854  1.0000
  H   H778      1.0  0.53323  0.26292  0.52341  1.0000
  C   C428      1.0  0.51438  0.25396  0.59093  1.0000
  H   H779      1.0  0.58678  0.42943  0.71481  1.0000
  C   C429      1.0  0.57621  0.43844  0.70337  1.0000
  S   S100      1.0  0.64096  0.43793  0.69189  1.0000
  C   C430      1.0  0.54382  0.12059  0.51778  1.0000
  H   H780      1.0  0.57549  0.47488  0.58046  1.0000
  C   C431      1.0  0.42172  0.49479  0.58819  1.0000
  C   C432      1.0  0.61731  0.19823  0.78551  1.0000
  C   C433      1.0  0.64417  0.25650  0.79238  1.0000
  C   C434      1.0  0.56925  0.41819  0.51328  1.0000
  C   C435      1.0  0.52857  0.24554  0.61455  1.0000
  H   H781      1.0  0.43655  0.47137  0.56478  1.0000
  C   C436      1.0  0.64009  0.26047  0.86406  1.0000
  N   N24       1.0  0.46383  0.03537  0.54092  1.0000
  H   H782      1.0  0.46252  0.08312  0.54542  1.0000
  H   H783      1.0  0.57253  0.37102  0.98725  1.0000
  C   C437      1.0  0.66453  0.28533  0.79083  1.0000
  C   C438      1.0  0.48632  0.03628  0.59523  1.0000
  C   C439      1.0  0.41033  0.47128  0.70235  1.0000
  C   C440      1.0  0.62752  0.21480  0.81710  1.0000
  C   C441      1.0  0.64335  0.20181  0.90287  1.0000
  C   C442      1.0  0.60478  0.13216  0.99147  1.0000
  H   H784      1.0  0.53394  0.25753  0.63706  1.0000
  H   H785      1.0  0.63908  0.28155  0.90637  1.0000
  C   C443      1.0  0.48841  0.04668  0.52287  1.0000
  H   H786      1.0  0.60351  0.16033  0.80476  1.0000
  C   C444      1.0  0.60269  0.13143  0.95448  1.0000
  C   C445      1.0  0.57546  0.11191  0.94214  1.0000
  H   H787      1.0  0.43957  0.02025  0.72979  1.0000
  H   H788      1.0  0.56598  0.46783  0.71352  1.0000
  H   H789      1.0  0.61304  0.48923  0.70518  1.0000
  H   H790      1.0  0.45269  0.04134  0.58797  1.0000
  C   C446      1.0  0.40063  0.01068  0.73968  1.0000
  H   H791      1.0  0.66273  0.24129  0.86355  1.0000
  H   H792      1.0  0.47149  0.07968  0.50564  1.0000
  C   C447      1.0  0.64996  0.45201  0.80091  1.0000
  H   H793      1.0  0.49921  0.06796  0.52659  1.0000
  H   H794      1.0  0.63474  0.36463  0.79701  1.0000
  C   C448      1.0  0.44483  0.04289  0.52710  1.0000
  H   H795      1.0  0.42393  0.02705  0.69841  1.0000
  H   H796      1.0  0.63610  0.27373  0.84995  1.0000
  H   H797      1.0  0.40211  0.49281  0.58915  1.0000
  C   C449      1.0  0.60644  0.48223  0.72942  1.0000
  H   H798      1.0  0.66579  0.13295  0.93513  1.0000
  H   H799      1.0  0.33671  0.25252  0.52212  1.0000
  C   C450      1.0  0.43441  0.07716  0.50846  1.0000
  H   H800      1.0  0.63768  0.29717  0.77137  1.0000
  C   C451      1.0  0.60690  0.47712  0.80114  1.0000
  H   H801      1.0  0.65517  0.28989  0.74161  1.0000
  H   H802      1.0  0.47566  0.01514  0.59752  1.0000
  H   H803      1.0  0.65127  0.36216  0.99271  1.0000
  H   H804      1.0  0.48996  0.42761  0.52047  1.0000
  C   C452      1.0  0.36866  0.30009  0.50984  1.0000
  C   C453      1.0  0.65655  0.29863  0.76579  1.0000
  H   H805      1.0  0.63134  0.18748  0.96450  1.0000
  C   C454      1.0  0.64096  0.22020  0.99530  1.0000
  H   H806      1.0  0.47081  0.49729  0.66511  1.0000
  C   C455      1.0  0.64273  0.19603  0.98677  1.0000
  C   C456      1.0  0.42265  0.49361  0.67992  1.0000
  H   H807      1.0  0.62760  0.48788  0.80886  1.0000
  Fe  Fe52      1.0  0.47759  0.35115  0.50082  1.0000
  C   C457      1.0  0.65314  0.15333  0.98908  1.0000
  C   C458      1.0  0.37482  0.00192  0.59725  1.0000
  H   H808      1.0  0.36087  0.48074  0.98678  1.0000
  C   C459      1.0  0.65919  0.25366  0.84731  1.0000
  C   C460      1.0  0.65108  0.27358  0.89688  1.0000
  H   H809      1.0  0.66535  0.33757  0.95843  1.0000
  C   C461      1.0  0.66081  0.46857  0.74733  1.0000
  Fe  Fe53      1.0  0.65725  0.09359  0.49941  1.0000
  H   H810      1.0  0.53472  0.28726  0.49746  1.0000
  C   C462      1.0  0.66312  0.47258  0.78077  1.0000
  Fe  Fe54      1.0  0.53205  0.84563  0.46909  1.0000
  S   S101      1.0  0.49234  0.84093  0.46387  1.0000
  C   C463      1.0  0.35296  0.53705  0.36039  1.0000
  H   H811      1.0  0.35004  0.78762  0.46152  1.0000
  H   H812      1.0  0.53312  0.96237  0.34964  1.0000
  H   H813      1.0  0.35879  0.54295  0.41225  1.0000
  Fe  Fe55      1.0  0.48224  0.80461  0.43473  1.0000
  S   S102      1.0  0.45247  0.79350  0.39359  1.0000
  Fe  Fe56      1.0  0.35848  0.51510  0.21634  1.0000
  S   S103      1.0  0.52284  0.81075  0.43700  1.0000
  H   H814      1.0  0.36963  0.65098  0.26516  1.0000
  H   H815      1.0  0.35031  0.63290  0.14284  1.0000
  H   H816      1.0  0.45645  0.65068  0.02297  1.0000
  Fe  Fe57      1.0  0.37319  0.57030  0.20146  1.0000
  C   C464      1.0  0.44931  0.65719  0.46513  1.0000
  S   S104      1.0  0.39281  0.60952  0.22626  1.0000
  C   C465      1.0  0.41902  0.86073  0.04695  1.0000
  Fe  Fe58      1.0  0.37575  0.53535  0.14894  1.0000
  S   S105      1.0  0.40045  0.53422  0.10908  1.0000
  H   H817      1.0  0.46099  0.88272  0.46415  1.0000
  S   S106      1.0  0.39436  0.54798  0.19819  1.0000
  Fe  Fe59      1.0  0.43123  0.77425  0.20614  1.0000
  S   S107      1.0  0.43396  0.75941  0.15703  1.0000
  S   S108      1.0  0.46467  0.78801  0.24305  1.0000
  Fe  Fe60      1.0  0.37657  0.76348  0.19211  1.0000
  S   S109      1.0  0.37439  0.74780  0.14234  1.0000
  H   H818      1.0  0.42956  0.65492  0.46622  1.0000
  Fe  Fe61      1.0  0.39398  0.72756  0.16367  1.0000
  S   S110      1.0  0.37814  0.68750  0.14268  1.0000
  Fe  Fe62      1.0  0.41418  0.78069  0.13823  1.0000
  S   S111      1.0  0.42694  0.79861  0.09017  1.0000
  S   S112      1.0  0.39277  0.74004  0.21417  1.0000
  S   S113      1.0  0.41509  0.79875  0.18672  1.0000
  H   H819      1.0  0.48431  0.64520  0.46045  1.0000
  C   C466      1.0  0.35993  0.78087  0.04118  1.0000
  C   C467      1.0  0.37772  0.78375  0.06586  1.0000
  C   C468      1.0  0.40367  0.79284  0.05938  1.0000
  C   C469      1.0  0.41153  0.79848  0.02786  1.0000
  H   H820      1.0  0.41763  0.85458  0.48766  1.0000
  H   H821      1.0  0.53898  0.71756  0.49290  1.0000
  H   H822      1.0  0.37150  0.77977  0.09009  1.0000
  H   H823      1.0  0.43159  0.80560  0.02269  1.0000
  H   H824      1.0  0.43943  0.56063  0.29962  1.0000
  C   C470      1.0  0.38601  0.63119  0.20638  1.0000
  C   C471      1.0  0.36730  0.62236  0.18152  1.0000
  C   C472      1.0  0.36415  0.63982  0.16285  1.0000
  C   C473      1.0  0.37921  0.66619  0.16962  1.0000
  C   C474      1.0  0.39640  0.67512  0.19619  1.0000
  C   C475      1.0  0.40012  0.65758  0.21432  1.0000
  C   C476      1.0  0.35394  0.74975  0.30162  1.0000
  H   H825      1.0  0.35532  0.60310  0.10007  1.0000
  H   H826      1.0  0.40785  0.69557  0.20163  1.0000
  H   H827      1.0  0.41443  0.66450  0.23382  1.0000
  C   C477      1.0  0.46321  0.68800  0.14817  1.0000
  C   C478      1.0  0.43917  0.56166  0.02888  1.0000
  C   C479      1.0  0.43089  0.55032  0.05821  1.0000
  C   C480      1.0  0.40921  0.54929  0.07202  1.0000
  C   C481      1.0  0.39547  0.55952  0.05573  1.0000
  C   C482      1.0  0.40339  0.57029  0.02546  1.0000
  C   C483      1.0  0.46875  0.68649  0.46674  1.0000
  H   H828      1.0  0.44161  0.54249  0.07050  1.0000
  H   H829      1.0  0.37879  0.55894  0.06634  1.0000
  C   C484      1.0  0.47775  0.90114  0.45770  1.0000
  C   C485      1.0  0.45624  0.79161  0.35188  1.0000
  C   C486      1.0  0.43552  0.78692  0.33073  1.0000
  C   C487      1.0  0.43771  0.78551  0.29741  1.0000
  C   C488      1.0  0.46078  0.78902  0.28486  1.0000
  C   C489      1.0  0.48153  0.79378  0.30603  1.0000
  C   C490      1.0  0.47918  0.79477  0.33938  1.0000
  H   H830      1.0  0.41765  0.78437  0.34015  1.0000
  H   H831      1.0  0.42164  0.78194  0.28141  1.0000
  H   H832      1.0  0.49939  0.79636  0.29654  1.0000
  H   H833      1.0  0.49501  0.79772  0.35539  1.0000
  H   H834      1.0  0.48680  0.65924  0.04401  1.0000
  H   H835      1.0  0.40153  0.60431  0.29288  1.0000
  H   H836      1.0  0.41603  0.60884  0.43674  1.0000
  H   H837      1.0  0.35502  0.57455  0.36368  1.0000
  H   H838      1.0  0.40381  0.64046  0.06549  1.0000
  H   H839      1.0  0.39055  0.73265  0.05683  1.0000
  H   H840      1.0  0.43857  0.88341  0.00738  1.0000
  C   C491      1.0  0.55356  0.92066  0.45223  1.0000
  H   H841      1.0  0.48892  0.69008  0.46789  1.0000
  H   H842      1.0  0.43448  0.64280  0.35323  1.0000
  N   N25       1.0  0.37231  0.57342  0.31922  1.0000
  H   H843      1.0  0.61076  0.80793  0.46824  1.0000
  C   C492      1.0  0.58111  0.96754  0.45978  1.0000
  C   C493      1.0  0.55016  0.95950  0.35308  1.0000
  H   H844      1.0  0.44510  0.60663  0.44095  1.0000
  H   H845      1.0  0.45060  0.65012  0.44079  1.0000
  H   H846      1.0  0.35105  0.72560  0.03495  1.0000
  H   H847      1.0  0.34453  0.67551  0.28972  1.0000
  C   C494      1.0  0.41083  0.71072  0.05039  1.0000
  H   H848      1.0  0.56604  0.97381  0.33899  1.0000
  H   H849      1.0  0.41722  0.55249  0.26589  1.0000
  C   C495      1.0  0.39623  0.59943  0.31810  1.0000
  C   C496      1.0  0.34357  0.72071  0.29810  1.0000
  H   H850      1.0  0.36656  0.52935  0.35822  1.0000
  H   H851      1.0  0.42246  0.71774  0.10100  1.0000
  H   H852      1.0  0.36031  0.53534  0.29857  1.0000
  H   H853      1.0  0.51554  0.62823  0.46823  1.0000
  H   H854      1.0  0.33645  0.52557  0.34355  1.0000
  H   H855      1.0  0.43657  0.86141  0.05795  1.0000
  H   H856      1.0  0.45630  0.56263  0.01903  1.0000
  C   C497      1.0  0.37737  0.55475  0.29986  1.0000
  H   H857      1.0  0.49126  0.89700  0.44423  1.0000
  S   S114      1.0  0.47009  0.77911  0.47695  1.0000
  H   H858      1.0  0.40222  0.84182  0.05186  1.0000
  H   H859      1.0  0.34003  0.77443  0.04660  1.0000
  C   C498      1.0  0.59208  0.80777  0.47049  1.0000
  H   H860      1.0  0.43498  0.74645  0.07811  1.0000
  C   C499      1.0  0.42321  0.56290  0.28956  1.0000
  S   S115      1.0  0.58531  0.99901  0.45409  1.0000
  H   H861      1.0  0.34750  0.59062  0.31526  1.0000
  H   H862      1.0  0.40562  0.74709  0.00840  1.0000
  H   H863      1.0  0.41272  0.61363  0.49295  1.0000
  C   C500      1.0  0.43030  0.72593  0.07770  1.0000
  H   H864      1.0  0.35554  0.60211  0.17625  1.0000
  H   H865      1.0  0.36791  0.59575  0.06467  1.0000
  H   H866      1.0  0.47255  0.66570  0.09750  1.0000
  C   C501      1.0  0.35040  0.57552  0.30308  1.0000
  N   N26       1.0  0.45327  0.64142  0.49022  1.0000
  H   H867      1.0  0.41632  0.87626  0.05834  1.0000
  C   C502      1.0  0.41046  0.57250  0.45224  1.0000
  C   C503      1.0  0.57266  0.91647  0.46658  1.0000
  H   H868      1.0  0.45161  0.69997  0.19144  1.0000
  H   H869      1.0  0.44559  0.69684  0.43541  1.0000
  C   C504      1.0  0.36184  0.78884  0.48301  1.0000
  H   H870      1.0  0.40293  0.77640  0.43584  1.0000
  H   H871      1.0  0.38667  0.61791  0.35805  1.0000
  H   H872      1.0  0.35525  0.58161  0.27806  1.0000
  C   C505      1.0  0.43631  0.66621  0.13585  1.0000
  H   H873      1.0  0.41965  0.66273  0.34791  1.0000
  H   H874      1.0  0.34550  0.63404  0.29394  1.0000
  N   N27       1.0  0.36503  0.69839  0.02783  1.0000
  S   S116      1.0  0.34275  0.76302  0.21620  1.0000
  H   H875      1.0  0.42992  0.65179  0.31358  1.0000
  H   H876      1.0  0.47922  0.72050  0.43953  1.0000
  H   H877      1.0  0.42009  0.71892  0.02774  1.0000
  C   C506      1.0  0.33911  0.67356  0.26381  1.0000
  H   H878      1.0  0.35736  0.68663  0.25214  1.0000
  C   C507      1.0  0.34908  0.63671  0.26808  1.0000
  H   H879      1.0  0.37995  0.56013  0.27437  1.0000
  H   H880      1.0  0.34393  0.68365  0.20049  1.0000
  H   H881      1.0  0.33994  0.62060  0.00193  1.0000
  C   C508      1.0  0.42138  0.64635  0.33737  1.0000
  C   C509      1.0  0.39473  0.62248  0.33398  1.0000
  C   C510      1.0  0.42658  0.60176  0.45210  1.0000
  C   C511      1.0  0.35569  0.66987  0.02869  1.0000
  H   H882      1.0  0.44839  0.72508  0.07451  1.0000
  S   S117      1.0  0.56876  0.88494  0.47039  1.0000
  N   N28       1.0  0.51472  0.88419  0.35558  1.0000
  C   C512      1.0  0.53804  0.88212  0.36654  1.0000
  C   C513      1.0  0.52079  0.91187  0.36013  1.0000
  C   C514      1.0  0.49298  0.86833  0.37721  1.0000
  C   C515      1.0  0.50576  0.87422  0.32149  1.0000
  C   C516      1.0  0.52668  0.87764  0.29754  1.0000
  C   C517      1.0  0.53360  0.85440  0.36944  1.0000
  C   C518      1.0  0.46859  0.87157  0.37372  1.0000
  C   C519      1.0  0.54374  0.93229  0.34198  1.0000
  C   C520      1.0  0.51490  0.86924  0.26363  1.0000
  C   C521      1.0  0.55908  0.85422  0.37469  1.0000
  C   C522      1.0  0.44578  0.85067  0.39063  1.0000
  H   H883      1.0  0.54547  0.89207  0.39042  1.0000
  H   H884      1.0  0.55428  0.89219  0.35054  1.0000
  H   H885      1.0  0.50402  0.91416  0.35228  1.0000
  H   H886      1.0  0.52442  0.91765  0.38607  1.0000
  H   H887      1.0  0.49986  0.87273  0.40272  1.0000
  H   H888      1.0  0.48636  0.84746  0.37303  1.0000
  H   H889      1.0  0.49186  0.85314  0.32062  1.0000
  H   H890      1.0  0.49462  0.88314  0.31127  1.0000
  H   H891      1.0  0.53552  0.86555  0.30369  1.0000
  H   H892      1.0  0.54239  0.89775  0.29723  1.0000
  H   H893      1.0  0.52160  0.84533  0.39012  1.0000
  H   H894      1.0  0.52356  0.84245  0.34769  1.0000
  H   H895      1.0  0.46260  0.87071  0.34824  1.0000
  H   H896      1.0  0.47255  0.89036  0.38470  1.0000
  H   H897      1.0  0.53856  0.93025  0.31608  1.0000
  H   H898      1.0  0.53005  0.87130  0.24702  1.0000
  H   H899      1.0  0.49960  0.84871  0.26260  1.0000
  H   H900      1.0  0.50650  0.88129  0.25540  1.0000
  H   H901      1.0  0.57172  0.86267  0.35427  1.0000
  H   H902      1.0  0.56923  0.86528  0.39710  1.0000
  H   H903      1.0  0.55523  0.83411  0.37673  1.0000
  H   H904      1.0  0.42989  0.85545  0.39135  1.0000
  H   H905      1.0  0.43840  0.83191  0.37736  1.0000
  H   H906      1.0  0.45144  0.84887  0.41549  1.0000
  C   C523      1.0  0.40808  0.62403  0.11050  1.0000
  C   C524      1.0  0.39343  0.63323  0.08780  1.0000
  C   C525      1.0  0.45343  0.59451  0.16008  1.0000
  C   C526      1.0  0.36653  0.61120  0.07844  1.0000
  H   H907      1.0  0.39704  0.61780  0.13270  1.0000
  H   H908      1.0  0.40626  0.60616  0.09918  1.0000
  H   H909      1.0  0.44310  0.63502  0.16753  1.0000
  H   H910      1.0  0.42354  0.65977  0.15648  1.0000
  H   H911      1.0  0.39075  0.64862  0.09958  1.0000
  H   H912      1.0  0.41707  0.59170  0.14685  1.0000
  H   H913      1.0  0.45271  0.59953  0.18560  1.0000
  H   H914      1.0  0.47377  0.60409  0.15279  1.0000
  H   H915      1.0  0.40666  0.56426  0.42740  1.0000
  H   H916      1.0  0.55664  0.96320  0.37870  1.0000
  C   C527      1.0  0.36780  0.78655  0.00971  1.0000
  H   H917      1.0  0.40699  0.69054  0.05096  1.0000
  H   H918      1.0  0.47066  0.91136  0.44203  1.0000
  H   H919      1.0  0.40282  0.80638  0.44181  1.0000
  H   H920      1.0  0.43752  0.59587  0.11427  1.0000
  H   H921      1.0  0.59198  0.82261  0.45501  1.0000
  C   C528      1.0  0.47922  0.64293  0.48603  1.0000
  H   H922      1.0  0.41303  0.59903  0.32976  1.0000
  C   C529      1.0  0.59597  0.93799  0.47749  1.0000
  C   C530      1.0  0.36672  0.56624  0.35365  1.0000
  H   H923      1.0  0.44560  0.57336  0.15740  1.0000
  H   H924      1.0  0.44900  0.71534  0.15585  1.0000
  H   H925      1.0  0.37533  0.77901  0.42211  1.0000
  C   C531      1.0  0.43726  0.60239  0.13908  1.0000
  H   H926      1.0  0.42106  0.56442  0.46565  1.0000
  C   C532      1.0  0.40064  0.55149  0.31190  1.0000
  H   H927      1.0  0.36893  0.75991  0.28395  1.0000
  Fe  Fe63      1.0  0.51122  0.78726  0.48142  1.0000
  H   H928      1.0  0.47373  0.68055  0.16284  1.0000
  N   N29       1.0  0.43590  0.64321  0.11916  1.0000
  C   C533      1.0  0.44718  0.63182  0.14244  1.0000
  H   H929      1.0  0.42847  0.67562  0.11990  1.0000
  H   H930      1.0  0.43006  0.58363  0.28631  1.0000
  H   H931      1.0  0.56156  0.93093  0.34579  1.0000
  H   H932      1.0  0.38487  0.57504  0.36880  1.0000
  H   H933      1.0  0.54300  0.94897  0.43736  1.0000
  C   C534      1.0  0.46072  0.70821  0.16870  1.0000
  H   H934      1.0  0.35609  0.61846  0.06331  1.0000
  H   H935      1.0  0.46860  0.64182  0.14147  1.0000
  H   H936      1.0  0.53566  0.90440  0.44352  1.0000
  H   H937      1.0  0.44606  0.66426  0.07567  1.0000
  H   H938      1.0  0.37802  0.70386  0.07745  1.0000
  H   H939      1.0  0.43282  0.61660  0.06020  1.0000
  H   H940      1.0  0.46275  0.62268  0.08015  1.0000
  H   H941      1.0  0.48014  0.72480  0.17457  1.0000
  H   H942      1.0  0.40762  0.55969  0.33645  1.0000
  C   C535      1.0  0.45203  0.65247  0.09016  1.0000
  C   C536      1.0  0.45249  0.63162  0.06792  1.0000
  H   H943      1.0  0.39434  0.53065  0.31312  1.0000
  H   H944      1.0  0.34124  0.70420  0.08576  1.0000
  H   H945      1.0  0.36279  0.75686  0.32594  1.0000
  H   H946      1.0  0.38250  0.62774  0.31892  1.0000
  H   H947      1.0  0.47514  0.69802  0.12776  1.0000
  H   H948      1.0  0.35161  0.66317  0.05353  1.0000
  C   C537      1.0  0.55783  0.94598  0.44871  1.0000
  H   H949      1.0  0.46985  0.60217  0.48205  1.0000
  H   H950      1.0  0.33812  0.75445  0.29779  1.0000
  S   S118      1.0  0.35760  0.56057  0.15063  1.0000
  H   H951      1.0  0.37121  0.66565  0.02137  1.0000
  H   H952      1.0  0.34727  0.72040  0.24754  1.0000
  C   C538      1.0  0.42548  0.57146  0.01209  1.0000
  H   H953      1.0  0.36011  0.71726  0.30274  1.0000
  C   C539      1.0  0.42202  0.86421  0.01100  1.0000
  C   C540      1.0  0.38554  0.71203  0.05399  1.0000
  C   C541      1.0  0.39055  0.78512  0.44137  1.0000
  C   C542      1.0  0.60013  0.96333  0.47431  1.0000
  H   H954      1.0  0.57611  0.78870  0.46192  1.0000
  C   C543      1.0  0.46705  0.64335  0.03781  1.0000
  C   C544      1.0  0.46545  0.69952  0.43738  1.0000
  H   H955      1.0  0.46953  0.69167  0.41528  1.0000
  C   C545      1.0  0.34344  0.70441  0.03336  1.0000
  H   H956      1.0  0.39170  0.56666  0.46339  1.0000
  H   H957      1.0  0.36700  0.75508  0.47282  1.0000
  H   H958      1.0  0.37930  0.50998  0.01091  1.0000
  H   H959      1.0  0.39298  0.57832  0.01295  1.0000
  C   C546      1.0  0.37860  0.77638  0.47376  1.0000
  H   H960      1.0  0.37522  0.80981  0.48725  1.0000
  H   H961      1.0  0.34352  0.52430  0.03289  1.0000
  H   H962      1.0  0.46566  0.69608  0.48793  1.0000
  C   C547      1.0  0.43110  0.61428  0.48628  1.0000
  C   C548      1.0  0.39364  0.79522  0.00306  1.0000
  S   S119      1.0  0.52233  0.75536  0.48732  1.0000
  C   C549      1.0  0.34292  0.53210  0.39417  1.0000
  S   S120      1.0  0.33865  0.53852  0.22289  1.0000
  H   H963      1.0  0.34520  0.61804  0.25673  1.0000
  H   H964      1.0  0.44624  0.83527  0.49347  1.0000
  H   H965      1.0  0.34721  0.51236  0.08738  1.0000
  H   H966      1.0  0.61101  0.93509  0.48839  1.0000
  C   C550      1.0  0.51008  0.62515  0.49355  1.0000
  S   S121      1.0  0.34132  0.50024  0.16665  1.0000
  H   H967      1.0  0.39011  0.50428  0.48958  1.0000
  H   H968      1.0  0.61820  0.97961  0.48272  1.0000
  H   H969      1.0  0.46880  0.62840  0.02344  1.0000
  C   C551      1.0  0.49139  0.91790  0.48763  1.0000
  H   H970      1.0  0.42698  0.84968  0.00136  1.0000
  H   H971      1.0  0.38935  0.87121  0.00880  1.0000
  H   H972      1.0  0.50757  0.93613  0.47976  1.0000
  H   H973      1.0  0.33440  0.51127  0.39868  1.0000
  H   H974      1.0  0.51438  0.89957  0.49618  1.0000
  H   H975      1.0  0.39487  0.78229  0.49155  1.0000
  H   H976      1.0  0.33432  0.70788  0.19693  1.0000
  C   C552      1.0  0.48235  0.61979  0.49695  1.0000
  H   H977      1.0  0.38257  0.83966  0.99725  1.0000
  H   H978      1.0  0.43406  0.65397  0.52359  1.0000
  H   H979      1.0  0.36959  0.76395  0.53299  1.0000
  H   H980      1.0  0.49467  0.66057  0.49863  1.0000
  C   C553      1.0  0.63586  0.53048  0.52336  1.0000
  S   S122      1.0  0.62818  0.53585  0.65139  1.0000
  H   H981      1.0  0.50081  0.88239  0.56453  1.0000
  H   H982      1.0  0.36659  0.79418  0.78489  1.0000
  H   H983      1.0  0.49231  0.56676  0.91988  1.0000
  S   S123      1.0  0.38453  0.88393  0.62312  1.0000
  H   H984      1.0  0.54648  0.78919  0.54591  1.0000
  Fe  Fe64      1.0  0.36637  0.86532  0.57561  1.0000
  S   S124      1.0  0.38914  0.86646  0.53264  1.0000
  S   S125      1.0  0.46383  0.81944  0.54943  1.0000
  C   C554      1.0  0.37540  0.70724  0.99527  1.0000
  Fe  Fe65      1.0  0.54803  0.61364  0.61565  1.0000
  S   S126      1.0  0.51103  0.57788  0.62277  1.0000
  S   S127      1.0  0.58518  0.61127  0.60838  1.0000
  Fe  Fe66      1.0  0.51952  0.64570  0.60715  1.0000
  S   S128      1.0  0.48067  0.61090  0.61365  1.0000
  S   S129      1.0  0.51816  0.68354  0.60136  1.0000
  Fe  Fe67      1.0  0.49991  0.60183  0.65433  1.0000
  S   S130      1.0  0.47770  0.58017  0.69751  1.0000
  Fe  Fe68      1.0  0.49499  0.59002  0.58217  1.0000
  S   S131      1.0  0.47379  0.55991  0.54292  1.0000
  S   S132      1.0  0.53843  0.63765  0.65007  1.0000
  S   S133      1.0  0.53246  0.62497  0.57282  1.0000
  Fe  Fe69      1.0  0.41804  0.59961  0.86125  1.0000
  S   S134      1.0  0.42404  0.62201  0.90803  1.0000
  S   S135      1.0  0.44452  0.62076  0.82078  1.0000
  Fe  Fe70      1.0  0.37108  0.55308  0.88479  1.0000
  S   S136      1.0  0.37294  0.57116  0.93279  1.0000
  C   C555      1.0  0.36918  0.76829  0.59571  1.0000
  Fe  Fe71      1.0  0.38127  0.60619  0.90600  1.0000
  S   S137      1.0  0.36043  0.62672  0.92404  1.0000
  Fe  Fe72      1.0  0.41515  0.58547  0.93198  1.0000
  C   C556      1.0  0.34825  0.85093  0.96022  1.0000
  S   S138      1.0  0.37558  0.58682  0.85748  1.0000
  S   S139      1.0  0.41316  0.56433  0.88565  1.0000
  Fe  Fe73      1.0  0.36931  0.75351  0.87820  1.0000
  H   H985      1.0  0.33582  0.65710  0.98125  1.0000
  S   S140      1.0  0.39584  0.73681  0.87041  1.0000
  C   C557      1.0  0.42720  0.52948  0.51252  1.0000
  H   H986      1.0  0.41089  0.84042  0.94528  1.0000
  C   C558      1.0  0.57957  0.77221  0.57863  1.0000
  Fe  Fe74      1.0  0.34990  0.77758  0.92743  1.0000
  C   C559      1.0  0.34959  0.70466  0.80059  1.0000
  C   C560      1.0  0.52185  0.61146  0.83175  1.0000
  S   S141      1.0  0.38518  0.79410  0.89809  1.0000
  H   H987      1.0  0.55863  0.80038  0.61817  1.0000
  C   C561      1.0  0.38566  0.70594  0.88470  1.0000
  C   C562      1.0  0.36066  0.69098  0.89517  1.0000
  C   C563      1.0  0.35320  0.66676  0.90740  1.0000
  C   C564      1.0  0.37048  0.65712  0.90859  1.0000
  C   C565      1.0  0.39535  0.67177  0.89757  1.0000
  C   C566      1.0  0.40297  0.69625  0.88585  1.0000
  H   H988      1.0  0.61966  0.78028  0.58737  1.0000
  C   C567      1.0  0.61047  0.50963  0.53581  1.0000
  H   H989      1.0  0.40880  0.66442  0.89843  1.0000
  H   H990      1.0  0.42238  0.70783  0.87796  1.0000
  C   C568      1.0  0.46755  0.59178  0.73065  1.0000
  C   C569      1.0  0.47592  0.61797  0.73631  1.0000
  C   C570      1.0  0.46841  0.62639  0.76382  1.0000
  C   C571      1.0  0.45226  0.60878  0.78582  1.0000
  C   C572      1.0  0.44358  0.58256  0.77995  1.0000
  C   C573      1.0  0.45125  0.57415  0.75256  1.0000
  H   H991      1.0  0.48849  0.63177  0.71975  1.0000
  H   H992      1.0  0.47526  0.64672  0.76812  1.0000
  H   H993      1.0  0.43121  0.56878  0.79667  1.0000
  H   H994      1.0  0.44469  0.55386  0.74847  1.0000
  C   C574      1.0  0.51922  0.73423  0.51855  1.0000
  H   H995      1.0  0.47738  0.92235  0.49936  1.0000
  C   C575      1.0  0.52876  0.70129  0.53934  1.0000
  C   C576      1.0  0.51759  0.70162  0.56824  1.0000
  C   C577      1.0  0.50695  0.71813  0.57187  1.0000
  C   C578      1.0  0.50743  0.73405  0.54711  1.0000
  H   H996      1.0  0.60420  0.51169  0.80060  1.0000
  H   H997      1.0  0.53740  0.68905  0.53627  1.0000
  H   H998      1.0  0.49841  0.71876  0.59417  1.0000
  H   H999      1.0  0.49914  0.74657  0.55041  1.0000
  C   C579      1.0  0.40949  0.85302  0.53758  1.0000
  C   C580      1.0  0.41407  0.84598  0.56760  1.0000
  C   C581      1.0  0.43076  0.83562  0.57097  1.0000
  C   C582      1.0  0.44261  0.83192  0.54433  1.0000
  H   H1000     1.0  0.55126  0.93592  0.51749  1.0000
  H   H1001     1.0  0.43735  0.84281  0.89671  1.0000
  H   H1002     1.0  0.40498  0.84877  0.58829  1.0000
  H   H1003     1.0  0.43455  0.83053  0.59433  1.0000
  H   H1004     1.0  0.48476  0.88485  0.51509  1.0000
  H   H1005     1.0  0.52896  0.55454  0.53186  1.0000
  H   H1006     1.0  0.34982  0.87015  0.95790  1.0000
  C   C583      1.0  0.36835  0.83108  0.78891  1.0000
  C   C584      1.0  0.36381  0.80784  0.73855  1.0000
  C   C585      1.0  0.42129  0.84929  0.51093  1.0000
  H   H1007     1.0  0.39979  0.95246  0.56980  1.0000
  S   S142      1.0  0.34014  0.88259  0.57264  1.0000
  C   C586      1.0  0.60865  0.81973  0.57561  1.0000
  C   C587      1.0  0.45221  0.65277  0.52242  1.0000
  H   H1008     1.0  0.49611  0.66631  0.83813  1.0000
  C   C588      1.0  0.44132  0.55048  0.53390  1.0000
  C   C589      1.0  0.42916  0.56294  0.54830  1.0000
  C   C590      1.0  0.40299  0.55459  0.54093  1.0000
  H   H1009     1.0  0.60825  0.56773  0.71539  1.0000
  H   H1010     1.0  0.43987  0.57886  0.56519  1.0000
  H   H1011     1.0  0.39364  0.56436  0.55189  1.0000
  H   H1012     1.0  0.39992  0.79976  0.97892  1.0000
  C   C591      1.0  0.61467  0.55470  0.63593  1.0000
  C   C592      1.0  0.59230  0.55283  0.64943  1.0000
  C   C593      1.0  0.58239  0.56922  0.64050  1.0000
  C   C594      1.0  0.59496  0.58807  0.61817  1.0000
  C   C595      1.0  0.61686  0.58938  0.60399  1.0000
  C   C596      1.0  0.62655  0.57275  0.61260  1.0000
  H   H1013     1.0  0.58282  0.53890  0.66737  1.0000
  H   H1014     1.0  0.56560  0.56794  0.65172  1.0000
  H   H1015     1.0  0.62684  0.60387  0.58676  1.0000
  H   H1016     1.0  0.64389  0.57471  0.60217  1.0000
  H   H1017     1.0  0.47097  0.89197  0.58117  1.0000
  H   H1018     1.0  0.33380  0.65516  0.91521  1.0000
  H   H1019     1.0  0.55826  0.90910  0.54748  1.0000
  C   C597      1.0  0.38555  0.97341  0.62707  1.0000
  C   C598      1.0  0.36959  0.97685  0.60490  1.0000
  C   C599      1.0  0.42742  0.99162  0.55871  1.0000
  H   H1020     1.0  0.60404  0.66981  0.89325  1.0000
  S   S143      1.0  0.34722  0.75829  0.83707  1.0000
  C   C600      1.0  0.38881  0.53333  0.51984  1.0000
  C   C601      1.0  0.58918  0.67481  0.88490  1.0000
  H   H1021     1.0  0.36195  0.72418  0.79171  1.0000
  H   H1022     1.0  0.51581  0.53096  0.62308  1.0000
  H   H1023     1.0  0.65157  0.84033  0.61877  1.0000
  C   C602      1.0  0.34481  0.66029  0.80532  1.0000
  H   H1024     1.0  0.42153  0.94648  0.96976  1.0000
  H   H1025     1.0  0.63235  0.53855  0.50138  1.0000
  H   H1026     1.0  0.40705  0.50425  0.97365  1.0000
  N   N30       1.0  0.35180  0.64007  0.79512  1.0000
  C   C603      1.0  0.48136  0.59483  0.90353  1.0000
  C   C604      1.0  0.56230  0.65216  0.88941  1.0000
  H   H1027     1.0  0.48459  0.69802  0.85976  1.0000
  H   H1028     1.0  0.54210  0.62614  0.82795  1.0000
  H   H1029     1.0  0.39984  0.89786  0.93117  1.0000
  C   C605      1.0  0.55357  0.51761  0.56673  1.0000
  H   H1030     1.0  0.34693  0.69786  0.89352  1.0000
  H   H1031     1.0  0.43438  0.94335  0.93213  1.0000
  H   H1032     1.0  0.52365  0.64241  0.50841  1.0000
  H   H1033     1.0  0.36228  0.79108  0.72588  1.0000
  H   H1034     1.0  0.37017  0.85472  0.91877  1.0000
  H   H1035     1.0  0.64846  0.50873  0.76575  1.0000
  S   S144      1.0  0.34511  0.78396  0.97980  1.0000
  H   H1036     1.0  0.60674  0.52472  0.71248  1.0000
  H   H1037     1.0  0.34681  0.66318  0.83174  1.0000
  C   C606      1.0  0.41362  0.53134  0.62814  1.0000
  H   H1038     1.0  0.47274  0.51977  0.59879  1.0000
  H   H1039     1.0  0.43210  0.50969  0.57055  1.0000
  H   H1040     1.0  0.54619  0.66878  0.85618  1.0000
  S   S145      1.0  0.43849  0.58674  0.97605  1.0000
  H   H1041     1.0  0.51081  0.61022  0.78143  1.0000
  S   S146      1.0  0.33588  0.73688  0.91051  1.0000
  H   H1042     1.0  0.57610  0.72395  0.58452  1.0000
  C   C607      1.0  0.40364  0.89446  0.95624  1.0000
  C   C608      1.0  0.49972  0.67148  0.86404  1.0000
  H   H1043     1.0  0.48413  0.68710  0.89962  1.0000
  H   H1044     1.0  0.44084  0.61806  0.55056  1.0000
  H   H1045     1.0  0.57245  0.77388  0.51798  1.0000
  C   C609      1.0  0.55752  0.95788  0.56217  1.0000
  H   H1046     1.0  0.38087  0.69662  0.80371  1.0000
  H   H1047     1.0  0.60439  0.83303  0.51208  1.0000
  H   H1048     1.0  0.49755  0.65396  0.90946  1.0000
  C   C610      1.0  0.54147  0.87411  0.57251  1.0000
  H   H1049     1.0  0.36238  0.68685  0.76603  1.0000
  C   C611      1.0  0.50654  0.62474  0.84346  1.0000
  H   H1050     1.0  0.49061  0.58125  0.80216  1.0000
  H   H1051     1.0  0.34820  0.78728  0.58187  1.0000
  H   H1052     1.0  0.55558  0.86858  0.56334  1.0000
  C   C612      1.0  0.36118  0.68739  0.79233  1.0000
  C   C613      1.0  0.39917  0.74344  0.95767  1.0000
  H   H1053     1.0  0.44288  0.50612  0.68843  1.0000
  H   H1054     1.0  0.35953  0.69875  0.97660  1.0000
  H   H1055     1.0  0.59687  0.83367  0.61727  1.0000
  H   H1056     1.0  0.60550  0.80912  0.62625  1.0000
  H   H1057     1.0  0.52141  0.59733  0.84878  1.0000
  H   H1058     1.0  0.43603  0.90275  0.58599  1.0000
  C   C614      1.0  0.53990  0.94163  0.53318  1.0000
  H   H1059     1.0  0.43605  0.87210  0.95325  1.0000
  H   H1060     1.0  0.46089  0.66598  0.86908  1.0000
  H   H1061     1.0  0.49777  0.94332  0.54605  1.0000
  H   H1062     1.0  0.48697  0.58469  0.95164  1.0000
  H   H1063     1.0  0.45443  0.93232  0.56615  1.0000
  H   H1064     1.0  0.51478  0.62743  0.92585  1.0000
  H   H1065     1.0  0.59309  0.53898  0.77794  1.0000
  H   H1066     1.0  0.50948  0.63931  0.82558  1.0000
  H   H1067     1.0  0.56087  0.64778  0.91515  1.0000
  H   H1068     1.0  0.44907  0.53713  0.65230  1.0000
  C   C615      1.0  0.36842  0.85113  0.77170  1.0000
  H   H1069     1.0  0.53623  0.95514  0.51895  1.0000
  H   H1070     1.0  0.39837  0.55556  0.64609  1.0000
  H   H1071     1.0  0.54848  0.88362  0.59656  1.0000
  H   H1072     1.0  0.37517  0.74385  0.99446  1.0000
  N   N31       1.0  0.58440  0.79651  0.56255  1.0000
  Fe  Fe75      1.0  0.36017  0.79755  0.85914  1.0000
  H   H1073     1.0  0.46541  0.92774  0.60497  1.0000
  H   H1074     1.0  0.64447  0.53485  0.77851  1.0000
  H   H1075     1.0  0.43366  0.91576  0.99340  1.0000
  S   S147      1.0  0.35788  0.82302  0.67932  1.0000
  C   C616      1.0  0.52971  0.71759  0.51481  1.0000
  C   C617      1.0  0.44783  0.64943  0.58235  1.0000
  H   H1076     1.0  0.41150  0.99497  0.55017  1.0000
  H   H1077     1.0  0.52261  0.85636  0.57449  1.0000
  H   H1078     1.0  0.47435  0.64251  0.55574  1.0000
  H   H1079     1.0  0.45072  0.64024  0.60364  1.0000
  H   H1080     1.0  0.46064  0.67052  0.58557  1.0000
  H   H1081     1.0  0.42742  0.64519  0.58102  1.0000
  H   H1082     1.0  0.51957  0.68784  0.86769  1.0000
  H   H1083     1.0  0.36682  0.82942  0.94317  1.0000
  H   H1084     1.0  0.56157  0.75567  0.56815  1.0000
  C   C618      1.0  0.54748  0.53117  0.53939  1.0000
  S   S148      1.0  0.37853  0.94243  0.64054  1.0000
  H   H1085     1.0  0.65184  0.52265  0.70835  1.0000
  H   H1086     1.0  0.41993  0.99307  0.65743  1.0000
  H   H1087     1.0  0.51168  0.79256  0.57668  1.0000
  H   H1088     1.0  0.59775  0.57675  0.75098  1.0000
  H   H1089     1.0  0.59157  0.74332  0.62051  1.0000
  C   C619      1.0  0.41853  0.86589  0.90609  1.0000
  C   C620      1.0  0.33550  0.79605  0.52209  1.0000
  N   N32       1.0  0.51338  0.63698  0.87675  1.0000
  C   C621      1.0  0.47081  0.90655  0.56532  1.0000
  H   H1090     1.0  0.54379  0.55883  0.57107  1.0000
  H   H1091     1.0  0.38063  0.79714  0.54128  1.0000
  H   H1092     1.0  0.45193  0.54388  0.61163  1.0000
  H   H1093     1.0  0.47728  0.61531  0.52208  1.0000
  N   N33       1.0  0.51479  0.91847  0.54100  1.0000
  C   C622      1.0  0.40730  0.99546  0.64052  1.0000
  C   C623      1.0  0.35107  0.77147  0.57197  1.0000
  H   H1094     1.0  0.57984  0.99165  0.53404  1.0000
  H   H1095     1.0  0.36365  0.53348  0.98277  1.0000
  H   H1096     1.0  0.33581  0.57300  0.58888  1.0000
  C   C624      1.0  0.43118  0.91545  0.96707  1.0000
  C   C625      1.0  0.36287  0.77806  0.53859  1.0000
  H   H1097     1.0  0.56574  0.53282  0.58518  1.0000
  H   H1098     1.0  0.48251  0.53112  0.65945  1.0000
  H   H1099     1.0  0.51475  0.79464  0.61961  1.0000
  H   H1100     1.0  0.36076  0.76451  0.61965  1.0000
  C   C626      1.0  0.51927  0.90054  0.56178  1.0000
  H   H1101     1.0  0.65010  0.55055  0.72235  1.0000
  H   H1102     1.0  0.40970  0.76465  0.95568  1.0000
  H   H1103     1.0  0.58870  0.52766  0.52041  1.0000
  H   H1104     1.0  0.42038  0.55253  0.67373  1.0000
  S   S149      1.0  0.52404  0.82262  0.51337  1.0000
  C   C627      1.0  0.50597  0.51589  0.64064  1.0000
  H   H1105     1.0  0.34235  0.55418  0.98858  1.0000
  C   C628      1.0  0.48026  0.57537  0.92743  1.0000
  C   C629      1.0  0.36616  0.80950  0.77210  1.0000
  H   H1106     1.0  0.38891  0.70010  0.98842  1.0000
  H   H1107     1.0  0.52247  0.58830  0.79124  1.0000
  H   H1108     1.0  0.41292  0.95538  0.53090  1.0000
  C   C630      1.0  0.41760  0.96265  0.55617  1.0000
  C   C631      1.0  0.40091  0.52066  0.50588  1.0000
  H   H1109     1.0  0.45989  0.89663  0.54292  1.0000
  C   C632      1.0  0.43756  0.83845  0.51421  1.0000
  H   H1110     1.0  0.41255  0.73589  0.95222  1.0000
  C   C633      1.0  0.50920  0.61756  0.90171  1.0000
  H   H1111     1.0  0.46831  0.67284  0.52592  1.0000
  S   S150      1.0  0.33987  0.51254  0.87365  1.0000
  H   H1112     1.0  0.52559  0.90898  0.58648  1.0000
  H   H1113     1.0  0.36624  0.65416  0.74843  1.0000
  C   C634      1.0  0.41646  0.55442  0.64816  1.0000
  H   H1114     1.0  0.60404  0.76066  0.55162  1.0000
  H   H1115     1.0  0.59202  0.67935  0.85927  1.0000
  C   C635      1.0  0.60435  0.54415  0.75597  1.0000
  H   H1116     1.0  0.48562  0.61063  0.84086  1.0000
  C   C636      1.0  0.43580  0.94213  0.95845  1.0000
  H   H1117     1.0  0.45926  0.87692  0.90324  1.0000
  H   H1118     1.0  0.50796  0.93625  0.58256  1.0000
  C   C637      1.0  0.59973  0.51945  0.73698  1.0000
  H   H1119     1.0  0.51359  0.53008  0.56044  1.0000
  H   H1120     1.0  0.34863  0.70644  0.82687  1.0000
  C   C638      1.0  0.50128  0.90401  0.51023  1.0000
  Fe  Fe76      1.0  0.35271  0.84894  0.64426  1.0000
  C   C639      1.0  0.44031  0.86237  0.89237  1.0000
  H   H1121     1.0  0.46002  0.55967  0.92883  1.0000
  H   H1122     1.0  0.43248  0.57252  0.63973  1.0000
  C   C640      1.0  0.47948  0.51286  0.64791  1.0000
  H   H1123     1.0  0.47521  0.63313  0.87917  1.0000
  H   H1124     1.0  0.47404  0.58438  0.88010  1.0000
  H   H1125     1.0  0.43224  0.95809  0.56645  1.0000
  H   H1126     1.0  0.46810  0.60182  0.91166  1.0000
  H   H1127     1.0  0.44622  0.91248  0.95562  1.0000
  H   H1128     1.0  0.59441  0.97137  0.53975  1.0000
  C   C641      1.0  0.37793  0.64631  0.80957  1.0000
  H   H1129     1.0  0.37882  0.62832  0.81374  1.0000
  H   H1130     1.0  0.34987  0.61892  0.85570  1.0000
  C   C642      1.0  0.38903  0.73666  0.99116  1.0000
  C   C643      1.0  0.63999  0.52084  0.75809  1.0000
  H   H1131     1.0  0.53482  0.82239  0.59722  1.0000
  C   C644      1.0  0.40202  0.66287  0.79003  1.0000
  C   C645      1.0  0.42680  0.67352  0.81087  1.0000
  H   H1132     1.0  0.40047  0.85209  0.89281  1.0000
  H   H1133     1.0  0.56678  0.82104  0.56139  1.0000
  S   S151      1.0  0.33700  0.82871  0.59627  1.0000
  C   C646      1.0  0.56119  0.80055  0.56524  1.0000
  C   C647      1.0  0.36546  0.84920  0.73805  1.0000
  H   H1134     1.0  0.38094  0.65588  0.83363  1.0000
  H   H1135     1.0  0.60986  0.73534  0.59319  1.0000
  H   H1136     1.0  0.43168  0.99762  0.58427  1.0000
  H   H1137     1.0  0.64841  0.52203  0.51747  1.0000
  C   C648      1.0  0.60117  0.76475  0.57671  1.0000
  H   H1138     1.0  0.44058  0.86478  0.86615  1.0000
  H   H1139     1.0  0.42262  0.88570  0.90118  1.0000
  H   H1140     1.0  0.53576  0.77118  0.59771  1.0000
  S   S152      1.0  0.35626  0.52334  0.51044  1.0000
  H   H1141     1.0  0.62497  0.55672  0.76298  1.0000
  C   C649      1.0  0.58796  0.79294  0.52750  1.0000
  C   C650      1.0  0.58312  0.97949  0.55124  1.0000
  C   C651      1.0  0.35127  0.63663  0.75926  1.0000
  C   C652      1.0  0.43897  0.52965  0.62870  1.0000
  H   H1142     1.0  0.42799  0.68855  0.82811  1.0000
  H   H1143     1.0  0.42736  0.65799  0.82433  1.0000
  H   H1144     1.0  0.44383  0.68223  0.79570  1.0000
  H   H1145     1.0  0.54289  0.67369  0.89743  1.0000
  C   C653      1.0  0.59418  0.74038  0.59487  1.0000
  C   C654      1.0  0.53878  0.89230  0.54958  1.0000
  C   C655      1.0  0.59209  0.52060  0.54337  1.0000
  H   H1146     1.0  0.62593  0.81801  0.56958  1.0000
  S   S153      1.0  0.37097  0.83348  0.83126  1.0000
  H   H1147     1.0  0.40326  0.65072  0.77031  1.0000
  C   C656      1.0  0.54601  0.79245  0.59643  1.0000
  C   C657      1.0  0.52562  0.80110  0.59743  1.0000
  H   H1148     1.0  0.55405  0.50099  0.62592  1.0000
  H   H1149     1.0  0.51831  0.52167  0.66292  1.0000
  H   H1150     1.0  0.40836  0.53339  0.60320  1.0000
  H   H1151     1.0  0.35199  0.81489  0.53042  1.0000
  H   H1152     1.0  0.60636  0.79267  0.52405  1.0000
  C   C658      1.0  0.48119  0.68118  0.87386  1.0000
  H   H1153     1.0  0.43345  0.60137  0.50301  1.0000
  H   H1154     1.0  0.57004  0.81422  0.50540  1.0000
  H   H1155     1.0  0.40149  0.67940  0.77933  1.0000
  C   C659      1.0  0.65544  0.53582  0.72928  1.0000
  C   C660      1.0  0.61018  0.82608  0.61185  1.0000
  H   H1156     1.0  0.60299  0.53796  0.55958  1.0000
  H   H1157     1.0  0.59195  0.69211  0.89895  1.0000
  C   C661      1.0  0.45589  0.91819  0.58164  1.0000
  Fe  Fe77      1.0  0.35687  0.89989  0.62186  1.0000
  H   H1158     1.0  0.57588  0.77304  0.60431  1.0000
  C   C662      1.0  0.53254  0.54438  0.55156  1.0000
  H   H1159     1.0  0.53559  0.51720  0.51985  1.0000
  C   C663      1.0  0.36300  0.82742  0.72136  1.0000
  C   C664      1.0  0.41629  0.86099  0.94237  1.0000
  C   C665      1.0  0.59581  0.56012  0.73619  1.0000
  H   H1160     1.0  0.56079  0.63529  0.87586  1.0000
  H   H1161     1.0  0.38287  0.73533  0.93974  1.0000
  C   C666      1.0  0.49571  0.64802  0.88366  1.0000
  H   H1162     1.0  0.53230  0.88204  0.52591  1.0000
  H   H1163     1.0  0.36502  0.86449  0.72509  1.0000
  C   C667      1.0  0.46198  0.50558  0.61720  1.0000
  C   C668      1.0  0.63729  0.84703  0.62266  1.0000
  H   H1164     1.0  0.56202  0.94601  0.57836  1.0000
  C   C669      1.0  0.45427  0.63898  0.55226  1.0000
  H   H1165     1.0  0.54816  0.96700  0.57597  1.0000
  C   C670      1.0  0.54093  0.65880  0.87920  1.0000
  H   H1166     1.0  0.35272  0.96023  0.59443  1.0000
  H   H1167     1.0  0.52188  0.60892  0.89841  1.0000
  C   C671      1.0  0.51069  0.59696  0.79970  1.0000
  H   H1168     1.0  0.37212  0.75194  0.58804  1.0000
  H   H1169     1.0  0.37030  0.86800  0.78447  1.0000
  H   H1170     1.0  0.40352  0.53135  0.96212  1.0000
  Fe  Fe78      1.0  0.65098  0.51651  0.63185  1.0000
  C   C672      1.0  0.35275  0.51264  0.97621  1.0000
  C   C673      1.0  0.49870  0.92756  0.55877  1.0000
  C   C674      1.0  0.39316  0.51017  0.96421  1.0000
  H   H1171     1.0  0.35628  0.62131  0.75300  1.0000
  H   H1172     1.0  0.56549  0.54638  0.52956  1.0000
  H   H1173     1.0  0.59469  0.99192  0.57213  1.0000
  H   H1174     1.0  0.40161  0.97560  0.72505  1.0000
  N   N34       1.0  0.34547  0.77813  0.51167  1.0000
  C   C675      1.0  0.37104  0.84983  0.94406  1.0000
  H   H1175     1.0  0.57848  0.50731  0.73357  1.0000
  H   H1176     1.0  0.61131  0.83732  0.56377  1.0000
  H   H1177     1.0  0.64617  0.54621  0.54182  1.0000
  H   H1178     1.0  0.57536  0.54841  0.72761  1.0000
  H   H1179     1.0  0.35126  0.51189  0.94963  1.0000
  H   H1180     1.0  0.38816  0.78617  0.59786  1.0000
  H   H1181     1.0  0.34791  0.58618  0.55085  1.0000
  Fe  Fe79      1.0  0.48364  0.81591  0.50594  1.0000
  H   H1182     1.0  0.33452  0.84199  0.51022  1.0000
  H   H1183     1.0  0.39722  0.51376  0.63703  1.0000
  N   N35       1.0  0.39753  0.86690  0.95945  1.0000
  H   H1184     1.0  0.39039  0.89851  0.97056  1.0000
  H   H1185     1.0  0.34760  0.84676  0.98593  1.0000
  H   H1186     1.0  0.63771  0.85175  0.64855  1.0000
  H   H1187     1.0  0.64292  0.86481  0.60939  1.0000
  N   N36       1.0  0.43567  0.50334  0.62054  1.0000
  H   H1188     1.0  0.59154  0.50608  0.59879  1.0000
  H   H1189     1.0  0.37057  0.97067  0.73682  1.0000
  H   H1190     1.0  0.41261  0.50508  0.68271  1.0000
  H   H1191     1.0  0.53506  0.50549  0.57810  1.0000
  N   N37       1.0  0.61125  0.50439  0.75207  1.0000
  N   N38       1.0  0.56681  0.50228  0.55767  1.0000
  H   H1192     1.0  0.61515  0.50198  0.55731  1.0000
  H   H1193     1.0  0.45544  0.95692  0.96715  1.0000
  H   H1194     1.0  0.38593  0.50097  0.94004  1.0000
  C   C676      1.0  0.37079  0.50197  0.98666  1.0000
  C   C677      1.0  0.39667  0.86036  0.99430  1.0000
  H   H1195     1.0  0.43652  0.51971  0.50143  1.0000
  H   H1196     1.0  0.51184  0.60840  0.50163  1.0000
  H   H1197     1.0  0.34247  0.64843  0.69733  1.0000
  C   C678      1.0  0.38816  0.98362  0.72411  1.0000
  H   H1198     1.0  0.44549  0.99920  0.51367  1.0000
  C   C679      1.0  0.58840  0.81360  0.50509  1.0000
  H   H1199     1.0  0.33508  0.59882  0.79830  1.0000
  H   H1200     1.0  0.38231  0.98388  0.69883  1.0000
  H   H1201     1.0  0.33400  0.61479  0.69792  1.0000
  H   H1202     1.0  0.33546  0.76464  0.67682  1.0000
  C   C680      1.0  0.75067  0.11496  0.46645  1.0000
  H   H1203     1.0  0.70914  0.45797  0.25296  1.0000
  H   H1204     1.0  0.68386  0.09285  0.33221  1.0000
  H   H1205     1.0  0.71394  0.44580  0.32300  1.0000
  S   S154      1.0  0.68915  0.21399  0.21240  1.0000
  Fe  Fe80      1.0  0.75515  0.35562  0.21771  1.0000
  S   S155      1.0  0.74509  0.35330  0.16562  1.0000
  S   S156      1.0  0.72752  0.32953  0.25293  1.0000
  Fe  Fe81      1.0  0.80486  0.40582  0.21418  1.0000
  S   S157      1.0  0.79938  0.40829  0.16073  1.0000
  S   S158      1.0  0.83793  0.43528  0.24691  1.0000
  Fe  Fe82      1.0  0.75797  0.39517  0.17135  1.0000
  S   S159      1.0  0.73199  0.40817  0.14769  1.0000
  Fe  Fe83      1.0  0.78667  0.36594  0.15778  1.0000
  S   S160      1.0  0.79156  0.34193  0.11827  1.0000
  S   S161      1.0  0.76463  0.39663  0.22432  1.0000
  S   S162      1.0  0.79579  0.36437  0.21024  1.0000
  H   H1206     1.0  0.68160  0.28350  0.26673  1.0000
  C   C681      1.0  0.77885  0.32765  0.02225  1.0000
  C   C682      1.0  0.77706  0.32517  0.05561  1.0000
  C   C683      1.0  0.79123  0.34656  0.07670  1.0000
  C   C684      1.0  0.80712  0.37052  0.06411  1.0000
  C   C685      1.0  0.80935  0.37287  0.03083  1.0000
  C   C686      1.0  0.67337  0.10337  0.33881  1.0000
  H   H1207     1.0  0.76520  0.30645  0.06513  1.0000
  H   H1208     1.0  0.81862  0.38696  0.08009  1.0000
  H   H1209     1.0  0.67030  0.39475  0.06747  1.0000
  H   H1210     1.0  0.70111  0.26560  0.07173  1.0000
  C   C687      1.0  0.69856  0.37746  0.19153  1.0000
  C   C688      1.0  0.70265  0.39453  0.16722  1.0000
  H   H1211     1.0  0.71401  0.11406  0.38194  1.0000
  H   H1212     1.0  0.76779  0.38239  0.06434  1.0000
  C   C689      1.0  0.82953  0.45179  0.35305  1.0000
  H   H1213     1.0  0.71270  0.37161  0.19723  1.0000
  H   H1214     1.0  0.77481  0.21448  0.38974  1.0000
  C   C690      1.0  0.71861  0.29716  0.24584  1.0000
  C   C691      1.0  0.73495  0.29018  0.23013  1.0000
  C   C692      1.0  0.72644  0.26422  0.22195  1.0000
  C   C693      1.0  0.70127  0.24547  0.22811  1.0000
  C   C694      1.0  0.68534  0.25236  0.24499  1.0000
  C   C695      1.0  0.69421  0.27814  0.25438  1.0000
  H   H1215     1.0  0.75397  0.30479  0.22389  1.0000
  H   H1216     1.0  0.73905  0.25874  0.20998  1.0000
  C   C696      1.0  0.70238  0.40334  0.28726  1.0000
  H   H1217     1.0  0.77909  0.44152  0.46271  1.0000
  C   C697      1.0  0.77703  0.43398  0.08373  1.0000
  H   H1218     1.0  0.70954  0.24902  0.11656  1.0000
  H   H1219     1.0  0.76052  0.43745  0.08687  1.0000
  C   C698      1.0  0.80987  0.43192  0.30057  1.0000
  C   C699      1.0  0.83421  0.44172  0.28761  1.0000
  C   C700      1.0  0.85619  0.45692  0.30753  1.0000
  C   C701      1.0  0.85390  0.46195  0.34008  1.0000
  H   H1220     1.0  0.79280  0.42042  0.28559  1.0000
  H   H1221     1.0  0.68413  0.10400  0.40042  1.0000
  C   C702      1.0  0.80758  0.43677  0.33309  1.0000
  N   N39       1.0  0.81623  0.37441  0.38859  1.0000
  C   C703      1.0  0.82076  0.35183  0.38271  1.0000
  C   C704      1.0  0.84092  0.39882  0.38330  1.0000
  C   C705      1.0  0.80762  0.37369  0.42234  1.0000
  C   C706      1.0  0.79549  0.37325  0.36600  1.0000
  C   C707      1.0  0.79976  0.37129  0.32987  1.0000
  C   C708      1.0  0.79630  0.32491  0.38131  1.0000
  C   C709      1.0  0.80662  0.39790  0.43503  1.0000
  C   C710      1.0  0.86410  0.40453  0.40628  1.0000
  C   C711      1.0  0.88741  0.43035  0.39935  1.0000
  C   C712      1.0  0.77567  0.36584  0.30989  1.0000
  C   C713      1.0  0.80337  0.30361  0.37621  1.0000
  C   C714      1.0  0.79536  0.39384  0.46816  1.0000
  H   H1222     1.0  0.83383  0.35141  0.40190  1.0000
  H   H1223     1.0  0.83120  0.35393  0.36029  1.0000
  H   H1224     1.0  0.84746  0.39858  0.35870  1.0000
  H   H1225     1.0  0.83762  0.41563  0.38455  1.0000
  H   H1226     1.0  0.82013  0.37020  0.43938  1.0000
  H   H1227     1.0  0.78797  0.35708  0.42463  1.0000
  H   H1228     1.0  0.77627  0.35708  0.37157  1.0000
  H   H1229     1.0  0.79356  0.39083  0.36932  1.0000
  H   H1230     1.0  0.80424  0.35570  0.32393  1.0000
  H   H1231     1.0  0.81592  0.38965  0.32218  1.0000
  H   H1232     1.0  0.78594  0.32139  0.40389  1.0000
  H   H1233     1.0  0.78284  0.32300  0.36130  1.0000
  H   H1234     1.0  0.79437  0.40251  0.41915  1.0000
  H   H1235     1.0  0.82619  0.41491  0.43705  1.0000
  H   H1236     1.0  0.85946  0.40542  0.43155  1.0000
  H   H1237     1.0  0.86993  0.38951  0.40333  1.0000
  H   H1238     1.0  0.89403  0.42983  0.37490  1.0000
  H   H1239     1.0  0.88241  0.44605  0.40126  1.0000
  H   H1240     1.0  0.90350  0.43472  0.41683  1.0000
  H   H1241     1.0  0.75968  0.34630  0.31425  1.0000
  H   H1242     1.0  0.76932  0.38015  0.31564  1.0000
  H   H1243     1.0  0.77991  0.36681  0.28414  1.0000
  H   H1244     1.0  0.78555  0.28459  0.37511  1.0000
  H   H1245     1.0  0.81326  0.30591  0.35337  1.0000
  H   H1246     1.0  0.81613  0.30393  0.39625  1.0000
  H   H1247     1.0  0.73640  0.46940  0.29871  1.0000
  H   H1248     1.0  0.73472  0.10125  0.48101  1.0000
  C   C715      1.0  0.80044  0.45561  0.10190  1.0000
  H   H1249     1.0  0.78774  0.48090  0.21140  1.0000
  C   C716      1.0  0.68376  0.40147  0.15971  1.0000
  H   H1250     1.0  0.72367  0.18258  0.45757  1.0000
  H   H1251     1.0  0.73200  0.39827  0.06275  1.0000
  C   C717      1.0  0.67779  0.28265  0.17293  1.0000
  H   H1252     1.0  0.72228  0.38083  0.02591  1.0000
  C   C718      1.0  0.73755  0.16474  0.40351  1.0000
  S   S163      1.0  0.83379  0.47373  0.48156  1.0000
  C   C719      1.0  0.67655  0.36860  0.20958  1.0000
  H   H1253     1.0  0.74466  0.42751  0.46699  1.0000
  H   H1254     1.0  0.79662  0.41203  0.47746  1.0000
  H   H1255     1.0  0.73142  0.14615  0.46290  1.0000
  C   C720      1.0  0.68289  0.28740  0.13699  1.0000
  H   H1256     1.0  0.67933  0.37718  0.01825  1.0000
  H   H1257     1.0  0.79589  0.45617  0.12739  1.0000
  C   C721      1.0  0.69433  0.14950  0.42772  1.0000
  H   H1258     1.0  0.93296  0.42290  0.48219  1.0000
  H   H1259     1.0  0.71090  0.35095  0.30681  1.0000
  H   H1260     1.0  0.72077  0.42680  0.04702  1.0000
  H   H1261     1.0  0.72873  0.41979  0.23322  1.0000
  H   H1262     1.0  0.74768  0.46706  0.36833  1.0000
  H   H1263     1.0  0.78940  0.45710  0.23554  1.0000
  C   C722      1.0  0.69926  0.43742  0.25923  1.0000
  C   C723      1.0  0.76352  0.44532  0.47070  1.0000
  H   H1264     1.0  0.76821  0.31097  0.00629  1.0000
  C   C724      1.0  0.73798  0.43351  0.25410  1.0000
  H   H1265     1.0  0.69016  0.19437  0.44162  1.0000
  H   H1266     1.0  0.73127  0.36833  0.10135  1.0000
  H   H1267     1.0  0.69242  0.19273  0.48443  1.0000
  H   H1268     1.0  0.86271  0.42267  0.48817  1.0000
  H   H1269     1.0  0.76345  0.46039  0.45563  1.0000
  H   H1270     1.0  0.93834  0.46527  0.46693  1.0000
  C   C725      1.0  0.76947  0.40397  0.99919  1.0000
  C   C726      1.0  0.75842  0.20538  0.37187  1.0000
  C   C727      1.0  0.74767  0.37238  0.05452  1.0000
  H   H1271     1.0  0.75542  0.22073  0.36137  1.0000
  H   H1272     1.0  0.74696  0.15778  0.38617  1.0000
  H   H1273     1.0  0.73540  0.39771  0.30282  1.0000
  C   C728      1.0  0.79541  0.35146  0.00972  1.0000
  C   C729      1.0  0.76260  0.46889  0.35149  1.0000
  C   C730      1.0  0.72157  0.13124  0.44333  1.0000
  N   N40       1.0  0.68572  0.26710  0.11799  1.0000
  H   H1274     1.0  0.67402  0.35608  0.22906  1.0000
  H   H1275     1.0  0.87099  0.47350  0.35512  1.0000
  C   C731      1.0  0.70642  0.26239  0.13255  1.0000
  C   C732      1.0  0.73310  0.28651  0.13955  1.0000
  C   C733      1.0  0.72910  0.44919  0.30573  1.0000
  C   C734      1.0  0.75439  0.27915  0.14309  1.0000
  H   H1276     1.0  0.72922  0.10160  0.42197  1.0000
  C   C735      1.0  0.68158  0.28638  0.03010  1.0000
  H   H1277     1.0  0.70038  0.30654  0.13530  1.0000
  C   C736      1.0  0.75465  0.46060  0.24080  1.0000
  H   H1278     1.0  0.76334  0.19569  0.35241  1.0000
  H   H1279     1.0  0.70017  0.25224  0.15535  1.0000
  H   H1280     1.0  0.73282  0.29658  0.16201  1.0000
  H   H1281     1.0  0.73852  0.30046  0.12042  1.0000
  C   C737      1.0  0.70303  0.16777  0.45785  1.0000
  H   H1282     1.0  0.79254  0.45180  0.03890  1.0000
  S   S164      1.0  0.88842  0.48122  0.45706  1.0000
  H   H1283     1.0  0.75969  0.27519  0.11919  1.0000
  H   H1284     1.0  0.77181  0.29524  0.15518  1.0000
  H   H1285     1.0  0.78867  0.42865  0.34292  1.0000
  H   H1286     1.0  0.72021  0.38241  0.26506  1.0000
  C   C738      1.0  0.75093  0.44780  0.32503  1.0000
  H   H1287     1.0  0.71801  0.17829  0.36918  1.0000
  H   H1288     1.0  0.82246  0.39128  0.02142  1.0000
  H   H1289     1.0  0.69391  0.28171  0.18525  1.0000
  H   H1290     1.0  0.70031  0.15622  0.47920  1.0000
  S   S165      1.0  0.82519  0.45554  0.39432  1.0000
  C   C739      1.0  0.69075  0.12758  0.35935  1.0000
  H   H1291     1.0  0.67891  0.20757  0.13170  1.0000
  H   H1292     1.0  0.77989  0.39427  0.00915  1.0000
  H   H1293     1.0  0.66666  0.28959  0.12672  1.0000
  H   H1294     1.0  0.77241  0.41591  0.09568  1.0000
  H   H1295     1.0  0.69616  0.36561  0.33037  1.0000
  C   C740      1.0  0.78265  0.43199  0.04798  1.0000
  H   H1296     1.0  0.77141  0.48823  0.34119  1.0000
  H   H1297     1.0  0.81726  0.45225  0.10080  1.0000
  Fe  Fe84      1.0  0.85348  0.48116  0.43473  1.0000
  H   H1298     1.0  0.85048  0.37637  0.48138  1.0000
  C   C741      1.0  0.70069  0.12093  0.39023  1.0000
  H   H1299     1.0  0.91050  0.33990  0.49025  1.0000
  H   H1300     1.0  0.68907  0.27445  0.01857  1.0000
  H   H1301     1.0  0.70730  0.14024  0.34486  1.0000
  N   N41       1.0  0.75996  0.41447  0.02582  1.0000
  H   H1302     1.0  0.68677  0.41461  0.14085  1.0000
  C   C742      1.0  0.67491  0.43308  0.27713  1.0000
  H   H1303     1.0  0.74816  0.26182  0.15737  1.0000
  H   H1304     1.0  0.76386  0.47547  0.26036  1.0000
  H   H1305     1.0  0.69251  0.42600  0.23612  1.0000
  H   H1306     1.0  0.79764  0.42579  0.04816  1.0000
  H   H1307     1.0  0.71019  0.34435  0.07154  1.0000
  H   H1308     1.0  0.80627  0.38827  0.48509  1.0000
  H   H1309     1.0  0.73753  0.34283  0.08898  1.0000
  C   C743      1.0  0.68688  0.18126  0.46150  1.0000
  H   H1310     1.0  0.70938  0.29664  0.08572  1.0000
  C   C744      1.0  0.71662  0.38732  0.28947  1.0000
  H   H1311     1.0  0.74662  0.35929  0.03445  1.0000
  C   C745      1.0  0.69316  0.27657  0.08468  1.0000
  H   H1312     1.0  0.69733  0.30666  0.03192  1.0000
  H   H1313     1.0  0.75638  0.13372  0.42190  1.0000
  N   N42       1.0  0.71374  0.14218  0.41570  1.0000
  H   H1314     1.0  0.80549  0.47450  0.09187  1.0000
  C   C746      1.0  0.74796  0.42906  0.01044  1.0000
  H   H1315     1.0  0.67929  0.33796  0.02956  1.0000
  H   H1316     1.0  0.74316  0.42915  0.33677  1.0000
  C   C747      1.0  0.73987  0.12021  0.43577  1.0000
  H   H1317     1.0  0.66695  0.10879  0.31657  1.0000
  H   H1318     1.0  0.74279  0.46582  0.22500  1.0000
  H   H1319     1.0  0.75162  0.42803  0.26520  1.0000
  H   H1320     1.0  0.67927  0.13719  0.36444  1.0000
  H   H1321     1.0  0.75155  0.45628  0.04893  1.0000
  H   H1322     1.0  0.91077  0.44817  0.49097  1.0000
  H   H1323     1.0  0.72926  0.19703  0.40576  1.0000
  H   H1324     1.0  0.75228  0.17468  0.42333  1.0000
  C   C748      1.0  0.73385  0.18612  0.38762  1.0000
  H   H1325     1.0  0.68183  0.35012  0.29177  1.0000
  H   H1326     1.0  0.66980  0.35579  0.07723  1.0000
  H   H1327     1.0  0.69350  0.40270  0.31057  1.0000
  H   H1328     1.0  0.69299  0.32271  0.18909  1.0000
  H   H1329     1.0  0.87512  0.46477  0.29774  1.0000
  H   H1330     1.0  0.67646  0.13191  0.43402  1.0000
  H   H1331     1.0  0.67159  0.16844  0.00077  1.0000
  H   H1332     1.0  0.68797  0.15820  0.40894  1.0000
  C   C749      1.0  0.73046  0.35595  0.08062  1.0000
  N   N43       1.0  0.71764  0.43087  0.27700  1.0000
  C   C750      1.0  0.70029  0.36199  0.30565  1.0000
  C   C751      1.0  0.73939  0.39184  0.04238  1.0000
  H   H1333     1.0  0.71773  0.46508  0.02967  1.0000
  H   H1334     1.0  0.70414  0.11556  0.45391  1.0000
  C   C752      1.0  0.67473  0.30423  0.18929  1.0000
  H   H1335     1.0  0.76311  0.10642  0.46048  1.0000
  H   H1336     1.0  0.67380  0.22575  0.07828  1.0000
  H   H1337     1.0  0.76808  0.44732  0.20021  1.0000
  C   C753      1.0  0.77624  0.46142  0.22081  1.0000
  H   H1338     1.0  0.77479  0.37866  0.46691  1.0000
  H   H1339     1.0  0.67862  0.22089  0.35311  1.0000
  H   H1340     1.0  0.68573  0.39185  0.27022  1.0000
  C   C754      1.0  0.67166  0.27673  0.06311  1.0000
  C   C755      1.0  0.73627  0.44137  0.03279  1.0000
  H   H1341     1.0  0.76244  0.13310  0.48086  1.0000
  C   C756      1.0  0.93215  0.45798  0.49110  1.0000
  H   H1342     1.0  0.77800  0.46722  0.36510  1.0000
  H   H1343     1.0  0.66746  0.45954  0.24936  1.0000
  H   H1344     1.0  0.76692  0.45035  0.30974  1.0000
  H   H1345     1.0  0.66656  0.40669  0.01024  1.0000
  H   H1346     1.0  0.66982  0.29973  0.21456  1.0000
  H   H1347     1.0  0.68033  0.44583  0.29892  1.0000
  H   H1348     1.0  0.67946  0.43902  0.05619  1.0000
  C   C757      1.0  0.72477  0.45509  0.01337  1.0000
  H   H1349     1.0  0.96310  0.44937  0.49703  1.0000
  H   H1350     1.0  0.73957  0.46980  0.99846  1.0000
  H   H1351     1.0  0.76256  0.44543  0.99727  1.0000
  H   H1352     1.0  0.70843  0.44114  0.99749  1.0000
  S   S166      1.0  0.87076  0.45461  0.54541  1.0000
  Fe  Fe85      1.0  0.83571  0.31438  0.56941  1.0000
  S   S167      1.0  0.85588  0.29072  0.56692  1.0000
  S   S168      1.0  0.83668  0.33653  0.52585  1.0000
  Fe  Fe86      1.0  0.81885  0.29906  0.63772  1.0000
  S   S169      1.0  0.83884  0.27545  0.63996  1.0000
  S   S170      1.0  0.79433  0.30306  0.67621  1.0000
  Fe  Fe87      1.0  0.87213  0.30824  0.61604  1.0000
  S   S171      1.0  0.91392  0.33110  0.63684  1.0000
  Fe  Fe88      1.0  0.82047  0.26023  0.59044  1.0000
  S   S172      1.0  0.79971  0.21654  0.57796  1.0000
  S   S173      1.0  0.85289  0.33277  0.61747  1.0000
  S   S174      1.0  0.79959  0.28304  0.58925  1.0000
  C   C758      1.0  0.71744  0.44430  0.61196  1.0000
  Fe  Fe89      1.0  0.77997  0.29946  0.86391  1.0000
  S   S175      1.0  0.78233  0.29010  0.91539  1.0000
  S   S176      1.0  0.80412  0.29350  0.82635  1.0000
  Fe  Fe90      1.0  0.73718  0.31179  0.87685  1.0000
  S   S177      1.0  0.73453  0.30245  0.92858  1.0000
  S   S178      1.0  0.71107  0.32401  0.85271  1.0000
  Fe  Fe91      1.0  0.77776  0.32443  0.92913  1.0000
  H   H1353     1.0  0.73832  0.24635  0.59332  1.0000
  Fe  Fe92      1.0  0.73903  0.26883  0.91158  1.0000
  S   S179      1.0  0.71811  0.22914  0.93097  1.0000
  S   S180      1.0  0.78009  0.33630  0.87790  1.0000
  S   S181      1.0  0.73693  0.27575  0.85955  1.0000
  C   C759      1.0  0.69767  0.37908  0.91644  1.0000
  H   H1354     1.0  0.69177  0.39567  0.77052  1.0000
  C   C760      1.0  0.68200  0.34393  0.87674  1.0000
  C   C761      1.0  0.70596  0.34479  0.87794  1.0000
  C   C762      1.0  0.72571  0.36252  0.89879  1.0000
  C   C763      1.0  0.72163  0.37987  0.91777  1.0000
  H   H1355     1.0  0.78658  0.23145  0.73262  1.0000
  H   H1356     1.0  0.71755  0.23553  0.62671  1.0000
  H   H1357     1.0  0.74425  0.36314  0.89985  1.0000
  H   H1358     1.0  0.73703  0.39393  0.93332  1.0000
  C   C764      1.0  0.68701  0.20978  0.91416  1.0000
  C   C765      1.0  0.73850  0.39830  0.79533  1.0000
  H   H1359     1.0  0.67107  0.28966  0.89551  1.0000
  H   H1360     1.0  0.79979  0.20245  0.71101  1.0000
  H   H1361     1.0  0.79570  0.18570  0.67313  1.0000
  C   C766      1.0  0.68007  0.18522  0.90149  1.0000
  C   C767      1.0  0.71165  0.45692  0.78034  1.0000
  H   H1362     1.0  0.86091  0.33758  0.80244  1.0000
  H   H1363     1.0  0.78748  0.43420  0.52014  1.0000
  H   H1364     1.0  0.69419  0.17868  0.90123  1.0000
  C   C768      1.0  0.94529  0.34719  0.62059  1.0000
  C   C769      1.0  0.73783  0.24369  0.61947  1.0000
  C   C770      1.0  0.95071  0.33967  0.59115  1.0000
  S   S182      1.0  0.69252  0.40052  0.94053  1.0000
  H   H1365     1.0  0.93540  0.32394  0.57712  1.0000
  C   C771      1.0  0.79572  0.29830  0.71766  1.0000
  C   C772      1.0  0.78205  0.30576  0.73844  1.0000
  C   C773      1.0  0.78376  0.30368  0.77173  1.0000
  C   C774      1.0  0.79920  0.29408  0.78457  1.0000
  C   C775      1.0  0.81221  0.28587  0.76370  1.0000
  C   C776      1.0  0.81055  0.28801  0.73040  1.0000
  H   H1366     1.0  0.77044  0.31366  0.72879  1.0000
  H   H1367     1.0  0.77362  0.31004  0.78752  1.0000
  H   H1368     1.0  0.82407  0.27827  0.77345  1.0000
  H   H1369     1.0  0.82098  0.28199  0.71470  1.0000
  C   C777      1.0  0.72553  0.14392  0.53732  1.0000
  C   C778      1.0  0.74806  0.14346  0.54699  1.0000
  C   C779      1.0  0.77004  0.16577  0.55914  1.0000
  C   C780      1.0  0.77043  0.18947  0.56191  1.0000
  C   C781      1.0  0.74786  0.19028  0.55248  1.0000
  C   C782      1.0  0.72543  0.16755  0.54049  1.0000
  H   H1370     1.0  0.78707  0.16461  0.56633  1.0000
  H   H1371     1.0  0.74766  0.20832  0.55447  1.0000
  H   H1372     1.0  0.81461  0.40931  0.96931  1.0000
  C   C783      1.0  0.86067  0.42177  0.53930  1.0000
  C   C784      1.0  0.85532  0.40641  0.56589  1.0000
  C   C785      1.0  0.84780  0.38020  0.56201  1.0000
  C   C786      1.0  0.84599  0.36930  0.53152  1.0000
  H   H1373     1.0  0.94163  0.36187  0.53591  1.0000
  H   H1374     1.0  0.67402  0.23695  0.92507  1.0000
  H   H1375     1.0  0.85683  0.41479  0.58958  1.0000
  H   H1376     1.0  0.84318  0.36842  0.58257  1.0000
  H   H1377     1.0  0.85376  0.35704  0.84981  1.0000
  C   C787      1.0  0.97618  0.35186  0.58030  1.0000
  H   H1378     1.0  0.67083  0.48458  0.73203  1.0000
  C   C788      1.0  0.99120  0.37973  0.62772  1.0000
  H   H1379     1.0  0.71980  0.23787  0.80300  1.0000
  H   H1380     1.0  0.86164  0.49610  0.57723  1.0000
  H   H1381     1.0  0.79343  0.47089  0.59874  1.0000
  H   H1382     1.0  0.79418  0.48140  0.55991  1.0000
  H   H1383     1.0  0.88409  0.33364  0.51580  1.0000
  H   H1384     1.0  0.71366  0.14723  0.60537  1.0000
  C   C789      1.0  0.78753  0.21808  0.67083  1.0000
  H   H1385     1.0  0.90215  0.38149  0.52740  1.0000
  C   C790      1.0  0.68775  0.39970  0.79519  1.0000
  C   C791      1.0  0.70248  0.21848  0.80187  1.0000
  H   H1386     1.0  0.93754  0.43159  0.71607  1.0000
  H   H1387     1.0  0.69116  0.25747  0.80299  1.0000
  H   H1388     1.0  0.75290  0.38871  0.98459  1.0000
  H   H1389     1.0  0.72185  0.38240  0.78191  1.0000
  C   C792      1.0  0.71594  0.46253  0.88780  1.0000
  H   H1390     1.0  0.67815  0.27142  0.84678  1.0000
  C   C793      1.0  0.85864  0.41088  0.50874  1.0000
  S   S183      1.0  0.79992  0.35538  0.96811  1.0000
  H   H1391     1.0  0.73111  0.18988  0.71190  1.0000
  C   C794      1.0  0.70768  0.14058  0.62981  1.0000
  H   H1392     1.0  0.76699  0.23060  0.78422  1.0000
  C   C795      1.0  0.67319  0.23852  0.80110  1.0000
  H   H1393     1.0  0.78652  0.39489  0.94208  1.0000
  C   C796      1.0  0.94329  0.41674  0.72079  1.0000
  H   H1394     1.0  0.73713  0.20325  0.76992  1.0000
  H   H1395     1.0  0.70665  0.44704  0.90498  1.0000
  H   H1396     1.0  0.99640  0.31192  0.55203  1.0000
  H   H1397     1.0  0.69632  0.41433  0.85945  1.0000
  H   H1398     1.0  0.86251  0.31805  0.69599  1.0000
  H   H1399     1.0  0.75689  0.18328  0.71701  1.0000
  H   H1400     1.0  0.75958  0.24111  0.67559  1.0000
  H   H1401     1.0  0.75885  0.23602  0.72838  1.0000
  C   C797      1.0  0.82113  0.46775  0.57064  1.0000
  C   C798      1.0  0.67383  0.37362  0.81167  1.0000
  H   H1402     1.0  0.70733  0.20521  0.81479  1.0000
  H   H1403     1.0  0.76827  0.23398  0.61883  1.0000
  H   H1404     1.0  0.73267  0.41630  0.99234  1.0000
  H   H1405     1.0  0.72909  0.43412  0.76698  1.0000
  H   H1406     1.0  0.98724  0.45813  0.54556  1.0000
  N   N44       1.0  0.94097  0.40944  0.54447  1.0000
  C   C799      1.0  0.92230  0.38483  0.52633  1.0000
  C   C800      1.0  0.93523  0.43041  0.53447  1.0000
  C   C801      1.0  0.96816  0.41579  0.53703  1.0000
  C   C802      1.0  0.93806  0.40663  0.57999  1.0000
  C   C803      1.0  0.91070  0.39822  0.59193  1.0000
  H   H1407     1.0  0.74655  0.49200  0.76905  1.0000
  H   H1408     1.0  0.96196  0.37328  0.66165  1.0000
  C   C804      1.0  0.78786  0.42405  0.97585  1.0000
  H   H1409     1.0  0.79184  0.22032  0.64509  1.0000
  C   C805      1.0  0.91029  0.39601  0.62811  1.0000
  H   H1410     1.0  0.72047  0.46286  0.60270  1.0000
  H   H1411     1.0  0.74768  0.42574  0.83422  1.0000
  H   H1412     1.0  0.82364  0.46166  0.54652  1.0000
  C   C806      1.0  0.74843  0.22558  0.62745  1.0000
  H   H1413     1.0  0.91429  0.42396  0.53651  1.0000
  N   N45       1.0  0.75874  0.20430  0.67474  1.0000
  H   H1414     1.0  0.71555  0.12775  0.63665  1.0000
  H   H1415     1.0  0.95287  0.42056  0.74492  1.0000
  H   H1416     1.0  0.94445  0.39298  0.58869  1.0000
  H   H1417     1.0  0.95098  0.42526  0.59289  1.0000
  H   H1418     1.0  0.89626  0.37931  0.58105  1.0000
  H   H1419     1.0  0.90462  0.41263  0.58625  1.0000
  H   H1420     1.0  0.99088  0.44099  0.57828  1.0000
  H   H1421     1.0  0.91547  0.35551  0.56168  1.0000
  H   H1422     1.0  0.74860  0.12556  0.54506  1.0000
  H   H1423     1.0  0.81223  0.42707  0.93656  1.0000
  C   C807      1.0  0.74827  0.22157  0.66386  1.0000
  H   H1424     1.0  0.67126  0.31932  0.76580  1.0000
  H   H1425     1.0  0.85476  0.38313  0.82776  1.0000
  H   H1426     1.0  0.81902  0.36201  0.67477  1.0000
  H   H1427     1.0  0.82857  0.35066  0.82045  1.0000
  H   H1428     1.0  0.89069  0.39044  0.63623  1.0000
  H   H1429     1.0  0.91532  0.38106  0.63509  1.0000
  H   H1430     1.0  0.92412  0.41468  0.64022  1.0000
  H   H1431     1.0  0.70811  0.16834  0.53397  1.0000
  C   C808      1.0  0.74707  0.17938  0.65503  1.0000
  H   H1432     1.0  0.67063  0.37645  0.83689  1.0000
  H   H1433     1.0  0.68224  0.32225  0.97544  1.0000
  C   C809      1.0  0.72970  0.41011  0.82248  1.0000
  H   H1434     1.0  0.84753  0.37627  0.65148  1.0000
  C   C810      1.0  0.75543  0.38765  0.80873  1.0000
  C   C811      1.0  0.74140  0.44145  0.60737  1.0000
  H   H1435     1.0  0.72078  0.39559  0.84109  1.0000
  H   H1436     1.0  0.98007  0.34548  0.55776  1.0000
  H   H1437     1.0  0.69285  0.44394  0.76790  1.0000
  H   H1438     1.0  0.77319  0.40322  0.82091  1.0000
  H   H1439     1.0  0.74478  0.37264  0.82605  1.0000
  H   H1440     1.0  0.76111  0.37883  0.78905  1.0000
  H   H1441     1.0  0.77894  0.42499  0.60591  1.0000
  H   H1442     1.0  0.90427  0.31938  0.52355  1.0000
  N   N46       1.0  0.77128  0.44036  0.56325  1.0000
  H   H1443     1.0  0.83928  0.24002  0.69235  1.0000
  C   C812      1.0  0.77116  0.41843  0.58095  1.0000
  C   C813      1.0  0.74740  0.44205  0.57135  1.0000
  C   C814      1.0  0.75836  0.21339  0.76758  1.0000
  H   H1444     1.0  0.84452  0.38716  0.72280  1.0000
  H   H1445     1.0  0.73628  0.20722  0.61378  1.0000
  C   C815      1.0  0.80234  0.20486  0.68498  1.0000
  C   C816      1.0  0.78546  0.40493  0.56583  1.0000
  C   C817      1.0  0.78803  0.38683  0.58906  1.0000
  S   S184      1.0  0.69892  0.11412  0.52159  1.0000
  H   H1446     1.0  0.87341  0.40210  0.70028  1.0000
  H   H1447     1.0  0.75395  0.18286  0.63017  1.0000
  H   H1448     1.0  0.75385  0.16632  0.66451  1.0000
  C   C818      1.0  0.80103  0.41305  0.95470  1.0000
  H   H1449     1.0  0.75097  0.40259  0.58294  1.0000
  H   H1450     1.0  0.73001  0.42611  0.55875  1.0000
  H   H1451     1.0  0.74885  0.46030  0.56287  1.0000
  H   H1452     1.0  0.91140  0.38692  0.69364  1.0000
  H   H1453     1.0  0.88586  0.37051  0.80723  1.0000
  H   H1454     1.0  0.92686  0.37590  0.72203  1.0000
  H   H1455     1.0  0.68368  0.28784  0.78476  1.0000
  H   H1456     1.0  0.74974  0.26282  0.63178  1.0000
  H   H1457     1.0  0.69744  0.21152  0.77652  1.0000
  H   H1458     1.0  0.82375  0.45566  0.58852  1.0000
  H   H1459     1.0  0.70815  0.17518  0.64603  1.0000
  H   H1460     1.0  0.77436  0.39317  0.54424  1.0000
  H   H1461     1.0  0.80505  0.41861  0.55841  1.0000
  H   H1462     1.0  0.80056  0.39791  0.61015  1.0000
  H   H1463     1.0  0.76880  0.37237  0.59706  1.0000
  H   H1464     1.0  0.79699  0.37647  0.57700  1.0000
  H   H1465     1.0  0.83532  0.39606  0.66855  1.0000
  C   C819      1.0  0.94193  0.43934  0.49981  1.0000
  H   H1466     1.0  0.68845  0.43401  0.83603  1.0000
  C   C820      1.0  0.66869  0.21811  0.91478  1.0000
  H   H1467     1.0  0.88822  0.29600  0.69494  1.0000
  H   H1468     1.0  0.97039  0.41550  0.51075  1.0000
  H   H1469     1.0  0.67609  0.11368  0.95715  1.0000
  H   H1470     1.0  0.75163  0.45788  0.51176  1.0000
  H   H1471     1.0  0.89739  0.40396  0.74381  1.0000
  C   C821      1.0  0.76528  0.22173  0.73340  1.0000
  H   H1472     1.0  0.75018  0.41309  0.77824  1.0000
  C   C822      1.0  0.72581  0.44182  0.78980  1.0000
  H   H1473     1.0  0.90512  0.31228  0.73179  1.0000
  C   C823      1.0  0.84261  0.49540  0.57734  1.0000
  C   C824      1.0  0.67977  0.21913  0.81743  1.0000
  H   H1474     1.0  0.75747  0.45740  0.62148  1.0000
  H   H1475     1.0  0.74091  0.44888  0.87055  1.0000
  C   C825      1.0  0.67779  0.36086  0.89625  1.0000
  C   C826      1.0  0.77012  0.43506  0.52763  1.0000
  H   H1476     1.0  0.69305  0.14821  0.96339  1.0000
  H   H1477     1.0  0.87084  0.28955  0.73129  1.0000
  H   H1478     1.0  0.69687  0.35677  0.97777  1.0000
  H   H1479     1.0  0.97244  0.40074  0.54597  1.0000
  H   H1480     1.0  0.70811  0.46614  0.80151  1.0000
  H   H1481     1.0  0.90956  0.38762  0.76684  1.0000
  H   H1482     1.0  0.78603  0.47337  0.50772  1.0000
  H   H1483     1.0  0.68628  0.12932  0.62936  1.0000
  H   H1484     1.0  0.73625  0.47009  0.84463  1.0000
  H   H1485     1.0  0.84136  0.21082  0.69026  1.0000
  C   C827      1.0  0.67832  0.33859  0.97858  1.0000
  N   N47       1.0  0.71195  0.42034  0.81231  1.0000
  H   H1486     1.0  0.73763  0.42305  0.61777  1.0000
  H   H1487     1.0  0.83509  0.22304  0.65422  1.0000
  H   H1488     1.0  0.89626  0.34067  0.69688  1.0000
  H   H1489     1.0  0.76607  0.20047  0.77465  1.0000
  H   H1490     1.0  0.74545  0.45574  0.79969  1.0000
  C   C828      1.0  0.72638  0.45357  0.86021  1.0000
  H   H1491     1.0  0.92646  0.38633  0.50053  1.0000
  C   C829      1.0  0.70437  0.42972  0.84184  1.0000
  C   C830      1.0  0.96574  0.36738  0.63869  1.0000
  H   H1492     1.0  0.79650  0.23810  0.68116  1.0000
  H   H1493     1.0  0.72819  0.21440  0.67161  1.0000
  C   C831      1.0  0.71717  0.16355  0.65357  1.0000
  H   H1494     1.0  0.68513  0.22448  0.84310  1.0000
  H   H1495     1.0  0.95739  0.41821  0.70285  1.0000
  N   N48       1.0  0.87416  0.36248  0.73989  1.0000
  C   C832      1.0  0.86003  0.36130  0.70887  1.0000
  C   C833      1.0  0.87727  0.33877  0.74247  1.0000
  C   C834      1.0  0.85779  0.36289  0.76686  1.0000
  C   C835      1.0  0.89995  0.38664  0.74340  1.0000
  C   C836      1.0  0.91979  0.38985  0.71817  1.0000
  C   C837      1.0  0.85494  0.38414  0.70304  1.0000
  C   C838      1.0  0.86516  0.35785  0.80079  1.0000
  C   C839      1.0  0.88061  0.32648  0.71107  1.0000
  C   C840      1.0  0.88655  0.30475  0.71787  1.0000
  C   C841      1.0  0.83823  0.37926  0.67258  1.0000
  C   C842      1.0  0.84960  0.36253  0.82614  1.0000
  H   H1496     1.0  0.84110  0.34335  0.70740  1.0000
  H   H1497     1.0  0.87033  0.35991  0.68785  1.0000
  H   H1498     1.0  0.89357  0.34267  0.75953  1.0000
  H   H1499     1.0  0.85997  0.32297  0.75275  1.0000
  H   H1500     1.0  0.83717  0.34819  0.76189  1.0000
  H   H1501     1.0  0.85826  0.38178  0.76880  1.0000
  C   C843      1.0  0.79436  0.46575  0.57339  1.0000
  H   H1502     1.0  0.71356  0.44415  0.63777  1.0000
  H   H1503     1.0  0.94518  0.44766  0.55099  1.0000
  C   C844      1.0  0.83128  0.22076  0.68010  1.0000
  H   H1504     1.0  0.70028  0.42828  0.59932  1.0000
  C   C845      1.0  0.75227  0.19837  0.70916  1.0000
  H   H1505     1.0  0.73046  0.46987  0.73514  1.0000
  Fe  Fe93      1.0  0.87026  0.47808  0.50403  1.0000
  H   H1506     1.0  0.66988  0.23338  0.77507  1.0000
  H   H1507     1.0  0.66655  0.29556  0.81399  1.0000
  H   H1508     1.0  0.70999  0.15596  0.67731  1.0000
  C   C846      1.0  0.92218  0.36001  0.53698  1.0000
  H   H1509     1.0  0.80311  0.44140  0.98902  1.0000
  H   H1510     1.0  0.73198  0.47951  0.90065  1.0000
  H   H1511     1.0  0.71713  0.48888  0.75153  1.0000
  C   C847      1.0  0.99003  0.44165  0.55187  1.0000
  C   C848      1.0  0.67376  0.13109  0.95856  1.0000
  C   C849      1.0  0.72752  0.47818  0.75765  1.0000
  C   C850      1.0  0.85158  0.38472  0.50492  1.0000
  H   H1512     1.0  0.77681  0.42996  0.95959  1.0000
  H   H1513     1.0  0.70165  0.46808  0.87880  1.0000
  H   H1514     1.0  0.67507  0.49177  0.79114  1.0000
  C   C851      1.0  0.90414  0.33690  0.51522  1.0000
  H   H1515     1.0  0.75338  0.41575  0.52127  1.0000
  C   C852      1.0  0.99671  0.37180  0.59860  1.0000
  H   H1516     1.0  0.93985  0.47460  0.50845  1.0000
  H   H1517     1.0  0.68533  0.36348  0.81095  1.0000
  S   S185      1.0  0.66883  0.46291  0.60817  1.0000
  H   H1518     1.0  0.67342  0.40656  0.79205  1.0000
  H   H1519     1.0  0.66653  0.32991  0.86109  1.0000
  C   C853      1.0  0.76795  0.45468  0.50577  1.0000
  Fe  Fe94      1.0  0.90499  0.52420  0.46570  1.0000
  C   C854      1.0  0.98047  0.56940  0.46202  1.0000
  S   S186      1.0  0.87031  0.52405  0.44074  1.0000
  S   S187      1.0  0.94812  0.54415  0.45272  1.0000
  H   H1520     1.0  0.99665  0.55545  0.42621  1.0000
  C   C855      1.0  0.98647  0.58855  0.48592  1.0000
  Fe  Fe95      1.0  0.85147  0.51638  0.48897  1.0000
  H   H1521     1.0  0.76672  0.51057  0.49703  1.0000
  C   C856      1.0  0.95869  0.52893  0.54215  1.0000
  C   C857      1.0  0.98087  0.52589  0.52885  1.0000
  C   C858      1.0  0.77247  0.51514  0.52205  1.0000
  H   H1522     1.0  0.68927  0.56367  0.75775  1.0000
  H   H1523     1.0  0.73418  0.50637  0.53641  1.0000
  S   S188      1.0  0.88778  0.52067  0.51415  1.0000
  H   H1524     1.0  0.84212  0.50802  0.55855  1.0000
  C   C859      1.0  0.76118  0.52000  0.57673  1.0000
  C   C860      1.0  0.78714  0.52866  0.58624  1.0000
  C   C861      1.0  0.80561  0.53078  0.56398  1.0000
  C   C862      1.0  0.79851  0.52402  0.53157  1.0000
  H   H1525     1.0  0.97946  0.50774  0.53720  1.0000
  S   S189      1.0  0.68114  0.51077  0.65951  1.0000
  H   H1526     1.0  0.95958  0.52950  0.56865  1.0000
  H   H1527     1.0  0.82560  0.53862  0.57177  1.0000
  H   H1528     1.0  0.69492  0.56035  0.71625  1.0000
  H   H1529     1.0  0.95945  0.54686  0.53378  1.0000
  H   H1530     1.0  0.97815  0.52423  0.50239  1.0000
  H   H1531     1.0  0.79324  0.53458  0.61096  1.0000
  H   H1532     1.0  0.93991  0.51248  0.53357  1.0000
  S   S190      1.0  0.73932  0.51956  0.60615  1.0000
  C   C863      1.0  0.75391  0.51282  0.54441  1.0000
  S   S191      1.0  0.66797  0.51529  0.58445  1.0000
  H   H1533     1.0  0.69103  0.53565  0.74308  1.0000
  S   S192      1.0  0.82217  0.53021  0.50197  1.0000
  Fe  Fe96      1.0  0.69566  0.50562  0.61136  1.0000
  C   C864      1.0  0.68443  0.54969  0.73726  1.0000
  H   H1534     1.0  0.97111  0.58865  0.49921  1.0000
  H   H1535     1.0  0.99889  0.51422  0.58694  1.0000
  H   H1536     1.0  0.84060  0.50287  0.60102  1.0000
