data_image0
_chemical_formula_structural       FeS2FeS2FeSFeS3FeS2FeS2FeSFeS3FeS2H3SCHFeS2CH2CHCH2CH5C12H6C4H5C2H3C2HCH3C6H6CH2NC4HCH2C2H2C2H10C2H3CH6CH5CHCH2C3HCH3NH4CH3NHCH3CHNH3CH8C2H5CHCH3CH2NC3H2CH8C2H2NH2CH4C2NC3H2C2HCNC12H23CH3CH6CH2CH2C5H9CH4CHCH2CHC3HCH3CH4CHCH6CH2C3H3CH4CH3CHSCH3C3HCHFeH2CH2FeS2FeS2FeSFeS3FeS2FeS2FeSFeS3FeSCFeHSH2C4H4C4H2CHC7H6C2HCHCHC2H6CHCHCHC6H3NC9HC2H16CHC2H5CH2C2H3CHCH2CNH5CH5C3H3C4H2CH2C3H9CHCNH11CH5NH7C2H6CH4CHCH3C3HC2HCHC3H2CH3SH4CHCHCH7CH5NC2HC3HCHC2H3CH9SH2CH6CH7CHCFeS2FeS2FeSFeS3H4CHFeS2FeS2HCH3CFeS2FeS2FeSFeS3C2HC3SHCHCH2C3H3C6H4CHCHC2H3CHC3H4C2HC6H6NHC3H2C2H2CSCH6C2H7CHCHNH4NC7H4C3H5CH2FeH3CH3CHCHCFeHCSCFeH5NHCH2CH3CH2CH3CSCH2C2H2C5HCH2C3H5CNC2HCH4SH3CH5FeH2CH12C2SCH2CHCH3CHCH2CHCH2CH5CH2CH2CH11CHSHC2SCH5CH2NCHCFeS2FeS2FeSFeS3FeS2FeS2FeS2FeS2FeSFeS3C4H5C3H4C3H3C6H4C2H4C6H4CHCH3CH3CH2CH6CHC2H3NCH4C2H3FeH4CHC2H2FeH2S2HNHC2HCH3CHCHC2NCH5C2H13CH5C2HCH3C2H3SCH2CHCH6CHC2HC5H2NC9HC2H19CH8C2H4CH2CNC5HC6H4CH8CH14NC3HC4H6C2H4CSCH4FeCH7C2HS2HFeS2FeS2FeSFeS3FeS2FeS2FeSFeS3FeS2FeHFeHS2FeS2CFeSH2SH6C3H4CH3C6H5C2H3C2NHC5H3C6H4C2HNC9HC2H9CH9CH8SH3NCHCH7CH2NC11H20CHCH4CH2FeH4C2H3CH4CH5C2HCH5CH3CH2CH2NHC4H4CH9C2H4SHC3HCH4CH9CH5C2NC12H2SHCH2C3H4C2H5CHFeC4HCHCH2CHSHCHFeS2FeS2FeSFeS3FeS2FeS2FeSFeS3HSCHSH5C3H2C6H7C3H2CHCH2CH2CHC6H7C4HCNC4H3C2H9CHFeH2CH3C4HCHC8H6NC5HC2HCHCH10C2H6NH5CH5CHSH4CH6CHCH4CH4C2H4CH5CH4NC9H20CH2CH2CHFeH4C3H2CHCH2CH3CNCH4C2HCH7SH2C2HCH3NC7H2C2H11CHCH2CHC3SHCH6FeS2FeS2FeSFeS3FeS2CH6FeS2H2SCHCFeS2FeS2FeSFeS3C2SCHC2H4C6H4CH2CH5SH6CH2CHC6H7C6H4CNC9HC2H16CH9CHNHCH2NHSCH5C2HFeHCH3CH2CH4FeH2CH2C2H3CHCHC3H2CH5CSNC12H30CH5CHFeH2CHSFeHC2H2C2HNC9H2CH9SCH3C4H4CH2C3H5C2H2CHCHC2H3CHC2HCH5CH2FeS2FeS2FeSFeS3H2SHSFeS2FeS2FeSFeS3C4HC2H2C3H2C6H7C2HCH5C6H4C3H2CH3NC12H16C2H10NCHC6HC2H3CH25CFeH6CH4CH3C2H2SHCH3C4H4CHC2NCHCH3CNCH2CH9CH3SCHC7NC4HC4HC2H7CH12CH10CH3CH4CH2C2H4CHC3HCH5C2HCH2CHCH2CH3C2FeS2FeS2FeSFeS3FeS2FeS2FeSFeS3HCH4FeS2FeS2HCH3C3HCH7CHC2HCH3FeCH2CH2CH2C2H3C6H4C6H4C2H4CH2CH2CH4CH5CH3CHCH5C4HCSC2HCHCH3C3HCH11SCHC2H2CHNHSCH4C2H2FeH2C2HCHCH7CHCHC7H16NCHC2H4CH3C2HCHCH2CNH11C2H2NHCH2CH4C4H2CHCH3CHC3HCNC2HNC7H2C3H16CH3CH3CH2C2H4NCHC2H4CH2FeS2FeS2FeSFeS3FeS2FeS2FeSFeS3HSFeS2H7CHCH3CHC4H2C6H4C2H6C6H5C2HCH2C3H3C2SHCHCH9CH4CH2CFeHCHC2HC3NC10H24CHCHCH2C2H2CHC2H2C2HCS2C3H6NH2SC2HCSH2CHC2H2CH3NH6CHCHCH2CH2CH5CHCH3CHCH7CH2CH3CHCH2CH2C2H2CH6CH3CH2CHC2H2CHNC2H2FeCHCHFeH3CH2C2H2CFeHSNSFeS2FeSHFeS2FeSFeS3CFeS2HCH4C2H4FeS2FeS2FeS2FeSFeS3C4H5CH3C7H11C2H3CHCHNHC6H4CNCH2CHCH4CH5CHCH3CH5CH3CH3C2H2CHC3HCH7CH3CH3C3H3CHCH10CNC2HCH2CH2CH2C2HNC11H21CH3C2H2C2HCHNC3HCH5CHCH9C2H2NC2HCH5CHC4H5CH2SH5CHCH2CH7C2HC3HC2H6CHC2FeS2FeS2FeSFeS3FeS2HSFeS2FeS2FeSFeS3FeH2C5H2CHCH2CH3C6H4CHCH2C3H2C6H7CH2CH3CHSH2CH2CH4CHCHCHCHNCHSH2CHC2H4NC12H31C3H4CFeH4C2SHCHSCH4NC5HC3H2CH8CH5C2HCHCHC2H6CHC4H2CH3NFeHC3H2CH4C3H4CH4CHCNHCH4CH2SH2CH4CH4C3HCHCNHC2H3CH5CH14C3H3CH2CH3SCHC4H6FeS2FeS2FeSFeS3FeS2FeS2FeCFeS3FeS2H6FeS2FeSFeHS2CSH2CH3C2HSH2CH2C6H4CFeCHSC2HC3NFeH2C4H2C6H4CH2C2H3CHCHCHCH2CHCH6CNHCH2C3HC2HCH7CNCH3CHCH4CH3CH3C2H9CHCNC10H25CH5CH2C2H2CHCH2SH7CH4CNC3HCHCH2CHCH6C2H3CH5CH4S2H5CH6CH2C3HC2H3C2HCH7CH2NFeS2FeS2FeSFeS3FeS2FeS2FeSFeS3FeS2FeCSHNHCH2C6H4C6H9C2H2CH2C5HCHC6H5C3H3NH2C3HC2HCHCH2CH6CHCH5CH3CNH8C2HCHCH2CHCH10CH6C3H9CHCHC2HC4H2CHCH7CHCHC2H3C2HC2H2CHCH5C2HCHC2H3CNHCSCHCHC3HCHC6H3CH9CH2C4H7NC2H4CNH7CH14CH3CH3CNCH8C2H8C2H4CHCH2CHFeS2FeS2FeSFeS3FeS2CH3CHFeS2C2HCHCFeS2FeS2FeSFeS3HCHCHFeCH2C6H5CHCH4C2H7C3SCH3C6H5C2H4NC6H12CH3CHC2SH5CH5SH3CH3C3H2N2C3H2C4HCHCH8CH3CH3NCHC10H2SH12CHCH2CH7NC5H9CH4FeCHCHNHCH2CHCHSC3HCHC3HC2H4CHCHC2H2CH2C3H3CHSH14CFeHSHC2HCH7SH2FeH3CHCH2CFeS2FeS2FeSFeS3H2SHCSFeS2FeS2FeSFeS3CNH3CHC3FeH4C6H5C6H3C6H7C2H2C3H6CH6SHC2HC2H9CH4CH2CH6C2HCHCHC3H4N2C4HC3NH10C2H3CH8CH3C2HCH10C2H2CFeH3CH2NC3H2C5H9C2H2CH13CHC2HC3H4C4H2CH3C2SH9CHC4HCH3CH3CH8CHCH2CH3C2HNCHC2H2
_chemical_formula_sum              "Fe192 S384 H3072 C1728 N96"
_cell_length_a       59.1456
_cell_length_b       59.2931
_cell_length_c       75.1952
_cell_angle_alpha    86.4732
_cell_angle_beta     86.4002
_cell_angle_gamma    85.6984

_space_group_name_H-M_alt    "P 1"
_space_group_IT_number       1

loop_
  _space_group_symop_operation_xyz
  'x, y, z'

loop_
  _atom_site_type_symbol
  _atom_site_label
  _atom_site_symmetry_multiplicity
  _atom_site_fract_x
  _atom_site_fract_y
  _atom_site_fract_z
  _atom_site_occupancy
  Fe  Fe1       1.0  0.38780  0.09614  0.13986  1.0000
  S   S1        1.0  0.40179  0.05966  0.13868  1.0000
  S   S2        1.0  0.37044  0.11513  0.11611  1.0000
  Fe  Fe2       1.0  0.39652  0.09660  0.18038  1.0000
  S   S3        1.0  0.41152  0.06101  0.18150  1.0000
  S   S4        1.0  0.39373  0.11839  0.20451  1.0000
  Fe  Fe3       1.0  0.42906  0.07043  0.15517  1.0000
  S   S5        1.0  0.46522  0.05623  0.15176  1.0000
  Fe  Fe4       1.0  0.38289  0.05342  0.16518  1.0000
  S   S6        1.0  0.36337  0.02358  0.17592  1.0000
  S   S7        1.0  0.41642  0.10717  0.15500  1.0000
  S   S8        1.0  0.36652  0.08882  0.16541  1.0000
  Fe  Fe5       1.0  0.12647  0.38046  0.14701  1.0000
  S   S9        1.0  0.09200  0.38564  0.13614  1.0000
  S   S10       1.0  0.15841  0.37196  0.12908  1.0000
  Fe  Fe6       1.0  0.10833  0.39327  0.18532  1.0000
  S   S11       1.0  0.07268  0.39953  0.17653  1.0000
  S   S12       1.0  0.11226  0.40537  0.21337  1.0000
  Fe  Fe7       1.0  0.07962  0.36804  0.16178  1.0000
  S   S13       1.0  0.05109  0.34472  0.16353  1.0000
  Fe  Fe8       1.0  0.08787  0.41659  0.15179  1.0000
  S   S14       1.0  0.07374  0.44921  0.13886  1.0000
  S   S15       1.0  0.11457  0.36004  0.17200  1.0000
  S   S16       1.0  0.12309  0.41301  0.16118  1.0000
  Fe  Fe9       1.0  0.19663  0.37110  0.02054  1.0000
  S   S17       1.0  0.23274  0.38161  0.01790  1.0000
  S   S18       1.0  0.16902  0.37415  0.04352  1.0000
  H   H1        1.0  0.42164  0.17710  0.17505  1.0000
  H   H2        1.0  0.20215  0.47383  0.04478  1.0000
  H   H3        1.0  0.17394  0.40258  0.19801  1.0000
  S   S19       1.0  0.20410  0.34167  0.00267  1.0000
  C   C1        1.0  0.44108  0.27677  0.07971  1.0000
  H   H4        1.0  0.47773  0.21980  0.06166  1.0000
  Fe  Fe10      1.0  0.39848  0.18148  0.01700  1.0000
  S   S20       1.0  0.39791  0.21935  0.01116  1.0000
  S   S21       1.0  0.40948  0.16743  0.04460  1.0000
  C   C2        1.0  0.46791  0.06460  0.20486  1.0000
  H   H5        1.0  0.47110  0.17923  0.06236  1.0000
  H   H6        1.0  0.35624  0.03284  0.23996  1.0000
  C   C3        1.0  0.05090  0.42798  0.23095  1.0000
  H   H7        1.0  0.48052  0.26186  0.06069  1.0000
  C   C4        1.0  0.06523  0.41703  0.09352  1.0000
  H   H8        1.0  0.04293  0.43111  0.21797  1.0000
  H   H9        1.0  0.45904  0.01799  0.09263  1.0000
  C   C5        1.0  0.33043  0.08173  0.24106  1.0000
  H   H10       1.0  0.24241  0.41500  0.07359  1.0000
  H   H11       1.0  0.35116  0.10227  0.20206  1.0000
  H   H12       1.0  0.43121  0.14059  0.21638  1.0000
  H   H13       1.0  0.16556  0.47255  0.15500  1.0000
  H   H14       1.0  0.14585  0.46056  0.03134  1.0000
  C   C6        1.0  0.24433  0.48204  0.02253  1.0000
  C   C7        1.0  0.38510  0.02908  0.22164  1.0000
  C   C8        1.0  0.14801  0.47419  0.16127  1.0000
  C   C9        1.0  0.07026  0.39188  0.09031  1.0000
  C   C10       1.0  0.06917  0.34549  0.11134  1.0000
  C   C11       1.0  0.16165  0.43588  0.18771  1.0000
  C   C12       1.0  0.16107  0.37280  0.10527  1.0000
  C   C13       1.0  0.18260  0.36825  0.09660  1.0000
  C   C14       1.0  0.18544  0.36852  0.07777  1.0000
  C   C15       1.0  0.16670  0.37330  0.06734  1.0000
  C   C16       1.0  0.14519  0.37799  0.07601  1.0000
  C   C17       1.0  0.14238  0.37777  0.09481  1.0000
  H   H15       1.0  0.19719  0.36436  0.10452  1.0000
  H   H16       1.0  0.20208  0.36486  0.07137  1.0000
  H   H17       1.0  0.13059  0.38183  0.06810  1.0000
  H   H18       1.0  0.12578  0.38140  0.10125  1.0000
  H   H19       1.0  0.09049  0.45705  0.21122  1.0000
  H   H20       1.0  0.42609  0.27236  0.08854  1.0000
  C   C18       1.0  0.06741  0.46880  0.15524  1.0000
  C   C19       1.0  0.05892  0.46168  0.17227  1.0000
  C   C20       1.0  0.05456  0.47726  0.18552  1.0000
  C   C21       1.0  0.45795  0.26690  0.01995  1.0000
  H   H21       1.0  0.33069  0.13454  0.00555  1.0000
  H   H22       1.0  0.05539  0.44425  0.17520  1.0000
  H   H23       1.0  0.04808  0.47170  0.19871  1.0000
  H   H24       1.0  0.11157  0.33619  0.05219  1.0000
  H   H25       1.0  0.35349  0.05850  0.20306  1.0000
  C   C22       1.0  0.02601  0.35722  0.15455  1.0000
  C   C23       1.0  0.02621  0.37785  0.14450  1.0000
  H   H26       1.0  0.02529  0.40744  0.24327  1.0000
  H   H27       1.0  0.44637  0.24310  0.07077  1.0000
  H   H28       1.0  0.04152  0.38682  0.14296  1.0000
  C   C24       1.0  0.11445  0.39189  0.23517  1.0000
  C   C25       1.0  0.44793  0.02571  0.10342  1.0000
  H   H29       1.0  0.23469  0.39335  0.05957  1.0000
  C   C26       1.0  0.46104  0.19135  0.05362  1.0000
  H   H30       1.0  0.32292  0.11247  0.17841  1.0000
  H   H31       1.0  0.45794  0.18295  0.04127  1.0000
  H   H32       1.0  0.46345  0.10523  0.14753  1.0000
  C   C27       1.0  0.38181  0.12912  0.09612  1.0000
  C   C28       1.0  0.40465  0.13392  0.09373  1.0000
  C   C29       1.0  0.41269  0.14559  0.07790  1.0000
  C   C30       1.0  0.39817  0.15242  0.06410  1.0000
  C   C31       1.0  0.37534  0.14751  0.06641  1.0000
  C   C32       1.0  0.36723  0.13609  0.08235  1.0000
  H   H33       1.0  0.41608  0.12880  0.10415  1.0000
  H   H34       1.0  0.43036  0.14928  0.07632  1.0000
  H   H35       1.0  0.36398  0.15244  0.05592  1.0000
  H   H36       1.0  0.34958  0.13236  0.08399  1.0000
  H   H37       1.0  0.46435  0.28408  0.01800  1.0000
  H   H38       1.0  0.14394  0.43237  0.19182  1.0000
  C   C33       1.0  0.39140  0.11382  0.22818  1.0000
  H   H39       1.0  0.40408  0.07881  0.23016  1.0000
  H   H40       1.0  0.38955  0.01150  0.22689  1.0000
  N   N1        1.0  0.05303  0.35276  0.09695  1.0000
  C   C34       1.0  0.33325  0.10737  0.20590  1.0000
  C   C35       1.0  0.04938  0.37830  0.09600  1.0000
  C   C36       1.0  0.03050  0.34323  0.10269  1.0000
  C   C37       1.0  0.06111  0.34423  0.07892  1.0000
  H   H41       1.0  0.09555  0.35742  0.07751  1.0000
  C   C38       1.0  0.07166  0.31970  0.11640  1.0000
  H   H42       1.0  0.42332  0.25527  0.02529  1.0000
  H   H43       1.0  0.09130  0.32316  0.13958  1.0000
  C   C39       1.0  0.00679  0.38655  0.13583  1.0000
  C   C40       1.0  0.46574  0.26572  0.05223  1.0000
  H   H44       1.0  0.38992  0.23672  0.07247  1.0000
  H   H45       1.0  0.14732  0.46524  0.99869  1.0000
  C   C41       1.0  0.46084  0.10718  0.20649  1.0000
  C   C42       1.0  0.09855  0.47070  0.21746  1.0000
  H   H46       1.0  0.03663  0.38422  0.08619  1.0000
  H   H47       1.0  0.04224  0.38406  0.10912  1.0000
  H   H48       1.0  0.02550  0.34692  0.11681  1.0000
  H   H49       1.0  0.03200  0.32442  0.10247  1.0000
  H   H50       1.0  0.05526  0.32706  0.07738  1.0000
  H   H51       1.0  0.05309  0.35518  0.06813  1.0000
  H   H52       1.0  0.08638  0.35124  0.10788  1.0000
  H   H53       1.0  0.38941  0.02996  0.20707  1.0000
  H   H54       1.0  0.05651  0.31466  0.12481  1.0000
  H   H55       1.0  0.07315  0.30959  0.10441  1.0000
  C   C43       1.0  0.45005  0.11525  0.24512  1.0000
  C   C44       1.0  0.07109  0.49162  0.15135  1.0000
  H   H56       1.0  0.44246  0.23045  0.04160  1.0000
  H   H57       1.0  0.39249  0.24063  0.04834  1.0000
  H   H58       1.0  0.26850  0.25787  0.04697  1.0000
  C   C45       1.0  0.12317  0.47193  0.21026  1.0000
  H   H59       1.0  0.47130  0.18979  0.00272  1.0000
  H   H60       1.0  0.10830  0.31740  0.11927  1.0000
  H   H61       1.0  0.00559  0.33005  0.16451  1.0000
  H   H62       1.0  0.12466  0.35851  0.22663  1.0000
  H   H63       1.0  0.43805  0.29453  0.07428  1.0000
  H   H64       1.0  0.30732  0.19588  0.00978  1.0000
  C   C46       1.0  0.12484  0.47478  0.18953  1.0000
  H   H65       1.0  0.00313  0.49296  0.17763  1.0000
  H   H66       1.0  0.30195  0.09196  0.21394  1.0000
  H   H67       1.0  0.01196  0.44195  0.13690  1.0000
  H   H68       1.0  0.47123  0.14290  0.23924  1.0000
  H   H69       1.0  0.40830  0.16635  0.19571  1.0000
  C   C47       1.0  0.01004  0.35170  0.09151  1.0000
  H   H70       1.0  0.14654  0.45436  0.05993  1.0000
  C   C48       1.0  0.13666  0.44075  0.09308  1.0000
  H   H71       1.0  0.09796  0.46697  0.23212  1.0000
  H   H72       1.0  0.13765  0.43768  0.10775  1.0000
  C   C49       1.0  0.35977  0.03506  0.22542  1.0000
  C   C50       1.0  0.09283  0.33800  0.05481  1.0000
  C   C51       1.0  0.44445  0.26057  0.06457  1.0000
  H   H73       1.0  0.01456  0.35091  0.07700  1.0000
  C   C52       1.0  0.44754  0.14671  0.21063  1.0000
  H   H74       1.0  0.25553  0.48050  0.03345  1.0000
  H   H75       1.0  0.33400  0.13668  0.18721  1.0000
  H   H76       1.0  0.48815  0.13574  0.18996  1.0000
  N   N2        1.0  0.04290  0.36249  0.23535  1.0000
  H   H77       1.0  0.46074  0.22291  0.02347  1.0000
  H   H78       1.0  0.19625  0.44455  0.02592  1.0000
  H   H79       1.0  0.08563  0.32223  0.05121  1.0000
  H   H80       1.0  0.01293  0.39387  0.18713  1.0000
  C   C53       1.0  0.45482  0.01593  0.12174  1.0000
  H   H81       1.0  0.16849  0.42192  0.08827  1.0000
  H   H82       1.0  0.20214  0.42848  0.07413  1.0000
  H   H83       1.0  0.29587  0.05896  0.23391  1.0000
  N   N3        1.0  0.46922  0.25344  0.03511  1.0000
  H   H84       1.0  0.24962  0.44659  0.01686  1.0000
  C   C54       1.0  0.30594  0.03964  0.21087  1.0000
  H   H85       1.0  0.00730  0.40209  0.12754  1.0000
  H   H86       1.0  0.19385  0.41027  0.05812  1.0000
  H   H87       1.0  0.38506  0.01052  0.14212  1.0000
  C   C55       1.0  0.46057  0.23002  0.03683  1.0000
  H   H88       1.0  0.29008  0.17081  0.10461  1.0000
  N   N4        1.0  0.46671  0.12895  0.21388  1.0000
  H   H89       1.0  0.42873  0.26196  0.05727  1.0000
  H   H90       1.0  0.48583  0.11618  0.23658  1.0000
  H   H91       1.0  0.17525  0.42507  0.03172  1.0000
  C   C56       1.0  0.24083  0.46272  0.01327  1.0000
  H   H92       1.0  0.14087  0.45775  0.15936  1.0000
  H   H93       1.0  0.46015  0.10919  0.19172  1.0000
  H   H94       1.0  0.42915  0.99849  0.15158  1.0000
  H   H95       1.0  0.44453  0.19576  0.06088  1.0000
  H   H96       1.0  0.06963  0.42745  0.22858  1.0000
  H   H97       1.0  0.35252  0.11347  0.99891  1.0000
  H   H98       1.0  0.02243  0.46520  0.14634  1.0000
  H   H99       1.0  0.02121  0.42048  0.19405  1.0000
  C   C57       1.0  0.06453  0.34144  0.20934  1.0000
  C   C58       1.0  0.08517  0.32507  0.20527  1.0000
  H   H100      1.0  0.06746  0.35799  0.20221  1.0000
  H   H101      1.0  0.04972  0.33436  0.20389  1.0000
  H   H102      1.0  0.08310  0.30831  0.21239  1.0000
  H   H103      1.0  0.08695  0.32261  0.19071  1.0000
  H   H104      1.0  0.10091  0.33200  0.20929  1.0000
  C   C59       1.0  0.16056  0.43884  0.08404  1.0000
  H   H105      1.0  0.42993  0.02274  0.10151  1.0000
  C   C60       1.0  0.09247  0.31355  0.12727  1.0000
  H   H106      1.0  0.07462  0.39048  0.07582  1.0000
  H   H107      1.0  0.44962  0.04429  0.10250  1.0000
  H   H108      1.0  0.15887  0.48923  0.04951  1.0000
  C   C61       1.0  0.05147  0.38521  0.22897  1.0000
  H   H109      1.0  0.08028  0.42647  0.08904  1.0000
  H   H110      1.0  0.05053  0.42421  0.08599  1.0000
  N   N5        1.0  0.32906  0.06913  0.22432  1.0000
  C   C62       1.0  0.02112  0.35869  0.22686  1.0000
  C   C63       1.0  0.42435  0.17249  0.18934  1.0000
  C   C64       1.0  0.16588  0.46120  0.18899  1.0000
  H   H111      1.0  0.09340  0.29518  0.13127  1.0000
  H   H112      1.0  0.32273  0.17018  0.01792  1.0000
  C   C65       1.0  0.31985  0.08603  0.21016  1.0000
  H   H113      1.0  0.03429  0.45710  0.10918  1.0000
  H   H114      1.0  0.48145  0.08374  0.22434  1.0000
  H   H115      1.0  0.41477  0.00395  0.18349  1.0000
  H   H116      1.0  0.45622  0.27548  0.08785  1.0000
  H   H117      1.0  0.25755  0.41086  0.05233  1.0000
  H   H118      1.0  0.09530  0.32768  0.08245  1.0000
  H   H119      1.0  0.44288  0.00511  0.19142  1.0000
  H   H120      1.0  0.16786  0.46468  0.20318  1.0000
  C   C66       1.0  0.49439  0.25083  0.03001  1.0000
  C   C67       1.0  0.13417  0.49261  0.15009  1.0000
  H   H121      1.0  0.48798  0.14116  0.05881  1.0000
  H   H122      1.0  0.06150  0.41946  0.10798  1.0000
  N   N6        1.0  0.18231  0.44550  0.05330  1.0000
  H   H123      1.0  0.05575  0.32720  0.23580  1.0000
  H   H124      1.0  0.40749  0.21683  0.05955  1.0000
  C   C68       1.0  0.22395  0.42790  0.05040  1.0000
  H   H125      1.0  0.49106  0.13266  0.15395  1.0000
  H   H126      1.0  0.02340  0.36075  0.21205  1.0000
  H   H127      1.0  0.18289  0.46326  0.18219  1.0000
  H   H128      1.0  0.16948  0.47663  0.02278  1.0000
  C   C69       1.0  0.24061  0.41071  0.05960  1.0000
  C   C70       1.0  0.17711  0.42057  0.19957  1.0000
  N   N7        1.0  0.14833  0.47788  0.18093  1.0000
  C   C71       1.0  0.16277  0.45956  0.02415  1.0000
  C   C72       1.0  0.19048  0.46849  0.05624  1.0000
  C   C73       1.0  0.47919  0.09920  0.15326  1.0000
  H   H129      1.0  0.16521  0.43094  0.17374  1.0000
  H   H130      1.0  0.06339  0.35379  0.12388  1.0000
  C   C74       1.0  0.47401  0.21244  0.04904  1.0000
  C   C75       1.0  0.48874  0.13592  0.20470  1.0000
  H   H131      1.0  0.23056  0.44488  0.05070  1.0000
  C   C76       1.0  0.16000  0.44109  0.06337  1.0000
  N   N8        1.0  0.32740  0.21580  0.05840  1.0000
  C   C77       1.0  0.30751  0.23331  0.05966  1.0000
  C   C78       1.0  0.32743  0.19963  0.07483  1.0000
  C   C79       1.0  0.34879  0.22836  0.05779  1.0000
  C   C80       1.0  0.32783  0.20300  0.04164  1.0000
  C   C81       1.0  0.30635  0.19060  0.03878  1.0000
  C   C82       1.0  0.30524  0.25083  0.04352  1.0000
  C   C83       1.0  0.37146  0.21341  0.05848  1.0000
  C   C84       1.0  0.30408  0.19369  0.08379  1.0000
  C   C85       1.0  0.30688  0.17416  0.09792  1.0000
  C   C86       1.0  0.30726  0.18165  0.02011  1.0000
  C   C87       1.0  0.28420  0.26715  0.04619  1.0000
  C   C88       1.0  0.39152  0.22792  0.05979  1.0000
  H   H132      1.0  0.30830  0.24288  0.07190  1.0000
  H   H133      1.0  0.29112  0.22530  0.06136  1.0000
  H   H134      1.0  0.33737  0.18344  0.07184  1.0000
  H   H135      1.0  0.33633  0.20668  0.08568  1.0000
  H   H136      1.0  0.34801  0.23991  0.06901  1.0000
  H   H137      1.0  0.35047  0.23931  0.04528  1.0000
  H   H138      1.0  0.33140  0.21443  0.02967  1.0000
  H   H139      1.0  0.34218  0.18975  0.04137  1.0000
  H   H140      1.0  0.29061  0.20184  0.04024  1.0000
  H   H141      1.0  0.30533  0.17574  0.04844  1.0000
  H   H142      1.0  0.32007  0.26129  0.04167  1.0000
  H   H143      1.0  0.30355  0.24223  0.03104  1.0000
  H   H144      1.0  0.37450  0.20406  0.04615  1.0000
  H   H145      1.0  0.37157  0.20092  0.07007  1.0000
  H   H146      1.0  0.29591  0.20860  0.09059  1.0000
  H   H147      1.0  0.29232  0.18879  0.07408  1.0000
  H   H148      1.0  0.31833  0.17838  0.10821  1.0000
  H   H149      1.0  0.45257  0.06094  0.21356  1.0000
  H   H150      1.0  0.31401  0.15846  0.09167  1.0000
  H   H151      1.0  0.29215  0.17204  0.01863  1.0000
  H   H152      1.0  0.12162  0.46978  0.13192  1.0000
  H   H153      1.0  0.28496  0.27635  0.05855  1.0000
  H   H154      1.0  0.28335  0.27987  0.03472  1.0000
  C   C89       1.0  0.00226  0.42294  0.17003  1.0000
  H   H155      1.0  0.36548  0.07092  0.22054  1.0000
  H   H156      1.0  0.08526  0.38600  0.09780  1.0000
  H   H157      1.0  0.47254  0.02009  0.12322  1.0000
  C   C90       1.0  0.19980  0.42737  0.05966  1.0000
  H   H158      1.0  0.31372  0.09096  0.24443  1.0000
  H   H159      1.0  0.12834  0.45793  0.09037  1.0000
  H   H160      1.0  0.45908  0.16085  0.18392  1.0000
  H   H161      1.0  0.07726  0.34677  0.23473  1.0000
  H   H162      1.0  0.01808  0.42068  0.16138  1.0000
  H   H163      1.0  0.32111  0.03606  0.20176  1.0000
  C   C91       1.0  0.17987  0.44262  0.03369  1.0000
  H   H164      1.0  0.08600  0.35253  0.04622  1.0000
  H   H165      1.0  0.00939  0.45645  0.17593  1.0000
  C   C92       1.0  0.48440  0.07594  0.15638  1.0000
  H   H166      1.0  0.44340  0.10295  0.21138  1.0000
  H   H167      1.0  0.31791  0.03792  0.23760  1.0000
  C   C93       1.0  0.08723  0.34215  0.07451  1.0000
  C   C94       1.0  0.06042  0.34397  0.22971  1.0000
  C   C95       1.0  0.39759  0.09320  0.23753  1.0000
  C   C96       1.0  0.44371  0.15401  0.19080  1.0000
  C   C97       1.0  0.35229  0.05934  0.21787  1.0000
  H   H168      1.0  0.29027  0.00991  0.20350  1.0000
  H   H169      1.0  0.19526  0.42298  0.19575  1.0000
  H   H170      1.0  0.22388  0.42335  0.03635  1.0000
  H   H171      1.0  0.17057  0.45194  0.08908  1.0000
  H   H172      1.0  0.11738  0.45991  0.18440  1.0000
  H   H173      1.0  0.42848  0.18787  0.19584  1.0000
  H   H174      1.0  0.13254  0.45602  0.21502  1.0000
  H   H175      1.0  0.12614  0.42788  0.08827  1.0000
  H   H176      1.0  0.43902  0.13952  0.18349  1.0000
  C   C98       1.0  0.38390  0.13255  0.23794  1.0000
  H   H177      1.0  0.46321  0.06631  0.19077  1.0000
  H   H178      1.0  0.14821  0.48154  0.12427  1.0000
  H   H179      1.0  0.31944  0.07787  0.19724  1.0000
  H   H180      1.0  0.44969  0.16215  0.21787  1.0000
  C   C99       1.0  0.32331  0.12220  0.19052  1.0000
  H   H181      1.0  0.30579  0.12898  0.19439  1.0000
  C   C100      1.0  0.13137  0.48515  0.13131  1.0000
  H   H182      1.0  0.49387  0.08822  0.20207  1.0000
  H   H183      1.0  0.33265  0.11819  0.21746  1.0000
  C   C101      1.0  0.47764  0.08625  0.21009  1.0000
  H   H184      1.0  0.42996  0.29755  0.00033  1.0000
  C   C102      1.0  0.04386  0.40578  0.24035  1.0000
  C   C103      1.0  0.46962  0.12613  0.23372  1.0000
  C   C104      1.0  0.00589  0.34599  0.15670  1.0000
  H   H185      1.0  0.15369  0.42504  0.05923  1.0000
  C   C105      1.0  0.00399  0.47332  0.12243  1.0000
  H   H186      1.0  0.46524  0.28438  0.04919  1.0000
  H   H187      1.0  0.34300  0.09484  0.23890  1.0000
  H   H188      1.0  0.37926  0.14860  0.23099  1.0000
  C   C106      1.0  0.15934  0.45264  0.00531  1.0000
  H   H189      1.0  0.20098  0.46760  0.06810  1.0000
  H   H190      1.0  0.49043  0.20682  0.04210  1.0000
  H   H191      1.0  0.44359  0.02488  0.13178  1.0000
  H   H192      1.0  0.04691  0.38966  0.21498  1.0000
  C   C107      1.0  0.12095  0.36883  0.23796  1.0000
  H   H193      1.0  0.13015  0.48630  0.21632  1.0000
  C   C108      1.0  0.31207  0.05135  0.22770  1.0000
  H   H194      1.0  0.01659  0.34088  0.22998  1.0000
  H   H195      1.0  0.02390  0.48357  0.09843  1.0000
  H   H196      1.0  0.35050  0.02233  0.21913  1.0000
  H   H197      1.0  0.07036  0.38433  0.22823  1.0000
  H   H198      1.0  0.15214  0.43582  0.00581  1.0000
  H   H199      1.0  0.48080  0.05011  0.20632  1.0000
  C   C109      1.0  0.43179  0.27108  0.02185  1.0000
  H   H200      1.0  0.29356  0.05088  0.20332  1.0000
  H   H201      1.0  0.42699  0.28336  0.03224  1.0000
  C   C110      1.0  0.02663  0.47442  0.11154  1.0000
  C   C111      1.0  0.00715  0.45968  0.14040  1.0000
  C   C112      1.0  0.29507  0.01735  0.21582  1.0000
  H   H202      1.0  0.45516  0.00586  0.15928  1.0000
  H   H203      1.0  0.27953  0.02024  0.22471  1.0000
  H   H204      1.0  0.39537  0.04071  0.22819  1.0000
  C   C113      1.0  0.00737  0.41205  0.18840  1.0000
  H   H205      1.0  0.17341  0.42419  0.21382  1.0000
  H   H206      1.0  0.30727  0.00502  0.22258  1.0000
  H   H207      1.0  0.00263  0.39210  0.22658  1.0000
  H   H208      1.0  0.48942  0.14347  0.03476  1.0000
  C   C114      1.0  0.00003  0.37459  0.23191  1.0000
  H   H209      1.0  0.43383  0.12564  0.24374  1.0000
  H   H210      1.0  0.00432  0.36944  0.09445  1.0000
  H   H211      1.0  0.03869  0.48361  0.11867  1.0000
  C   C115      1.0  0.37185  0.99695  0.16753  1.0000
  H   H212      1.0  0.44779  0.09790  0.24115  1.0000
  S   S22       1.0  0.36860  0.17800  0.00042  1.0000
  C   C116      1.0  0.49489  0.11472  0.15678  1.0000
  H   H213      1.0  0.48311  0.17312  0.20614  1.0000
  H   H214      1.0  0.16349  0.48605  0.07279  1.0000
  H   H215      1.0  0.46250  0.25853  0.00720  1.0000
  C   C117      1.0  0.17211  0.48824  0.05931  1.0000
  C   C118      1.0  0.48543  0.19973  0.99830  1.0000
  C   C119      1.0  0.49617  0.15933  0.20935  1.0000
  H   H216      1.0  0.48883  0.99658  0.14279  1.0000
  C   C120      1.0  0.22694  0.46458  0.99879  1.0000
  H   H217      1.0  0.04551  0.44232  0.23943  1.0000
  Fe  Fe11      1.0  0.23981  0.35327  0.99859  1.0000
  H   H218      1.0  0.99721  0.49100  0.12429  1.0000
  H   H219      1.0  0.40365  0.28464  0.00626  1.0000
  C   C121      1.0  0.42237  0.28131  0.00443  1.0000
  H   H220      1.0  0.11289  0.48947  0.18576  1.0000
  H   H221      1.0  0.08880  0.48711  0.21469  1.0000
  Fe  Fe12      1.0  0.38015  0.09055  0.35739  1.0000
  S   S23       1.0  0.39502  0.05508  0.36172  1.0000
  S   S24       1.0  0.36345  0.11045  0.38060  1.0000
  Fe  Fe13      1.0  0.39015  0.08964  0.31610  1.0000
  S   S25       1.0  0.40548  0.05392  0.31794  1.0000
  S   S26       1.0  0.38626  0.11106  0.28993  1.0000
  Fe  Fe14      1.0  0.37644  0.04778  0.33796  1.0000
  S   S27       1.0  0.35691  0.01662  0.34046  1.0000
  Fe  Fe15      1.0  0.42290  0.06462  0.34154  1.0000
  S   S28       1.0  0.45854  0.05008  0.34713  1.0000
  S   S29       1.0  0.35955  0.08265  0.33459  1.0000
  S   S30       1.0  0.40951  0.10105  0.33862  1.0000
  Fe  Fe16      1.0  0.06831  0.36539  0.34425  1.0000
  S   S31       1.0  0.10120  0.34424  0.34101  1.0000
  S   S32       1.0  0.03522  0.34904  0.34973  1.0000
  Fe  Fe17      1.0  0.09170  0.40940  0.34323  1.0000
  S   S33       1.0  0.12645  0.39161  0.33960  1.0000
  S   S34       1.0  0.08045  0.44666  0.34419  1.0000
  Fe  Fe18      1.0  0.11056  0.37124  0.31971  1.0000
  S   S35       1.0  0.12422  0.35974  0.29216  1.0000
  Fe  Fe19      1.0  0.11369  0.36622  0.36121  1.0000
  S   S36       1.0  0.13388  0.35523  0.38593  1.0000
  S   S37       1.0  0.07690  0.39098  0.32209  1.0000
  S   S38       1.0  0.08000  0.38549  0.36566  1.0000
  Fe  Fe20      1.0  0.31175  0.08803  0.48516  1.0000
  S   S39       1.0  0.33801  0.07858  0.46213  1.0000
  C   C122      1.0  0.01267  0.30031  0.47152  1.0000
  Fe  Fe21      1.0  0.11031  0.28109  0.48414  1.0000
  H   H222      1.0  0.30944  0.04094  0.41915  1.0000
  S   S40       1.0  0.10230  0.29421  0.45547  1.0000
  H   H223      1.0  0.30809  0.03257  0.45230  1.0000
  H   H224      1.0  0.39832  0.15550  0.36091  1.0000
  C   C123      1.0  0.11933  0.37244  0.27045  1.0000
  C   C124      1.0  0.11209  0.39535  0.26768  1.0000
  C   C125      1.0  0.32376  0.01038  0.43209  1.0000
  C   C126      1.0  0.32258  0.01964  0.45068  1.0000
  H   H225      1.0  0.31647  0.08617  0.27773  1.0000
  H   H226      1.0  0.10882  0.40571  0.27902  1.0000
  H   H227      1.0  0.38052  0.07232  0.40397  1.0000
  H   H228      1.0  0.99791  0.29605  0.42861  1.0000
  C   C127      1.0  0.09791  0.46634  0.35178  1.0000
  C   C128      1.0  0.12161  0.46306  0.35057  1.0000
  C   C129      1.0  0.13489  0.48003  0.35575  1.0000
  C   C130      1.0  0.30641  0.00553  0.37447  1.0000
  H   H229      1.0  0.02246  0.34174  0.45616  1.0000
  H   H230      1.0  0.12969  0.44776  0.34518  1.0000
  C   C131      1.0  0.33088  0.04348  0.38610  1.0000
  H   H231      1.0  0.04907  0.34582  0.41967  1.0000
  C   C132      1.0  0.48152  0.06749  0.34698  1.0000
  C   C133      1.0  0.12448  0.33897  0.40548  1.0000
  C   C134      1.0  0.13862  0.33541  0.41998  1.0000
  C   C135      1.0  0.13201  0.32226  0.43555  1.0000
  C   C136      1.0  0.11119  0.31230  0.43678  1.0000
  C   C137      1.0  0.09703  0.31605  0.42234  1.0000
  C   C138      1.0  0.10352  0.32934  0.40688  1.0000
  H   H232      1.0  0.15488  0.34275  0.41910  1.0000
  H   H233      1.0  0.14317  0.31959  0.44645  1.0000
  H   H234      1.0  0.08102  0.30832  0.42294  1.0000
  H   H235      1.0  0.09244  0.33181  0.39589  1.0000
  H   H236      1.0  0.09272  0.48206  0.31229  1.0000
  H   H237      1.0  0.02746  0.37362  0.26068  1.0000
  C   C139      1.0  0.01315  0.36026  0.33658  1.0000
  C   C140      1.0  0.01738  0.37569  0.32218  1.0000
  H   H238      1.0  0.42210  0.08710  0.38888  1.0000
  C   C141      1.0  0.39210  0.99818  0.39831  1.0000
  H   H239      1.0  0.03423  0.38072  0.31905  1.0000
  C   C142      1.0  0.38860  0.11066  0.26617  1.0000
  H   H240      1.0  0.49570  0.12220  0.34000  1.0000
  C   C143      1.0  0.43402  0.04419  0.39667  1.0000
  C   C144      1.0  0.02241  0.44575  0.31824  1.0000
  H   H241      1.0  0.37577  0.03169  0.39683  1.0000
  H   H242      1.0  0.37670  0.14582  0.26381  1.0000
  H   H243      1.0  0.04664  0.31222  0.47592  1.0000
  H   H244      1.0  0.12044  0.19053  0.48758  1.0000
  H   H245      1.0  0.06926  0.48886  0.35962  1.0000
  H   H246      1.0  0.41630  0.04891  0.40155  1.0000
  C   C145      1.0  0.36605  0.01573  0.27919  1.0000
  H   H247      1.0  0.46271  0.09859  0.33904  1.0000
  C   C146      1.0  0.10993  0.40503  0.25016  1.0000
  H   H248      1.0  0.07474  0.48319  0.27438  1.0000
  C   C147      1.0  0.14394  0.44048  0.41451  1.0000
  H   H249      1.0  0.40559  0.01395  0.33974  1.0000
  C   C148      1.0  0.35571  0.10063  0.40294  1.0000
  C   C149      1.0  0.33853  0.11292  0.41289  1.0000
  C   C150      1.0  0.33258  0.10632  0.43088  1.0000
  C   C151      1.0  0.34415  0.08759  0.43933  1.0000
  C   C152      1.0  0.36155  0.07547  0.42942  1.0000
  C   C153      1.0  0.36706  0.08171  0.41131  1.0000
  H   H250      1.0  0.32974  0.12772  0.40666  1.0000
  H   H251      1.0  0.31929  0.11595  0.43829  1.0000
  H   H252      1.0  0.37079  0.06110  0.43583  1.0000
  N   N9        1.0  0.15487  0.23119  0.44656  1.0000
  C   C154      1.0  0.13440  0.23964  0.43637  1.0000
  C   C155      1.0  0.14790  0.21531  0.46216  1.0000
  C   C156      1.0  0.16425  0.25160  0.45383  1.0000
  C   C157      1.0  0.17346  0.21997  0.43473  1.0000
  C   C158      1.0  0.16714  0.19971  0.42450  1.0000
  C   C159      1.0  0.13860  0.25724  0.42061  1.0000
  C   C160      1.0  0.18238  0.24651  0.46795  1.0000
  C   C161      1.0  0.12847  0.19976  0.45953  1.0000
  C   C162      1.0  0.49008  0.12323  0.39495  1.0000
  H   H253      1.0  0.02193  0.45316  0.30433  1.0000
  C   C163      1.0  0.11727  0.26229  0.41017  1.0000
  C   C164      1.0  0.19427  0.26777  0.47124  1.0000
  H   H254      1.0  0.12109  0.24755  0.44569  1.0000
  H   H255      1.0  0.12630  0.22551  0.43091  1.0000
  H   H256      1.0  0.16291  0.20454  0.46680  1.0000
  H   H257      1.0  0.14161  0.22520  0.47380  1.0000
  H   H258      1.0  0.15022  0.26263  0.46013  1.0000
  H   H259      1.0  0.17201  0.26238  0.44278  1.0000
  H   H260      1.0  0.18082  0.23262  0.42491  1.0000
  H   H261      1.0  0.18794  0.21327  0.44269  1.0000
  H   H262      1.0  0.15172  0.20382  0.41697  1.0000
  H   H263      1.0  0.16458  0.18492  0.43399  1.0000
  H   H264      1.0  0.14308  0.27347  0.42559  1.0000
  H   H265      1.0  0.15243  0.25103  0.41111  1.0000
  H   H266      1.0  0.19571  0.23344  0.46386  1.0000
  H   H267      1.0  0.17425  0.24037  0.48087  1.0000
  H   H268      1.0  0.11204  0.21010  0.45890  1.0000
  H   H269      1.0  0.13115  0.19068  0.44711  1.0000
  C   C165      1.0  0.09197  0.49007  0.29850  1.0000
  H   H270      1.0  0.00452  0.22230  0.47794  1.0000
  C   C166      1.0  0.33795  0.06771  0.25799  1.0000
  C   C167      1.0  0.38249  0.13098  0.25663  1.0000
  H   H271      1.0  0.06777  0.45958  0.38713  1.0000
  H   H272      1.0  0.38065  0.01137  0.26970  1.0000
  H   H273      1.0  0.10253  0.26765  0.41921  1.0000
  H   H274      1.0  0.12007  0.27623  0.39987  1.0000
  H   H275      1.0  0.11325  0.24708  0.40339  1.0000
  C   C168      1.0  0.39609  0.09157  0.25654  1.0000
  H   H276      1.0  0.18173  0.28175  0.47514  1.0000
  H   H277      1.0  0.20600  0.26398  0.48218  1.0000
  C   C169      1.0  0.44093  0.08561  0.38799  1.0000
  C   C170      1.0  0.08759  0.48631  0.35852  1.0000
  H   H278      1.0  0.32730  0.08667  0.36966  1.0000
  H   H279      1.0  0.06548  0.44434  0.28349  1.0000
  H   H280      1.0  0.31057  0.06914  0.35763  1.0000
  C   C171      1.0  0.36346  0.99687  0.29378  1.0000
  H   H281      1.0  0.00320  0.39646  0.30055  1.0000
  C   C172      1.0  0.34976  0.00700  0.39580  1.0000
  H   H282      1.0  0.44981  0.06624  0.41301  1.0000
  H   H283      1.0  0.46935  0.99631  0.39126  1.0000
  C   C173      1.0  0.37183  0.01482  0.40285  1.0000
  N   N10       1.0  0.01735  0.29491  0.45221  1.0000
  H   H284      1.0  0.46661  0.05779  0.39346  1.0000
  H   H285      1.0  0.40516  0.11202  0.40853  1.0000
  H   H286      1.0  0.45300  0.12162  0.36639  1.0000
  H   H287      1.0  0.34550  0.05283  0.38943  1.0000
  H   H288      1.0  0.44541  0.08306  0.37362  1.0000
  C   C174      1.0  0.04496  0.35038  0.43369  1.0000
  H   H289      1.0  0.47060  0.10271  0.26727  1.0000
  H   H290      1.0  0.30320  0.02164  0.36640  1.0000
  H   H291      1.0  0.20228  0.18761  0.41791  1.0000
  H   H292      1.0  0.13988  0.43613  0.37727  1.0000
  H   H293      1.0  0.29378  0.05313  0.38620  1.0000
  C   C175      1.0  0.41784  0.10702  0.41849  1.0000
  C   C176      1.0  0.07834  0.45245  0.29061  1.0000
  C   C177      1.0  0.31134  0.07795  0.37017  1.0000
  H   H294      1.0  0.48295  0.13315  0.40630  1.0000
  H   H295      1.0  0.40103  0.07579  0.26373  1.0000
  H   H296      1.0  0.15322  0.47779  0.35432  1.0000
  C   C178      1.0  0.02613  0.33631  0.44236  1.0000
  C   C179      1.0  0.00214  0.45524  0.32981  1.0000
  C   C180      1.0  0.06103  0.35833  0.26590  1.0000
  C   C181      1.0  0.44521  0.12598  0.37975  1.0000
  H   H297      1.0  0.44042  0.02896  0.40469  1.0000
  H   H298      1.0  0.12455  0.37499  0.44561  1.0000
  C   C182      1.0  0.05568  0.36227  0.28561  1.0000
  H   H299      1.0  0.45273  0.14170  0.38309  1.0000
  H   H300      1.0  0.05653  0.48258  0.29425  1.0000
  C   C183      1.0  0.03340  0.31063  0.44231  1.0000
  C   C184      1.0  0.15128  0.46275  0.40452  1.0000
  C   C185      1.0  0.07401  0.47822  0.28885  1.0000
  H   H301      1.0  0.12932  0.34157  0.25742  1.0000
  H   H302      1.0  0.29686  0.09096  0.37111  1.0000
  H   H303      1.0  0.13510  0.44553  0.42730  1.0000
  H   H304      1.0  0.16570  0.39427  0.39541  1.0000
  H   H305      1.0  0.40747  0.00334  0.40426  1.0000
  H   H306      1.0  0.07000  0.34124  0.26506  1.0000
  H   H307      1.0  0.07286  0.37095  0.26035  1.0000
  H   H308      1.0  0.36917  0.03171  0.28534  1.0000
  H   H309      1.0  0.11265  0.17062  0.47236  1.0000
  C   C186      1.0  0.12586  0.18212  0.47507  1.0000
  H   H310      1.0  0.42459  0.14533  0.34971  1.0000
  C   C187      1.0  0.03914  0.35976  0.25540  1.0000
  N   N11       1.0  0.32860  0.02262  0.39846  1.0000
  H   H311      1.0  0.20433  0.27344  0.45903  1.0000
  H   H312      1.0  0.30813  0.00140  0.43099  1.0000
  H   H313      1.0  0.04862  0.37994  0.28728  1.0000
  H   H314      1.0  0.04341  0.35027  0.29164  1.0000
  H   H315      1.0  0.07156  0.35949  0.29283  1.0000
  H   H316      1.0  0.06056  0.34756  0.44127  1.0000
  H   H317      1.0  0.35029  0.01854  0.27185  1.0000
  H   H318      1.0  0.33905  0.04059  0.42038  1.0000
  H   H319      1.0  0.18358  0.46321  0.41697  1.0000
  H   H320      1.0  0.13639  0.47500  0.40253  1.0000
  H   H321      1.0  0.34346  0.09790  0.27200  1.0000
  C   C188      1.0  0.31009  0.06111  0.38635  1.0000
  H   H322      1.0  0.17199  0.41880  0.35835  1.0000
  H   H323      1.0  0.35630  0.06231  0.25634  1.0000
  H   H324      1.0  0.30969  0.07087  0.39854  1.0000
  H   H325      1.0  0.44046  0.10571  0.27275  1.0000
  H   H326      1.0  0.19176  0.39768  0.36819  1.0000
  N   N12       1.0  0.45063  0.10687  0.39339  1.0000
  H   H327      1.0  0.41751  0.08845  0.42127  1.0000
  H   H328      1.0  0.05352  0.43399  0.38602  1.0000
  H   H329      1.0  0.32801  0.05272  0.26100  1.0000
  H   H330      1.0  0.05884  0.44396  0.40747  1.0000
  H   H331      1.0  0.00354  0.44713  0.34341  1.0000
  H   H332      1.0  0.44309  0.13186  0.41317  1.0000
  H   H333      1.0  0.03607  0.30615  0.42810  1.0000
  C   C189      1.0  0.47901  0.09082  0.34272  1.0000
  C   C190      1.0  0.33480  0.08192  0.27439  1.0000
  H   H334      1.0  0.48254  0.09504  0.38003  1.0000
  H   H335      1.0  0.34222  0.07230  0.28603  1.0000
  H   H336      1.0  0.37036  0.01576  0.41757  1.0000
  H   H337      1.0  0.12977  0.40886  0.38024  1.0000
  H   H338      1.0  0.33517  0.03871  0.37213  1.0000
  H   H339      1.0  0.18945  0.20633  0.40079  1.0000
  C   C191      1.0  0.32536  0.02983  0.41738  1.0000
  H   H340      1.0  0.14210  0.17180  0.47696  1.0000
  H   H341      1.0  0.15982  0.45965  0.39126  1.0000
  H   H342      1.0  0.15986  0.47852  0.42846  1.0000
  H   H343      1.0  0.33854  0.02751  0.45299  1.0000
  C   C192      1.0  0.18637  0.19242  0.41105  1.0000
  H   H344      1.0  0.43433  0.03983  0.38252  1.0000
  C   C193      1.0  0.39981  0.99776  0.34451  1.0000
  H   H345      1.0  0.02251  0.42702  0.31820  1.0000
  H   H346      1.0  0.45359  0.10523  0.42216  1.0000
  H   H347      1.0  0.35345  0.00445  0.38134  1.0000
  C   C194      1.0  0.44920  0.06350  0.39859  1.0000
  C   C195      1.0  0.44221  0.11331  0.41196  1.0000
  C   C196      1.0  0.45476  0.11348  0.26493  1.0000
  H   H348      1.0  0.03040  0.34401  0.25925  1.0000
  C   C197      1.0  0.02648  0.27052  0.45055  1.0000
  C   C198      1.0  0.99976  0.38452  0.31167  1.0000
  H   H349      1.0  0.17632  0.42191  0.39139  1.0000
  C   C199      1.0  0.03341  0.30207  0.48282  1.0000
  H   H350      1.0  0.07714  0.44624  0.30485  1.0000
  C   C200      1.0  0.16781  0.47431  0.41518  1.0000
  C   C201      1.0  0.05255  0.26526  0.45098  1.0000
  C   C202      1.0  0.05895  0.23981  0.45098  1.0000
  H   H351      1.0  0.09546  0.44718  0.28468  1.0000
  H   H352      1.0  0.42452  0.16705  0.36561  1.0000
  C   C203      1.0  0.47621  0.10247  0.39283  1.0000
  H   H353      1.0  0.16405  0.39004  0.36345  1.0000
  H   H354      1.0  0.05053  0.30845  0.44767  1.0000
  H   H355      1.0  0.10496  0.42289  0.24821  1.0000
  S   S41       1.0  0.27343  0.08943  0.48507  1.0000
  H   H356      1.0  0.39256  0.11300  0.44017  1.0000
  H   H357      1.0  0.41213  0.14061  0.38999  1.0000
  H   H358      1.0  0.40865  0.13701  0.43350  1.0000
  H   H359      1.0  0.48125  0.08958  0.40351  1.0000
  C   C204      1.0  0.41675  0.15137  0.36253  1.0000
  H   H360      1.0  0.04104  0.28487  0.48643  1.0000
  C   C205      1.0  0.41982  0.13315  0.37766  1.0000
  H   H361      1.0  0.45630  0.13055  0.26987  1.0000
  C   C206      1.0  0.12362  0.35927  0.25546  1.0000
  H   H362      1.0  0.27047  0.99915  0.37750  1.0000
  H   H363      1.0  0.06132  0.27310  0.43889  1.0000
  H   H364      1.0  0.05938  0.27170  0.46287  1.0000
  H   H365      1.0  0.07768  0.23675  0.45119  1.0000
  H   H366      1.0  0.05111  0.23089  0.46295  1.0000
  H   H367      1.0  0.05329  0.23274  0.43880  1.0000
  H   H368      1.0  0.02191  0.26424  0.43765  1.0000
  C   C207      1.0  0.40976  0.11828  0.43572  1.0000
  H   H369      1.0  0.03929  0.36867  0.43360  1.0000
  H   H370      1.0  0.32012  0.00569  0.46099  1.0000
  H   H371      1.0  0.00378  0.47373  0.33019  1.0000
  H   H372      1.0  0.42147  0.11313  0.44647  1.0000
  H   H373      1.0  0.09938  0.37233  0.43364  1.0000
  N   N13       1.0  0.12899  0.42668  0.40458  1.0000
  C   C208      1.0  0.12529  0.40478  0.41535  1.0000
  C   C209      1.0  0.17358  0.40386  0.36798  1.0000
  H   H374      1.0  0.48048  0.99748  0.34981  1.0000
  C   C210      1.0  0.10689  0.44051  0.40181  1.0000
  C   C211      1.0  0.08855  0.42834  0.39309  1.0000
  C   C212      1.0  0.11046  0.40672  0.43302  1.0000
  H   H375      1.0  0.09707  0.38500  0.45492  1.0000
  C   C213      1.0  0.16467  0.41005  0.38669  1.0000
  H   H376      1.0  0.03842  0.44997  0.32380  1.0000
  C   C214      1.0  0.06581  0.44240  0.39351  1.0000
  C   C215      1.0  0.10775  0.38332  0.44232  1.0000
  H   H377      1.0  0.14183  0.39608  0.41896  1.0000
  H   H378      1.0  0.11766  0.39259  0.40721  1.0000
  H   H379      1.0  0.01827  0.25944  0.46110  1.0000
  C   C216      1.0  0.13994  0.42089  0.38661  1.0000
  H   H380      1.0  0.41038  0.11862  0.37459  1.0000
  H   H381      1.0  0.15946  0.43006  0.41849  1.0000
  H   H382      1.0  0.09957  0.44719  0.41461  1.0000
  H   H383      1.0  0.10981  0.45581  0.39286  1.0000
  H   H384      1.0  0.08555  0.41161  0.39984  1.0000
  H   H385      1.0  0.09401  0.42588  0.37894  1.0000
  H   H386      1.0  0.11834  0.41718  0.44233  1.0000
  H   H387      1.0  0.09317  0.41438  0.43059  1.0000
  H   H388      1.0  0.18169  0.17750  0.40421  1.0000
  S   S42       1.0  0.10012  0.24541  0.49096  1.0000
  H   H389      1.0  0.01084  0.34047  0.43463  1.0000
  H   H390      1.0  0.44960  0.99921  0.37366  1.0000
  C   C217      1.0  0.30842  0.01006  0.39440  1.0000
  H   H391      1.0  0.10869  0.48491  0.29170  1.0000
  H   H392      1.0  0.29223  0.01903  0.39932  1.0000
  H   H393      1.0  0.17245  0.49032  0.40785  1.0000
  H   H394      1.0  0.34937  0.00263  0.30325  1.0000
  H   H395      1.0  0.03830  0.23090  0.49383  1.0000
  H   H396      1.0  0.29680  0.01267  0.49182  1.0000
  C   C218      1.0  0.00244  0.23337  0.48893  1.0000
  H   H397      1.0  0.00168  0.31634  0.47245  1.0000
  H   H398      1.0  0.00256  0.28718  0.47877  1.0000
  H   H399      1.0  0.33861  0.99786  0.43115  1.0000
  H   H400      1.0  0.49005  0.13440  0.38252  1.0000
  H   H401      1.0  0.39555  0.99807  0.38362  1.0000
  H   H402      1.0  0.05200  0.40400  0.25331  1.0000
  H   H403      1.0  0.02001  0.33128  0.49749  1.0000
  C   C219      1.0  0.02165  0.23832  0.49782  1.0000
  H   H404      1.0  0.32214  0.99662  0.36888  1.0000
  C   C220      1.0  0.28773  0.99855  0.49759  1.0000
  Fe  Fe22      1.0  0.37978  0.04127  0.67510  1.0000
  S   S43       1.0  0.36208  0.07584  0.67553  1.0000
  S   S44       1.0  0.36115  0.01001  0.68103  1.0000
  Fe  Fe23      1.0  0.42568  0.05874  0.66451  1.0000
  S   S45       1.0  0.41150  0.09518  0.66395  1.0000
  S   S46       1.0  0.46141  0.04213  0.66108  1.0000
  Fe  Fe24      1.0  0.39227  0.08478  0.68987  1.0000
  S   S47       1.0  0.38562  0.10397  0.71544  1.0000
  Fe  Fe25      1.0  0.38236  0.08277  0.64962  1.0000
  S   S48       1.0  0.36458  0.10238  0.62633  1.0000
  S   S49       1.0  0.40836  0.04948  0.69112  1.0000
  S   S50       1.0  0.39818  0.04725  0.64850  1.0000
  H   H405      1.0  0.40719  0.09169  0.60687  1.0000
  H   H406      1.0  0.19874  0.41351  0.70461  1.0000
  H   H407      1.0  0.43681  0.07114  0.58481  1.0000
  H   H408      1.0  0.39402  0.09556  0.57780  1.0000
  C   C221      1.0  0.21734  0.20437  0.55339  1.0000
  H   H409      1.0  0.25997  0.05858  0.56679  1.0000
  Fe  Fe26      1.0  0.31057  0.08695  0.52732  1.0000
  S   S51       1.0  0.33416  0.07499  0.55019  1.0000
  S   S52       1.0  0.27222  0.08854  0.52927  1.0000
  Fe  Fe27      1.0  0.11860  0.28746  0.52407  1.0000
  S   S53       1.0  0.10877  0.25249  0.53265  1.0000
  S   S54       1.0  0.12686  0.31405  0.54330  1.0000
  H   H410      1.0  0.07653  0.47289  0.67800  1.0000
  C   C222      1.0  0.07029  0.42616  0.73021  1.0000
  H   H411      1.0  0.10048  0.45413  0.71019  1.0000
  H   H412      1.0  0.07478  0.32945  0.58562  1.0000
  H   H413      1.0  0.44764  0.13905  0.70137  1.0000
  C   C223      1.0  0.07666  0.44550  0.63065  1.0000
  Fe  Fe28      1.0  0.10509  0.35733  0.68953  1.0000
  S   S55       1.0  0.09443  0.39403  0.68522  1.0000
  S   S56       1.0  0.09984  0.34233  0.71810  1.0000
  Fe  Fe29      1.0  0.11166  0.35056  0.64832  1.0000
  S   S57       1.0  0.10158  0.38732  0.64162  1.0000
  S   S58       1.0  0.11565  0.32194  0.62851  1.0000
  Fe  Fe30      1.0  0.12283  0.39472  0.66408  1.0000
  S   S59       1.0  0.14463  0.42474  0.66231  1.0000
  Fe  Fe31      1.0  0.07412  0.38392  0.66340  1.0000
  S   S60       1.0  0.03912  0.40108  0.66030  1.0000
  S   S61       1.0  0.13535  0.35809  0.66961  1.0000
  S   S62       1.0  0.08258  0.34680  0.66891  1.0000
  C   C224      1.0  0.11038  0.35393  0.73690  1.0000
  C   C225      1.0  0.26495  0.02193  0.56494  1.0000
  H   H414      1.0  0.13304  0.37555  0.72182  1.0000
  C   C226      1.0  0.12951  0.45107  0.66574  1.0000
  C   C227      1.0  0.10626  0.45199  0.67034  1.0000
  C   C228      1.0  0.09436  0.47262  0.67392  1.0000
  S   S63       1.0  0.08872  0.29537  0.50706  1.0000
  H   H415      1.0  0.05729  0.28804  0.55285  1.0000
  C   C229      1.0  0.14074  0.47125  0.66442  1.0000
  H   H416      1.0  0.09727  0.43685  0.67097  1.0000
  C   C230      1.0  0.05362  0.30390  0.57825  1.0000
  H   H417      1.0  0.26617  0.01885  0.57953  1.0000
  H   H418      1.0  0.15876  0.47069  0.66083  1.0000
  C   C231      1.0  0.02012  0.38067  0.65723  1.0000
  C   C232      1.0  0.02379  0.35878  0.66494  1.0000
  C   C233      1.0  0.48418  0.07996  0.64977  1.0000
  H   H419      1.0  0.17649  0.21393  0.60390  1.0000
  H   H420      1.0  0.03734  0.35485  0.67374  1.0000
  H   H421      1.0  0.29595  0.03864  0.55664  1.0000
  C   C234      1.0  0.12282  0.31595  0.56700  1.0000
  C   C235      1.0  0.11899  0.29707  0.57862  1.0000
  C   C236      1.0  0.11711  0.29925  0.59731  1.0000
  C   C237      1.0  0.11851  0.32038  0.60472  1.0000
  C   C238      1.0  0.12182  0.33934  0.59307  1.0000
  C   C239      1.0  0.12419  0.33706  0.57440  1.0000
  H   H422      1.0  0.11792  0.28071  0.57324  1.0000
  H   H423      1.0  0.11453  0.28444  0.60613  1.0000
  H   H424      1.0  0.12300  0.35569  0.59844  1.0000
  H   H425      1.0  0.12726  0.35179  0.56561  1.0000
  C   C240      1.0  0.12858  0.49220  0.66749  1.0000
  H   H426      1.0  0.01241  0.30426  0.50772  1.0000
  C   C241      1.0  0.36005  0.04379  0.72802  1.0000
  H   H427      1.0  0.48738  0.12200  0.55103  1.0000
  C   C242      1.0  0.18125  0.19195  0.50791  1.0000
  C   C243      1.0  0.00336  0.38744  0.71895  1.0000
  H   H428      1.0  0.46790  0.08968  0.70324  1.0000
  H   H429      1.0  0.37218  0.15922  0.61792  1.0000
  H   H430      1.0  0.07522  0.31099  0.55425  1.0000
  C   C244      1.0  0.01264  0.49201  0.66060  1.0000
  H   H431      1.0  0.40840  0.13638  0.55344  1.0000
  C   C245      1.0  0.40782  0.10611  0.57215  1.0000
  C   C246      1.0  0.37148  0.03500  0.74502  1.0000
  C   C247      1.0  0.39588  0.09579  0.73683  1.0000
  H   H432      1.0  0.01231  0.32510  0.66788  1.0000
  H   H433      1.0  0.39789  0.14876  0.58443  1.0000
  H   H434      1.0  0.19463  0.24698  0.61414  1.0000
  H   H435      1.0  0.02827  0.37739  0.60441  1.0000
  C   C248      1.0  0.26758  0.00270  0.50801  1.0000
  C   C249      1.0  0.44146  0.06081  0.61212  1.0000
  H   H436      1.0  0.46771  0.08917  0.64931  1.0000
  C   C250      1.0  0.34138  0.08265  0.57175  1.0000
  C   C251      1.0  0.35586  0.06756  0.58185  1.0000
  C   C252      1.0  0.36222  0.07275  0.59889  1.0000
  C   C253      1.0  0.35480  0.09354  0.60592  1.0000
  C   C254      1.0  0.34058  0.10875  0.59573  1.0000
  C   C255      1.0  0.33375  0.10331  0.57888  1.0000
  H   H437      1.0  0.36230  0.05171  0.57641  1.0000
  H   H438      1.0  0.37333  0.06090  0.60637  1.0000
  H   H439      1.0  0.33481  0.12495  0.60090  1.0000
  H   H440      1.0  0.32276  0.11521  0.57135  1.0000
  H   H441      1.0  0.03638  0.29807  0.58148  1.0000
  H   H442      1.0  0.35082  0.00816  0.50532  1.0000
  N   N14       1.0  0.17833  0.22292  0.56496  1.0000
  H   H443      1.0  0.28546  0.02273  0.54046  1.0000
  C   C256      1.0  0.17515  0.23978  0.54915  1.0000
  C   C257      1.0  0.15511  0.21617  0.57191  1.0000
  C   C258      1.0  0.19211  0.20180  0.55937  1.0000
  H   H444      1.0  0.22622  0.21361  0.56289  1.0000
  H   H445      1.0  0.13317  0.47508  0.70343  1.0000
  C   C259      1.0  0.14089  0.20559  0.55832  1.0000
  C   C260      1.0  0.19307  0.25761  0.54542  1.0000
  H   H446      1.0  0.22141  0.17044  0.54324  1.0000
  H   H447      1.0  0.42442  0.07433  0.72727  1.0000
  C   C261      1.0  0.11670  0.20250  0.56599  1.0000
  S   S64       1.0  0.31180  0.11491  0.50535  1.0000
  C   C262      1.0  0.19275  0.21874  0.59710  1.0000
  H   H448      1.0  0.17422  0.23073  0.53670  1.0000
  H   H449      1.0  0.15856  0.24997  0.55076  1.0000
  H   H450      1.0  0.14488  0.23116  0.57721  1.0000
  H   H451      1.0  0.15644  0.20331  0.58325  1.0000
  H   H452      1.0  0.19123  0.18813  0.57018  1.0000
  H   H453      1.0  0.18464  0.19479  0.54784  1.0000
  C   C263      1.0  0.41555  0.08144  0.73889  1.0000
  C   C264      1.0  0.49061  0.11667  0.69420  1.0000
  H   H454      1.0  0.31484  0.01427  0.52273  1.0000
  H   H455      1.0  0.44488  0.06795  0.62494  1.0000
  H   H456      1.0  0.14859  0.18865  0.55486  1.0000
  H   H457      1.0  0.13969  0.21638  0.54586  1.0000
  H   H458      1.0  0.23177  0.17232  0.56515  1.0000
  H   H459      1.0  0.21058  0.24966  0.54452  1.0000
  H   H460      1.0  0.00958  0.32843  0.57923  1.0000
  C   C265      1.0  0.38973  0.16492  0.61625  1.0000
  H   H461      1.0  0.17760  0.24913  0.58374  1.0000
  C   C266      1.0  0.12656  0.37007  0.73503  1.0000
  H   H462      1.0  0.20350  0.20313  0.59410  1.0000
  N   N15       1.0  0.12972  0.45139  0.72624  1.0000
  H   H463      1.0  0.08350  0.43741  0.61832  1.0000
  H   H464      1.0  0.10788  0.21912  0.56914  1.0000
  H   H465      1.0  0.10701  0.19485  0.55599  1.0000
  H   H466      1.0  0.11687  0.19109  0.57827  1.0000
  N   N16       1.0  0.04618  0.32952  0.60505  1.0000
  C   C267      1.0  0.05411  0.35080  0.61201  1.0000
  C   C268      1.0  0.05579  0.30964  0.61647  1.0000
  C   C269      1.0  0.02054  0.32975  0.60652  1.0000
  C   C270      1.0  0.04907  0.30958  0.63674  1.0000
  C   C271      1.0  0.04681  0.37348  0.60194  1.0000
  C   C272      1.0  0.05869  0.39308  0.60860  1.0000
  C   C273      1.0  0.05849  0.28786  0.64650  1.0000
  H   H467      1.0  0.04748  0.35297  0.62601  1.0000
  H   H468      1.0  0.07302  0.34942  0.61235  1.0000
  H   H469      1.0  0.07463  0.30835  0.61492  1.0000
  H   H470      1.0  0.05032  0.29346  0.61203  1.0000
  C   C274      1.0  0.28868  0.02217  0.55485  1.0000
  C   C275      1.0  0.18912  0.27163  0.52802  1.0000
  C   C276      1.0  0.40665  0.14500  0.61184  1.0000
  H   H471      1.0  0.03034  0.31073  0.63907  1.0000
  H   H472      1.0  0.05615  0.32377  0.64295  1.0000
  H   H473      1.0  0.05106  0.37318  0.58740  1.0000
  H   H474      1.0  0.47449  0.14784  0.55980  1.0000
  H   H475      1.0  0.07737  0.39050  0.60592  1.0000
  C   C277      1.0  0.39189  0.11041  0.54138  1.0000
  H   H476      1.0  0.05486  0.39453  0.62314  1.0000
  H   H477      1.0  0.20525  0.24041  0.57542  1.0000
  Fe  Fe32      1.0  0.27539  0.06293  0.50798  1.0000
  H   H478      1.0  0.05155  0.27277  0.64140  1.0000
  H   H479      1.0  0.07735  0.28629  0.64480  1.0000
  H   H480      1.0  0.01491  0.31225  0.60896  1.0000
  C   C278      1.0  0.46947  0.10793  0.70507  1.0000
  H   H481      1.0  0.24829  0.04795  0.54752  1.0000
  H   H482      1.0  0.43282  0.11387  0.70666  1.0000
  H   H483      1.0  0.38069  0.13071  0.56322  1.0000
  C   C279      1.0  0.00609  0.47701  0.63203  1.0000
  H   H484      1.0  0.15471  0.47581  0.71881  1.0000
  C   C280      1.0  0.25111  0.04449  0.56191  1.0000
  H   H485      1.0  0.38924  0.04012  0.74382  1.0000
  C   C281      1.0  0.00761  0.34016  0.59026  1.0000
  Fe  Fe33      1.0  0.27296  0.11526  0.50629  1.0000
  H   H486      1.0  0.48717  0.12583  0.57462  1.0000
  C   C282      1.0  0.13628  0.44819  0.74544  1.0000
  S   S65       1.0  0.25609  0.03071  0.51186  1.0000
  C   C283      1.0  0.01477  0.25034  0.57273  1.0000
  Fe  Fe34      1.0  0.07975  0.25980  0.51444  1.0000
  H   H487      1.0  0.32434  0.03590  0.61197  1.0000
  H   H488      1.0  0.04072  0.31285  0.50887  1.0000
  H   H489      1.0  0.38323  0.12250  0.53169  1.0000
  H   H490      1.0  0.04283  0.44715  0.62178  1.0000
  H   H491      1.0  0.18955  0.26052  0.51661  1.0000
  N   N17       1.0  0.02384  0.48640  0.64254  1.0000
  H   H492      1.0  0.05081  0.33241  0.73117  1.0000
  C   C284      1.0  0.31458  0.02339  0.58726  1.0000
  H   H493      1.0  0.29970  0.03595  0.58694  1.0000
  H   H494      1.0  0.20109  0.22098  0.50369  1.0000
  C   C285      1.0  0.30930  0.00097  0.57928  1.0000
  H   H495      1.0  0.35393  0.02780  0.52218  1.0000
  H   H496      1.0  0.09417  0.46164  0.73235  1.0000
  H   H497      1.0  0.43341  0.01353  0.63038  1.0000
  C   C286      1.0  0.22287  0.18983  0.50422  1.0000
  H   H498      1.0  0.44586  0.12142  0.55247  1.0000
  H   H499      1.0  0.06492  0.40867  0.73289  1.0000
  C   C287      1.0  0.32082  0.01950  0.60667  1.0000
  H   H500      1.0  0.22184  0.23585  0.60470  1.0000
  H   H501      1.0  0.19178  0.26968  0.55624  1.0000
  H   H502      1.0  0.37216  0.01633  0.74549  1.0000
  C   C288      1.0  0.13624  0.47403  0.71794  1.0000
  S   S66       1.0  0.15365  0.20732  0.50938  1.0000
  C   C289      1.0  0.45456  0.11837  0.56514  1.0000
  H   H503      1.0  0.21848  0.21338  0.54003  1.0000
  H   H504      1.0  0.04915  0.34049  0.57688  1.0000
  C   C290      1.0  0.22440  0.16589  0.50612  1.0000
  C   C291      1.0  0.14257  0.43324  0.71555  1.0000
  H   H505      1.0  0.24758  0.18326  0.54561  1.0000
  H   H506      1.0  0.07429  0.43206  0.64141  1.0000
  C   C292      1.0  0.02794  0.49114  0.67669  1.0000
  C   C293      1.0  0.10528  0.49282  0.67224  1.0000
  C   C294      1.0  0.42329  0.09903  0.60168  1.0000
  C   C295      1.0  0.16876  0.43412  0.71356  1.0000
  C   C296      1.0  0.05806  0.30512  0.55798  1.0000
  H   H507      1.0  0.42399  0.15111  0.61064  1.0000
  C   C297      1.0  0.02878  0.38472  0.71359  1.0000
  H   H508      1.0  0.06619  0.29091  0.58385  1.0000
  H   H509      1.0  0.36942  0.03647  0.71622  1.0000
  C   C298      1.0  0.05409  0.45886  0.62728  1.0000
  C   C299      1.0  0.23024  0.18118  0.55178  1.0000
  C   C300      1.0  0.44082  0.07925  0.59700  1.0000
  H   H510      1.0  0.20462  0.13688  0.51049  1.0000
  H   H511      1.0  0.35996  0.06254  0.72637  1.0000
  H   H512      1.0  0.99780  0.37053  0.72353  1.0000
  H   H513      1.0  0.03382  0.47331  0.68033  1.0000
  H   H514      1.0  0.01345  0.23878  0.58490  1.0000
  C   C301      1.0  0.39708  0.12273  0.55775  1.0000
  N   N18       1.0  0.41840  0.11695  0.58697  1.0000
  C   C302      1.0  0.01914  0.25210  0.51234  1.0000
  C   C303      1.0  0.00128  0.38614  0.64704  1.0000
  H   H515      1.0  0.20736  0.22028  0.62274  1.0000
  C   C304      1.0  0.03484  0.32579  0.73730  1.0000
  H   H516      1.0  0.01391  0.35650  0.58500  1.0000
  H   H517      1.0  0.13931  0.41617  0.72166  1.0000
  H   H518      1.0  0.38041  0.09669  0.54527  1.0000
  H   H519      1.0  0.39385  0.17182  0.62897  1.0000
  S   S67       1.0  0.04258  0.25760  0.52475  1.0000
  H   H520      1.0  0.17586  0.43674  0.72653  1.0000
  H   H521      1.0  0.48952  0.13536  0.69519  1.0000
  H   H522      1.0  0.03851  0.37845  0.72525  1.0000
  C   C305      1.0  0.48571  0.05690  0.65503  1.0000
  H   H523      1.0  0.39047  0.17864  0.60553  1.0000
  H   H524      1.0  0.04510  0.31681  0.55148  1.0000
  H   H525      1.0  0.00102  0.46051  0.63844  1.0000
  H   H526      1.0  0.48843  0.11380  0.67989  1.0000
  H   H527      1.0  0.05266  0.40923  0.60159  1.0000
  Fe  Fe35      1.0  0.13043  0.24104  0.50836  1.0000
  H   H528      1.0  0.45514  0.04751  0.60905  1.0000
  H   H529      1.0  0.42502  0.05280  0.61366  1.0000
  C   C306      1.0  0.43960  0.12866  0.58077  1.0000
  H   H530      1.0  0.03651  0.45343  0.65306  1.0000
  H   H531      1.0  0.10263  0.41793  0.74164  1.0000
  H   H532      1.0  0.13638  0.43365  0.70181  1.0000
  H   H533      1.0  0.38425  0.12707  0.59704  1.0000
  H   H534      1.0  0.44942  0.12147  0.74727  1.0000
  H   H535      1.0  0.10220  0.41392  0.71830  1.0000
  H   H536      1.0  0.33266  0.02390  0.55106  1.0000
  H   H537      1.0  0.17247  0.28162  0.52909  1.0000
  H   H538      1.0  0.17355  0.40891  0.69344  1.0000
  H   H539      1.0  0.34231  0.03873  0.72835  1.0000
  H   H540      1.0  0.17339  0.44812  0.70381  1.0000
  H   H541      1.0  0.32901  0.03094  0.57964  1.0000
  C   C307      1.0  0.18012  0.41215  0.70651  1.0000
  C   C308      1.0  0.05623  0.32703  0.58623  1.0000
  S   S68       1.0  0.31315  0.06032  0.50702  1.0000
  C   C309      1.0  0.00941  0.34201  0.66179  1.0000
  H   H542      1.0  0.43017  0.10650  0.61323  1.0000
  H   H543      1.0  0.08930  0.45695  0.63458  1.0000
  C   C310      1.0  0.20489  0.23131  0.61043  1.0000
  H   H544      1.0  0.06325  0.43668  0.74125  1.0000
  C   C311      1.0  0.10473  0.44940  0.72424  1.0000
  H   H545      1.0  0.17692  0.39756  0.71611  1.0000
  H   H546      1.0  0.01620  0.24017  0.56071  1.0000
  H   H547      1.0  0.40891  0.01242  0.72173  1.0000
  C   C312      1.0  0.09619  0.42549  0.72891  1.0000
  H   H548      1.0  0.44578  0.11870  0.68459  1.0000
  C   C313      1.0  0.47726  0.12924  0.56255  1.0000
  H   H549      1.0  0.40778  0.10301  0.53471  1.0000
  H   H550      1.0  0.05362  0.28842  0.66099  1.0000
  C   C314      1.0  0.18863  0.23389  0.57986  1.0000
  H   H551      1.0  0.03473  0.30774  0.73416  1.0000
  C   C315      1.0  0.20401  0.15517  0.50892  1.0000
  H   H552      1.0  0.05640  0.47432  0.65231  1.0000
  H   H553      1.0  0.03515  0.40115  0.70835  1.0000
  C   C316      1.0  0.20162  0.20271  0.50509  1.0000
  H   H554      1.0  0.42008  0.09402  0.56530  1.0000
  H   H555      1.0  0.45808  0.08552  0.59519  1.0000
  H   H556      1.0  0.01308  0.47326  0.61835  1.0000
  H   H557      1.0  0.25521  0.00851  0.56001  1.0000
  H   H558      1.0  0.06340  0.43312  0.71743  1.0000
  C   C317      1.0  0.04281  0.46820  0.64478  1.0000
  H   H559      1.0  0.00112  0.39874  0.73026  1.0000
  H   H560      1.0  0.40545  0.13241  0.62337  1.0000
  C   C318      1.0  0.40095  0.13440  0.59444  1.0000
  H   H561      1.0  0.16731  0.15933  0.51203  1.0000
  H   H562      1.0  0.47031  0.11027  0.71950  1.0000
  C   C319      1.0  0.18275  0.16805  0.50981  1.0000
  H   H563      1.0  0.43526  0.14664  0.57624  1.0000
  H   H564      1.0  0.40979  0.00501  0.67692  1.0000
  H   H565      1.0  0.02007  0.33531  0.73129  1.0000
  H   H566      1.0  0.01377  0.33871  0.61852  1.0000
  H   H567      1.0  0.05744  0.47265  0.61703  1.0000
  H   H568      1.0  0.03211  0.37228  0.70311  1.0000
  H   H569      1.0  0.03056  0.25929  0.57292  1.0000
  H   H570      1.0  0.23427  0.04384  0.56927  1.0000
  H   H571      1.0  0.20260  0.28368  0.52540  1.0000
  H   H572      1.0  0.45051  0.12970  0.59222  1.0000
  H   H573      1.0  0.23836  0.19849  0.50215  1.0000
  C   C320      1.0  0.44767  0.12074  0.69899  1.0000
  H   H574      1.0  0.45824  0.09989  0.56724  1.0000
  S   S69       1.0  0.25210  0.15060  0.50544  1.0000
  H   H575      1.0  0.33631  0.00779  0.60771  1.0000
  C   C321      1.0  0.35109  0.00990  0.51992  1.0000
  C   C322      1.0  0.32847  0.00341  0.52901  1.0000
  S   S70       1.0  0.14153  0.27609  0.50034  1.0000
  C   C323      1.0  0.32778  0.00641  0.54939  1.0000
  H   H576      1.0  0.99993  0.49104  0.69703  1.0000
  H   H577      1.0  0.99944  0.47996  0.66479  1.0000
  H   H578      1.0  0.47390  0.00184  0.63301  1.0000
  H   H579      1.0  0.30660  0.01235  0.61502  1.0000
  H   H580      1.0  0.36534  0.99865  0.52514  1.0000
  C   C324      1.0  0.43961  0.99563  0.62863  1.0000
  H   H581      1.0  0.99820  0.40317  0.64125  1.0000
  H   H582      1.0  0.15202  0.45687  0.74713  1.0000
  N   N19       1.0  0.30542  0.00256  0.55958  1.0000
  C   C325      1.0  0.99724  0.26104  0.51771  1.0000
  H   H583      1.0  0.99708  0.27882  0.56002  1.0000
  C   C326      1.0  0.02611  0.31331  0.50026  1.0000
  Fe  Fe36      1.0  0.43618  0.05974  0.85517  1.0000
  S   S71       1.0  0.43082  0.09511  0.84330  1.0000
  S   S72       1.0  0.47019  0.04486  0.86350  1.0000
  Fe  Fe37      1.0  0.38874  0.04825  0.84781  1.0000
  S   S73       1.0  0.37949  0.08341  0.83612  1.0000
  S   S74       1.0  0.36697  0.01911  0.84462  1.0000
  Fe  Fe38      1.0  0.41374  0.08016  0.82124  1.0000
  S   S75       1.0  0.42660  0.08260  0.79177  1.0000
  Fe  Fe39      1.0  0.39741  0.09522  0.85952  1.0000
  S   S76       1.0  0.38656  0.12684  0.87524  1.0000
  S   S77       1.0  0.42199  0.04477  0.83225  1.0000
  S   S78       1.0  0.40366  0.06005  0.87222  1.0000
  Fe  Fe40      1.0  0.19561  0.36642  0.97944  1.0000
  S   S79       1.0  0.23133  0.37672  0.97451  1.0000
  S   S80       1.0  0.16954  0.35993  0.95922  1.0000
  Fe  Fe41      1.0  0.39386  0.17306  0.97678  1.0000
  S   S81       1.0  0.39325  0.21029  0.96887  1.0000
  S   S82       1.0  0.39344  0.14331  0.95844  1.0000
  Fe  Fe42      1.0  0.09727  0.41036  0.84133  1.0000
  S   S83       1.0  0.13430  0.40229  0.83466  1.0000
  S   S84       1.0  0.07896  0.44449  0.84539  1.0000
  Fe  Fe43      1.0  0.08669  0.36169  0.84212  1.0000
  S   S85       1.0  0.12321  0.34918  0.83554  1.0000
  S   S86       1.0  0.05590  0.34099  0.84586  1.0000
  Fe  Fe44      1.0  0.13185  0.37373  0.85577  1.0000
  S   S87       1.0  0.16172  0.37027  0.87432  1.0000
  Fe  Fe45      1.0  0.12300  0.37876  0.81507  1.0000
  S   S88       1.0  0.13792  0.38251  0.78632  1.0000
  S   S89       1.0  0.09532  0.38364  0.86367  1.0000
  S   S90       1.0  0.08627  0.38922  0.82036  1.0000
  C   C327      1.0  0.09846  0.46502  0.84664  1.0000
  C   C328      1.0  0.12004  0.46230  0.83803  1.0000
  C   C329      1.0  0.13623  0.47782  0.84016  1.0000
  C   C330      1.0  0.48426  0.05661  0.81008  1.0000
  H   H584      1.0  0.46961  0.19177  0.94420  1.0000
  H   H585      1.0  0.12422  0.44842  0.82954  1.0000
  H   H586      1.0  0.39366  0.02454  0.80901  1.0000
  H   H587      1.0  0.19095  0.41116  0.85613  1.0000
  H   H588      1.0  0.04475  0.42678  0.77429  1.0000
  C   C331      1.0  0.02999  0.35688  0.84222  1.0000
  C   C332      1.0  0.02975  0.38018  0.83813  1.0000
  C   C333      1.0  0.25987  0.19744  0.95856  1.0000
  H   H589      1.0  0.03879  0.30970  0.79113  1.0000
  H   H590      1.0  0.04505  0.38883  0.83849  1.0000
  H   H591      1.0  0.27400  0.17105  0.97625  1.0000
  H   H592      1.0  0.14059  0.43693  0.92634  1.0000
  C   C334      1.0  0.11086  0.35506  0.76942  1.0000
  C   C335      1.0  0.12696  0.37126  0.76754  1.0000
  C   C336      1.0  0.27969  0.28330  0.99588  1.0000
  H   H593      1.0  0.48557  0.12089  0.76262  1.0000
  H   H594      1.0  0.10532  0.34879  0.78266  1.0000
  H   H595      1.0  0.00804  0.35403  0.80449  1.0000
  C   C337      1.0  0.16763  0.36406  0.93563  1.0000
  C   C338      1.0  0.14679  0.36123  0.92823  1.0000
  C   C339      1.0  0.14451  0.36349  0.90960  1.0000
  C   C340      1.0  0.16322  0.36819  0.89803  1.0000
  C   C341      1.0  0.18405  0.37121  0.90542  1.0000
  C   C342      1.0  0.18621  0.36941  0.92409  1.0000
  H   H596      1.0  0.13229  0.35707  0.93699  1.0000
  H   H597      1.0  0.12839  0.36109  0.90419  1.0000
  H   H598      1.0  0.19864  0.37491  0.89661  1.0000
  H   H599      1.0  0.20230  0.37181  0.92953  1.0000
  C   C343      1.0  0.01851  0.43132  0.88337  1.0000
  C   C344      1.0  0.38955  0.02650  0.77998  1.0000
  H   H600      1.0  0.37285  0.06468  0.79180  1.0000
  H   H601      1.0  0.18208  0.45201  0.91970  1.0000
  H   H602      1.0  0.31635  0.09144  0.80752  1.0000
  H   H603      1.0  0.19051  0.42251  0.91746  1.0000
  C   C345      1.0  0.39044  0.13129  0.89818  1.0000
  C   C346      1.0  0.39499  0.11333  0.91071  1.0000
  C   C347      1.0  0.39607  0.11743  0.92896  1.0000
  C   C348      1.0  0.39308  0.13955  0.93500  1.0000
  C   C349      1.0  0.38897  0.15759  0.92244  1.0000
  C   C350      1.0  0.38745  0.15344  0.90422  1.0000
  H   H604      1.0  0.39720  0.09618  0.90640  1.0000
  H   H605      1.0  0.39923  0.10329  0.93848  1.0000
  H   H606      1.0  0.38672  0.17470  0.92675  1.0000
  H   H607      1.0  0.38385  0.16749  0.89471  1.0000
  C   C351      1.0  0.46621  0.14368  0.82662  1.0000
  H   H608      1.0  0.19537  0.48511  0.93261  1.0000
  C   C352      1.0  0.15382  0.43061  0.91645  1.0000
  H   H609      1.0  0.46551  0.09313  0.86824  1.0000
  H   H610      1.0  0.49155  0.09787  0.82367  1.0000
  H   H611      1.0  0.11494  0.45941  0.78887  1.0000
  C   C353      1.0  0.13499  0.37845  0.75028  1.0000
  H   H612      1.0  0.00954  0.43211  0.85594  1.0000
  H   H613      1.0  0.15242  0.41192  0.91713  1.0000
  H   H614      1.0  0.99992  0.47077  0.89376  1.0000
  C   C354      1.0  0.41322  0.08650  0.77114  1.0000
  H   H615      1.0  0.01661  0.48494  0.87670  1.0000
  H   H616      1.0  0.16641  0.45762  0.86341  1.0000
  C   C355      1.0  0.35991  0.05185  0.79358  1.0000
  H   H617      1.0  0.38459  0.10787  0.78071  1.0000
  H   H618      1.0  0.15298  0.47558  0.83357  1.0000
  H   H619      1.0  0.19472  0.43253  0.94814  1.0000
  H   H620      1.0  0.00297  0.48928  0.84741  1.0000
  H   H621      1.0  0.06116  0.39020  0.76339  1.0000
  H   H622      1.0  0.24689  0.47380  0.92740  1.0000
  C   C356      1.0  0.13786  0.47854  0.91296  1.0000
  H   H623      1.0  0.02406  0.39754  0.87329  1.0000
  C   C357      1.0  0.01272  0.44466  0.86565  1.0000
  C   C358      1.0  0.16917  0.43182  0.88557  1.0000
  H   H624      1.0  0.34029  0.04531  0.76024  1.0000
  H   H625      1.0  0.48287  0.15871  0.84772  1.0000
  H   H626      1.0  0.32238  0.31830  0.99641  1.0000
  N   N20       1.0  0.14959  0.44047  0.89782  1.0000
  C   C359      1.0  0.33850  0.13390  0.97680  1.0000
  H   H627      1.0  0.07591  0.48617  0.86324  1.0000
  H   H628      1.0  0.03476  0.32142  0.81254  1.0000
  H   H629      1.0  0.03927  0.40163  0.89268  1.0000
  H   H630      1.0  0.18572  0.28280  0.96912  1.0000
  C   C360      1.0  0.12824  0.43142  0.89186  1.0000
  C   C361      1.0  0.16783  0.43891  0.86546  1.0000
  H   H631      1.0  0.46549  0.05726  0.80968  1.0000
  H   H632      1.0  0.46555  0.09823  0.81341  1.0000
  H   H633      1.0  0.29191  0.19393  0.97090  1.0000
  Fe  Fe46      1.0  0.42183  0.21075  0.98753  1.0000
  H   H634      1.0  0.00987  0.41040  0.83003  1.0000
  H   H635      1.0  0.13803  0.47231  0.88468  1.0000
  H   H636      1.0  0.43998  0.06667  0.75721  1.0000
  H   H637      1.0  0.18007  0.49317  0.95845  1.0000
  C   C362      1.0  0.03352  0.32762  0.75755  1.0000
  H   H638      1.0  0.02319  0.36353  0.75459  1.0000
  C   C363      1.0  0.38470  0.10502  0.75210  1.0000
  C   C364      1.0  0.03528  0.35235  0.76243  1.0000
  H   H639      1.0  0.08024  0.30416  0.79407  1.0000
  H   H640      1.0  0.45153  0.14885  0.81846  1.0000
  Fe  Fe47      1.0  0.22178  0.40381  0.99405  1.0000
  H   H641      1.0  0.17123  0.41303  0.88687  1.0000
  H   H642      1.0  0.46604  0.10115  0.77274  1.0000
  S   S91       1.0  0.42361  0.17346  0.99406  1.0000
  S   S92       1.0  0.33286  0.23424  0.99343  1.0000
  H   H643      1.0  0.40649  0.00640  0.86463  1.0000
  N   N21       1.0  0.36460  0.03409  0.77991  1.0000
  H   H644      1.0  0.48884  0.05477  0.82419  1.0000
  C   C365      1.0  0.09269  0.48387  0.85673  1.0000
  C   C366      1.0  0.10592  0.43769  0.90292  1.0000
  H   H645      1.0  0.46974  0.14884  0.78580  1.0000
  C   C367      1.0  0.48199  0.21865  0.98647  1.0000
  H   H646      1.0  0.17582  0.30984  0.97749  1.0000
  H   H647      1.0  0.18749  0.43513  0.84037  1.0000
  H   H648      1.0  0.36149  0.04415  0.80736  1.0000
  C   C368      1.0  0.11823  0.45592  0.76018  1.0000
  H   H649      1.0  0.14224  0.46592  0.77865  1.0000
  C   C369      1.0  0.29006  0.30376  0.99642  1.0000
  H   H650      1.0  0.21272  0.49371  0.91348  1.0000
  C   C370      1.0  0.28031  0.18274  0.96523  1.0000
  C   C371      1.0  0.32735  0.28185  0.99512  1.0000
  N   N22       1.0  0.48841  0.12229  0.80104  1.0000
  C   C372      1.0  0.00951  0.34620  0.84276  1.0000
  H   H651      1.0  0.13494  0.43676  0.78202  1.0000
  H   H652      1.0  0.33352  0.07457  0.78059  1.0000
  H   H653      1.0  0.36302  0.06315  0.76087  1.0000
  H   H654      1.0  0.42598  0.26938  0.99360  1.0000
  H   H655      1.0  0.12481  0.43784  0.87802  1.0000
  C   C373      1.0  0.33612  0.06498  0.79353  1.0000
  C   C374      1.0  0.42319  0.00817  0.79622  1.0000
  H   H656      1.0  0.45375  0.14850  0.75581  1.0000
  H   H657      1.0  0.22490  0.45516  0.92442  1.0000
  H   H658      1.0  0.08378  0.42902  0.88271  1.0000
  H   H659      1.0  0.33468  0.07337  0.82141  1.0000
  H   H660      1.0  0.39479  0.01493  0.76923  1.0000
  H   H661      1.0  0.20580  0.48750  0.98262  1.0000
  H   H662      1.0  0.34567  0.28163  0.99482  1.0000
  H   H663      1.0  0.34566  0.99821  0.76068  1.0000
  H   H664      1.0  0.10111  0.45607  0.90072  1.0000
  H   H665      1.0  0.12277  0.47081  0.91938  1.0000
  H   H666      1.0  0.11108  0.47347  0.75754  1.0000
  H   H667      1.0  0.49277  0.12278  0.86178  1.0000
  H   H668      1.0  0.49157  0.04146  0.80321  1.0000
  C   C375      1.0  0.48408  0.09952  0.81038  1.0000
  H   H669      1.0  0.07131  0.38191  0.78494  1.0000
  H   H670      1.0  0.48906  0.07859  0.78676  1.0000
  H   H671      1.0  0.26543  0.21024  0.94810  1.0000
  H   H672      1.0  0.34647  0.09464  0.80582  1.0000
  H   H673      1.0  0.43239  0.02387  0.79397  1.0000
  C   C376      1.0  0.14797  0.46609  0.89635  1.0000
  C   C377      1.0  0.29303  0.26243  0.99489  1.0000
  H   H674      1.0  0.20448  0.43701  0.85924  1.0000
  C   C378      1.0  0.39312  0.10019  0.76919  1.0000
  H   H675      1.0  0.20072  0.29477  0.98620  1.0000
  H   H676      1.0  0.15325  0.43189  0.85975  1.0000
  H   H677      1.0  0.49209  0.99843  0.87090  1.0000
  C   C379      1.0  0.39754  0.01398  0.79746  1.0000
  C   C380      1.0  0.47942  0.20398  0.93561  1.0000
  H   H678      1.0  0.02853  0.45238  0.86016  1.0000
  H   H679      1.0  0.07042  0.43039  0.90482  1.0000
  H   H680      1.0  0.17275  0.41314  0.94786  1.0000
  S   S93       1.0  0.22396  0.44138  0.98543  1.0000
  C   C381      1.0  0.00958  0.39255  0.83378  1.0000
  H   H681      1.0  0.31043  0.15774  0.98227  1.0000
  H   H682      1.0  0.07460  0.42225  0.77824  1.0000
  C   C382      1.0  0.33333  0.08213  0.80798  1.0000
  H   H683      1.0  0.16504  0.47266  0.89321  1.0000
  C   C383      1.0  0.12829  0.45441  0.77851  1.0000
  H   H684      1.0  0.02786  0.44196  0.89165  1.0000
  H   H685      1.0  0.13046  0.41257  0.89149  1.0000
  H   H686      1.0  0.15074  0.47810  0.92312  1.0000
  H   H687      1.0  0.35166  0.14613  0.97706  1.0000
  H   H688      1.0  0.05378  0.41850  0.79647  1.0000
  H   H689      1.0  0.14089  0.43000  0.74904  1.0000
  C   C384      1.0  0.10272  0.34633  0.75417  1.0000
  H   H690      1.0  0.10733  0.43336  0.91735  1.0000
  C   C385      1.0  0.31401  0.30273  0.99601  1.0000
  C   C386      1.0  0.46941  0.11921  0.77072  1.0000
  H   H691      1.0  0.48092  0.21938  0.94305  1.0000
  C   C387      1.0  0.99924  0.47918  0.88014  1.0000
  C   C388      1.0  0.21639  0.48590  0.99386  1.0000
  C   C389      1.0  0.00916  0.35102  0.78999  1.0000
  C   C390      1.0  0.18907  0.42998  0.85472  1.0000
  C   C391      1.0  0.42431  0.07711  0.75589  1.0000
  H   H692      1.0  0.34452  0.12054  0.96757  1.0000
  H   H693      1.0  0.02134  0.39213  0.77554  1.0000
  N   N23       1.0  0.24389  0.30671  0.94050  1.0000
  C   C392      1.0  0.23158  0.31582  0.92428  1.0000
  C   C393      1.0  0.25411  0.32620  0.94833  1.0000
  C   C394      1.0  0.26194  0.28878  0.93492  1.0000
  C   C395      1.0  0.22790  0.29623  0.95454  1.0000
  C   C396      1.0  0.20587  0.31090  0.95950  1.0000
  C   C397      1.0  0.21813  0.29863  0.91523  1.0000
  C   C398      1.0  0.27729  0.27868  0.94989  1.0000
  C   C399      1.0  0.27449  0.33620  0.93731  1.0000
  C   C400      1.0  0.28262  0.35643  0.94613  1.0000
  H   H694      1.0  0.22867  0.46455  0.94630  1.0000
  C   C401      1.0  0.20312  0.31063  0.90119  1.0000
  C   C402      1.0  0.29633  0.26237  0.94253  1.0000
  H   H695      1.0  0.24373  0.32250  0.91374  1.0000
  H   H696      1.0  0.21979  0.33073  0.92757  1.0000
  H   H697      1.0  0.24099  0.34043  0.95016  1.0000
  H   H698      1.0  0.25967  0.32137  0.96202  1.0000
  H   H699      1.0  0.27288  0.29532  0.92345  1.0000
  H   H700      1.0  0.25399  0.27421  0.92984  1.0000
  H   H701      1.0  0.22300  0.27958  0.95057  1.0000
  H   H702      1.0  0.23659  0.29235  0.96721  1.0000
  H   H703      1.0  0.19531  0.31470  0.94786  1.0000
  H   H704      1.0  0.21002  0.32715  0.96459  1.0000
  H   H705      1.0  0.23004  0.28612  0.90840  1.0000
  H   H706      1.0  0.20685  0.28930  0.92492  1.0000
  H   H707      1.0  0.26718  0.26901  0.96025  1.0000
  H   H708      1.0  0.28533  0.29203  0.95644  1.0000
  H   H709      1.0  0.28916  0.32347  0.93620  1.0000
  H   H710      1.0  0.26980  0.34211  0.92367  1.0000
  H   H711      1.0  0.29783  0.36258  0.93846  1.0000
  H   H712      1.0  0.26918  0.37054  0.94637  1.0000
  H   H713      1.0  0.28729  0.35155  0.96001  1.0000
  C   C403      1.0  0.19123  0.29872  0.97397  1.0000
  H   H714      1.0  0.00952  0.32819  0.84609  1.0000
  H   H715      1.0  0.14812  0.39026  0.74872  1.0000
  H   H716      1.0  0.21331  0.32081  0.89119  1.0000
  H   H717      1.0  0.19475  0.29793  0.89411  1.0000
  H   H718      1.0  0.18961  0.32194  0.90765  1.0000
  H   H719      1.0  0.30764  0.27144  0.93261  1.0000
  H   H720      1.0  0.30670  0.25513  0.95363  1.0000
  H   H721      1.0  0.28924  0.24825  0.93617  1.0000
  C   C404      1.0  0.17727  0.43457  0.92341  1.0000
  C   C405      1.0  0.45046  0.13060  0.75962  1.0000
  H   H722      1.0  0.39988  0.04139  0.77703  1.0000
  H   H723      1.0  0.07737  0.31733  0.81522  1.0000
  H   H724      1.0  0.24763  0.18678  0.95304  1.0000
  H   H725      1.0  0.00301  0.42623  0.89118  1.0000
  C   C406      1.0  0.17744  0.43058  0.94370  1.0000
  H   H726      1.0  0.16537  0.44301  0.95046  1.0000
  H   H727      1.0  0.01733  0.32089  0.76290  1.0000
  C   C407      1.0  0.46807  0.16248  0.83937  1.0000
  N   N24       1.0  0.31662  0.15987  0.95347  1.0000
  C   C408      1.0  0.29257  0.16878  0.95014  1.0000
  C   C409      1.0  0.32491  0.14357  0.93938  1.0000
  C   C410      1.0  0.48857  0.13962  0.81498  1.0000
  C   C411      1.0  0.33259  0.17858  0.95408  1.0000
  C   C412      1.0  0.32771  0.20021  0.94173  1.0000
  H   H728      1.0  0.46993  0.17896  0.83176  1.0000
  C   C413      1.0  0.31700  0.26142  0.99452  1.0000
  C   C414      1.0  0.32565  0.15288  0.91967  1.0000
  C   C415      1.0  0.33011  0.13359  0.90702  1.0000
  C   C416      1.0  0.34653  0.21643  0.94173  1.0000
  C   C417      1.0  0.48276  0.08847  0.86352  1.0000
  C   C418      1.0  0.34973  0.01493  0.78528  1.0000
  H   H729      1.0  0.28194  0.15447  0.94817  1.0000
  H   H730      1.0  0.29183  0.17937  0.93750  1.0000
  H   H731      1.0  0.34269  0.13690  0.94147  1.0000
  H   H732      1.0  0.31447  0.12858  0.94054  1.0000
  C   C419      1.0  0.22931  0.46972  0.93181  1.0000
  H   H733      1.0  0.04887  0.41378  0.87119  1.0000
  H   H734      1.0  0.33262  0.18456  0.96785  1.0000
  H   H735      1.0  0.35044  0.17192  0.95098  1.0000
  H   H736      1.0  0.31177  0.20965  0.94639  1.0000
  H   H737      1.0  0.32589  0.19620  0.92776  1.0000
  H   H738      1.0  0.32235  0.05332  0.79615  1.0000
  H   H739      1.0  0.04805  0.31677  0.76270  1.0000
  H   H740      1.0  0.05240  0.35678  0.75699  1.0000
  C   C420      1.0  0.31586  0.14644  0.97127  1.0000
  H   H741      1.0  0.30959  0.16226  0.91598  1.0000
  H   H742      1.0  0.33982  0.16411  0.91715  1.0000
  H   H743      1.0  0.33308  0.14064  0.89310  1.0000
  H   H744      1.0  0.34540  0.12264  0.91060  1.0000
  H   H745      1.0  0.31532  0.12302  0.90754  1.0000
  H   H746      1.0  0.36310  0.20805  0.93712  1.0000
  H   H747      1.0  0.34271  0.23145  0.93256  1.0000
  H   H748      1.0  0.34771  0.22240  0.95533  1.0000
  H   H749      1.0  0.18542  0.43787  0.88941  1.0000
  H   H750      1.0  0.42801  0.99680  0.78520  1.0000
  H   H751      1.0  0.00680  0.33275  0.78932  1.0000
  H   H752      1.0  0.33150  0.02085  0.78474  1.0000
  H   H753      1.0  0.99668  0.49233  0.81402  1.0000
  H   H754      1.0  0.45264  0.12746  0.79574  1.0000
  N   N25       1.0  0.03219  0.35693  0.78199  1.0000
  C   C421      1.0  0.21251  0.49011  0.92815  1.0000
  C   C422      1.0  0.05082  0.34432  0.79237  1.0000
  C   C423      1.0  0.03390  0.38201  0.78372  1.0000
  H   H755      1.0  0.06493  0.29093  0.81295  1.0000
  C   C424      1.0  0.05730  0.39134  0.77793  1.0000
  C   C425      1.0  0.04652  0.32016  0.80045  1.0000
  C   C426      1.0  0.06865  0.30742  0.80599  1.0000
  C   C427      1.0  0.05750  0.41626  0.78199  1.0000
  H   H756      1.0  0.08979  0.40650  0.89951  1.0000
  H   H757      1.0  0.02961  0.38631  0.79784  1.0000
  H   H758      1.0  0.06689  0.34315  0.78392  1.0000
  H   H759      1.0  0.05457  0.35388  0.80406  1.0000
  H   H760      1.0  0.46980  0.20897  0.92360  1.0000
  H   H761      1.0  0.45243  0.16397  0.84834  1.0000
  C   C428      1.0  0.08633  0.42508  0.89709  1.0000
  C   C429      1.0  0.46955  0.13021  0.78890  1.0000
  H   H762      1.0  0.10387  0.44486  0.76119  1.0000
  H   H763      1.0  0.30299  0.13358  0.97150  1.0000
  H   H764      1.0  0.46260  0.12802  0.83475  1.0000
  H   H765      1.0  0.25111  0.20651  0.96983  1.0000
  C   C430      1.0  0.03362  0.40980  0.87987  1.0000
  S   S94       1.0  0.45446  0.22834  0.97972  1.0000
  C   C431      1.0  0.35892  0.04503  0.76183  1.0000
  H   H766      1.0  0.17569  0.45191  0.99718  1.0000
  H   H767      1.0  0.09076  0.33333  0.75574  1.0000
  H   H768      1.0  0.35179  0.00920  0.79953  1.0000
  H   H769      1.0  0.42842  0.99938  0.80896  1.0000
  Fe  Fe48      1.0  0.36917  0.21575  0.99322  1.0000
  C   C432      1.0  0.33593  0.12211  0.99539  1.0000
  H   H770      1.0  0.38918  0.99788  0.80020  1.0000
  H   H771      1.0  0.01433  0.45742  0.83011  1.0000
  H   H772      1.0  0.36958  0.11629  0.75065  1.0000
  H   H773      1.0  0.26137  0.28357  0.99629  1.0000
  H   H774      1.0  0.47294  0.99922  0.83419  1.0000
  H   H775      1.0  0.43375  0.13013  0.76722  1.0000
  H   H776      1.0  0.49322  0.15625  0.80860  1.0000
  C   C433      1.0  0.49346  0.07799  0.80081  1.0000
  C   C434      1.0  0.48973  0.06575  0.86110  1.0000
  H   H777      1.0  0.28465  0.24688  0.99451  1.0000
  S   S95       1.0  0.18577  0.39456  0.99753  1.0000
  S   S96       1.0  0.27413  0.33091  0.99751  1.0000
  H   H778      1.0  0.32323  0.10919  0.99569  1.0000
  Fe  Fe49      1.0  0.37239  0.86464  0.19362  1.0000
  S   S97       1.0  0.40444  0.88202  0.18671  1.0000
  S   S98       1.0  0.35683  0.86185  0.22233  1.0000
  Fe  Fe50      1.0  0.37065  0.84859  0.15487  1.0000
  S   S99       1.0  0.40281  0.86460  0.14607  1.0000
  S   S100      1.0  0.35102  0.83153  0.13461  1.0000
  Fe  Fe51      1.0  0.41535  0.85078  0.17221  1.0000
  S   S101      1.0  0.44987  0.83309  0.17460  1.0000
  Fe  Fe52      1.0  0.38854  0.89442  0.16126  1.0000
  S   S102      1.0  0.39395  0.92777  0.14574  1.0000
  S   S103      1.0  0.38433  0.83242  0.18030  1.0000
  S   S104      1.0  0.35526  0.87940  0.16888  1.0000
  Fe  Fe53      1.0  0.10664  0.57861  0.20969  1.0000
  S   S105      1.0  0.06873  0.57813  0.21059  1.0000
  S   S106      1.0  0.12642  0.57626  0.23508  1.0000
  Fe  Fe54      1.0  0.11186  0.57197  0.16835  1.0000
  S   S107      1.0  0.07412  0.57070  0.16702  1.0000
  S   S108      1.0  0.13460  0.56154  0.14358  1.0000
  Fe  Fe55      1.0  0.07110  0.59950  0.18501  1.0000
  S   S109      1.0  0.04512  0.62812  0.17895  1.0000
  Fe  Fe56      1.0  0.07487  0.54946  0.19258  1.0000
  S   S110      1.0  0.05537  0.51874  0.19896  1.0000
  S   S111      1.0  0.10899  0.60267  0.18505  1.0000
  S   S112      1.0  0.11260  0.54817  0.19307  1.0000
  Fe  Fe57      1.0  0.18958  0.59790  0.04221  1.0000
  S   S113      1.0  0.22772  0.59115  0.04171  1.0000
  S   S114      1.0  0.16793  0.60817  0.06758  1.0000
  Fe  Fe58      1.0  0.22214  0.56262  0.02417  1.0000
  H   H779      1.0  0.38744  0.89596  0.22989  1.0000
  Fe  Fe59      1.0  0.40662  0.74619  0.00691  1.0000
  H   H780      1.0  0.46939  0.85901  0.11336  1.0000
  S   S115      1.0  0.18424  0.56815  0.02616  1.0000
  S   S116      1.0  0.19109  0.62207  0.01748  1.0000
  Fe  Fe60      1.0  0.37838  0.77404  0.03503  1.0000
  S   S117      1.0  0.38663  0.73656  0.03243  1.0000
  S   S118      1.0  0.38772  0.79017  0.06048  1.0000
  C   C435      1.0  0.29355  0.52439  0.05136  1.0000
  Fe  Fe61      1.0  0.35549  0.73743  0.01601  1.0000
  S   S119      1.0  0.32812  0.71163  0.02477  1.0000
  H   H781      1.0  0.04654  0.54660  0.13963  1.0000
  H   H782      1.0  0.01706  0.55527  0.14439  1.0000
  S   S120      1.0  0.34675  0.77503  0.01960  1.0000
  H   H783      1.0  0.48226  0.93387  0.13252  1.0000
  H   H784      1.0  0.32958  0.76099  0.08832  1.0000
  H   H785      1.0  0.15447  0.50419  0.19841  1.0000
  H   H786      1.0  0.44135  0.85942  0.20751  1.0000
  H   H787      1.0  0.40214  0.76067  0.11228  1.0000
  H   H788      1.0  0.99926  0.62534  0.21493  1.0000
  C   C436      1.0  0.30823  0.69163  0.01940  1.0000
  C   C437      1.0  0.29359  0.68241  0.03309  1.0000
  C   C438      1.0  0.27775  0.66658  0.02959  1.0000
  H   H789      1.0  0.27529  0.52683  0.05579  1.0000
  H   H790      1.0  0.31786  0.53885  0.03241  1.0000
  H   H791      1.0  0.26664  0.65996  0.04032  1.0000
  H   H792      1.0  0.27915  0.70158  0.11599  1.0000
  C   C439      1.0  0.46888  0.75215  0.02068  1.0000
  H   H793      1.0  0.40880  0.73214  0.10550  1.0000
  H   H794      1.0  0.46478  0.88730  0.20533  1.0000
  H   H795      1.0  0.35826  0.67643  0.04624  1.0000
  C   C440      1.0  0.14393  0.57491  0.12259  1.0000
  C   C441      1.0  0.14041  0.59825  0.11867  1.0000
  C   C442      1.0  0.14795  0.60800  0.10189  1.0000
  C   C443      1.0  0.15941  0.59470  0.08873  1.0000
  C   C444      1.0  0.16312  0.57136  0.09269  1.0000
  C   C445      1.0  0.15543  0.56159  0.10947  1.0000
  H   H796      1.0  0.13203  0.60884  0.12862  1.0000
  H   H797      1.0  0.14502  0.62606  0.09909  1.0000
  H   H798      1.0  0.17184  0.56082  0.08281  1.0000
  H   H799      1.0  0.15842  0.54355  0.11229  1.0000
  H   H800      1.0  0.46318  0.98271  0.11250  1.0000
  C   C446      1.0  0.02047  0.62076  0.16935  1.0000
  C   C447      1.0  0.44882  0.86050  0.23590  1.0000
  H   H801      1.0  0.01974  0.58729  0.18225  1.0000
  H   H802      1.0  0.47338  0.90873  0.21816  1.0000
  H   H803      1.0  0.29958  0.62156  0.02799  1.0000
  C   C448      1.0  0.02960  0.61931  0.09384  1.0000
  C   C449      1.0  0.45162  0.95425  0.14155  1.0000
  N   N26       1.0  0.46655  0.87766  0.23354  1.0000
  H   H804      1.0  0.45947  0.85125  0.13584  1.0000
  C   C450      1.0  0.38483  0.95407  0.15442  1.0000
  C   C451      1.0  0.37454  0.95566  0.17159  1.0000
  C   C452      1.0  0.36787  0.97708  0.17806  1.0000
  C   C453      1.0  0.06750  0.50706  0.16479  1.0000
  C   C454      1.0  0.38847  0.97393  0.14381  1.0000
  H   H805      1.0  0.37160  0.94042  0.17982  1.0000
  H   H806      1.0  0.44827  0.88121  0.16587  1.0000
  H   H807      1.0  0.39609  0.97280  0.13043  1.0000
  C   C455      1.0  0.36156  0.82083  0.11378  1.0000
  C   C456      1.0  0.34606  0.81607  0.10126  1.0000
  C   C457      1.0  0.35367  0.80729  0.08469  1.0000
  C   C458      1.0  0.37692  0.80287  0.08051  1.0000
  C   C459      1.0  0.39238  0.80793  0.09294  1.0000
  C   C460      1.0  0.38480  0.81674  0.10946  1.0000
  H   H808      1.0  0.32804  0.81917  0.10442  1.0000
  H   H809      1.0  0.34155  0.80380  0.07526  1.0000
  H   H810      1.0  0.41040  0.80454  0.08991  1.0000
  H   H811      1.0  0.39696  0.82009  0.11897  1.0000
  C   C461      1.0  0.47074  0.85249  0.17349  1.0000
  C   C462      1.0  0.46548  0.87536  0.16869  1.0000
  H   H812      1.0  0.33143  0.66944  0.05729  1.0000
  N   N27       1.0  0.06378  0.60833  0.11344  1.0000
  C   C463      1.0  0.05684  0.58440  0.11730  1.0000
  C   C464      1.0  0.08207  0.60918  0.09841  1.0000
  C   C465      1.0  0.07387  0.61546  0.13007  1.0000
  C   C466      1.0  0.04377  0.62474  0.10946  1.0000
  C   C467      1.0  0.23390  0.50339  0.01751  1.0000
  C   C468      1.0  0.03642  0.58155  0.13104  1.0000
  C   C469      1.0  0.08446  0.63881  0.12842  1.0000
  C   C470      1.0  0.08101  0.59307  0.08303  1.0000
  C   C471      1.0  0.09814  0.59875  0.06761  1.0000
  H   H813      1.0  0.33399  0.57397  0.04282  1.0000
  C   C472      1.0  0.03156  0.55665  0.13437  1.0000
  C   C473      1.0  0.09518  0.64365  0.14563  1.0000
  H   H814      1.0  0.07161  0.57325  0.12194  1.0000
  H   H815      1.0  0.05193  0.57688  0.10512  1.0000
  H   H816      1.0  0.08278  0.62679  0.09240  1.0000
  H   H817      1.0  0.09909  0.60470  0.10370  1.0000
  H   H818      1.0  0.08738  0.60252  0.13447  1.0000
  H   H819      1.0  0.06088  0.61639  0.14139  1.0000
  H   H820      1.0  0.03223  0.62661  0.12166  1.0000
  H   H821      1.0  0.04940  0.64202  0.10605  1.0000
  H   H822      1.0  0.42241  0.82354  0.21059  1.0000
  C   C474      1.0  0.36020  0.97066  0.09552  1.0000
  H   H823      1.0  0.03968  0.58809  0.14398  1.0000
  H   H824      1.0  0.02072  0.59072  0.12621  1.0000
  H   H825      1.0  0.07132  0.65276  0.12581  1.0000
  H   H826      1.0  0.09800  0.63948  0.11755  1.0000
  H   H827      1.0  0.08545  0.57531  0.08794  1.0000
  H   H828      1.0  0.06397  0.59388  0.07765  1.0000
  H   H829      1.0  0.09749  0.58665  0.05699  1.0000
  H   H830      1.0  0.09424  0.61618  0.06178  1.0000
  H   H831      1.0  0.11567  0.59743  0.07229  1.0000
  C   C475      1.0  0.17761  0.50848  0.17545  1.0000
  H   H832      1.0  0.02573  0.60130  0.09434  1.0000
  H   H833      1.0  0.30263  0.61719  0.99969  1.0000
  H   H834      1.0  0.43892  0.91731  0.19068  1.0000
  H   H835      1.0  0.45310  0.75658  0.02815  1.0000
  H   H836      1.0  0.35738  0.87389  0.05304  1.0000
  H   H837      1.0  0.10835  0.63009  0.14921  1.0000
  H   H838      1.0  0.10333  0.65997  0.14382  1.0000
  H   H839      1.0  0.08208  0.64498  0.15679  1.0000
  S   S121      1.0  0.25702  0.63876  0.00698  1.0000
  H   H840      1.0  0.30242  0.74096  0.06822  1.0000
  H   H841      1.0  0.32329  0.74625  0.05049  1.0000
  H   H842      1.0  0.32845  0.88634  0.05548  1.0000
  N   N28       1.0  0.30309  0.58486  0.02957  1.0000
  C   C476      1.0  0.29293  0.56624  0.04144  1.0000
  H   H843      1.0  0.01054  0.56233  0.21774  1.0000
  C   C477      1.0  0.48934  0.86546  0.22920  1.0000
  H   H844      1.0  0.42677  0.82101  0.23415  1.0000
  H   H845      1.0  0.00608  0.52753  0.20283  1.0000
  H   H846      1.0  0.34928  0.76001  0.06961  1.0000
  H   H847      1.0  0.16706  0.54435  0.17091  1.0000
  H   H848      1.0  0.41696  0.93235  0.20391  1.0000
  H   H849      1.0  0.37613  0.61428  0.02239  1.0000
  H   H850      1.0  0.02374  0.63434  0.23882  1.0000
  C   C478      1.0  0.29533  0.58287  0.01099  1.0000
  H   H851      1.0  0.29682  0.50695  0.04673  1.0000
  H   H852      1.0  0.27454  0.60899  0.03476  1.0000
  N   N29       1.0  0.36120  0.90444  0.10113  1.0000
  C   C479      1.0  0.34979  0.89080  0.11627  1.0000
  C   C480      1.0  0.38659  0.89901  0.10102  1.0000
  C   C481      1.0  0.35661  0.92915  0.10503  1.0000
  C   C482      1.0  0.35238  0.90056  0.08317  1.0000
  C   C483      1.0  0.34414  0.87668  0.08060  1.0000
  C   C484      1.0  0.32413  0.89761  0.12017  1.0000
  C   C485      1.0  0.36963  0.94634  0.09268  1.0000
  C   C486      1.0  0.39529  0.87426  0.09790  1.0000
  C   C487      1.0  0.42111  0.87101  0.09874  1.0000
  C   C488      1.0  0.34093  0.87322  0.06098  1.0000
  C   C489      1.0  0.31177  0.87862  0.13031  1.0000
  H   H853      1.0  0.26288  0.62304  0.06414  1.0000
  H   H854      1.0  0.35840  0.89231  0.12887  1.0000
  H   H855      1.0  0.35174  0.87249  0.11403  1.0000
  H   H856      1.0  0.39546  0.90930  0.09028  1.0000
  H   H857      1.0  0.39305  0.90357  0.11384  1.0000
  H   H858      1.0  0.36062  0.93188  0.11901  1.0000
  H   H859      1.0  0.33822  0.93438  0.10423  1.0000
  H   H860      1.0  0.33767  0.91277  0.08019  1.0000
  H   H861      1.0  0.36553  0.90426  0.07232  1.0000
  H   H862      1.0  0.32755  0.87460  0.08805  1.0000
  H   H863      1.0  0.35600  0.86271  0.08550  1.0000
  H   H864      1.0  0.32228  0.91259  0.12849  1.0000
  H   H865      1.0  0.31540  0.90224  0.10770  1.0000
  H   H866      1.0  0.36844  0.94299  0.07842  1.0000
  H   H867      1.0  0.38781  0.94531  0.09579  1.0000
  H   H868      1.0  0.38771  0.86249  0.10816  1.0000
  H   H869      1.0  0.39140  0.86963  0.08442  1.0000
  H   H870      1.0  0.42652  0.87613  0.11168  1.0000
  H   H871      1.0  0.42667  0.85285  0.09735  1.0000
  H   H872      1.0  0.42961  0.88117  0.08772  1.0000
  C   C490      1.0  0.46994  0.84525  0.12405  1.0000
  H   H873      1.0  0.48902  0.85675  0.21653  1.0000
  C   C491      1.0  0.48403  0.97880  0.14273  1.0000
  H   H874      1.0  0.29376  0.88448  0.13341  1.0000
  H   H875      1.0  0.31215  0.86361  0.12213  1.0000
  H   H876      1.0  0.31975  0.87357  0.14306  1.0000
  H   H877      1.0  0.28046  0.61378  0.08228  1.0000
  C   C492      1.0  0.15436  0.50156  0.18391  1.0000
  H   H878      1.0  0.40855  0.84415  0.22493  1.0000
  H   H879      1.0  0.35972  0.97826  0.19129  1.0000
  Fe  Fe62      1.0  0.22927  0.61377  0.01637  1.0000
  H   H880      1.0  0.04006  0.62683  0.21877  1.0000
  H   H881      1.0  0.36531  0.76254  0.09875  1.0000
  H   H882      1.0  0.40630  0.75554  0.08891  1.0000
  H   H883      1.0  0.43323  0.95459  0.13921  1.0000
  C   C493      1.0  0.00690  0.63348  0.09413  1.0000
  C   C494      1.0  0.18044  0.53355  0.17774  1.0000
  H   H884      1.0  0.30406  0.52615  0.06286  1.0000
  H   H885      1.0  0.37036  0.98266  0.08706  1.0000
  H   H886      1.0  0.46645  0.94661  0.11444  1.0000
  C   C495      1.0  0.36727  0.59834  0.02401  1.0000
  H   H887      1.0  0.42627  0.96595  0.17181  1.0000
  H   H888      1.0  0.35718  0.65284  0.06250  1.0000
  H   H889      1.0  0.19723  0.53814  0.17175  1.0000
  H   H890      1.0  0.01217  0.50003  0.15476  1.0000
  C   C496      1.0  0.30668  0.68451  0.00209  1.0000
  H   H891      1.0  0.48987  0.76385  0.04021  1.0000
  H   H892      1.0  0.03898  0.62354  0.08096  1.0000
  H   H893      1.0  0.45325  0.94516  0.15479  1.0000
  H   H894      1.0  0.31159  0.60004  0.06136  1.0000
  H   H895      1.0  0.44954  0.90838  0.14011  1.0000
  C   C497      1.0  0.18272  0.51107  0.05816  1.0000
  C   C498      1.0  0.01147  0.59963  0.17316  1.0000
  H   H896      1.0  0.19062  0.51462  0.04457  1.0000
  C   C499      1.0  0.42439  0.83323  0.22251  1.0000
  H   H897      1.0  0.33614  0.61478  0.01520  1.0000
  H   H898      1.0  0.14287  0.50863  0.14870  1.0000
  H   H899      1.0  0.33902  0.61433  0.03870  1.0000
  H   H900      1.0  0.17936  0.50575  0.16096  1.0000
  H   H901      1.0  0.31888  0.78733  0.05488  1.0000
  C   C500      1.0  0.44476  0.84765  0.21916  1.0000
  H   H902      1.0  0.44618  0.93864  0.20514  1.0000
  H   H903      1.0  0.07754  0.49721  0.13816  1.0000
  H   H904      1.0  0.47868  0.90815  0.16325  1.0000
  C   C501      1.0  0.49297  0.84493  0.17711  1.0000
  H   H905      1.0  0.29785  0.56711  0.05539  1.0000
  H   H906      1.0  0.30501  0.70257  0.08909  1.0000
  C   C502      1.0  0.46487  0.93856  0.12807  1.0000
  H   H907      1.0  0.17939  0.53715  0.19211  1.0000
  H   H908      1.0  0.01674  0.65278  0.15438  1.0000
  N   N30       1.0  0.45874  0.97823  0.14142  1.0000
  H   H909      1.0  0.33450  0.85628  0.05973  1.0000
  C   C503      1.0  0.02884  0.62025  0.23000  1.0000
  C   C504      1.0  0.45302  0.91672  0.12671  1.0000
  C   C505      1.0  0.46844  0.74161  0.00457  1.0000
  C   C506      1.0  0.27639  0.61022  0.06856  1.0000
  H   H910      1.0  0.43224  0.86853  0.24095  1.0000
  H   H911      1.0  0.33202  0.73292  0.11058  1.0000
  H   H912      1.0  0.37216  0.68502  0.07545  1.0000
  H   H913      1.0  0.33562  0.57005  0.01966  1.0000
  C   C507      1.0  0.36976  0.86819  0.24207  1.0000
  H   H914      1.0  0.29426  0.68778  0.04651  1.0000
  H   H915      1.0  0.16942  0.52485  0.06095  1.0000
  H   H916      1.0  0.03869  0.60663  0.23762  1.0000
  H   H917      1.0  0.08941  0.53159  0.23652  1.0000
  H   H918      1.0  0.45434  0.96749  0.17922  1.0000
  H   H919      1.0  0.34139  0.70450  0.10705  1.0000
  H   H920      1.0  0.30657  0.68800  0.12071  1.0000
  H   H921      1.0  0.42458  0.89447  0.21795  1.0000
  H   H922      1.0  0.14108  0.51410  0.17881  1.0000
  C   C508      1.0  0.38404  0.88595  0.24212  1.0000
  C   C509      1.0  0.29770  0.61157  0.05599  1.0000
  H   H923      1.0  0.28982  0.53775  0.02456  1.0000
  H   H924      1.0  0.46232  0.83020  0.11948  1.0000
  H   H925      1.0  0.43342  0.91543  0.23176  1.0000
  H   H926      1.0  0.36796  0.73920  0.11500  1.0000
  S   S122      1.0  0.23977  0.52740  0.02903  1.0000
  H   H927      1.0  0.29836  0.78261  0.07344  1.0000
  C   C510      1.0  0.29320  0.60713  0.03637  1.0000
  C   C511      1.0  0.29946  0.54159  0.03609  1.0000
  C   C512      1.0  0.46153  0.89497  0.21847  1.0000
  H   H928      1.0  0.46394  0.90476  0.11854  1.0000
  C   C513      1.0  0.43733  0.90690  0.21911  1.0000
  H   H929      1.0  0.36110  0.97463  0.10971  1.0000
  H   H930      1.0  0.34507  0.67877  0.08638  1.0000
  H   H931      1.0  0.43460  0.98716  0.12116  1.0000
  H   H932      1.0  0.37719  0.71217  0.09230  1.0000
  C   C514      1.0  0.32870  0.58206  0.02982  1.0000
  H   H933      1.0  0.29676  0.73072  0.09638  1.0000
  H   H934      1.0  0.37390  0.58808  0.03567  1.0000
  H   H935      1.0  0.30014  0.56574  0.00619  1.0000
  H   H936      1.0  0.29847  0.71621  0.12799  1.0000
  H   H937      1.0  0.19587  0.51123  0.06806  1.0000
  H   H938      1.0  0.37940  0.73352  0.07469  1.0000
  H   H939      1.0  0.34226  0.97316  0.09181  1.0000
  H   H940      1.0  0.29218  0.77627  0.05117  1.0000
  H   H941      1.0  0.43663  0.92045  0.12030  1.0000
  C   C515      1.0  0.00991  0.63645  0.15733  1.0000
  H   H942      1.0  0.07125  0.52445  0.16192  1.0000
  H   H943      1.0  0.37111  0.58886  0.01176  1.0000
  H   H944      1.0  0.27402  0.56854  0.04203  1.0000
  H   H945      1.0  0.21149  0.52150  0.99927  1.0000
  H   H946      1.0  0.26974  0.59318  0.06896  1.0000
  C   C516      1.0  0.27618  0.65951  0.01226  1.0000
  C   C517      1.0  0.43478  0.92489  0.20375  1.0000
  N   N31       1.0  0.34479  0.72721  0.08353  1.0000
  C   C518      1.0  0.34412  0.71045  0.06925  1.0000
  C   C519      1.0  0.33555  0.75057  0.07688  1.0000
  C   C520      1.0  0.36942  0.72880  0.08730  1.0000
  C   C521      1.0  0.33223  0.71968  0.10069  1.0000
  C   C522      1.0  0.30709  0.71472  0.09939  1.0000
  C   C523      1.0  0.35358  0.68581  0.07392  1.0000
  C   C524      1.0  0.37400  0.74562  0.10148  1.0000
  C   C525      1.0  0.31626  0.75185  0.06366  1.0000
  C   C526      1.0  0.30583  0.77605  0.06069  1.0000
  C   C527      1.0  0.29732  0.70451  0.11714  1.0000
  C   C528      1.0  0.34984  0.67023  0.05906  1.0000
  C   C529      1.0  0.39939  0.74858  0.10203  1.0000
  H   H947      1.0  0.35373  0.71660  0.05693  1.0000
  H   H948      1.0  0.32661  0.70929  0.06511  1.0000
  S   S123      1.0  0.40003  0.78316  0.01039  1.0000
  H   H949      1.0  0.45975  0.83606  0.21560  1.0000
  C   C530      1.0  0.48267  0.89053  0.16712  1.0000
  H   H950      1.0  0.30333  0.62903  0.05634  1.0000
  H   H951      1.0  0.27640  0.58495  0.01117  1.0000
  C   C531      1.0  0.43957  0.97765  0.17392  1.0000
  C   C532      1.0  0.45253  0.98993  0.12373  1.0000
  C   C533      1.0  0.34171  0.60397  0.02686  1.0000
  H   H952      1.0  0.02698  0.54950  0.12188  1.0000
  H   H953      1.0  0.42470  0.98358  0.20052  1.0000
  H   H954      1.0  0.49326  0.85167  0.23951  1.0000
  H   H955      1.0  0.12186  0.49889  0.12357  1.0000
  C   C534      1.0  0.48981  0.75627  0.02749  1.0000
  C   C535      1.0  0.44581  0.99107  0.15614  1.0000
  H   H956      1.0  0.00962  0.65185  0.09365  1.0000
  H   H957      1.0  0.48825  0.94920  0.16205  1.0000
  H   H958      1.0  0.00067  0.53408  0.17098  1.0000
  H   H959      1.0  0.19177  0.49866  0.18205  1.0000
  H   H960      1.0  0.45345  0.84718  0.24635  1.0000
  C   C536      1.0  0.21964  0.50518  0.00326  1.0000
  H   H961      1.0  0.48946  0.97649  0.17128  1.0000
  Fe  Fe63      1.0  0.18874  0.59137  0.00132  1.0000
  C   C537      1.0  0.42992  0.99360  0.18819  1.0000
  C   C538      1.0  0.05928  0.49987  0.18189  1.0000
  C   C539      1.0  0.29090  0.66863  0.99861  1.0000
  C   C540      1.0  0.00795  0.61113  0.22273  1.0000
  H   H962      1.0  0.49324  0.97186  0.13066  1.0000
  C   C541      1.0  0.49439  0.83913  0.12912  1.0000
  H   H963      1.0  0.49363  0.82575  0.14008  1.0000
  C   C542      1.0  0.49415  0.96644  0.15945  1.0000
  H   H964      1.0  0.01389  0.59812  0.21331  1.0000
  H   H965      1.0  0.99746  0.63006  0.08238  1.0000
  C   C543      1.0  0.38224  0.99530  0.15041  1.0000
  H   H966      1.0  0.11701  0.49631  0.15644  1.0000
  S   S124      1.0  0.22671  0.58424  0.99884  1.0000
  H   H967      1.0  0.00258  0.58989  0.24691  1.0000
  C   C544      1.0  0.99724  0.49940  0.16443  1.0000
  H   H968      1.0  0.99964  0.52347  0.22642  1.0000
  Fe  Fe64      1.0  0.38359  0.86705  0.36429  1.0000
  S   S125      1.0  0.41711  0.87410  0.37456  1.0000
  S   S126      1.0  0.35127  0.86500  0.38301  1.0000
  Fe  Fe65      1.0  0.40021  0.87630  0.32403  1.0000
  S   S127      1.0  0.43447  0.88388  0.33240  1.0000
  S   S128      1.0  0.39945  0.88746  0.29412  1.0000
  Fe  Fe66      1.0  0.43273  0.85415  0.35184  1.0000
  S   S129      1.0  0.46606  0.83288  0.35330  1.0000
  Fe  Fe67      1.0  0.41633  0.90308  0.35414  1.0000
  S   S130      1.0  0.42903  0.93663  0.35885  1.0000
  S   S131      1.0  0.39926  0.84453  0.34246  1.0000
  S   S132      1.0  0.38210  0.89780  0.34493  1.0000
  Fe  Fe68      1.0  0.07455  0.57856  0.37448  1.0000
  S   S133      1.0  0.08399  0.61266  0.36370  1.0000
  S   S134      1.0  0.03963  0.57231  0.38586  1.0000
  Fe  Fe69      1.0  0.12094  0.55674  0.36638  1.0000
  S   S135      1.0  0.13473  0.58960  0.35522  1.0000
  S   S136      1.0  0.14100  0.52263  0.36653  1.0000
  Fe  Fe70      1.0  0.11533  0.60519  0.37907  1.0000
  S   S137      1.0  0.12488  0.63563  0.39383  1.0000
  Fe  Fe71      1.0  0.10219  0.59454  0.34086  1.0000
  S   S138      1.0  0.09483  0.60942  0.31279  1.0000
  S   S139      1.0  0.10456  0.57181  0.39121  1.0000
  S   S140      1.0  0.08978  0.56100  0.35061  1.0000
  H   H969      1.0  0.10455  0.66002  0.35802  1.0000
  S   S141      1.0  0.33767  0.83671  0.46668  1.0000
  C   C545      1.0  0.47573  0.87573  0.26703  1.0000
  H   H970      1.0  0.04850  0.60552  0.41946  1.0000
  S   S142      1.0  0.13352  0.64627  0.47766  1.0000
  H   H971      1.0  0.34120  0.97780  0.28012  1.0000
  H   H972      1.0  0.32708  0.81053  0.41874  1.0000
  H   H973      1.0  0.21987  0.84816  0.45601  1.0000
  H   H974      1.0  0.35152  0.97080  0.35453  1.0000
  H   H975      1.0  0.24589  0.73256  0.46839  1.0000
  C   C546      1.0  0.10289  0.59842  0.29161  1.0000
  C   C547      1.0  0.12293  0.58476  0.28870  1.0000
  C   C548      1.0  0.08956  0.60486  0.27702  1.0000
  H   H976      1.0  0.13338  0.57976  0.29975  1.0000
  H   H977      1.0  0.07411  0.61561  0.27905  1.0000
  C   C549      1.0  0.13035  0.64409  0.45433  1.0000
  C   C550      1.0  0.12683  0.62279  0.44806  1.0000
  C   C551      1.0  0.12471  0.61995  0.42972  1.0000
  C   C552      1.0  0.12631  0.63840  0.41728  1.0000
  C   C553      1.0  0.12966  0.65976  0.42354  1.0000
  C   C554      1.0  0.13163  0.66262  0.44191  1.0000
  H   H978      1.0  0.12595  0.60828  0.45747  1.0000
  H   H979      1.0  0.12233  0.60338  0.42519  1.0000
  H   H980      1.0  0.13105  0.67416  0.41409  1.0000
  H   H981      1.0  0.13466  0.67904  0.44640  1.0000
  H   H982      1.0  0.47811  0.90892  0.32586  1.0000
  H   H983      1.0  0.07324  0.64925  0.42047  1.0000
  H   H984      1.0  0.48287  0.97095  0.32866  1.0000
  C   C555      1.0  0.02136  0.57478  0.36840  1.0000
  C   C556      1.0  0.02789  0.58568  0.35206  1.0000
  C   C557      1.0  0.01243  0.58933  0.33862  1.0000
  H   H985      1.0  0.36486  0.94215  0.39484  1.0000
  H   H986      1.0  0.04461  0.59188  0.34990  1.0000
  C   C558      1.0  0.38796  0.87913  0.27437  1.0000
  H   H987      1.0  0.15889  0.51439  0.30302  1.0000
  C   C559      1.0  0.49373  0.93626  0.33707  1.0000
  H   H988      1.0  0.09255  0.51824  0.36929  1.0000
  H   H989      1.0  0.30562  0.79630  0.40851  1.0000
  C   C560      1.0  0.37366  0.86137  0.27436  1.0000
  H   H990      1.0  0.02099  0.69002  0.47160  1.0000
  H   H991      1.0  0.01729  0.59834  0.32618  1.0000
  C   C561      1.0  0.45985  0.98691  0.38219  1.0000
  H   H992      1.0  0.36944  0.85186  0.28671  1.0000
  C   C562      1.0  0.34828  0.85810  0.40650  1.0000
  C   C563      1.0  0.36607  0.84758  0.41610  1.0000
  C   C564      1.0  0.36253  0.84132  0.43446  1.0000
  C   C565      1.0  0.34141  0.84609  0.44369  1.0000
  C   C566      1.0  0.32368  0.85687  0.43416  1.0000
  C   C567      1.0  0.32707  0.86270  0.41570  1.0000
  H   H993      1.0  0.38242  0.84368  0.40927  1.0000
  H   H994      1.0  0.37629  0.83260  0.44154  1.0000
  H   H995      1.0  0.30720  0.86030  0.44092  1.0000
  H   H996      1.0  0.31310  0.87064  0.40844  1.0000
  H   H997      1.0  0.07931  0.62252  0.47696  1.0000
  H   H998      1.0  0.46888  0.87990  0.36099  1.0000
  H   H999      1.0  0.24597  0.76939  0.48266  1.0000
  C   C568      1.0  0.38548  0.95550  0.35690  1.0000
  C   C569      1.0  0.40867  0.95881  0.35466  1.0000
  C   C570      1.0  0.14992  0.52314  0.31435  1.0000
  C   C571      1.0  0.08095  0.66939  0.33778  1.0000
  H   H1000     1.0  0.37996  0.93928  0.36199  1.0000
  C   C572      1.0  0.06610  0.69381  0.46303  1.0000
  N   N32       1.0  0.08886  0.51559  0.29917  1.0000
  C   C573      1.0  0.07807  0.52708  0.28298  1.0000
  C   C574      1.0  0.07480  0.52243  0.31570  1.0000
  C   C575      1.0  0.11190  0.52479  0.30006  1.0000
  C   C576      1.0  0.47624  0.97190  0.37069  1.0000
  H   H1001     1.0  0.34663  0.92402  0.38497  1.0000
  H   H1002     1.0  0.46582  0.96235  0.36258  1.0000
  H   H1003     1.0  0.31310  0.91041  0.26531  1.0000
  C   C577      1.0  0.05047  0.51435  0.31813  1.0000
  C   C578      1.0  0.03708  0.52575  0.33362  1.0000
  H   H1004     1.0  0.30872  0.76876  0.46921  1.0000
  H   H1005     1.0  0.49424  0.87136  0.26490  1.0000
  H   H1006     1.0  0.07432  0.54553  0.28494  1.0000
  H   H1007     1.0  0.06132  0.52060  0.28118  1.0000
  H   H1008     1.0  0.35319  0.84253  0.25851  1.0000
  H   H1009     1.0  0.07371  0.54126  0.31631  1.0000
  H   H1010     1.0  0.11015  0.54362  0.29950  1.0000
  H   H1011     1.0  0.30881  0.99327  0.40190  1.0000
  H   H1012     1.0  0.06478  0.68991  0.47765  1.0000
  C   C579      1.0  0.46644  0.88983  0.25062  1.0000
  H   H1013     1.0  0.33538  0.95213  0.42831  1.0000
  Fe  Fe72      1.0  0.31395  0.84991  0.48984  1.0000
  H   H1014     1.0  0.08412  0.72355  0.46673  1.0000
  H   H1015     1.0  0.32639  0.78206  0.44434  1.0000
  C   C580      1.0  0.29959  0.93093  0.44613  1.0000
  H   H1016     1.0  0.03675  0.63300  0.37433  1.0000
  H   H1017     1.0  0.04076  0.51833  0.30608  1.0000
  H   H1018     1.0  0.03627  0.65919  0.36080  1.0000
  C   C581      1.0  0.36941  0.97335  0.35276  1.0000
  C   C582      1.0  0.36448  0.85609  0.25832  1.0000
  C   C583      1.0  0.47997  0.92730  0.32289  1.0000
  C   C584      1.0  0.37663  0.99440  0.34630  1.0000
  H   H1019     1.0  0.03457  0.54430  0.33058  1.0000
  C   C585      1.0  0.48589  0.87184  0.36009  1.0000
  H   H1020     1.0  0.33138  0.95737  0.45872  1.0000
  C   C586      1.0  0.06277  0.61644  0.41596  1.0000
  C   C587      1.0  0.36186  0.90654  0.45076  1.0000
  C   C588      1.0  0.47955  0.81470  0.30578  1.0000
  C   C589      1.0  0.33026  0.91104  0.27040  1.0000
  C   C590      1.0  0.41581  0.98002  0.34870  1.0000
  C   C591      1.0  0.05892  0.63885  0.42510  1.0000
  C   C592      1.0  0.29789  0.78322  0.47458  1.0000
  C   C593      1.0  0.09254  0.52540  0.26505  1.0000
  H   H1021     1.0  0.35888  0.96184  0.49142  1.0000
  H   H1022     1.0  0.16639  0.61547  0.28084  1.0000
  H   H1023     1.0  0.07467  0.65227  0.33719  1.0000
  H   H1024     1.0  0.43372  0.98264  0.34691  1.0000
  H   H1025     1.0  0.00100  0.62076  0.38968  1.0000
  H   H1026     1.0  0.11764  0.52564  0.32859  1.0000
  N   N33       1.0  0.35816  0.95384  0.29860  1.0000
  C   C594      1.0  0.35813  0.97442  0.28577  1.0000
  C   C595      1.0  0.35484  0.93332  0.28835  1.0000
  C   C596      1.0  0.33936  0.95766  0.31282  1.0000
  C   C597      1.0  0.38046  0.94988  0.30740  1.0000
  C   C598      1.0  0.40212  0.94985  0.29464  1.0000
  H   H1027     1.0  0.39876  0.88708  0.46997  1.0000
  C   C599      1.0  0.33582  0.93750  0.32661  1.0000
  C   C600      1.0  0.33113  0.93225  0.28085  1.0000
  H   H1028     1.0  0.44878  0.89617  0.25470  1.0000
  C   C601      1.0  0.42342  0.94465  0.30501  1.0000
  H   H1029     1.0  0.48405  0.93396  0.35003  1.0000
  C   C602      1.0  0.31472  0.94218  0.33899  1.0000
  H   H1030     1.0  0.31138  0.97322  0.48618  1.0000
  H   H1031     1.0  0.37012  0.97127  0.27403  1.0000
  H   H1032     1.0  0.36746  0.93212  0.27678  1.0000
  H   H1033     1.0  0.35839  0.91741  0.29668  1.0000
  H   H1034     1.0  0.32297  0.96277  0.30669  1.0000
  H   H1035     1.0  0.34270  0.97216  0.32076  1.0000
  H   H1036     1.0  0.38196  0.96256  0.31747  1.0000
  H   H1037     1.0  0.38122  0.93325  0.31514  1.0000
  H   H1038     1.0  0.40371  0.96658  0.28742  1.0000
  H   H1039     1.0  0.40198  0.93685  0.28468  1.0000
  C   C603      1.0  0.07148  0.63720  0.48410  1.0000
  C   C604      1.0  0.34358  0.94270  0.46192  1.0000
  H   H1040     1.0  0.35058  0.93483  0.33505  1.0000
  H   H1041     1.0  0.33378  0.92154  0.32013  1.0000
  H   H1042     1.0  0.31764  0.93157  0.29176  1.0000
  H   H1043     1.0  0.32706  0.94714  0.27167  1.0000
  H   H1044     1.0  0.03635  0.63450  0.47801  1.0000
  H   H1045     1.0  0.04612  0.52269  0.34615  1.0000
  N   N34       1.0  0.34330  0.92516  0.44823  1.0000
  H   H1046     1.0  0.43867  0.94413  0.29561  1.0000
  H   H1047     1.0  0.42497  0.95789  0.31460  1.0000
  H   H1048     1.0  0.42283  0.92793  0.31246  1.0000
  H   H1049     1.0  0.38164  0.97640  0.47984  1.0000
  H   H1050     1.0  0.08307  0.51560  0.32793  1.0000
  C   C605      1.0  0.00322  0.65065  0.37228  1.0000
  H   H1051     1.0  0.29920  0.94378  0.33130  1.0000
  H   H1052     1.0  0.31323  0.92790  0.34918  1.0000
  H   H1053     1.0  0.31592  0.95797  0.34598  1.0000
  H   H1054     1.0  0.34720  0.98979  0.40200  1.0000
  H   H1055     1.0  0.35269  0.98437  0.47473  1.0000
  C   C606      1.0  0.01224  0.67785  0.46442  1.0000
  H   H1056     1.0  0.46278  0.93615  0.32319  1.0000
  S   S143      1.0  0.12724  0.71288  0.49116  1.0000
  H   H1057     1.0  0.47857  0.87869  0.29550  1.0000
  H   H1058     1.0  0.00517  0.66166  0.38341  1.0000
  H   H1059     1.0  0.27885  0.75976  0.49241  1.0000
  H   H1060     1.0  0.37288  0.96130  0.45127  1.0000
  C   C607      1.0  0.36206  0.89427  0.46956  1.0000
  H   H1061     1.0  0.04634  0.62115  0.44953  1.0000
  H   H1062     1.0  0.27531  0.91177  0.46270  1.0000
  H   H1063     1.0  0.21944  0.82648  0.47388  1.0000
  H   H1064     1.0  0.04298  0.64752  0.42033  1.0000
  H   H1065     1.0  0.32079  0.89999  0.44213  1.0000
  H   H1066     1.0  0.15072  0.54174  0.31196  1.0000
  C   C608      1.0  0.27790  0.91832  0.44861  1.0000
  H   H1067     1.0  0.08612  0.66362  0.45509  1.0000
  C   C609      1.0  0.05801  0.63482  0.44576  1.0000
  H   H1068     1.0  0.29762  0.94511  0.45520  1.0000
  H   H1069     1.0  0.28534  0.98841  0.35778  1.0000
  H   H1070     1.0  0.07002  0.67774  0.43827  1.0000
  H   H1071     1.0  0.01814  0.65187  0.44603  1.0000
  C   C610      1.0  0.34782  0.93530  0.39611  1.0000
  H   H1072     1.0  0.08791  0.71347  0.44450  1.0000
  H   H1073     1.0  0.12319  0.51999  0.28830  1.0000
  H   H1074     1.0  0.37984  0.93912  0.46791  1.0000
  H   H1075     1.0  0.36442  0.94257  0.42815  1.0000
  C   C611      1.0  0.48928  0.84880  0.35694  1.0000
  C   C612      1.0  0.02831  0.66538  0.45044  1.0000
  H   H1076     1.0  0.36198  0.90622  0.48033  1.0000
  H   H1077     1.0  0.07891  0.60722  0.41988  1.0000
  H   H1078     1.0  0.10224  0.69834  0.46267  1.0000
  H   H1079     1.0  0.07531  0.62761  0.44887  1.0000
  C   C613      1.0  0.32069  0.91483  0.45040  1.0000
  H   H1080     1.0  0.08044  0.67815  0.32430  1.0000
  H   H1081     1.0  0.30463  0.76783  0.43455  1.0000
  H   H1082     1.0  0.11069  0.68505  0.34456  1.0000
  H   H1083     1.0  0.10055  0.50806  0.26347  1.0000
  H   H1084     1.0  0.33450  0.94944  0.39488  1.0000
  C   C614      1.0  0.34449  0.92170  0.41391  1.0000
  H   H1085     1.0  0.34696  0.88428  0.47190  1.0000
  H   H1086     1.0  0.48043  0.79981  0.29744  1.0000
  H   H1087     1.0  0.14553  0.56781  0.26925  1.0000
  H   H1088     1.0  0.30078  0.93805  0.43216  1.0000
  N   N35       1.0  0.14642  0.65651  0.33274  1.0000
  C   C615      1.0  0.12155  0.65278  0.33202  1.0000
  C   C616      1.0  0.16031  0.63831  0.32282  1.0000
  C   C617      1.0  0.15216  0.65345  0.35211  1.0000
  C   C618      1.0  0.15224  0.67987  0.32551  1.0000
  C   C619      1.0  0.13791  0.69116  0.31028  1.0000
  C   C620      1.0  0.17757  0.65443  0.35589  1.0000
  C   C621      1.0  0.15621  0.63688  0.30280  1.0000
  C   C622      1.0  0.17036  0.61679  0.29498  1.0000
  C   C623      1.0  0.18064  0.65473  0.37591  1.0000
  H   H1089     1.0  0.11855  0.63484  0.33609  1.0000
  H   H1090     1.0  0.11597  0.65510  0.31819  1.0000
  H   H1091     1.0  0.17875  0.64056  0.32323  1.0000
  H   H1092     1.0  0.15752  0.62138  0.32953  1.0000
  H   H1093     1.0  0.14664  0.63694  0.35806  1.0000
  H   H1094     1.0  0.14260  0.66661  0.36011  1.0000
  H   H1095     1.0  0.15046  0.69204  0.33633  1.0000
  H   H1096     1.0  0.17050  0.67955  0.32080  1.0000
  H   H1097     1.0  0.13594  0.67962  0.29958  1.0000
  H   H1098     1.0  0.18467  0.66980  0.34925  1.0000
  H   H1099     1.0  0.18769  0.63921  0.35113  1.0000
  H   H1100     1.0  0.13819  0.63457  0.30063  1.0000
  H   H1101     1.0  0.16163  0.65228  0.29510  1.0000
  H   H1102     1.0  0.46412  0.82576  0.30270  1.0000
  H   H1103     1.0  0.38888  0.98075  0.40365  1.0000
  H   H1104     1.0  0.37887  0.91297  0.44726  1.0000
  H   H1105     1.0  0.13767  0.72029  0.29133  1.0000
  H   H1106     1.0  0.17092  0.66961  0.38166  1.0000
  H   H1107     1.0  0.17474  0.63902  0.38297  1.0000
  H   H1108     1.0  0.19888  0.65567  0.37827  1.0000
  C   C624      1.0  0.09613  0.59774  0.25975  1.0000
  H   H1109     1.0  0.15026  0.72471  0.31195  1.0000
  H   H1110     1.0  0.24283  0.81368  0.44709  1.0000
  C   C625      1.0  0.34700  0.93657  0.42988  1.0000
  H   H1111     1.0  0.99827  0.70458  0.44616  1.0000
  H   H1112     1.0  0.21775  0.74558  0.47266  1.0000
  C   C626      1.0  0.28676  0.99084  0.37218  1.0000
  H   H1113     1.0  0.44804  0.97618  0.39035  1.0000
  Fe  Fe73      1.0  0.13034  0.67508  0.49714  1.0000
  H   H1114     1.0  0.12059  0.69663  0.31561  1.0000
  H   H1115     1.0  0.28973  0.97393  0.37920  1.0000
  H   H1116     1.0  0.48593  0.95995  0.37980  1.0000
  H   H1117     1.0  0.47789  0.80880  0.32009  1.0000
  C   C627      1.0  0.08637  0.70814  0.45892  1.0000
  C   C628      1.0  0.11648  0.58452  0.25676  1.0000
  C   C629      1.0  0.12975  0.57800  0.27138  1.0000
  H   H1118     1.0  0.00519  0.66531  0.47449  1.0000
  H   H1119     1.0  0.48851  0.92969  0.30941  1.0000
  C   C630      1.0  0.12446  0.50033  0.36203  1.0000
  H   H1120     1.0  0.38215  0.86857  0.48460  1.0000
  C   C631      1.0  0.06908  0.67200  0.45263  1.0000
  H   H1121     1.0  0.06390  0.61980  0.40126  1.0000
  H   H1122     1.0  0.18879  0.61903  0.29544  1.0000
  C   C632      1.0  0.02702  0.64382  0.36445  1.0000
  H   H1123     1.0  0.16641  0.60071  0.30250  1.0000
  H   H1124     1.0  0.40370  0.90542  0.25804  1.0000
  H   H1125     1.0  0.23057  0.74675  0.45024  1.0000
  C   C633      1.0  0.10510  0.66766  0.34413  1.0000
  N   N36       1.0  0.05113  0.65533  0.45641  1.0000
  C   C634      1.0  0.99982  0.56655  0.37098  1.0000
  H   H1126     1.0  0.33385  0.89550  0.27909  1.0000
  H   H1127     1.0  0.25997  0.83731  0.44775  1.0000
  H   H1128     1.0  0.31759  0.90789  0.46437  1.0000
  H   H1129     1.0  0.03074  0.67727  0.43852  1.0000
  C   C635      1.0  0.36678  0.95258  0.46394  1.0000
  C   C636      1.0  0.31973  0.79400  0.41768  1.0000
  H   H1130     1.0  0.33317  0.78208  0.41186  1.0000
  C   C637      1.0  0.38306  0.87782  0.47129  1.0000
  H   H1131     1.0  0.33735  0.93584  0.47531  1.0000
  H   H1132     1.0  0.16563  0.70754  0.29539  1.0000
  H   H1133     1.0  0.02013  0.51885  0.33579  1.0000
  H   H1134     1.0  0.08396  0.65027  0.48385  1.0000
  H   H1135     1.0  0.46706  0.85983  0.26969  1.0000
  H   H1136     1.0  0.06947  0.67924  0.34717  1.0000
  H   H1137     1.0  0.05088  0.70441  0.45891  1.0000
  S   S144      1.0  0.27929  0.86744  0.48751  1.0000
  H   H1138     1.0  0.23685  0.85013  0.47484  1.0000
  H   H1139     1.0  0.34286  0.91117  0.25880  1.0000
  C   C638      1.0  0.14860  0.71221  0.30177  1.0000
  C   C639      1.0  0.04926  0.64731  0.47588  1.0000
  H   H1140     1.0  0.26303  0.93007  0.44535  1.0000
  C   C640      1.0  0.39301  0.89141  0.25815  1.0000
  H   H1141     1.0  0.36038  0.89301  0.44136  1.0000
  H   H1142     1.0  0.23083  0.78334  0.46496  1.0000
  H   H1143     1.0  0.15877  0.51778  0.32669  1.0000
  N   N37       1.0  0.28032  0.79184  0.46158  1.0000
  C   C641      1.0  0.26593  0.81137  0.46932  1.0000
  C   C642      1.0  0.47201  0.88908  0.28388  1.0000
  C   C643      1.0  0.29298  0.80104  0.44491  1.0000
  C   C644      1.0  0.26639  0.77289  0.45681  1.0000
  C   C645      1.0  0.24383  0.76947  0.46818  1.0000
  C   C646      1.0  0.25008  0.82496  0.45614  1.0000
  C   C647      1.0  0.31135  0.78453  0.43610  1.0000
  H   H1144     1.0  0.27878  0.90395  0.43972  1.0000
  H   H1145     1.0  0.45359  0.89339  0.28687  1.0000
  C   C648      1.0  0.23400  0.74720  0.46456  1.0000
  C   C649      1.0  0.23040  0.83822  0.46586  1.0000
  H   H1146     1.0  0.02603  0.63442  0.35222  1.0000
  H   H1147     1.0  0.27703  0.82359  0.47439  1.0000
  H   H1148     1.0  0.25548  0.80573  0.48128  1.0000
  H   H1149     1.0  0.30956  0.79675  0.47641  1.0000
  H   H1150     1.0  0.35743  0.90714  0.41387  1.0000
  H   H1151     1.0  0.30155  0.81641  0.44782  1.0000
  H   H1152     1.0  0.28094  0.80670  0.43446  1.0000
  H   H1153     1.0  0.26142  0.77543  0.44273  1.0000
  H   H1154     1.0  0.27689  0.75648  0.45725  1.0000
  H   H1155     1.0  0.32745  0.91500  0.41430  1.0000
  H   H1156     1.0  0.38386  0.86516  0.46095  1.0000
  C   C650      1.0  0.36479  0.96984  0.47836  1.0000
  H   H1157     1.0  0.48103  0.90490  0.28228  1.0000
  C   C651      1.0  0.12523  0.51699  0.31675  1.0000
  H   H1158     1.0  0.12523  0.49841  0.31955  1.0000
  H   H1159     1.0  0.10634  0.53717  0.26458  1.0000
  C   C652      1.0  0.49196  0.98631  0.35825  1.0000
  H   H1160     1.0  0.04299  0.66132  0.48438  1.0000
  C   C653      1.0  0.28894  0.77459  0.49334  1.0000
  C   C654      1.0  0.29593  0.97614  0.49437  1.0000
  C   C655      1.0  0.10078  0.50310  0.36383  1.0000
  S   S145      1.0  0.29516  0.92979  0.49623  1.0000
  H   H1161     1.0  0.08578  0.60298  0.24866  1.0000
  C   C656      1.0  0.07834  0.53215  0.24902  1.0000
  H   H1162     1.0  0.06479  0.52033  0.24817  1.0000
  H   H1163     1.0  0.07055  0.54972  0.24999  1.0000
  H   H1164     1.0  0.47611  0.90527  0.24858  1.0000
  H   H1165     1.0  0.01686  0.74905  0.49722  1.0000
  H   H1166     1.0  0.05131  0.49579  0.32144  1.0000
  H   H1167     1.0  0.37934  0.99507  0.30098  1.0000
  Fe  Fe74      1.0  0.37718  0.86406  0.65496  1.0000
  S   S146      1.0  0.41280  0.87164  0.64583  1.0000
  S   S147      1.0  0.34735  0.86421  0.63645  1.0000
  Fe  Fe75      1.0  0.38986  0.85743  0.69515  1.0000
  S   S148      1.0  0.42633  0.86415  0.68830  1.0000
  S   S149      1.0  0.37381  0.85212  0.72358  1.0000
  Fe  Fe76      1.0  0.41214  0.89220  0.66988  1.0000
  S   S150      1.0  0.42902  0.92503  0.66859  1.0000
  Fe  Fe77      1.0  0.42388  0.84296  0.66490  1.0000
  S   S151      1.0  0.45003  0.81614  0.65514  1.0000
  S   S152      1.0  0.37567  0.88702  0.67804  1.0000
  S   S153      1.0  0.38824  0.83372  0.67290  1.0000
  Fe  Fe78      1.0  0.31228  0.85517  0.53125  1.0000
  S   S154      1.0  0.27719  0.87321  0.53094  1.0000
  S   S155      1.0  0.33866  0.85058  0.55295  1.0000
  C   C657      1.0  0.34391  0.79153  0.58312  1.0000
  H   H1168     1.0  0.46728  0.91858  0.63807  1.0000
  H   H1169     1.0  0.02627  0.49977  0.70438  1.0000
  H   H1170     1.0  0.04835  0.56862  0.73836  1.0000
  H   H1171     1.0  0.41557  0.95208  0.70652  1.0000
  H   H1172     1.0  0.14964  0.51855  0.71543  1.0000
  H   H1173     1.0  0.46323  0.96829  0.69748  1.0000
  Fe  Fe79      1.0  0.12138  0.68009  0.53833  1.0000
  S   S156      1.0  0.11722  0.71828  0.53434  1.0000
  S   S157      1.0  0.11066  0.66088  0.56500  1.0000
  H   H1174     1.0  0.22020  0.69597  0.70672  1.0000
  H   H1175     1.0  0.02234  0.54256  0.66241  1.0000
  S   S158      1.0  0.23511  0.82776  0.51261  1.0000
  C   C658      1.0  0.48391  0.91487  0.64410  1.0000
  H   H1176     1.0  0.15764  0.66449  0.64373  1.0000
  C   C659      1.0  0.37978  0.98689  0.67555  1.0000
  Fe  Fe80      1.0  0.11989  0.59828  0.66322  1.0000
  S   S159      1.0  0.08766  0.58229  0.65872  1.0000
  S   S160      1.0  0.14148  0.61694  0.64117  1.0000
  Fe  Fe81      1.0  0.11696  0.58450  0.70401  1.0000
  S   S161      1.0  0.08430  0.56846  0.70207  1.0000
  S   S162      1.0  0.13509  0.57882  0.73017  1.0000
  Fe  Fe82      1.0  0.10014  0.55338  0.67724  1.0000
  S   S163      1.0  0.08859  0.51802  0.67623  1.0000
  Fe  Fe83      1.0  0.07452  0.59827  0.68390  1.0000
  S   S164      1.0  0.03907  0.61435  0.68533  1.0000
  S   S165      1.0  0.13379  0.56766  0.67990  1.0000
  S   S166      1.0  0.10580  0.61620  0.68771  1.0000
  C   C660      1.0  0.29609  0.98090  0.55475  1.0000
  C   C661      1.0  0.41758  0.99524  0.72084  1.0000
  S   S167      1.0  0.30364  0.82735  0.51390  1.0000
  C   C662      1.0  0.26432  0.96162  0.51229  1.0000
  H   H1177     1.0  0.00207  0.58598  0.73617  1.0000
  C   C663      1.0  0.02223  0.59672  0.67472  1.0000
  C   C664      1.0  0.02973  0.57408  0.67251  1.0000
  H   H1178     1.0  0.30897  0.85913  0.61564  1.0000
  H   H1179     1.0  0.47033  0.90892  0.71891  1.0000
  H   H1180     1.0  0.04564  0.56724  0.67762  1.0000
  H   H1181     1.0  0.17524  0.67727  0.66999  1.0000
  C   C665      1.0  0.11988  0.64898  0.58612  1.0000
  C   C666      1.0  0.14233  0.64903  0.59110  1.0000
  C   C667      1.0  0.14859  0.63930  0.60794  1.0000
  C   C668      1.0  0.13260  0.62921  0.62007  1.0000
  C   C669      1.0  0.11016  0.62929  0.61512  1.0000
  C   C670      1.0  0.10390  0.63909  0.59833  1.0000
  H   H1182     1.0  0.15493  0.65625  0.58187  1.0000
  H   H1183     1.0  0.16602  0.63928  0.61149  1.0000
  H   H1184     1.0  0.09758  0.62169  0.62419  1.0000
  H   H1185     1.0  0.08650  0.63887  0.59473  1.0000
  C   C671      1.0  0.99775  0.58689  0.72201  1.0000
  H   H1186     1.0  0.43712  0.73627  0.61261  1.0000
  H   H1187     1.0  0.31336  0.95524  0.57253  1.0000
  C   C672      1.0  0.19581  0.76156  0.51492  1.0000
  H   H1188     1.0  0.44532  0.85074  0.59491  1.0000
  H   H1189     1.0  0.30149  0.94086  0.53582  1.0000
  H   H1190     1.0  0.19062  0.67144  0.71851  1.0000
  H   H1191     1.0  0.28459  0.93626  0.55645  1.0000
  H   H1192     1.0  0.00070  0.67905  0.70563  1.0000
  S   S168      1.0  0.15313  0.67746  0.52003  1.0000
  H   H1193     1.0  0.32634  0.98560  0.52611  1.0000
  H   H1194     1.0  0.45144  0.92940  0.70753  1.0000
  H   H1195     1.0  0.42781  0.95224  0.72742  1.0000
  H   H1196     1.0  0.35196  0.91919  0.73821  1.0000
  H   H1197     1.0  0.33323  0.77773  0.58023  1.0000
  H   H1198     1.0  0.01365  0.63156  0.56692  1.0000
  C   C673      1.0  0.48761  0.95415  0.66614  1.0000
  H   H1199     1.0  0.41083  0.91159  0.70742  1.0000
  H   H1200     1.0  0.00922  0.51886  0.69027  1.0000
  C   C674      1.0  0.15849  0.63942  0.72979  1.0000
  H   H1201     1.0  0.45573  0.95478  0.64282  1.0000
  C   C675      1.0  0.46118  0.99017  0.63871  1.0000
  C   C676      1.0  0.40992  0.94899  0.66969  1.0000
  C   C677      1.0  0.38653  0.94728  0.66921  1.0000
  C   C678      1.0  0.37141  0.96611  0.67255  1.0000
  C   C679      1.0  0.33738  0.92236  0.71279  1.0000
  C   C680      1.0  0.41822  0.96993  0.67224  1.0000
  H   H1202     1.0  0.38000  0.93144  0.66657  1.0000
  H   H1203     1.0  0.35327  0.96459  0.67277  1.0000
  H   H1204     1.0  0.43620  0.97133  0.67283  1.0000
  H   H1205     1.0  0.15254  0.66619  0.70934  1.0000
  H   H1206     1.0  0.22760  0.74430  0.52214  1.0000
  H   H1207     1.0  0.47649  0.85159  0.66797  1.0000
  H   H1208     1.0  0.37856  0.93718  0.70433  1.0000
  C   C681      1.0  0.34512  0.86226  0.61292  1.0000
  C   C682      1.0  0.36391  0.86295  0.60065  1.0000
  C   C683      1.0  0.36150  0.85976  0.58238  1.0000
  C   C684      1.0  0.34015  0.85668  0.57589  1.0000
  C   C685      1.0  0.32119  0.85689  0.58803  1.0000
  C   C686      1.0  0.32372  0.85949  0.60639  1.0000
  H   H1209     1.0  0.38033  0.86577  0.60526  1.0000
  H   H1210     1.0  0.37631  0.85973  0.57318  1.0000
  H   H1211     1.0  0.30467  0.85442  0.58338  1.0000
  H   H1212     1.0  0.17845  0.56651  0.69626  1.0000
  C   C687      1.0  0.01650  0.56001  0.66386  1.0000
  N   N38       1.0  0.39345  0.79582  0.61466  1.0000
  C   C688      1.0  0.38156  0.78802  0.63207  1.0000
  C   C689      1.0  0.41009  0.77687  0.60867  1.0000
  C   C690      1.0  0.40537  0.81681  0.61758  1.0000
  C   C691      1.0  0.37682  0.80158  0.60037  1.0000
  C   C692      1.0  0.36123  0.78275  0.59664  1.0000
  C   C693      1.0  0.36111  0.80368  0.63890  1.0000
  C   C694      1.0  0.42093  0.82554  0.60157  1.0000
  C   C695      1.0  0.43049  0.77102  0.62060  1.0000
  C   C696      1.0  0.40010  0.97744  0.72380  1.0000
  H   H1213     1.0  0.20252  0.56556  0.68031  1.0000
  C   C697      1.0  0.35008  0.79375  0.65628  1.0000
  C   C698      1.0  0.43345  0.84578  0.60626  1.0000
  H   H1214     1.0  0.39367  0.78639  0.64291  1.0000
  H   H1215     1.0  0.37565  0.77074  0.63126  1.0000
  H   H1216     1.0  0.40131  0.76099  0.60817  1.0000
  H   H1217     1.0  0.41682  0.78053  0.59471  1.0000
  H   H1218     1.0  0.41557  0.81421  0.62957  1.0000
  H   H1219     1.0  0.39279  0.83105  0.62083  1.0000
  H   H1220     1.0  0.36586  0.81703  0.60351  1.0000
  H   H1221     1.0  0.38592  0.80607  0.58739  1.0000
  H   H1222     1.0  0.35161  0.77671  0.60891  1.0000
  H   H1223     1.0  0.37140  0.76810  0.59099  1.0000
  H   H1224     1.0  0.36692  0.82032  0.64162  1.0000
  H   H1225     1.0  0.34773  0.80636  0.62916  1.0000
  H   H1226     1.0  0.41080  0.83112  0.58996  1.0000
  H   H1227     1.0  0.43406  0.81231  0.59737  1.0000
  H   H1228     1.0  0.44079  0.78576  0.62147  1.0000
  H   H1229     1.0  0.42457  0.76544  0.63435  1.0000
  C   C699      1.0  0.22055  0.80181  0.51375  1.0000
  H   H1230     1.0  0.02904  0.66671  0.70900  1.0000
  H   H1231     1.0  0.10329  0.61471  0.74459  1.0000
  H   H1232     1.0  0.35258  0.79774  0.57040  1.0000
  H   H1233     1.0  0.33611  0.80582  0.66117  1.0000
  H   H1234     1.0  0.34287  0.77746  0.65407  1.0000
  H   H1235     1.0  0.36263  0.79096  0.66672  1.0000
  H   H1236     1.0  0.01491  0.63088  0.72046  1.0000
  H   H1237     1.0  0.42121  0.86049  0.60881  1.0000
  H   H1238     1.0  0.44344  0.84147  0.61819  1.0000
  C   C700      1.0  0.23119  0.78041  0.51820  1.0000
  H   H1239     1.0  0.47148  0.96175  0.62280  1.0000
  N   N39       1.0  0.49159  0.95722  0.64605  1.0000
  H   H1240     1.0  0.45336  0.75690  0.59957  1.0000
  C   C701      1.0  0.01257  0.68534  0.51023  1.0000
  H   H1241     1.0  0.40120  0.89714  0.72699  1.0000
  H   H1242     1.0  0.36572  0.90116  0.72160  1.0000
  N   N40       1.0  0.39749  0.93380  0.72803  1.0000
  H   H1243     1.0  0.31294  0.92299  0.55377  1.0000
  S   S169      1.0  0.06210  0.73055  0.50471  1.0000
  C   C702      1.0  0.45322  0.91189  0.71356  1.0000
  H   H1244     1.0  0.24031  0.98710  0.52336  1.0000
  H   H1245     1.0  0.38686  0.98175  0.71405  1.0000
  H   H1246     1.0  0.23184  0.66704  0.70897  1.0000
  H   H1247     1.0  0.30173  0.76159  0.51868  1.0000
  H   H1248     1.0  0.32549  0.90895  0.71643  1.0000
  C   C703      1.0  0.01171  0.66303  0.70568  1.0000
  C   C704      1.0  0.03178  0.50744  0.63230  1.0000
  H   H1249     1.0  0.45204  0.89997  0.70288  1.0000
  Fe  Fe84      1.0  0.09661  0.71229  0.51089  1.0000
  H   H1250     1.0  0.46068  0.74802  0.62196  1.0000
  C   C705      1.0  0.01194  0.64433  0.55564  1.0000
  H   H1251     1.0  0.13716  0.50775  0.66617  1.0000
  H   H1252     1.0  0.27991  0.97807  0.56264  1.0000
  H   H1253     1.0  0.43795  0.91796  0.74001  1.0000
  C   C706      1.0  0.37523  0.93660  0.71906  1.0000
  H   H1254     1.0  0.14778  0.67884  0.68218  1.0000
  H   H1255     1.0  0.07629  0.54342  0.62989  1.0000
  C   C707      1.0  0.03343  0.65732  0.55430  1.0000
  H   H1256     1.0  0.03586  0.66477  0.56719  1.0000
  H   H1257     1.0  0.04854  0.64568  0.55107  1.0000
  H   H1258     1.0  0.03242  0.67115  0.54372  1.0000
  H   H1259     1.0  0.14872  0.67154  0.74184  1.0000
  Fe  Fe85      1.0  0.26901  0.84592  0.51245  1.0000
  H   H1260     1.0  0.49080  0.95503  0.70281  1.0000
  H   H1261     1.0  0.05536  0.61496  0.50455  1.0000
  C   C708      1.0  0.41128  0.95325  0.72106  1.0000
  H   H1262     1.0  0.47053  0.94796  0.66967  1.0000
  H   H1263     1.0  0.13691  0.64240  0.70757  1.0000
  C   C709      1.0  0.40941  0.85318  0.74617  1.0000
  C   C710      1.0  0.13104  0.51695  0.71544  1.0000
  H   H1264     1.0  0.05356  0.52072  0.65121  1.0000
  H   H1265     1.0  0.17659  0.63998  0.73267  1.0000
  H   H1266     1.0  0.08325  0.62253  0.50930  1.0000
  C   C711      1.0  0.35814  0.91840  0.72401  1.0000
  H   H1267     1.0  0.18871  0.81906  0.50667  1.0000
  C   C712      1.0  0.03555  0.71789  0.50533  1.0000
  H   H1268     1.0  0.18435  0.68366  0.69697  1.0000
  C   C713      1.0  0.05451  0.51610  0.63724  1.0000
  C   C714      1.0  0.21983  0.67886  0.70154  1.0000
  C   C715      1.0  0.28427  0.95752  0.50160  1.0000
  H   H1269     1.0  0.31849  0.75176  0.49943  1.0000
  H   H1270     1.0  0.42599  0.98468  0.63396  1.0000
  C   C716      1.0  0.47929  0.81829  0.65766  1.0000
  H   H1271     1.0  0.06188  0.53407  0.61153  1.0000
  H   H1272     1.0  0.01864  0.55614  0.71632  1.0000
  H   H1273     1.0  0.34249  0.92161  0.69835  1.0000
  H   H1274     1.0  0.22550  0.67983  0.68716  1.0000
  H   H1275     1.0  0.04662  0.59913  0.73652  1.0000
  C   C717      1.0  0.31175  0.95901  0.55800  1.0000
  S   S170      1.0  0.09916  0.67477  0.51585  1.0000
  N   N41       1.0  0.17470  0.72383  0.57408  1.0000
  C   C718      1.0  0.14945  0.73006  0.57559  1.0000
  C   C719      1.0  0.18734  0.74406  0.56676  1.0000
  C   C720      1.0  0.17887  0.70547  0.56091  1.0000
  C   C721      1.0  0.18363  0.71448  0.59161  1.0000
  C   C722      1.0  0.17814  0.72913  0.60786  1.0000
  C   C723      1.0  0.13428  0.71063  0.58212  1.0000
  C   C724      1.0  0.20418  0.69824  0.55593  1.0000
  C   C725      1.0  0.17716  0.76801  0.57149  1.0000
  C   C726      1.0  0.19343  0.78616  0.56530  1.0000
  C   C727      1.0  0.18628  0.71660  0.62493  1.0000
  C   C728      1.0  0.10952  0.71941  0.58546  1.0000
  C   C729      1.0  0.20630  0.68081  0.54167  1.0000
  H   H1276     1.0  0.14366  0.73685  0.56234  1.0000
  H   H1277     1.0  0.14520  0.74401  0.58464  1.0000
  H   H1278     1.0  0.20531  0.74220  0.57057  1.0000
  H   H1279     1.0  0.18837  0.74485  0.55191  1.0000
  H   H1280     1.0  0.17042  0.71076  0.54834  1.0000
  H   H1281     1.0  0.17103  0.68971  0.56609  1.0000
  H   H1282     1.0  0.17756  0.69733  0.59514  1.0000
  H   H1283     1.0  0.20246  0.71172  0.59037  1.0000
  H   H1284     1.0  0.15963  0.73330  0.61007  1.0000
  H   H1285     1.0  0.18708  0.74494  0.60598  1.0000
  H   H1286     1.0  0.13468  0.69808  0.57180  1.0000
  H   H1287     1.0  0.13992  0.70192  0.59471  1.0000
  H   H1288     1.0  0.21265  0.69034  0.56775  1.0000
  H   H1289     1.0  0.21368  0.71286  0.55057  1.0000
  H   H1290     1.0  0.16118  0.77223  0.56456  1.0000
  H   H1291     1.0  0.17322  0.76924  0.58597  1.0000
  H   H1292     1.0  0.20963  0.78320  0.57209  1.0000
  H   H1293     1.0  0.19711  0.78616  0.55063  1.0000
  H   H1294     1.0  0.18558  0.80314  0.56851  1.0000
  H   H1295     1.0  0.18211  0.72738  0.63643  1.0000
  H   H1296     1.0  0.17776  0.70056  0.62759  1.0000
  H   H1297     1.0  0.20497  0.71270  0.62380  1.0000
  H   H1298     1.0  0.10286  0.72819  0.57319  1.0000
  H   H1299     1.0  0.09904  0.70489  0.58933  1.0000
  H   H1300     1.0  0.10781  0.73124  0.59643  1.0000
  H   H1301     1.0  0.19670  0.66584  0.54608  1.0000
  H   H1302     1.0  0.19978  0.68849  0.52898  1.0000
  H   H1303     1.0  0.22443  0.67502  0.53907  1.0000
  H   H1304     1.0  0.01157  0.66747  0.51372  1.0000
  H   H1305     1.0  0.06893  0.50330  0.63509  1.0000
  C   C730      1.0  0.03376  0.69487  0.51000  1.0000
  H   H1306     1.0  0.04650  0.55128  0.62808  1.0000
  H   H1307     1.0  0.14422  0.69107  0.65073  1.0000
  H   H1308     1.0  0.32836  0.93911  0.71518  1.0000
  H   H1309     1.0  0.01282  0.65655  0.69208  1.0000
  H   H1310     1.0  0.24876  0.77911  0.52152  1.0000
  C   C731      1.0  0.40321  0.98895  0.67484  1.0000
  H   H1311     1.0  0.03351  0.50486  0.61772  1.0000
  Fe  Fe86      1.0  0.14833  0.71583  0.51502  1.0000
  H   H1312     1.0  0.20554  0.57482  0.70239  1.0000
  H   H1313     1.0  0.42066  0.85301  0.73426  1.0000
  C   C732      1.0  0.06003  0.53751  0.62592  1.0000
  H   H1314     1.0  0.39209  0.97884  0.73745  1.0000
  S   S171      1.0  0.32530  0.87574  0.50720  1.0000
  Fe  Fe87      1.0  0.29020  0.89280  0.50595  1.0000
  H   H1315     1.0  0.25510  0.94752  0.51790  1.0000
  C   C733      1.0  0.06695  0.62894  0.50358  1.0000
  C   C734      1.0  0.30201  0.93860  0.55055  1.0000
  H   H1316     1.0  0.15395  0.62168  0.73240  1.0000
  H   H1317     1.0  0.32899  0.96054  0.55160  1.0000
  C   C735      1.0  0.18513  0.78297  0.51065  1.0000
  C   C736      1.0  0.21900  0.76057  0.51868  1.0000
  H   H1318     1.0  0.43035  0.99283  0.73112  1.0000
  N   N42       1.0  0.17141  0.63829  0.69625  1.0000
  C   C737      1.0  0.15414  0.64743  0.71016  1.0000
  C   C738      1.0  0.16278  0.64407  0.67791  1.0000
  C   C739      1.0  0.17311  0.61274  0.69905  1.0000
  C   C740      1.0  0.19471  0.64675  0.69759  1.0000
  C   C741      1.0  0.19574  0.67103  0.70408  1.0000
  C   C742      1.0  0.19737  0.80278  0.51005  1.0000
  C   C743      1.0  0.18760  0.59953  0.68463  1.0000
  C   C744      1.0  0.15873  0.66951  0.67219  1.0000
  C   C745      1.0  0.14702  0.67273  0.65455  1.0000
  H   H1319     1.0  0.32377  0.98843  0.58214  1.0000
  H   H1320     1.0  0.04877  0.68441  0.51343  1.0000
  C   C746      1.0  0.19388  0.57513  0.69135  1.0000
  H   H1321     1.0  0.01872  0.52183  0.63366  1.0000
  H   H1322     1.0  0.05933  0.64298  0.51162  1.0000
  H   H1323     1.0  0.17480  0.63692  0.66737  1.0000
  H   H1324     1.0  0.14666  0.63593  0.67666  1.0000
  H   H1325     1.0  0.15587  0.60619  0.69984  1.0000
  H   H1326     1.0  0.18037  0.60745  0.71210  1.0000
  H   H1327     1.0  0.20487  0.63538  0.70694  1.0000
  H   H1328     1.0  0.20447  0.64590  0.68446  1.0000
  H   H1329     1.0  0.48772  0.78521  0.64784  1.0000
  S   S172      1.0  0.18112  0.73571  0.51619  1.0000
  C   C747      1.0  0.44632  0.75185  0.61315  1.0000
  H   H1330     1.0  0.16737  0.78432  0.50778  1.0000
  H   H1331     1.0  0.20359  0.60763  0.68066  1.0000
  H   H1332     1.0  0.17776  0.59885  0.67256  1.0000
  C   C748      1.0  0.43498  0.90785  0.72856  1.0000
  C   C749      1.0  0.49437  0.89248  0.63717  1.0000
  C   C750      1.0  0.46984  0.96501  0.63727  1.0000
  C   C751      1.0  0.41034  0.91222  0.72226  1.0000
  H   H1333     1.0  0.13024  0.66530  0.65584  1.0000
  H   H1334     1.0  0.33261  0.80565  0.58851  1.0000
  H   H1335     1.0  0.36583  0.95298  0.72211  1.0000
  H   H1336     1.0  0.44305  0.99324  0.61416  1.0000
  C   C752      1.0  0.25596  0.98409  0.51534  1.0000
  H   H1337     1.0  0.07322  0.58376  0.74111  1.0000
  H   H1338     1.0  0.12607  0.51688  0.70146  1.0000
  C   C753      1.0  0.05451  0.58392  0.74375  1.0000
  C   C754      1.0  0.30858  0.76661  0.50503  1.0000
  C   C755      1.0  0.00229  0.64554  0.71945  1.0000
  H   H1339     1.0  0.42638  0.99423  0.70739  1.0000
  H   H1340     1.0  0.00323  0.50895  0.65976  1.0000
  H   H1341     1.0  0.29140  0.98220  0.54059  1.0000
  H   H1342     1.0  0.04301  0.50084  0.67381  1.0000
  H   H1343     1.0  0.01160  0.63509  0.54327  1.0000
  C   C756      1.0  0.01494  0.50077  0.69308  1.0000
  C   C757      1.0  0.49426  0.80000  0.65283  1.0000
  H   H1344     1.0  0.43760  0.88983  0.73346  1.0000
  H   H1345     1.0  0.01005  0.59686  0.71390  1.0000
  C   C758      1.0  0.48176  0.97045  0.69675  1.0000
  H   H1346     1.0  0.12218  0.53203  0.72152  1.0000
  C   C759      1.0  0.00141  0.60523  0.66828  1.0000
  H   H1347     1.0  0.29450  0.99418  0.58718  1.0000
  C   C760      1.0  0.00063  0.56277  0.71565  1.0000
  C   C761      1.0  0.49046  0.97480  0.67736  1.0000
  H   H1348     1.0  0.27860  0.78816  0.50021  1.0000
  H   H1349     1.0  0.48139  0.99051  0.67211  1.0000
  H   H1350     1.0  0.32013  0.78035  0.50605  1.0000
  C   C762      1.0  0.38603  0.85240  0.74466  1.0000
  H   H1351     1.0  0.48078  0.91220  0.65876  1.0000
  C   C763      1.0  0.01574  0.73121  0.50088  1.0000
  C   C764      1.0  0.48797  0.83740  0.66417  1.0000
  H   H1352     1.0  0.12564  0.65332  0.74059  1.0000
  C   C765      1.0  0.14395  0.65373  0.74301  1.0000
  H   H1353     1.0  0.00069  0.65359  0.73247  1.0000
  H   H1354     1.0  0.48475  0.98515  0.70455  1.0000
  H   H1355     1.0  0.48235  0.87907  0.64029  1.0000
  H   H1356     1.0  0.12975  0.49679  0.73986  1.0000
  H   H1357     1.0  0.45673  0.99392  0.65272  1.0000
  C   C766      1.0  0.12434  0.49545  0.72614  1.0000
  H   H1358     1.0  0.10559  0.49545  0.72630  1.0000
  H   H1359     1.0  0.34182  0.99509  0.55494  1.0000
  Fe  Fe88      1.0  0.40657  0.85630  0.82986  1.0000
  S   S173      1.0  0.43476  0.87402  0.84056  1.0000
  S   S174      1.0  0.41621  0.85621  0.79967  1.0000
  Fe  Fe89      1.0  0.38799  0.84404  0.86881  1.0000
  S   S175      1.0  0.41507  0.86098  0.88099  1.0000
  S   S176      1.0  0.36479  0.82407  0.88843  1.0000
  Fe  Fe90      1.0  0.40890  0.88911  0.86008  1.0000
  S   S177      1.0  0.41431  0.92378  0.86940  1.0000
  Fe  Fe91      1.0  0.43822  0.84462  0.86036  1.0000
  S   S178      1.0  0.47172  0.82784  0.86779  1.0000
  S   S179      1.0  0.37981  0.87348  0.84866  1.0000
  S   S180      1.0  0.41186  0.82566  0.84903  1.0000
  H   H1360     1.0  0.34779  0.96839  0.79554  1.0000
  H   H1361     1.0  0.09916  0.55372  0.80270  1.0000
  S   S181      1.0  0.16496  0.58370  0.97950  1.0000
  H   H1362     1.0  0.41340  0.82368  0.98471  1.0000
  S   S182      1.0  0.36699  0.81107  0.97345  1.0000
  Fe  Fe92      1.0  0.13119  0.59212  0.87626  1.0000
  S   S183      1.0  0.11682  0.55865  0.88336  1.0000
  S   S184      1.0  0.14989  0.60984  0.89672  1.0000
  Fe  Fe93      1.0  0.11749  0.59227  0.83666  1.0000
  S   S185      1.0  0.10259  0.55871  0.84159  1.0000
  S   S186      1.0  0.11221  0.61115  0.80948  1.0000
  Fe  Fe94      1.0  0.08744  0.57190  0.86718  1.0000
  S   S187      1.0  0.05231  0.56222  0.87665  1.0000
  Fe  Fe95      1.0  0.13319  0.54884  0.85711  1.0000
  S   S188      1.0  0.15140  0.51481  0.85421  1.0000
  S   S189      1.0  0.10027  0.60648  0.86182  1.0000
  S   S190      1.0  0.14965  0.58137  0.85052  1.0000
  C   C767      1.0  0.48087  0.87171  0.87201  1.0000
  C   C768      1.0  0.37173  0.85208  0.76037  1.0000
  C   C769      1.0  0.39289  0.73371  0.94354  1.0000
  C   C770      1.0  0.39364  0.93471  0.74807  1.0000
  H   H1363     1.0  0.02952  0.64798  0.86650  1.0000
  C   C771      1.0  0.02861  0.57534  0.86607  1.0000
  C   C772      1.0  0.02985  0.59594  0.85611  1.0000
  H   H1364     1.0  0.06005  0.52442  0.79506  1.0000
  H   H1365     1.0  0.04582  0.60376  0.85430  1.0000
  C   C773      1.0  0.13239  0.58185  0.78439  1.0000
  C   C774      1.0  0.11760  0.60087  0.78768  1.0000
  C   C775      1.0  0.10697  0.61246  0.77317  1.0000
  H   H1366     1.0  0.14076  0.57277  0.79535  1.0000
  H   H1367     1.0  0.09555  0.62724  0.77550  1.0000
  C   C776      1.0  0.16142  0.59137  0.95642  1.0000
  C   C777      1.0  0.14561  0.58028  0.94743  1.0000
  C   C778      1.0  0.14259  0.58507  0.92906  1.0000
  C   C779      1.0  0.15481  0.60157  0.91947  1.0000
  C   C780      1.0  0.17061  0.61269  0.92843  1.0000
  C   C781      1.0  0.17403  0.60754  0.94673  1.0000
  H   H1368     1.0  0.13577  0.56771  0.95472  1.0000
  H   H1369     1.0  0.13068  0.57618  0.92232  1.0000
  H   H1370     1.0  0.18012  0.62559  0.92119  1.0000
  H   H1371     1.0  0.18623  0.61627  0.95337  1.0000
  H   H1372     1.0  0.09747  0.53735  0.78348  1.0000
  H   H1373     1.0  0.43836  0.78968  0.88385  1.0000
  H   H1374     1.0  0.22420  0.50546  0.95110  1.0000
  C   C782      1.0  0.40165  0.94985  0.86104  1.0000
  C   C783      1.0  0.41008  0.96987  0.86604  1.0000
  H   H1375     1.0  0.43200  0.77827  0.97529  1.0000
  C   C784      1.0  0.38300  0.95116  0.85035  1.0000
  H   H1376     1.0  0.42452  0.96898  0.87426  1.0000
  H   H1377     1.0  0.37656  0.93580  0.84629  1.0000
  H   H1378     1.0  0.12215  0.51764  0.80580  1.0000
  H   H1379     1.0  0.46305  0.87623  0.87050  1.0000
  H   H1380     1.0  0.05423  0.60068  0.76806  1.0000
  C   C785      1.0  0.36827  0.81863  0.91178  1.0000
  C   C786      1.0  0.35667  0.80128  0.92115  1.0000
  C   C787      1.0  0.35720  0.79785  0.93990  1.0000
  C   C788      1.0  0.36892  0.81212  0.94963  1.0000
  C   C789      1.0  0.38078  0.82930  0.94024  1.0000
  C   C790      1.0  0.38088  0.83222  0.92144  1.0000
  H   H1381     1.0  0.34674  0.79072  0.91391  1.0000
  H   H1382     1.0  0.34766  0.78481  0.94690  1.0000
  H   H1383     1.0  0.38973  0.84060  0.94759  1.0000
  H   H1384     1.0  0.38994  0.84555  0.91448  1.0000
  C   C791      1.0  0.40394  0.85395  0.77882  1.0000
  C   C792      1.0  0.38058  0.85283  0.77734  1.0000
  C   C793      1.0  0.46487  0.77209  0.94887  1.0000
  H   H1385     1.0  0.23180  0.59095  0.95095  1.0000
  H   H1386     1.0  0.43443  0.82507  0.95488  1.0000
  C   C794      1.0  0.41827  0.85399  0.76312  1.0000
  H   H1387     1.0  0.36931  0.85273  0.78924  1.0000
  H   H1388     1.0  0.38324  0.89919  0.78622  1.0000
  H   H1389     1.0  0.43636  0.85472  0.76406  1.0000
  N   N43       1.0  0.35486  0.90890  0.91260  1.0000
  C   C795      1.0  0.34274  0.92004  0.89689  1.0000
  C   C796      1.0  0.34953  0.92247  0.92898  1.0000
  C   C797      1.0  0.38008  0.90901  0.90789  1.0000
  C   C798      1.0  0.34923  0.88459  0.91639  1.0000
  C   C799      1.0  0.32384  0.88052  0.92040  1.0000
  C   C800      1.0  0.34731  0.90858  0.87891  1.0000
  C   C801      1.0  0.39602  0.90059  0.92298  1.0000
  C   C802      1.0  0.32562  0.93513  0.93103  1.0000
  C   C803      1.0  0.17032  0.50984  0.95730  1.0000
  C   C804      1.0  0.32013  0.85523  0.92208  1.0000
  C   C805      1.0  0.33236  0.92010  0.86465  1.0000
  C   C806      1.0  0.42079  0.90446  0.91734  1.0000
  H   H1390     1.0  0.34747  0.93790  0.89456  1.0000
  H   H1391     1.0  0.32408  0.92120  0.89962  1.0000
  H   H1392     1.0  0.35222  0.91145  0.94134  1.0000
  H   H1393     1.0  0.36155  0.93607  0.92924  1.0000
  H   H1394     1.0  0.38449  0.92644  0.90313  1.0000
  H   H1395     1.0  0.38510  0.89807  0.89662  1.0000
  H   H1396     1.0  0.35595  0.87398  0.90525  1.0000
  H   H1397     1.0  0.35803  0.87705  0.92822  1.0000
  H   H1398     1.0  0.31320  0.88821  0.90970  1.0000
  H   H1399     1.0  0.31783  0.88748  0.93335  1.0000
  H   H1400     1.0  0.36520  0.90997  0.87388  1.0000
  H   H1401     1.0  0.34371  0.89045  0.88025  1.0000
  H   H1402     1.0  0.39494  0.88218  0.92615  1.0000
  H   H1403     1.0  0.39173  0.90953  0.93540  1.0000
  H   H1404     1.0  0.32435  0.94975  0.92105  1.0000
  H   H1405     1.0  0.31180  0.92416  0.92899  1.0000
  C   C807      1.0  0.10336  0.51746  0.80753  1.0000
  C   C808      1.0  0.02598  0.61165  0.93098  1.0000
  H   H1406     1.0  0.07893  0.65285  0.93951  1.0000
  H   H1407     1.0  0.33024  0.84652  0.93279  1.0000
  H   H1408     1.0  0.30191  0.85276  0.92549  1.0000
  H   H1409     1.0  0.32502  0.84732  0.90926  1.0000
  H   H1410     1.0  0.33661  0.91216  0.85174  1.0000
  H   H1411     1.0  0.31413  0.91814  0.86845  1.0000
  H   H1412     1.0  0.33526  0.93842  0.86276  1.0000
  H   H1413     1.0  0.42298  0.92281  0.91453  1.0000
  H   H1414     1.0  0.43188  0.89803  0.92819  1.0000
  H   H1415     1.0  0.42636  0.89539  0.90516  1.0000
  N   N44       1.0  0.06719  0.61846  0.91798  1.0000
  C   C809      1.0  0.06793  0.59433  0.91250  1.0000
  H   H1416     1.0  0.02859  0.64050  0.89891  1.0000
  C   C810      1.0  0.08974  0.62171  0.92559  1.0000
  C   C811      1.0  0.04824  0.62389  0.93185  1.0000
  C   C812      1.0  0.38076  0.99249  0.85046  1.0000
  C   C813      1.0  0.07371  0.57579  0.92736  1.0000
  C   C814      1.0  0.09342  0.64603  0.93086  1.0000
  C   C815      1.0  0.43224  0.79657  0.89683  1.0000
  H   H1417     1.0  0.21574  0.53126  0.90249  1.0000
  C   C816      1.0  0.06746  0.55246  0.92257  1.0000
  C   C817      1.0  0.11501  0.64643  0.94097  1.0000
  H   H1418     1.0  0.08074  0.59173  0.90116  1.0000
  H   H1419     1.0  0.05165  0.59059  0.90718  1.0000
  H   H1420     1.0  0.04104  0.61628  0.88734  1.0000
  C   C818      1.0  0.09225  0.53849  0.79785  1.0000
  H   H1421     1.0  0.10403  0.61657  0.91593  1.0000
  H   H1422     1.0  0.09209  0.61052  0.93786  1.0000
  H   H1423     1.0  0.05406  0.61973  0.94556  1.0000
  H   H1424     1.0  0.08041  0.63141  0.89223  1.0000
  H   H1425     1.0  0.02869  0.59354  0.93550  1.0000
  H   H1426     1.0  0.43853  0.80986  0.99440  1.0000
  H   H1427     1.0  0.09222  0.57454  0.92922  1.0000
  H   H1428     1.0  0.06488  0.57978  0.94035  1.0000
  H   H1429     1.0  0.48952  0.90636  0.81536  1.0000
  H   H1430     1.0  0.09854  0.51708  0.82204  1.0000
  H   H1431     1.0  0.01099  0.62307  0.84174  1.0000
  H   H1432     1.0  0.06309  0.57518  0.81797  1.0000
  H   H1433     1.0  0.05985  0.64216  0.86473  1.0000
  H   H1434     1.0  0.25266  0.57564  0.96442  1.0000
  H   H1435     1.0  0.01188  0.62141  0.95716  1.0000
  H   H1436     1.0  0.07693  0.54741  0.91005  1.0000
  H   H1437     1.0  0.07192  0.53967  0.93343  1.0000
  H   H1438     1.0  0.04894  0.55257  0.92077  1.0000
  H   H1439     1.0  0.13014  0.64157  0.93219  1.0000
  H   H1440     1.0  0.47254  0.74931  0.92661  1.0000
  H   H1441     1.0  0.11456  0.63469  0.95307  1.0000
  H   H1442     1.0  0.06002  0.61733  0.82463  1.0000
  H   H1443     1.0  0.29552  0.58018  0.97415  1.0000
  H   H1444     1.0  0.18255  0.51925  0.88757  1.0000
  H   H1445     1.0  0.39823  0.76669  0.93172  1.0000
  C   C819      1.0  0.32132  0.94447  0.94953  1.0000
  Fe  Fe96      1.0  0.36942  0.78113  0.99447  1.0000
  H   H1446     1.0  0.02639  0.55917  0.82553  1.0000
  H   H1447     1.0  0.43072  0.74484  0.95988  1.0000
  H   H1448     1.0  0.15918  0.51038  0.94595  1.0000
  H   H1449     1.0  0.33445  0.95618  0.95202  1.0000
  H   H1450     1.0  0.04367  0.64249  0.93134  1.0000
  H   H1451     1.0  0.30095  0.60932  0.96819  1.0000
  C   C820      1.0  0.44725  0.79996  0.81092  1.0000
  H   H1452     1.0  0.04751  0.66634  0.87644  1.0000
  H   H1453     1.0  0.47124  0.73523  0.94850  1.0000
  H   H1454     1.0  0.32204  0.97941  0.78521  1.0000
  H   H1455     1.0  0.40778  0.94271  0.75382  1.0000
  C   C821      1.0  0.04372  0.63364  0.89097  1.0000
  H   H1456     1.0  0.02949  0.58509  0.76551  1.0000
  H   H1457     1.0  0.45753  0.99320  0.85526  1.0000
  H   H1458     1.0  0.47718  0.86796  0.80942  1.0000
  C   C822      1.0  0.48923  0.73593  0.99513  1.0000
  C   C823      1.0  0.05998  0.56424  0.77424  1.0000
  H   H1459     1.0  0.16792  0.54698  0.89029  1.0000
  H   H1460     1.0  0.43563  0.74379  0.93656  1.0000
  S   S191      1.0  0.44251  0.73453  0.99608  1.0000
  H   H1461     1.0  0.45363  0.82939  0.82459  1.0000
  C   C824      1.0  0.49004  0.97345  0.85170  1.0000
  H   H1462     1.0  0.43906  0.83827  0.98450  1.0000
  H   H1463     1.0  0.39532  0.92620  0.78465  1.0000
  H   H1464     1.0  0.00582  0.51781  0.89715  1.0000
  C   C825      1.0  0.43224  0.82151  0.98336  1.0000
  C   C826      1.0  0.39143  0.91185  0.75902  1.0000
  C   C827      1.0  0.06523  0.63438  0.90158  1.0000
  C   C828      1.0  0.04536  0.64847  0.87363  1.0000
  H   H1465     1.0  0.46038  0.77966  0.90997  1.0000
  H   H1466     1.0  0.01990  0.61213  0.91736  1.0000
  H   H1467     1.0  0.43485  0.76446  0.91137  1.0000
  H   H1468     1.0  0.44432  0.80726  0.93011  1.0000
  C   C829      1.0  0.46377  0.81536  0.81809  1.0000
  H   H1469     1.0  0.37818  0.94594  0.75138  1.0000
  C   C830      1.0  0.00783  0.56533  0.86837  1.0000
  C   C831      1.0  0.40212  0.75700  0.94437  1.0000
  N   N45       1.0  0.43958  0.77672  0.94683  1.0000
  C   C832      1.0  0.04824  0.58468  0.76376  1.0000
  H   H1470     1.0  0.07523  0.58721  0.79797  1.0000
  C   C833      1.0  0.47670  0.75060  0.94064  1.0000
  H   H1471     1.0  0.02445  0.53121  0.81813  1.0000
  H   H1472     1.0  0.43690  0.80933  0.80066  1.0000
  H   H1473     1.0  0.41679  0.79789  0.93047  1.0000
  C   C834      1.0  0.43500  0.79167  0.93029  1.0000
  N   N46       1.0  0.05308  0.56094  0.79389  1.0000
  C   C835      1.0  0.34037  0.97427  0.78268  1.0000
  H   H1474     1.0  0.40814  0.90206  0.75916  1.0000
  H   H1475     1.0  0.06399  0.62837  0.80182  1.0000
  C   C836      1.0  0.42996  0.78927  0.96282  1.0000
  H   H1476     1.0  0.37417  0.73573  0.94253  1.0000
  H   H1477     1.0  0.10444  0.51391  0.86677  1.0000
  H   H1478     1.0  0.14660  0.64676  0.75685  1.0000
  H   H1479     1.0  0.48135  0.89531  0.83754  1.0000
  H   H1480     1.0  0.01749  0.57237  0.79181  1.0000
  H   H1481     1.0  0.03353  0.60629  0.79275  1.0000
  H   H1482     1.0  0.46814  0.84227  0.93317  1.0000
  H   H1483     1.0  0.14918  0.56081  0.76438  1.0000
  H   H1484     1.0  0.05741  0.54859  0.76734  1.0000
  C   C837      1.0  0.44013  0.81223  0.96534  1.0000
  H   H1485     1.0  0.47199  0.85847  0.91225  1.0000
  H   H1486     1.0  0.39661  0.72294  0.95577  1.0000
  H   H1487     1.0  0.07841  0.56697  0.77230  1.0000
  S   S192      1.0  0.37648  0.74393  0.99006  1.0000
  C   C838      1.0  0.13079  0.50335  0.90802  1.0000
  H   H1488     1.0  0.02400  0.54383  0.78712  1.0000
  C   C839      1.0  0.05142  0.62174  0.81204  1.0000
  C   C840      1.0  0.02809  0.55705  0.79610  1.0000
  C   C841      1.0  0.01014  0.60683  0.84904  1.0000
  C   C842      1.0  0.04118  0.60106  0.80550  1.0000
  C   C843      1.0  0.48931  0.84902  0.87198  1.0000
  C   C844      1.0  0.47884  0.84364  0.92054  1.0000
  C   C845      1.0  0.13710  0.57507  0.76678  1.0000
  N   N47       1.0  0.20155  0.53108  0.93839  1.0000
  C   C846      1.0  0.18681  0.53375  0.92259  1.0000
  C   C847      1.0  0.18664  0.52916  0.95540  1.0000
  C   C848      1.0  0.21371  0.55258  0.93879  1.0000
  C   C849      1.0  0.21907  0.51117  0.93743  1.0000
  H   H1489     1.0  0.00262  0.64013  0.93862  1.0000
  C   C850      1.0  0.19906  0.54093  0.90448  1.0000
  C   C851      1.0  0.22753  0.55479  0.95538  1.0000
  C   C852      1.0  0.49575  0.88881  0.87323  1.0000
  C   C853      1.0  0.37240  0.97247  0.84525  1.0000
  H   H1490     1.0  0.45872  0.97329  0.83804  1.0000
  C   C854      1.0  0.18480  0.53752  0.88874  1.0000
  C   C855      1.0  0.24249  0.57481  0.95261  1.0000
  H   H1491     1.0  0.17260  0.54681  0.92503  1.0000
  H   H1492     1.0  0.17837  0.51806  0.92079  1.0000
  H   H1493     1.0  0.19710  0.52676  0.96725  1.0000
  H   H1494     1.0  0.17620  0.54532  0.95715  1.0000
  H   H1495     1.0  0.20137  0.56772  0.93784  1.0000
  H   H1496     1.0  0.22586  0.55431  0.92696  1.0000
  H   H1497     1.0  0.23505  0.51630  0.93017  1.0000
  C   C856      1.0  0.15487  0.51171  0.97431  1.0000
  H   H1498     1.0  0.41336  0.79750  0.89765  1.0000
  H   H1499     1.0  0.25442  0.57287  0.94071  1.0000
  H   H1500     1.0  0.20201  0.55927  0.90411  1.0000
  H   H1501     1.0  0.12529  0.51236  0.92025  1.0000
  H   H1502     1.0  0.23866  0.53924  0.95822  1.0000
  H   H1503     1.0  0.21589  0.55790  0.96729  1.0000
  H   H1504     1.0  0.32342  0.59487  0.99337  1.0000
  H   H1505     1.0  0.27497  0.60294  0.98054  1.0000
  H   H1506     1.0  0.06519  0.65228  0.90515  1.0000
  H   H1507     1.0  0.43797  0.81395  0.89717  1.0000
  H   H1508     1.0  0.11675  0.66382  0.94518  1.0000
  H   H1509     1.0  0.36611  0.92406  0.77923  1.0000
  C   C857      1.0  0.47970  0.82511  0.80275  1.0000
  H   H1510     1.0  0.47782  0.82826  0.91297  1.0000
  H   H1511     1.0  0.48807  0.85162  0.77181  1.0000
  H   H1512     1.0  0.48939  0.90641  0.87226  1.0000
  H   H1513     1.0  0.19347  0.54402  0.87613  1.0000
  H   H1514     1.0  0.35768  0.97345  0.83733  1.0000
  H   H1515     1.0  0.37105  0.98794  0.77178  1.0000
  H   H1516     1.0  0.43557  0.79378  0.82199  1.0000
  H   H1517     1.0  0.41144  0.79329  0.96213  1.0000
  H   H1518     1.0  0.45662  0.78506  0.80496  1.0000
  H   H1519     1.0  0.48608  0.81092  0.79429  1.0000
  C   C858      1.0  0.42802  0.75481  0.94705  1.0000
  H   H1520     1.0  0.47413  0.78689  0.94339  1.0000
  H   H1521     1.0  0.14510  0.51194  0.90101  1.0000
  H   H1522     1.0  0.45895  0.81064  0.96468  1.0000
  C   C859      1.0  0.46855  0.98558  0.84434  1.0000
  H   H1523     1.0  0.06254  0.53708  0.81567  1.0000
  H   H1524     1.0  0.40052  0.72510  0.93166  1.0000
  H   H1525     1.0  0.09552  0.65763  0.91880  1.0000
  H   H1526     1.0  0.31764  0.69128  0.99132  1.0000
  C   C860      1.0  0.48992  0.85807  0.81764  1.0000
  H   H1527     1.0  0.39263  0.76547  0.95556  1.0000
  H   H1528     1.0  0.35363  0.85133  0.75940  1.0000
  C   C861      1.0  0.05921  0.58069  0.80398  1.0000
  C   C862      1.0  0.49586  0.89723  0.82761  1.0000
  H   H1529     1.0  0.46840  0.83660  0.79437  1.0000
  H   H1530     1.0  0.48011  0.85306  0.83019  1.0000
  H   H1531     1.0  0.02710  0.59651  0.81516  1.0000
  H   H1532     1.0  0.30442  0.95399  0.95043  1.0000
  C   C863      1.0  0.06599  0.53957  0.80096  1.0000
  H   H1533     1.0  0.03783  0.63532  0.81453  1.0000
  C   C864      1.0  0.44161  0.78126  0.91218  1.0000
  C   C865      1.0  0.38354  0.91570  0.77843  1.0000
  C   C866      1.0  0.01930  0.54943  0.81530  1.0000
  H   H1534     1.0  0.11637  0.50454  0.89913  1.0000
  C   C867      1.0  0.10884  0.49952  0.85875  1.0000
  H   H1535     1.0  0.32148  0.93042  0.96002  1.0000
  H   H1536     1.0  0.00686  0.54938  0.87595  1.0000
  H   H1537     1.0  0.46856  0.76999  0.96331  1.0000
  H   H1538     1.0  0.14455  0.52819  0.97406  1.0000
  H   H1539     1.0  0.47321  0.80523  0.82847  1.0000
  C   C868      1.0  0.12671  0.58681  0.75224  1.0000
  C   C869      1.0  0.30502  0.59932  0.99612  1.0000
  H   H1540     1.0  0.29004  0.66344  0.98514  1.0000
  C   C870      1.0  0.00688  0.62219  0.94312  1.0000
  H   H1541     1.0  0.16510  0.51032  0.98630  1.0000
  H   H1542     1.0  0.34185  0.95992  0.77377  1.0000
  C   C871      1.0  0.29337  0.59772  0.97870  1.0000
  H   H1543     1.0  0.48915  0.72753  0.98277  1.0000
  C   C872      1.0  0.39987  0.99110  0.86060  1.0000
  H   H1544     1.0  0.37933  0.90120  0.75348  1.0000
  H   H1545     1.0  0.09819  0.50177  0.80205  1.0000
  C   C873      1.0  0.11127  0.60535  0.75560  1.0000
  H   H1546     1.0  0.48463  0.95972  0.86136  1.0000
  H   H1547     1.0  0.14315  0.49786  0.97539  1.0000
  H   H1548     1.0  0.49565  0.87559  0.78327  1.0000
  C   C874      1.0  0.13076  0.49621  0.85075  1.0000
  C   C875      1.0  0.35295  0.99399  0.77383  1.0000
  Fe  Fe97      1.0  0.61065  0.09213  0.14156  1.0000
  S   S193      1.0  0.57544  0.08042  0.14596  1.0000
  S   S194      1.0  0.62115  0.09251  0.11148  1.0000
  Fe  Fe98      1.0  0.61469  0.09311  0.18260  1.0000
  S   S195      1.0  0.57971  0.08230  0.18914  1.0000
  S   S196      1.0  0.63794  0.09648  0.20524  1.0000
  Fe  Fe99      1.0  0.58825  0.05721  0.16824  1.0000
  S   S197      1.0  0.57341  0.02332  0.17362  1.0000
  Fe  Fe100     1.0  0.56994  0.10631  0.16637  1.0000
  S   S198      1.0  0.53617  0.12612  0.16655  1.0000
  S   S199      1.0  0.62416  0.06633  0.16267  1.0000
  S   S200      1.0  0.60436  0.11982  0.16102  1.0000
  Fe  Fe101     1.0  0.88218  0.35909  0.13218  1.0000
  S   S201      1.0  0.89767  0.39132  0.12285  1.0000
  S   S202      1.0  0.85732  0.34407  0.11447  1.0000
  Fe  Fe102     1.0  0.90064  0.36024  0.17024  1.0000
  S   S203      1.0  0.91681  0.39273  0.16267  1.0000
  S   S204      1.0  0.91004  0.34700  0.19837  1.0000
  Fe  Fe103     1.0  0.88469  0.40358  0.14935  1.0000
  S   S205      1.0  0.86589  0.43795  0.14945  1.0000
  Fe  Fe104     1.0  0.92845  0.37734  0.13707  1.0000
  S   S206      1.0  0.96334  0.38582  0.12570  1.0000
  S   S207      1.0  0.86739  0.37226  0.15845  1.0000
  S   S208      1.0  0.91422  0.34373  0.14484  1.0000
  H   H1549     1.0  0.61490  0.99947  0.13136  1.0000
  C   C876      1.0  0.88895  0.46590  0.22730  1.0000
  H   H1550     1.0  0.97480  0.35016  0.22898  1.0000
  H   H1551     1.0  0.69294  0.16890  0.01999  1.0000
  H   H1552     1.0  0.53133  0.14435  0.03420  1.0000
  H   H1553     1.0  0.70012  0.32098  0.00261  1.0000
  Fe  Fe105     1.0  0.62976  0.17987  0.02217  1.0000
  S   S209      1.0  0.64075  0.17068  0.05071  1.0000
  S   S210      1.0  0.61372  0.21539  0.02092  1.0000
  Fe  Fe106     1.0  0.81087  0.35771  0.01175  1.0000
  S   S211      1.0  0.77325  0.35982  0.01917  1.0000
  S   S212      1.0  0.84050  0.35638  0.03055  1.0000
  H   H1554     1.0  0.92397  0.45963  0.18742  1.0000
  C   C877      1.0  0.54996  0.02037  0.11955  1.0000
  H   H1555     1.0  0.87037  0.45646  0.01567  1.0000
  H   H1556     1.0  0.70285  0.23275  0.10747  1.0000
  H   H1557     1.0  0.65172  0.04795  0.19685  1.0000
  C   C878      1.0  0.86325  0.35121  0.24054  1.0000
  C   C879      1.0  0.90934  0.35700  0.23371  1.0000
  C   C880      1.0  0.97911  0.48451  0.15807  1.0000
  H   H1558     1.0  0.72899  0.20279  0.02368  1.0000
  C   C881      1.0  0.82021  0.40894  0.07744  1.0000
  H   H1559     1.0  0.95776  0.44058  0.15928  1.0000
  H   H1560     1.0  0.53409  0.12424  0.06650  1.0000
  H   H1561     1.0  0.72148  0.45585  0.02491  1.0000
  H   H1562     1.0  0.61457  0.04141  0.13065  1.0000
  H   H1563     1.0  0.54025  0.28461  0.02025  1.0000
  H   H1564     1.0  0.65579  0.04466  0.12997  1.0000
  H   H1565     1.0  0.72263  0.16570  0.01297  1.0000
  C   C882      1.0  0.80752  0.47591  0.11475  1.0000
  H   H1566     1.0  0.89807  0.27451  0.22514  1.0000
  C   C883      1.0  0.55526  0.17667  0.06310  1.0000
  C   C884      1.0  0.61354  0.99705  0.16799  1.0000
  H   H1567     1.0  0.67225  0.02455  0.20107  1.0000
  C   C885      1.0  0.93359  0.44687  0.12885  1.0000
  H   H1568     1.0  0.87550  0.40664  0.19050  1.0000
  H   H1569     1.0  0.53335  0.05045  0.21194  1.0000
  H   H1570     1.0  0.55636  0.11164  0.04370  1.0000
  Fe  Fe107     1.0  0.58767  0.20327  0.00394  1.0000
  C   C886      1.0  0.56497  0.03559  0.22213  1.0000
  H   H1571     1.0  0.55496  0.16768  0.09924  1.0000
  H   H1572     1.0  0.95453  0.41181  0.24674  1.0000
  C   C887      1.0  0.98675  0.37522  0.13780  1.0000
  H   H1573     1.0  0.97078  0.34626  0.15011  1.0000
  H   H1574     1.0  0.71463  0.20757  0.09705  1.0000
  C   C888      1.0  0.88106  0.45748  0.15957  1.0000
  H   H1575     1.0  0.50151  0.28022  0.01180  1.0000
  H   H1576     1.0  0.54905  0.18341  0.05001  1.0000
  C   C889      1.0  0.91092  0.46553  0.17844  1.0000
  C   C890      1.0  0.89759  0.45004  0.17152  1.0000
  H   H1577     1.0  0.82008  0.36621  0.13766  1.0000
  H   H1578     1.0  0.59305  0.04328  0.09627  1.0000
  H   H1579     1.0  0.90008  0.43241  0.17553  1.0000
  C   C891      1.0  0.85274  0.34839  0.09113  1.0000
  C   C892      1.0  0.83216  0.34243  0.08479  1.0000
  C   C893      1.0  0.82782  0.34528  0.06646  1.0000
  C   C894      1.0  0.84424  0.35367  0.05406  1.0000
  C   C895      1.0  0.86477  0.35972  0.06042  1.0000
  C   C896      1.0  0.86891  0.35734  0.07880  1.0000
  H   H1580     1.0  0.81951  0.33545  0.09414  1.0000
  H   H1581     1.0  0.81200  0.34045  0.06186  1.0000
  H   H1582     1.0  0.87767  0.36612  0.05101  1.0000
  H   H1583     1.0  0.88486  0.36190  0.08335  1.0000
  C   C897      1.0  0.62541  0.11496  0.09491  1.0000
  C   C898      1.0  0.62913  0.13698  0.09920  1.0000
  C   C899      1.0  0.63339  0.15386  0.08553  1.0000
  C   C900      1.0  0.63370  0.14913  0.06738  1.0000
  C   C901      1.0  0.62989  0.12714  0.06310  1.0000
  C   C902      1.0  0.62584  0.11021  0.07675  1.0000
  H   H1584     1.0  0.62926  0.14087  0.11307  1.0000
  H   H1585     1.0  0.63671  0.17066  0.08908  1.0000
  H   H1586     1.0  0.63099  0.12296  0.04929  1.0000
  H   H1587     1.0  0.62344  0.09319  0.07322  1.0000
  C   C903      1.0  0.52082  0.08371  0.16681  1.0000
  C   C904      1.0  0.51586  0.10694  0.16332  1.0000
  H   H1588     1.0  0.78344  0.41922  0.07874  1.0000
  H   H1589     1.0  0.53674  0.07755  0.17224  1.0000
  H   H1590     1.0  0.79467  0.43764  0.10336  1.0000
  H   H1591     1.0  0.89325  0.45701  0.21488  1.0000
  C   C905      1.0  0.63528  0.09431  0.22908  1.0000
  H   H1592     1.0  0.74436  0.29275  0.03949  1.0000
  H   H1593     1.0  0.53660  0.02233  0.14718  1.0000
  C   C906      1.0  0.53371  0.14291  0.06365  1.0000
  H   H1594     1.0  0.91268  0.29626  0.21230  1.0000
  H   H1595     1.0  0.94290  0.43561  0.11917  1.0000
  C   C907      1.0  0.60954  0.03614  0.06268  1.0000
  H   H1596     1.0  0.97502  0.34460  0.08859  1.0000
  H   H1597     1.0  0.97166  0.49399  0.14642  1.0000
  H   H1598     1.0  0.86405  0.48653  0.14628  1.0000
  H   H1599     1.0  0.53821  0.04944  0.13497  1.0000
  C   C908      1.0  0.88092  0.49033  0.22192  1.0000
  H   H1600     1.0  0.64872  0.01803  0.14098  1.0000
  H   H1601     1.0  0.58276  0.05599  0.23896  1.0000
  H   H1602     1.0  0.87667  0.39807  0.22881  1.0000
  H   H1603     1.0  0.86625  0.49073  0.21333  1.0000
  H   H1604     1.0  0.83053  0.39294  0.07459  1.0000
  C   C909      1.0  0.50685  0.19446  0.00533  1.0000
  H   H1605     1.0  0.54879  0.06987  0.22313  1.0000
  H   H1606     1.0  0.53764  0.25614  0.01400  1.0000
  H   H1607     1.0  0.50294  0.12328  0.20806  1.0000
  C   C910      1.0  0.87347  0.46236  0.02899  1.0000
  H   H1608     1.0  0.54664  0.02986  0.10670  1.0000
  C   C911      1.0  0.64921  0.02798  0.12798  1.0000
  H   H1609     1.0  0.70453  0.18747  0.00216  1.0000
  H   H1610     1.0  0.86057  0.48033  0.06013  1.0000
  H   H1611     1.0  0.55897  0.01827  0.22249  1.0000
  H   H1612     1.0  0.95758  0.47239  0.12534  1.0000
  H   H1613     1.0  0.79182  0.47078  0.12232  1.0000
  C   C912      1.0  0.79520  0.40506  0.07406  1.0000
  C   C913      1.0  0.50631  0.27301  0.02514  1.0000
  C   C914      1.0  0.73708  0.48758  0.02256  1.0000
  C   C915      1.0  0.52105  0.14924  0.04637  1.0000
  H   H1614     1.0  0.50909  0.05030  0.16605  1.0000
  C   C916      1.0  0.90745  0.48860  0.17368  1.0000
  S   S213      1.0  0.60268  0.16753  0.00651  1.0000
  C   C917      1.0  0.65380  0.02965  0.20104  1.0000
  C   C918      1.0  0.77371  0.46378  0.00508  1.0000
  H   H1615     1.0  0.60894  0.00205  0.07396  1.0000
  C   C919      1.0  0.62550  0.03166  0.12087  1.0000
  H   H1616     1.0  0.62813  0.01927  0.08369  1.0000
  C   C920      1.0  0.85829  0.40725  0.19730  1.0000
  H   H1617     1.0  0.88818  0.30397  0.22665  1.0000
  H   H1618     1.0  0.80345  0.38879  0.04893  1.0000
  H   H1619     1.0  0.82770  0.44639  0.12367  1.0000
  C   C921      1.0  0.85000  0.41598  0.09695  1.0000
  C   C922      1.0  0.82344  0.45509  0.11077  1.0000
  C   C923      1.0  0.86257  0.42974  0.08163  1.0000
  H   H1620     1.0  0.82279  0.38165  0.10620  1.0000
  C   C924      1.0  0.88618  0.43514  0.08653  1.0000
  H   H1621     1.0  0.85448  0.42204  0.10985  1.0000
  H   H1622     1.0  0.81131  0.44928  0.08528  1.0000
  H   H1623     1.0  0.83944  0.46119  0.10440  1.0000
  H   H1624     1.0  0.86472  0.41975  0.06952  1.0000
  H   H1625     1.0  0.85278  0.44590  0.07812  1.0000
  H   H1626     1.0  0.98463  0.33794  0.11065  1.0000
  H   H1627     1.0  0.51548  0.16667  0.18430  1.0000
  H   H1628     1.0  0.80288  0.48551  0.10219  1.0000
  H   H1629     1.0  0.89426  0.44557  0.07548  1.0000
  H   H1630     1.0  0.88511  0.44472  0.09885  1.0000
  H   H1631     1.0  0.89708  0.41924  0.08865  1.0000
  S   S214      1.0  0.75106  0.42295  0.00846  1.0000
  C   C925      1.0  0.58041  0.03766  0.23772  1.0000
  H   H1632     1.0  0.83715  0.40316  0.13157  1.0000
  C   C926      1.0  0.90348  0.29203  0.22528  1.0000
  C   C927      1.0  0.50514  0.06823  0.16330  1.0000
  H   H1633     1.0  0.67147  0.09459  0.23033  1.0000
  H   H1634     1.0  0.52348  0.18149  0.20286  1.0000
  C   C928      1.0  0.54387  0.05212  0.22348  1.0000
  H   H1635     1.0  0.54492  0.00283  0.11884  1.0000
  N   N48       1.0  0.98714  0.46052  0.15387  1.0000
  H   H1636     1.0  0.96414  0.37939  0.22690  1.0000
  S   S215      1.0  0.54982  0.20392  0.01293  1.0000
  C   C929      1.0  0.70795  0.17824  0.01513  1.0000
  H   H1637     1.0  0.80906  0.41761  0.13358  1.0000
  H   H1638     1.0  0.61213  0.05344  0.06672  1.0000
  H   H1639     1.0  0.96499  0.48419  0.16857  1.0000
  H   H1640     1.0  0.98079  0.45021  0.18173  1.0000
  C   C930      1.0  0.53216  0.26859  0.02414  1.0000
  C   C931      1.0  0.94978  0.46217  0.13654  1.0000
  H   H1641     1.0  0.57565  0.02454  0.08713  1.0000
  H   H1642     1.0  0.53350  0.04842  0.23600  1.0000
  Fe  Fe108     1.0  0.77216  0.39091  0.00005  1.0000
  H   H1643     1.0  0.60992  0.02946  0.20794  1.0000
  H   H1644     1.0  0.61790  0.25069  0.05432  1.0000
  C   C932      1.0  0.87710  0.48066  0.15525  1.0000
  C   C933      1.0  0.96779  0.44814  0.14762  1.0000
  H   H1645     1.0  0.86773  0.44945  0.03930  1.0000
  C   C934      1.0  0.53440  0.03150  0.13400  1.0000
  H   H1646     1.0  0.97454  0.43348  0.13978  1.0000
  C   C935      1.0  0.86036  0.48525  0.03160  1.0000
  H   H1647     1.0  0.92208  0.43230  0.23219  1.0000
  H   H1648     1.0  0.90455  0.46651  0.23467  1.0000
  H   H1649     1.0  0.59883  0.09418  0.23267  1.0000
  H   H1650     1.0  0.57846  0.03864  0.12536  1.0000
  H   H1651     1.0  0.92524  0.43627  0.13966  1.0000
  H   H1652     1.0  0.57731  0.01226  0.13727  1.0000
  H   H1653     1.0  0.81306  0.38520  0.15528  1.0000
  C   C936      1.0  0.59212  0.02515  0.09339  1.0000
  H   H1654     1.0  0.66489  0.30041  0.00315  1.0000
  C   C937      1.0  0.98971  0.33752  0.09618  1.0000
  H   H1655     1.0  0.86267  0.34677  0.21219  1.0000
  C   C938      1.0  0.56786  0.14144  0.08069  1.0000
  C   C939      1.0  0.57212  0.14349  0.04799  1.0000
  C   C940      1.0  0.57753  0.18820  0.06536  1.0000
  C   C941      1.0  0.55585  0.14901  0.09854  1.0000
  C   C942      1.0  0.56848  0.13871  0.11457  1.0000
  C   C943      1.0  0.58742  0.11239  0.02773  1.0000
  C   C944      1.0  0.57351  0.21398  0.06382  1.0000
  H   H1656     1.0  0.56834  0.12262  0.08139  1.0000
  H   H1657     1.0  0.58595  0.14536  0.08053  1.0000
  H   H1658     1.0  0.58990  0.14778  0.04925  1.0000
  H   H1659     1.0  0.57391  0.03931  0.20908  1.0000
  H   H1660     1.0  0.59067  0.18346  0.05482  1.0000
  H   H1661     1.0  0.58441  0.18344  0.07857  1.0000
  H   H1662     1.0  0.53837  0.14331  0.10016  1.0000
  H   H1663     1.0  0.57075  0.11996  0.11424  1.0000
  H   H1664     1.0  0.58536  0.14564  0.11474  1.0000
  H   H1665     1.0  0.55864  0.14293  0.12716  1.0000
  H   H1666     1.0  0.56691  0.15304  0.03551  1.0000
  H   H1667     1.0  0.60477  0.11827  0.02792  1.0000
  H   H1668     1.0  0.56748  0.21971  0.05046  1.0000
  H   H1669     1.0  0.56083  0.21991  0.07436  1.0000
  H   H1670     1.0  0.58972  0.22173  0.06547  1.0000
  H   H1671     1.0  0.91855  0.40254  0.23533  1.0000
  N   N49       1.0  0.59246  0.01030  0.11041  1.0000
  C   C945      1.0  0.81048  0.38234  0.14111  1.0000
  H   H1672     1.0  0.51670  0.16779  0.04520  1.0000
  C   C946      1.0  0.61455  0.09334  0.23935  1.0000
  C   C947      1.0  0.81261  0.43942  0.09832  1.0000
  H   H1673     1.0  0.50891  0.18054  0.01516  1.0000
  H   H1674     1.0  0.92737  0.35858  0.23124  1.0000
  H   H1675     1.0  0.85770  0.39823  0.09693  1.0000
  H   H1676     1.0  0.84582  0.41342  0.18734  1.0000
  C   C948      1.0  0.87594  0.41669  0.22564  1.0000
  H   H1677     1.0  0.58889  0.09382  0.02623  1.0000
  H   H1678     1.0  0.79023  0.38900  0.08113  1.0000
  H   H1679     1.0  0.62305  0.03145  0.05235  1.0000
  C   C949      1.0  0.85665  0.42303  0.21273  1.0000
  C   C950      1.0  0.60065  0.99929  0.23672  1.0000
  H   H1680     1.0  0.92014  0.45739  0.12190  1.0000
  C   C951      1.0  0.74408  0.27426  0.03793  1.0000
  H   H1681     1.0  0.89181  0.41968  0.21747  1.0000
  C   C952      1.0  0.98618  0.35514  0.14856  1.0000
  H   H1682     1.0  0.74973  0.27088  0.02391  1.0000
  H   H1683     1.0  0.63735  0.27199  0.05728  1.0000
  C   C953      1.0  0.89618  0.35292  0.21943  1.0000
  N   N50       1.0  0.82458  0.41626  0.09578  1.0000
  H   H1684     1.0  0.58160  0.10788  0.05610  1.0000
  H   H1685     1.0  0.77426  0.39938  0.05220  1.0000
  H   H1686     1.0  0.63306  0.26324  0.03514  1.0000
  H   H1687     1.0  0.65176  0.03468  0.22905  1.0000
  H   H1688     1.0  0.59280  0.03626  0.05673  1.0000
  H   H1689     1.0  0.85450  0.38983  0.20224  1.0000
  H   H1690     1.0  0.98894  0.41342  0.16476  1.0000
  H   H1691     1.0  0.70839  0.27782  0.03393  1.0000
  H   H1692     1.0  0.62212  0.01255  0.16756  1.0000
  H   H1693     1.0  0.85799  0.44059  0.20689  1.0000
  H   H1694     1.0  0.68414  0.21368  0.09921  1.0000
  C   C954      1.0  0.75450  0.45221  0.01130  1.0000
  C   C955      1.0  0.64267  0.02526  0.21968  1.0000
  H   H1695     1.0  0.52250  0.15012  0.07464  1.0000
  H   H1696     1.0  0.64618  0.01969  0.19123  1.0000
  N   N51       1.0  0.60329  0.02449  0.23673  1.0000
  H   H1697     1.0  0.75622  0.26515  0.04703  1.0000
  C   C956      1.0  0.72006  0.26686  0.04235  1.0000
  H   H1698     1.0  0.84211  0.48289  0.03036  1.0000
  H   H1699     1.0  0.79670  0.39835  0.10854  1.0000
  C   C957      1.0  0.81897  0.40213  0.12917  1.0000
  H   H1700     1.0  0.64520  0.00690  0.22346  1.0000
  H   H1701     1.0  0.62708  0.04219  0.10823  1.0000
  H   H1702     1.0  0.79210  0.38077  0.13967  1.0000
  H   H1703     1.0  0.85376  0.45850  0.23378  1.0000
  C   C958      1.0  0.87294  0.35047  0.22292  1.0000
  C   C959      1.0  0.61710  0.03344  0.22057  1.0000
  C   C960      1.0  0.70114  0.30349  0.99911  1.0000
  C   C961      1.0  0.51812  0.16509  0.19883  1.0000
  H   H1704     1.0  0.51636  0.03123  0.13075  1.0000
  H   H1705     1.0  0.62812  0.99843  0.10978  1.0000
  C   C962      1.0  0.61553  0.00876  0.11808  1.0000
  H   H1706     1.0  0.61623  0.05231  0.22003  1.0000
  C   C963      1.0  0.65540  0.09372  0.23798  1.0000
  H   H1707     1.0  0.81611  0.48723  0.12301  1.0000
  H   H1708     1.0  0.53197  0.15180  0.20145  1.0000
  H   H1709     1.0  0.82582  0.42169  0.06692  1.0000
  C   C964      1.0  0.57341  0.11775  0.04492  1.0000
  H   H1710     1.0  0.79576  0.41889  0.04638  1.0000
  C   C965      1.0  0.99468  0.44851  0.17105  1.0000
  C   C966      1.0  0.79208  0.40293  0.05419  1.0000
  C   C967      1.0  0.57528  0.02063  0.12381  1.0000
  H   H1711     1.0  0.57912  0.12075  0.01598  1.0000
  C   C968      1.0  0.81536  0.39886  0.10931  1.0000
  N   N52       1.0  0.55723  0.15111  0.06387  1.0000
  C   C969      1.0  0.61089  0.01909  0.07874  1.0000
  C   C970      1.0  0.73637  0.46442  0.02003  1.0000
  H   H1712     1.0  0.54219  0.18307  0.07322  1.0000
  N   N53       1.0  0.69691  0.23052  0.04492  1.0000
  C   C971      1.0  0.67663  0.24758  0.04452  1.0000
  C   C972      1.0  0.71841  0.24164  0.03838  1.0000
  C   C973      1.0  0.69313  0.21255  0.03218  1.0000
  C   C974      1.0  0.69932  0.21900  0.06322  1.0000
  C   C975      1.0  0.70160  0.23466  0.07862  1.0000
  C   C976      1.0  0.65345  0.23872  0.05135  1.0000
  C   C977      1.0  0.71338  0.19471  0.02883  1.0000
  H   H1713     1.0  0.71544  0.27021  0.05647  1.0000
  H   H1714     1.0  0.83953  0.42189  0.21939  1.0000
  C   C978      1.0  0.70074  0.22126  0.09665  1.0000
  C   C979      1.0  0.63432  0.25738  0.04941  1.0000
  C   C980      1.0  0.52532  0.20754  0.00024  1.0000
  H   H1715     1.0  0.67491  0.25497  0.03067  1.0000
  H   H1716     1.0  0.67890  0.26221  0.05253  1.0000
  H   H1717     1.0  0.73360  0.23169  0.04353  1.0000
  H   H1718     1.0  0.72075  0.24155  0.02356  1.0000
  H   H1719     1.0  0.68857  0.22065  0.01896  1.0000
  H   H1720     1.0  0.67852  0.20263  0.03707  1.0000
  H   H1721     1.0  0.68487  0.20823  0.06680  1.0000
  H   H1722     1.0  0.71470  0.20702  0.06328  1.0000
  H   H1723     1.0  0.68778  0.24833  0.07916  1.0000
  H   H1724     1.0  0.71825  0.24224  0.07704  1.0000
  H   H1725     1.0  0.64911  0.22446  0.04372  1.0000
  H   H1726     1.0  0.65364  0.23298  0.06567  1.0000
  H   H1727     1.0  0.71714  0.18448  0.04128  1.0000
  H   H1728     1.0  0.66107  0.01897  0.11831  1.0000
  H   H1729     1.0  0.49934  0.15936  0.22373  1.0000
  H   H1730     1.0  0.99628  0.37449  0.24654  1.0000
  C   C981      1.0  0.58995  0.99776  0.17094  1.0000
  H   H1731     1.0  0.89201  0.46383  0.02969  1.0000
  H   H1732     1.0  0.99380  0.31968  0.09271  1.0000
  H   H1733     1.0  0.93935  0.47394  0.14522  1.0000
  C   C982      1.0  0.87064  0.45423  0.23940  1.0000
  H   H1734     1.0  0.53822  0.26198  0.03728  1.0000
  H   H1735     1.0  0.58803  0.99874  0.20950  1.0000
  H   H1736     1.0  0.99240  0.46480  0.11441  1.0000
  C   C983      1.0  0.77431  0.48742  0.00743  1.0000
  H   H1737     1.0  0.84546  0.34838  0.24315  1.0000
  H   H1738     1.0  0.50376  0.24182  0.04104  1.0000
  C   C984      1.0  0.68105  0.29169  0.99939  1.0000
  C   C985      1.0  0.97890  0.36736  0.22364  1.0000
  H   H1739     1.0  0.50164  0.28582  0.03514  1.0000
  H   H1740     1.0  0.92529  0.31118  0.23912  1.0000
  H   H1741     1.0  0.93355  0.28129  0.23858  1.0000
  H   H1742     1.0  0.82373  0.49530  0.06511  1.0000
  N   N54       1.0  0.87457  0.42896  0.24276  1.0000
  C   C986      1.0  0.91904  0.29398  0.24051  1.0000
  H   H1743     1.0  0.98150  0.36734  0.20886  1.0000
  C   C987      1.0  0.91862  0.41848  0.24233  1.0000
  C   C988      1.0  0.49892  0.13743  0.04664  1.0000
  H   H1744     1.0  0.99192  0.41326  0.19758  1.0000
  H   H1745     1.0  0.50254  0.11880  0.04628  1.0000
  H   H1746     1.0  0.86791  0.49152  0.08690  1.0000
  H   H1747     1.0  0.83841  0.42439  0.24748  1.0000
  C   C989      1.0  0.86452  0.49416  0.05002  1.0000
  H   H1748     1.0  0.78782  0.45463  0.99822  1.0000
  H   H1749     1.0  0.49756  0.24003  0.01843  1.0000
  Fe  Fe109     1.0  0.57623  0.09085  0.34368  1.0000
  S   S216      1.0  0.61093  0.10466  0.33960  1.0000
  S   S217      1.0  0.54249  0.11086  0.34814  1.0000
  Fe  Fe110     1.0  0.59428  0.04332  0.33841  1.0000
  S   S218      1.0  0.63018  0.05260  0.33391  1.0000
  S   S219      1.0  0.58055  0.00920  0.33786  1.0000
  Fe  Fe111     1.0  0.62299  0.07452  0.35744  1.0000
  S   S220      1.0  0.65235  0.07094  0.37661  1.0000
  Fe  Fe112     1.0  0.61580  0.08175  0.31649  1.0000
  S   S221      1.0  0.63682  0.09016  0.29074  1.0000
  S   S222      1.0  0.58780  0.06271  0.36312  1.0000
  S   S223      1.0  0.58039  0.07051  0.31935  1.0000
  Fe  Fe113     1.0  0.92242  0.38025  0.31563  1.0000
  S   S224      1.0  0.91064  0.34546  0.31488  1.0000
  S   S225      1.0  0.95574  0.39033  0.30312  1.0000
  Fe  Fe114     1.0  0.87671  0.40018  0.32898  1.0000
  S   S226      1.0  0.86074  0.36675  0.32891  1.0000
  S   S227      1.0  0.85783  0.43445  0.33166  1.0000
  Fe  Fe115     1.0  0.89265  0.35204  0.34183  1.0000
  S   S228      1.0  0.89657  0.32194  0.36278  1.0000
  Fe  Fe116     1.0  0.88009  0.36284  0.30221  1.0000
  S   S229      1.0  0.86402  0.35343  0.27698  1.0000
  S   S230      1.0  0.90737  0.38602  0.34330  1.0000
  S   S231      1.0  0.89321  0.39706  0.30161  1.0000
  H   H1750     1.0  0.53794  0.06283  0.35491  1.0000
  S   S232      1.0  0.87004  0.30310  0.44652  1.0000
  Fe  Fe117     1.0  0.70104  0.09223  0.47606  1.0000
  S   S233      1.0  0.67369  0.09772  0.45515  1.0000
  S   S234      1.0  0.73929  0.08827  0.47243  1.0000
  H   H1751     1.0  0.63125  0.01077  0.28629  1.0000
  H   H1752     1.0  0.65667  0.02148  0.45131  1.0000
  H   H1753     1.0  0.92108  0.23788  0.28135  1.0000
  H   H1754     1.0  0.97966  0.41190  0.34392  1.0000
  H   H1755     1.0  0.94232  0.27401  0.44552  1.0000
  H   H1756     1.0  0.89354  0.30548  0.25996  1.0000
  H   H1757     1.0  0.90867  0.46720  0.28548  1.0000
  C   C990      1.0  0.96224  0.41627  0.34964  1.0000
  H   H1758     1.0  0.84284  0.44856  0.27127  1.0000
  C   C991      1.0  0.81082  0.26999  0.45103  1.0000
  H   H1759     1.0  0.95157  0.27307  0.26262  1.0000
  H   H1760     1.0  0.49883  0.01758  0.32938  1.0000
  H   H1761     1.0  0.90972  0.36191  0.26202  1.0000
  C   C992      1.0  0.97770  0.37819  0.31575  1.0000
  H   H1762     1.0  0.95617  0.35787  0.33338  1.0000
  C   C993      1.0  0.61874  0.00320  0.39750  1.0000
  C   C994      1.0  0.87192  0.45599  0.34058  1.0000
  C   C995      1.0  0.88443  0.45160  0.35575  1.0000
  C   C996      1.0  0.85027  0.43082  0.27280  1.0000
  H   H1763     1.0  0.88613  0.43459  0.36185  1.0000
  H   H1764     1.0  0.83643  0.24241  0.39411  1.0000
  C   C997      1.0  0.89034  0.31801  0.38639  1.0000
  C   C998      1.0  0.89969  0.29843  0.39567  1.0000
  C   C999      1.0  0.89438  0.29394  0.41413  1.0000
  C   C1000     1.0  0.87924  0.30881  0.42359  1.0000
  C   C1001     1.0  0.86986  0.32833  0.41430  1.0000
  C   C1002     1.0  0.87550  0.33304  0.39593  1.0000
  H   H1765     1.0  0.91111  0.28659  0.38850  1.0000
  H   H1766     1.0  0.90168  0.27878  0.42094  1.0000
  H   H1767     1.0  0.85803  0.33993  0.42136  1.0000
  H   H1768     1.0  0.86797  0.34806  0.38908  1.0000
  C   C1003     1.0  0.63475  0.09134  0.26709  1.0000
  C   C1004     1.0  0.80353  0.21575  0.44209  1.0000
  H   H1769     1.0  0.57006  0.03215  0.24983  1.0000
  H   H1770     1.0  0.89362  0.40726  0.26180  1.0000
  H   H1771     1.0  0.67101  0.09214  0.26310  1.0000
  H   H1772     1.0  0.53641  0.03410  0.32534  1.0000
  H   H1773     1.0  0.62878  0.00553  0.32719  1.0000
  H   H1774     1.0  0.88467  0.18015  0.45182  1.0000
  C   C1005     1.0  0.65756  0.07805  0.39869  1.0000
  C   C1006     1.0  0.64127  0.08983  0.40959  1.0000
  C   C1007     1.0  0.64656  0.09555  0.42677  1.0000
  C   C1008     1.0  0.66804  0.08939  0.43347  1.0000
  C   C1009     1.0  0.68426  0.07741  0.42260  1.0000
  C   C1010     1.0  0.67906  0.07190  0.40534  1.0000
  H   H1775     1.0  0.62467  0.09475  0.40475  1.0000
  H   H1776     1.0  0.63386  0.10486  0.43498  1.0000
  H   H1777     1.0  0.70089  0.07264  0.42744  1.0000
  H   H1778     1.0  0.69187  0.06285  0.39707  1.0000
  H   H1779     1.0  0.88499  0.29525  0.32415  1.0000
  C   C1011     1.0  0.51911  0.09411  0.34748  1.0000
  C   C1012     1.0  0.52158  0.07075  0.35155  1.0000
  H   H1780     1.0  0.59836  0.09137  0.26623  1.0000
  C   C1013     1.0  0.93114  0.24511  0.26971  1.0000
  H   H1781     1.0  0.96319  0.38537  0.36664  1.0000
  H   H1782     1.0  0.98697  0.31535  0.44476  1.0000
  C   C1014     1.0  0.97327  0.36275  0.33014  1.0000
  C   C1015     1.0  0.89396  0.46944  0.36347  1.0000
  C   C1016     1.0  0.95172  0.22843  0.26625  1.0000
  H   H1783     1.0  0.52164  0.03585  0.30507  1.0000
  H   H1784     1.0  0.73158  0.01874  0.45906  1.0000
  H   H1785     1.0  0.54495  0.01475  0.30808  1.0000
  C   C1017     1.0  0.95468  0.48123  0.33667  1.0000
  C   C1018     1.0  0.95379  0.31417  0.26979  1.0000
  S   S235      1.0  0.69880  0.06408  0.49752  1.0000
  H   H1786     1.0  0.57544  0.02338  0.39541  1.0000
  C   C1019     1.0  0.51492  0.11590  0.39811  1.0000
  H   H1787     1.0  0.49998  0.99805  0.36656  1.0000
  C   C1020     1.0  0.87286  0.29349  0.31368  1.0000
  H   H1788     1.0  0.82910  0.23845  0.46024  1.0000
  H   H1789     1.0  0.52470  0.13109  0.39865  1.0000
  H   H1790     1.0  0.56695  0.00865  0.37714  1.0000
  H   H1791     1.0  0.84066  0.39973  0.28742  1.0000
  H   H1792     1.0  0.63184  0.01874  0.25362  1.0000
  H   H1793     1.0  0.66970  0.00626  0.33980  1.0000
  H   H1794     1.0  0.97905  0.46141  0.30908  1.0000
  H   H1795     1.0  0.81622  0.28674  0.44556  1.0000
  H   H1796     1.0  0.94813  0.26696  0.28587  1.0000
  C   C1021     1.0  0.67535  0.10960  0.34154  1.0000
  H   H1797     1.0  0.70337  0.12272  0.35430  1.0000
  H   H1798     1.0  0.70268  0.03002  0.45704  1.0000
  H   H1799     1.0  0.67082  0.12316  0.33139  1.0000
  H   H1800     1.0  0.86682  0.27614  0.31490  1.0000
  C   C1022     1.0  0.99500  0.29794  0.44327  1.0000
  H   H1801     1.0  0.84650  0.26034  0.45326  1.0000
  H   H1802     1.0  0.68627  0.15538  0.33042  1.0000
  C   C1023     1.0  0.81675  0.22856  0.42649  1.0000
  Fe  Fe118     1.0  0.88187  0.27898  0.46995  1.0000
  H   H1803     1.0  0.85647  0.40181  0.25627  1.0000
  C   C1024     1.0  0.83131  0.25201  0.44957  1.0000
  H   H1804     1.0  0.86234  0.22222  0.41735  1.0000
  C   C1025     1.0  0.90600  0.29049  0.25885  1.0000
  C   C1026     1.0  0.80176  0.27274  0.47029  1.0000
  H   H1805     1.0  0.94646  0.46800  0.29754  1.0000
  C   C1027     1.0  0.93837  0.41561  0.25466  1.0000
  C   C1028     1.0  0.65042  0.00736  0.37439  1.0000
  C   C1029     1.0  0.96012  0.33815  0.27281  1.0000
  N   N55       1.0  0.67262  0.13814  0.36709  1.0000
  C   C1030     1.0  0.64738  0.13609  0.36654  1.0000
  C   C1031     1.0  0.68560  0.11853  0.35811  1.0000
  C   C1032     1.0  0.67819  0.13686  0.38653  1.0000
  C   C1033     1.0  0.67965  0.16060  0.35887  1.0000
  C   C1034     1.0  0.67466  0.16616  0.33907  1.0000
  C   C1035     1.0  0.63163  0.15405  0.37631  1.0000
  C   C1036     1.0  0.70377  0.13314  0.39040  1.0000
  C   C1037     1.0  0.67897  0.19076  0.33346  1.0000
  C   C1038     1.0  0.60665  0.15028  0.37426  1.0000
  C   C1039     1.0  0.70730  0.13576  0.41012  1.0000
  H   H1806     1.0  0.64301  0.11915  0.37244  1.0000
  H   H1807     1.0  0.64211  0.13667  0.35263  1.0000
  H   H1808     1.0  0.68700  0.10341  0.36767  1.0000
  H   H1809     1.0  0.66955  0.12285  0.39402  1.0000
  H   H1810     1.0  0.67152  0.15259  0.39302  1.0000
  H   H1811     1.0  0.67189  0.17473  0.36681  1.0000
  H   H1812     1.0  0.69825  0.16168  0.35949  1.0000
  H   H1813     1.0  0.65681  0.16376  0.33642  1.0000
  H   H1814     1.0  0.63426  0.15297  0.39083  1.0000
  H   H1815     1.0  0.63465  0.17140  0.37076  1.0000
  H   H1816     1.0  0.71415  0.14541  0.38252  1.0000
  H   H1817     1.0  0.71054  0.11578  0.38721  1.0000
  H   H1818     1.0  0.67585  0.19413  0.31908  1.0000
  H   H1819     1.0  0.66733  0.20256  0.34126  1.0000
  H   H1820     1.0  0.69685  0.19413  0.33545  1.0000
  H   H1821     1.0  0.59565  0.16305  0.38160  1.0000
  H   H1822     1.0  0.60265  0.15207  0.35997  1.0000
  H   H1823     1.0  0.60263  0.13313  0.37980  1.0000
  H   H1824     1.0  0.69725  0.12381  0.41873  1.0000
  H   H1825     1.0  0.72552  0.13202  0.41275  1.0000
  H   H1826     1.0  0.70215  0.15332  0.41386  1.0000
  H   H1827     1.0  0.90307  0.46607  0.37549  1.0000
  H   H1828     1.0  0.52261  0.10574  0.38703  1.0000
  H   H1829     1.0  0.69820  0.01144  0.34471  1.0000
  C   C1040     1.0  0.80623  0.15163  0.49728  1.0000
  H   H1830     1.0  0.62582  0.04123  0.28666  1.0000
  C   C1041     1.0  0.89148  0.49162  0.35584  1.0000
  H   H1831     1.0  0.65186  0.03114  0.40254  1.0000
  C   C1042     1.0  0.93817  0.44983  0.32354  1.0000
  H   H1832     1.0  0.92263  0.44933  0.33267  1.0000
  H   H1833     1.0  0.89815  0.45275  0.30575  1.0000
  C   C1043     1.0  0.60272  0.00269  0.38200  1.0000
  C   C1044     1.0  0.90451  0.28121  0.29100  1.0000
  H   H1834     1.0  0.80100  0.21677  0.48682  1.0000
  H   H1835     1.0  0.94590  0.21151  0.26397  1.0000
  C   C1045     1.0  0.86962  0.47815  0.33288  1.0000
  H   H1836     1.0  0.94993  0.40949  0.34125  1.0000
  C   C1046     1.0  0.95802  0.44227  0.35095  1.0000
  C   C1047     1.0  0.78868  0.19859  0.43519  1.0000
  H   H1837     1.0  0.95926  0.34115  0.28731  1.0000
  H   H1838     1.0  0.81711  0.41719  0.27844  1.0000
  C   C1048     1.0  0.85454  0.42065  0.25419  1.0000
  C   C1049     1.0  0.85994  0.20706  0.44362  1.0000
  H   H1839     1.0  0.96693  0.30225  0.27588  1.0000
  C   C1050     1.0  0.69168  0.09199  0.33256  1.0000
  S   S236      1.0  0.75671  0.02670  0.49360  1.0000
  S   S237      1.0  0.91004  0.28629  0.48702  1.0000
  C   C1051     1.0  0.80270  0.19868  0.48966  1.0000
  C   C1052     1.0  0.83784  0.26227  0.41792  1.0000
  C   C1053     1.0  0.67597  0.00457  0.36820  1.0000
  H   H1840     1.0  0.81487  0.20653  0.45163  1.0000
  H   H1841     1.0  0.95477  0.31206  0.25525  1.0000
  H   H1842     1.0  0.81531  0.49255  0.43546  1.0000
  H   H1843     1.0  0.71082  0.01573  0.47760  1.0000
  H   H1844     1.0  0.93625  0.48634  0.33899  1.0000
  H   H1845     1.0  0.83043  0.42539  0.29777  1.0000
  N   N56       1.0  0.83568  0.24242  0.43141  1.0000
  H   H1846     1.0  0.79934  0.18533  0.42811  1.0000
  H   H1847     1.0  0.94152  0.44575  0.35868  1.0000
  S   S238      1.0  0.89316  0.24201  0.46897  1.0000
  C   C1054     1.0  0.83356  0.41742  0.28476  1.0000
  C   C1055     1.0  0.60230  0.02463  0.27142  1.0000
  H   H1848     1.0  0.64894  0.04250  0.43405  1.0000
  C   C1056     1.0  0.53019  0.02396  0.31495  1.0000
  S   S239      1.0  0.95704  0.23617  0.48220  1.0000
  H   H1849     1.0  0.98280  0.26361  0.44900  1.0000
  H   H1850     1.0  0.88920  0.31597  0.29456  1.0000
  C   C1057     1.0  0.65600  0.01274  0.40568  1.0000
  H   H1851     1.0  0.98330  0.48253  0.35447  1.0000
  C   C1058     1.0  0.97665  0.28160  0.45037  1.0000
  C   C1059     1.0  0.95507  0.28590  0.44012  1.0000
  H   H1852     1.0  0.92024  0.43897  0.29168  1.0000
  H   H1853     1.0  0.86604  0.43096  0.27997  1.0000
  C   C1060     1.0  0.61780  0.02485  0.28692  1.0000
  H   H1854     1.0  0.82326  0.28178  0.38469  1.0000
  H   H1855     1.0  0.85004  0.27395  0.42228  1.0000
  H   H1856     1.0  0.77628  0.20713  0.42602  1.0000
  N   N57       1.0  0.95808  0.45621  0.33343  1.0000
  H   H1857     1.0  0.84891  0.27295  0.37195  1.0000
  H   H1858     1.0  0.94250  0.40711  0.37415  1.0000
  H   H1859     1.0  0.89699  0.20614  0.44426  1.0000
  H   H1860     1.0  0.64129  0.99871  0.36464  1.0000
  H   H1861     1.0  0.80362  0.23943  0.41934  1.0000
  H   H1862     1.0  0.81492  0.27907  0.47817  1.0000
  C   C1061     1.0  0.61428  0.09181  0.25837  1.0000
  H   H1863     1.0  0.82345  0.21598  0.41670  1.0000
  C   C1062     1.0  0.84565  0.25649  0.39854  1.0000
  H   H1864     1.0  0.84787  0.19480  0.44021  1.0000
  C   C1063     1.0  0.85817  0.22852  0.43086  1.0000
  H   H1865     1.0  0.85660  0.21133  0.45771  1.0000
  H   H1866     1.0  0.77912  0.19017  0.44662  1.0000
  C   C1064     1.0  0.51342  0.00738  0.32329  1.0000
  H   H1867     1.0  0.79218  0.22784  0.44980  1.0000
  H   H1868     1.0  0.98030  0.43318  0.31788  1.0000
  C   C1065     1.0  0.91356  0.45544  0.29689  1.0000
  H   H1869     1.0  0.93984  0.43141  0.26158  1.0000
  H   H1870     1.0  0.87208  0.23937  0.43349  1.0000
  H   H1871     1.0  0.79659  0.26564  0.44327  1.0000
  H   H1872     1.0  0.69569  0.07738  0.34210  1.0000
  H   H1873     1.0  0.50717  0.99837  0.31228  1.0000
  C   C1066     1.0  0.88358  0.19475  0.44184  1.0000
  H   H1874     1.0  0.82137  0.27256  0.41714  1.0000
  C   C1067     1.0  0.88405  0.29845  0.29512  1.0000
  H   H1875     1.0  0.93589  0.40140  0.26479  1.0000
  H   H1876     1.0  0.86418  0.25158  0.39766  1.0000
  H   H1877     1.0  0.88688  0.18828  0.42830  1.0000
  C   C1068     1.0  0.57791  0.00716  0.38865  1.0000
  H   H1878     1.0  0.85018  0.29171  0.38972  1.0000
  C   C1069     1.0  0.78366  0.18562  0.48875  1.0000
  H   H1879     1.0  0.64468  0.02559  0.37242  1.0000
  H   H1880     1.0  0.96042  0.49148  0.32452  1.0000
  H   H1881     1.0  0.97168  0.28400  0.46464  1.0000
  H   H1882     1.0  0.70763  0.09959  0.32753  1.0000
  H   H1883     1.0  0.65965  0.10112  0.34569  1.0000
  H   H1884     1.0  0.78686  0.28530  0.47056  1.0000
  H   H1885     1.0  0.85993  0.48166  0.32117  1.0000
  C   C1070     1.0  0.87652  0.35489  0.25483  1.0000
  H   H1886     1.0  0.94133  0.43245  0.31878  1.0000
  H   H1887     1.0  0.61484  0.02037  0.40275  1.0000
  C   C1071     1.0  0.84170  0.27701  0.38547  1.0000
  H   H1888     1.0  0.95875  0.28311  0.42572  1.0000
  H   H1889     1.0  0.94755  0.30347  0.44163  1.0000
  H   H1890     1.0  0.76757  0.19400  0.48515  1.0000
  C   C1072     1.0  0.96566  0.48964  0.35307  1.0000
  H   H1891     1.0  0.97774  0.34043  0.26736  1.0000
  C   C1073     1.0  0.93165  0.46551  0.30703  1.0000
  H   H1892     1.0  0.68360  0.08565  0.32106  1.0000
  H   H1893     1.0  0.85806  0.30587  0.31599  1.0000
  C   C1074     1.0  0.93868  0.26882  0.27341  1.0000
  H   H1894     1.0  0.60636  0.01620  0.37158  1.0000
  H   H1895     1.0  0.79637  0.25642  0.47655  1.0000
  C   C1075     1.0  0.61541  0.02913  0.25313  1.0000
  C   C1076     1.0  0.89563  0.42302  0.25311  1.0000
  H   H1896     1.0  0.58853  0.03817  0.27355  1.0000
  H   H1897     1.0  0.95555  0.48458  0.36546  1.0000
  C   C1077     1.0  0.65893  0.02616  0.43681  1.0000
  H   H1898     1.0  0.67552  0.03296  0.34837  1.0000
  H   H1899     1.0  0.93195  0.31057  0.29319  1.0000
  H   H1900     1.0  0.91445  0.27831  0.30318  1.0000
  H   H1901     1.0  0.92087  0.24592  0.25782  1.0000
  H   H1902     1.0  0.89789  0.43648  0.26240  1.0000
  H   H1903     1.0  0.51631  0.10568  0.41093  1.0000
  C   C1078     1.0  0.89947  0.35854  0.25122  1.0000
  H   H1904     1.0  0.96248  0.22668  0.27793  1.0000
  H   H1905     1.0  0.87098  0.29769  0.28522  1.0000
  H   H1906     1.0  0.92454  0.48239  0.31116  1.0000
  C   C1079     1.0  0.65514  0.09232  0.25666  1.0000
  H   H1907     1.0  0.89680  0.26504  0.28928  1.0000
  H   H1908     1.0  0.67716  0.02852  0.43338  1.0000
  C   C1080     1.0  0.50280  0.05760  0.35155  1.0000
  H   H1909     1.0  0.91809  0.32431  0.27489  1.0000
  C   C1081     1.0  0.71355  0.01572  0.46288  1.0000
  C   C1082     1.0  0.92998  0.30960  0.27862  1.0000
  H   H1910     1.0  0.97113  0.44712  0.35960  1.0000
  H   H1911     1.0  0.60763  0.02276  0.29977  1.0000
  C   C1083     1.0  0.97942  0.45103  0.32187  1.0000
  H   H1912     1.0  0.97249  0.40943  0.37694  1.0000
  N   N58       1.0  0.92005  0.28757  0.27502  1.0000
  C   C1084     1.0  0.78512  0.16196  0.49260  1.0000
  C   C1085     1.0  0.49771  0.10415  0.34321  1.0000
  H   H1913     1.0  0.94857  0.35100  0.26597  1.0000
  H   H1914     1.0  0.63230  0.00679  0.42947  1.0000
  Fe  Fe119     1.0  0.86979  0.23621  0.49359  1.0000
  C   C1086     1.0  0.95994  0.40390  0.36802  1.0000
  H   H1915     1.0  0.62002  0.04702  0.25247  1.0000
  C   C1087     1.0  0.67999  0.01440  0.34909  1.0000
  H   H1916     1.0  0.86974  0.46285  0.25219  1.0000
  Fe  Fe120     1.0  0.91996  0.24911  0.48766  1.0000
  H   H1917     1.0  0.68660  0.01372  0.37654  1.0000
  H   H1918     1.0  0.53161  0.00125  0.34716  1.0000
  H   H1919     1.0  0.89533  0.27588  0.25832  1.0000
  C   C1088     1.0  0.65071  0.00771  0.42600  1.0000
  H   H1920     1.0  0.98765  0.34176  0.35166  1.0000
  H   H1921     1.0  0.67474  0.01005  0.40372  1.0000
  C   C1089     1.0  0.99105  0.35369  0.34050  1.0000
  C   C1090     1.0  0.82377  0.18840  0.49449  1.0000
  H   H1922     1.0  0.59474  0.00800  0.27215  1.0000
  H   H1923     1.0  0.50486  0.03965  0.35508  1.0000
  C   C1091     1.0  0.98057  0.24256  0.49415  1.0000
  Fe  Fe121     1.0  0.74061  0.11317  0.49411  1.0000
  H   H1924     1.0  0.96205  0.23419  0.25421  1.0000
  S   S240      1.0  0.84847  0.20424  0.49620  1.0000
  N   N59       1.0  0.64410  0.99901  0.39331  1.0000
  S   S241      1.0  0.85732  0.27329  0.49398  1.0000
  Fe  Fe122     1.0  0.73676  0.06122  0.49508  1.0000
  S   S242      1.0  0.75995  0.14646  0.49203  1.0000
  S   S243      1.0  0.70215  0.11859  0.49644  1.0000
  Fe  Fe123     1.0  0.61814  0.04015  0.65777  1.0000
  S   S244      1.0  0.64244  0.06143  0.66949  1.0000
  H   H1925     1.0  0.72828  0.04733  0.54908  1.0000
  Fe  Fe124     1.0  0.58413  0.08007  0.65030  1.0000
  S   S245      1.0  0.60645  0.10440  0.66118  1.0000
  S   S246      1.0  0.55008  0.09410  0.64056  1.0000
  Fe  Fe125     1.0  0.63508  0.08530  0.64543  1.0000
  S   S247      1.0  0.66405  0.09931  0.62705  1.0000
  Fe  Fe126     1.0  0.61160  0.07815  0.68411  1.0000
  S   S248      1.0  0.59991  0.07993  0.71406  1.0000
  S   S249      1.0  0.61215  0.06286  0.63338  1.0000
  S   S250      1.0  0.58786  0.05493  0.67341  1.0000
  C   C1092     1.0  0.89138  0.38924  0.58069  1.0000
  Fe  Fe127     1.0  0.88668  0.27786  0.51107  1.0000
  S   S251      1.0  0.89788  0.24057  0.51226  1.0000
  S   S252      1.0  0.89014  0.30326  0.53263  1.0000
  H   H1926     1.0  0.68637  0.04635  0.56575  1.0000
  C   C1093     1.0  0.86493  0.41565  0.52960  1.0000
  H   H1927     1.0  0.55111  0.13941  0.65747  1.0000
  H   H1928     1.0  0.93424  0.37254  0.56874  1.0000
  H   H1929     1.0  0.96202  0.25967  0.60725  1.0000
  H   H1930     1.0  0.89246  0.23747  0.55850  1.0000
  C   C1094     1.0  0.88458  0.37976  0.73333  1.0000
  C   C1095     1.0  0.53550  0.06653  0.69691  1.0000
  H   H1931     1.0  0.91060  0.40778  0.55906  1.0000
  H   H1932     1.0  0.54282  0.14007  0.73793  1.0000
  H   H1933     1.0  0.97926  0.35748  0.60506  1.0000
  H   H1934     1.0  0.86818  0.46036  0.66538  1.0000
  Fe  Fe128     1.0  0.70272  0.09004  0.51766  1.0000
  S   S253      1.0  0.67827  0.08711  0.54261  1.0000
  S   S254      1.0  0.74090  0.08558  0.51648  1.0000
  Fe  Fe129     1.0  0.89189  0.33835  0.63338  1.0000
  S   S255      1.0  0.92311  0.35340  0.62103  1.0000
  S   S256      1.0  0.87462  0.31398  0.61695  1.0000
  Fe  Fe130     1.0  0.89641  0.35987  0.66990  1.0000
  S   S257      1.0  0.92811  0.37571  0.65933  1.0000
  S   S258      1.0  0.88390  0.37200  0.69756  1.0000
  Fe  Fe131     1.0  0.91013  0.38502  0.63449  1.0000
  S   S259      1.0  0.91527  0.41893  0.62008  1.0000
  Fe  Fe132     1.0  0.93776  0.34275  0.64706  1.0000
  S   S260      1.0  0.97286  0.32624  0.64785  1.0000
  S   S261      1.0  0.87739  0.37110  0.64514  1.0000
  S   S262      1.0  0.90752  0.32571  0.65922  1.0000
  C   C1096     1.0  0.88052  0.46155  0.65417  1.0000
  C   C1097     1.0  0.88936  0.44174  0.64606  1.0000
  C   C1098     1.0  0.90477  0.44322  0.63122  1.0000
  C   C1099     1.0  0.91158  0.46451  0.62479  1.0000
  H   H1935     1.0  0.95215  0.49336  0.61711  1.0000
  H   H1936     1.0  0.88391  0.42541  0.65109  1.0000
  H   H1937     1.0  0.92311  0.46574  0.61310  1.0000
  H   H1938     1.0  0.94920  0.45922  0.66300  1.0000
  H   H1939     1.0  0.88259  0.38995  0.54578  1.0000
  C   C1100     1.0  0.53346  0.14018  0.68385  1.0000
  H   H1940     1.0  0.85314  0.37162  0.57465  1.0000
  H   H1941     1.0  0.97217  0.37356  0.63606  1.0000
  H   H1942     1.0  0.91263  0.41847  0.58066  1.0000
  C   C1101     1.0  0.99096  0.34725  0.65125  1.0000
  C   C1102     1.0  0.88556  0.30542  0.55616  1.0000
  C   C1103     1.0  0.87302  0.29030  0.56706  1.0000
  C   C1104     1.0  0.86987  0.29307  0.58562  1.0000
  C   C1105     1.0  0.87950  0.31072  0.59357  1.0000
  C   C1106     1.0  0.89237  0.32554  0.58270  1.0000
  C   C1107     1.0  0.89511  0.32309  0.56412  1.0000
  H   H1943     1.0  0.86548  0.27667  0.56117  1.0000
  H   H1944     1.0  0.85983  0.28150  0.59388  1.0000
  H   H1945     1.0  0.90017  0.33890  0.58865  1.0000
  H   H1946     1.0  0.90485  0.33488  0.55584  1.0000
  H   H1947     1.0  0.93617  0.40549  0.68839  1.0000
  H   H1948     1.0  0.99478  0.41582  0.70125  1.0000
  H   H1949     1.0  0.62642  0.00835  0.61455  1.0000
  H   H1950     1.0  0.50841  0.02723  0.65960  1.0000
  H   H1951     1.0  0.94848  0.39834  0.56944  1.0000
  H   H1952     1.0  0.82814  0.45639  0.61734  1.0000
  H   H1953     1.0  0.84735  0.43510  0.62751  1.0000
  C   C1108     1.0  0.93427  0.38869  0.57550  1.0000
  C   C1109     1.0  0.65246  0.03455  0.74167  1.0000
  H   H1954     1.0  0.50522  0.10623  0.72817  1.0000
  H   H1955     1.0  0.81424  0.36394  0.60233  1.0000
  H   H1956     1.0  0.87206  0.40969  0.60840  1.0000
  C   C1110     1.0  0.51724  0.11388  0.71798  1.0000
  H   H1957     1.0  0.52805  0.03754  0.71501  1.0000
  C   C1111     1.0  0.92908  0.24022  0.55573  1.0000
  H   H1958     1.0  0.94570  0.31990  0.56280  1.0000
  N   N60       1.0  0.51345  0.10625  0.69968  1.0000
  H   H1959     1.0  0.71502  0.01044  0.51191  1.0000
  C   C1112     1.0  0.66773  0.09625  0.60347  1.0000
  C   C1113     1.0  0.65152  0.08677  0.59400  1.0000
  C   C1114     1.0  0.65501  0.08452  0.57543  1.0000
  C   C1115     1.0  0.67480  0.09152  0.56596  1.0000
  C   C1116     1.0  0.69118  0.10088  0.57539  1.0000
  C   C1117     1.0  0.68754  0.10335  0.59399  1.0000
  H   H1960     1.0  0.63612  0.08140  0.60092  1.0000
  H   H1961     1.0  0.64219  0.07730  0.56834  1.0000
  H   H1962     1.0  0.70654  0.10625  0.56837  1.0000
  H   H1963     1.0  0.70024  0.11060  0.60117  1.0000
  C   C1118     1.0  0.52553  0.07927  0.64574  1.0000
  N   N61       1.0  0.96442  0.39739  0.70521  1.0000
  C   C1119     1.0  0.74832  0.99940  0.50134  1.0000
  H   H1964     1.0  0.54349  0.04700  0.65156  1.0000
  H   H1965     1.0  0.97506  0.32847  0.60096  1.0000
  C   C1120     1.0  0.95727  0.30910  0.55410  1.0000
  H   H1966     1.0  0.93724  0.38493  0.58985  1.0000
  C   C1121     1.0  0.97809  0.25658  0.50854  1.0000
  H   H1967     1.0  0.87572  0.39585  0.72969  1.0000
  H   H1968     1.0  0.89521  0.38249  0.59440  1.0000
  H   H1969     1.0  0.69599  0.05215  0.62673  1.0000
  H   H1970     1.0  0.82995  0.42094  0.60150  1.0000
  C   C1122     1.0  0.66483  0.03029  0.72359  1.0000
  H   H1971     1.0  0.73334  0.15671  0.60503  1.0000
  H   H1972     1.0  0.73009  0.01922  0.54256  1.0000
  H   H1973     1.0  0.97151  0.24184  0.58187  1.0000
  H   H1974     1.0  0.96212  0.46571  0.62609  1.0000
  H   H1975     1.0  0.96447  0.42669  0.72111  1.0000
  C   C1123     1.0  0.98221  0.34425  0.59516  1.0000
  H   H1976     1.0  0.76204  0.04041  0.56648  1.0000
  C   C1124     1.0  0.90249  0.34373  0.72494  1.0000
  H   H1977     1.0  0.56960  0.13831  0.67586  1.0000
  H   H1978     1.0  0.83547  0.34236  0.59481  1.0000
  H   H1979     1.0  0.54165  0.06909  0.68275  1.0000
  C   C1125     1.0  0.55333  0.14588  0.67077  1.0000
  H   H1980     1.0  0.97448  0.30893  0.55903  1.0000
  H   H1981     1.0  0.52719  0.10885  0.67252  1.0000
  H   H1982     1.0  0.51793  0.14916  0.67859  1.0000
  H   H1983     1.0  0.89155  0.37408  0.57268  1.0000
  H   H1984     1.0  0.93068  0.29497  0.58666  1.0000
  C   C1126     1.0  0.91179  0.40284  0.57346  1.0000
  H   H1985     1.0  0.94051  0.32170  0.53004  1.0000
  H   H1986     1.0  0.97439  0.24618  0.55841  1.0000
  H   H1987     1.0  0.68897  0.15012  0.52536  1.0000
  C   C1127     1.0  0.98663  0.36940  0.64407  1.0000
  H   H1988     1.0  0.52522  0.01196  0.62255  1.0000
  H   H1989     1.0  0.97310  0.35010  0.58306  1.0000
  H   H1990     1.0  0.54349  0.09006  0.72919  1.0000
  C   C1128     1.0  0.66083  0.02536  0.54296  1.0000
  C   C1129     1.0  0.63111  0.09231  0.73771  1.0000
  H   H1991     1.0  0.70813  0.16740  0.51189  1.0000
  H   H1992     1.0  0.50211  0.07603  0.68915  1.0000
  C   C1130     1.0  0.70210  0.03834  0.60064  1.0000
  H   H1993     1.0  0.68549  0.04655  0.59676  1.0000
  C   C1131     1.0  0.84458  0.44630  0.61531  1.0000
  C   C1132     1.0  0.54431  0.12155  0.74139  1.0000
  C   C1133     1.0  0.60973  0.08462  0.73548  1.0000
  H   H1994     1.0  0.95718  0.27623  0.54271  1.0000
  C   C1134     1.0  0.94854  0.28502  0.55417  1.0000
  H   H1995     1.0  0.76268  0.01019  0.56448  1.0000
  H   H1996     1.0  0.79097  0.02855  0.54370  1.0000
  H   H1997     1.0  0.86596  0.40491  0.51793  1.0000
  H   H1998     1.0  0.91423  0.26467  0.57420  1.0000
  H   H1999     1.0  0.92744  0.25103  0.54323  1.0000
  H   H2000     1.0  0.50284  0.10888  0.64083  1.0000
  H   H2001     1.0  0.55501  0.11264  0.71503  1.0000
  C   C1135     1.0  0.94694  0.28423  0.58726  1.0000
  H   H2002     1.0  0.65238  0.01232  0.55168  1.0000
  H   H2003     1.0  0.69318  0.00657  0.54132  1.0000
  H   H2004     1.0  0.61266  0.99747  0.73020  1.0000
  C   C1136     1.0  0.71981  0.03881  0.58444  1.0000
  H   H2005     1.0  0.89288  0.48805  0.73779  1.0000
  H   H2006     1.0  0.83321  0.39337  0.58189  1.0000
  H   H2007     1.0  0.93055  0.28809  0.55061  1.0000
  C   C1137     1.0  0.51268  0.08076  0.69995  1.0000
  C   C1138     1.0  0.98417  0.49274  0.62954  1.0000
  C   C1139     1.0  0.70979  0.05107  0.61601  1.0000
  H   H2008     1.0  0.92733  0.44026  0.66933  1.0000
  H   H2009     1.0  0.70906  0.17664  0.60240  1.0000
  H   H2010     1.0  0.94426  0.22822  0.55399  1.0000
  C   C1140     1.0  0.95715  0.37344  0.70796  1.0000
  H   H2011     1.0  0.71373  0.06857  0.61144  1.0000
  C   C1141     1.0  0.95438  0.41172  0.72018  1.0000
  H   H2012     1.0  0.65336  0.04247  0.54627  1.0000
  H   H2013     1.0  0.85837  0.45814  0.61348  1.0000
  H   H2014     1.0  0.58100  0.00930  0.66495  1.0000
  H   H2015     1.0  0.93689  0.41878  0.71723  1.0000
  H   H2016     1.0  0.83088  0.34704  0.61821  1.0000
  H   H2017     1.0  0.90885  0.21528  0.57073  1.0000
  H   H2018     1.0  0.65605  0.01366  0.61054  1.0000
  H   H2019     1.0  0.64238  0.09574  0.72611  1.0000
  H   H2020     1.0  0.65989  0.04429  0.71376  1.0000
  H   H2021     1.0  0.99371  0.27737  0.58417  1.0000
  C   C1142     1.0  0.94494  0.28748  0.62081  1.0000
  N   N62       1.0  0.71608  0.02346  0.56969  1.0000
  C   C1143     1.0  0.95867  0.43273  0.68306  1.0000
  C   C1144     1.0  0.89121  0.36455  0.71996  1.0000
  H   H2022     1.0  0.96038  0.29628  0.58725  1.0000
  C   C1145     1.0  0.75790  0.02693  0.55785  1.0000
  H   H2023     1.0  0.93202  0.24219  0.58380  1.0000
  H   H2024     1.0  0.96337  0.33796  0.53566  1.0000
  C   C1146     1.0  0.72033  0.16350  0.59569  1.0000
  H   H2025     1.0  0.84031  0.44408  0.58742  1.0000
  H   H2026     1.0  0.96972  0.31085  0.52614  1.0000
  C   C1147     1.0  0.90351  0.48421  0.63338  1.0000
  H   H2027     1.0  0.54824  0.10607  0.68809  1.0000
  H   H2028     1.0  0.76848  0.04537  0.53301  1.0000
  C   C1148     1.0  0.94647  0.27113  0.60577  1.0000
  C   C1149     1.0  0.95485  0.40738  0.68801  1.0000
  H   H2029     1.0  0.56150  0.11709  0.74628  1.0000
  N   N63       1.0  0.75791  0.16346  0.55087  1.0000
  C   C1150     1.0  0.74840  0.15631  0.56930  1.0000
  C   C1151     1.0  0.77456  0.14505  0.54367  1.0000
  C   C1152     1.0  0.77087  0.18419  0.55260  1.0000
  C   C1153     1.0  0.73949  0.16980  0.53807  1.0000
  C   C1154     1.0  0.72156  0.15236  0.53661  1.0000
  C   C1155     1.0  0.73153  0.17389  0.57854  1.0000
  C   C1156     1.0  0.78382  0.19319  0.53529  1.0000
  C   C1157     1.0  0.76977  0.12006  0.54891  1.0000
  C   C1158     1.0  0.78635  0.10377  0.53870  1.0000
  C   C1159     1.0  0.70192  0.16268  0.52579  1.0000
  C   C1160     1.0  0.79764  0.21302  0.53890  1.0000
  H   H2030     1.0  0.76257  0.15203  0.57831  1.0000
  H   H2031     1.0  0.73956  0.14048  0.56917  1.0000
  H   H2032     1.0  0.77631  0.14690  0.52885  1.0000
  H   H2033     1.0  0.79192  0.14682  0.54818  1.0000
  H   H2034     1.0  0.78344  0.18074  0.56307  1.0000
  H   H2035     1.0  0.75926  0.19865  0.55705  1.0000
  H   H2036     1.0  0.73038  0.18627  0.54134  1.0000
  H   H2037     1.0  0.74702  0.17290  0.52427  1.0000
  H   H2038     1.0  0.71402  0.14657  0.54980  1.0000
  H   H2039     1.0  0.72930  0.13755  0.52956  1.0000
  H   H2040     1.0  0.74050  0.18854  0.58226  1.0000
  H   H2041     1.0  0.71775  0.18017  0.56977  1.0000
  H   H2042     1.0  0.77175  0.19931  0.52506  1.0000
  H   H2043     1.0  0.79585  0.17990  0.52962  1.0000
  H   H2044     1.0  0.77207  0.11627  0.56337  1.0000
  H   H2045     1.0  0.75230  0.11641  0.54620  1.0000
  H   H2046     1.0  0.78264  0.08601  0.54262  1.0000
  H   H2047     1.0  0.78468  0.10667  0.52407  1.0000
  H   H2048     1.0  0.80414  0.10614  0.54173  1.0000
  H   H2049     1.0  0.61558  0.02997  0.70851  1.0000
  H   H2050     1.0  0.72510  0.04209  0.62168  1.0000
  C   C1161     1.0  0.73230  0.02945  0.55409  1.0000
  H   H2051     1.0  0.80659  0.21914  0.52628  1.0000
  H   H2052     1.0  0.78639  0.22727  0.54411  1.0000
  H   H2053     1.0  0.81064  0.20762  0.54864  1.0000
  C   C1162     1.0  0.96830  0.35618  0.69480  1.0000
  C   C1163     1.0  0.95731  0.33360  0.69729  1.0000
  H   H2054     1.0  0.96240  0.39815  0.67641  1.0000
  H   H2055     1.0  0.96661  0.36233  0.68080  1.0000
  C   C1164     1.0  0.83132  0.35555  0.60462  1.0000
  C   C1165     1.0  0.68641  0.02349  0.54521  1.0000
  H   H2056     1.0  0.68007  0.01895  0.57401  1.0000
  C   C1166     1.0  0.88767  0.48282  0.64794  1.0000
  H   H2057     1.0  0.84479  0.38499  0.61368  1.0000
  N   N64       1.0  0.86831  0.40202  0.58098  1.0000
  C   C1167     1.0  0.86444  0.41499  0.56343  1.0000
  C   C1168     1.0  0.94592  0.44125  0.66659  1.0000
  C   C1169     1.0  0.86720  0.41854  0.59556  1.0000
  H   H2058     1.0  0.65826  0.05053  0.74604  1.0000
  C   C1170     1.0  0.54122  0.10831  0.72501  1.0000
  H   H2059     1.0  0.84709  0.42364  0.56367  1.0000
  H   H2060     1.0  0.87616  0.42889  0.56125  1.0000
  H   H2061     1.0  0.87996  0.43130  0.59260  1.0000
  H   H2062     1.0  0.69360  0.17790  0.53204  1.0000
  H   H2063     1.0  0.55427  0.16453  0.66916  1.0000
  C   C1171     1.0  0.90834  0.22618  0.55819  1.0000
  H   H2064     1.0  0.96137  0.26383  0.51259  1.0000
  C   C1172     1.0  0.97208  0.25537  0.57094  1.0000
  H   H2065     1.0  0.84857  0.42618  0.52963  1.0000
  H   H2066     1.0  0.87923  0.42687  0.52809  1.0000
  H   H2067     1.0  0.63591  0.02329  0.59419  1.0000
  H   H2068     1.0  0.95259  0.44371  0.69405  1.0000
  H   H2069     1.0  0.92938  0.29916  0.62006  1.0000
  H   H2070     1.0  0.71981  0.05679  0.57906  1.0000
  H   H2071     1.0  0.73682  0.03465  0.58983  1.0000
  H   H2072     1.0  0.95154  0.43103  0.65499  1.0000
  H   H2073     1.0  0.86585  0.36375  0.60594  1.0000
  C   C1173     1.0  0.52702  0.05622  0.65101  1.0000
  C   C1174     1.0  0.95774  0.32055  0.53532  1.0000
  H   H2074     1.0  0.58711  0.02083  0.70997  1.0000
  H   H2075     1.0  0.70979  0.14967  0.59260  1.0000
  N   N65       1.0  0.95009  0.27004  0.57117  1.0000
  C   C1175     1.0  0.84409  0.43219  0.59900  1.0000
  C   C1176     1.0  0.93078  0.25459  0.57214  1.0000
  H   H2076     1.0  0.85225  0.38916  0.54726  1.0000
  C   C1177     1.0  0.86637  0.40056  0.54677  1.0000
  H   H2077     1.0  0.98665  0.35283  0.69703  1.0000
  H   H2078     1.0  0.93134  0.26108  0.60780  1.0000
  H   H2079     1.0  0.94417  0.27784  0.63395  1.0000
  H   H2080     1.0  0.68351  0.02974  0.72468  1.0000
  H   H2081     1.0  0.90814  0.21502  0.54688  1.0000
  C   C1178     1.0  0.50406  0.09104  0.64495  1.0000
  H   H2082     1.0  0.90733  0.33165  0.71494  1.0000
  C   C1179     1.0  0.69179  0.02814  0.56452  1.0000
  C   C1180     1.0  0.90655  0.33806  0.74305  1.0000
  C   C1181     1.0  0.85038  0.38519  0.58434  1.0000
  C   C1182     1.0  0.84931  0.37289  0.60314  1.0000
  H   H2083     1.0  0.96011  0.29750  0.62005  1.0000
  H   H2084     1.0  0.97694  0.43502  0.67979  1.0000
  H   H2085     1.0  0.93945  0.33580  0.69336  1.0000
  H   H2086     1.0  0.99519  0.27174  0.52888  1.0000
  H   H2087     1.0  0.77065  0.01488  0.53205  1.0000
  C   C1183     1.0  0.77283  0.02912  0.54058  1.0000
  H   H2088     1.0  0.53661  0.14699  0.69680  1.0000
  H   H2089     1.0  0.96099  0.36577  0.72133  1.0000
  S   S263      1.0  0.62963  0.00348  0.65534  1.0000
  H   H2090     1.0  0.93831  0.37354  0.70747  1.0000
  H   H2091     1.0  0.60656  0.01370  0.69121  1.0000
  H   H2092     1.0  0.66032  0.01413  0.71854  1.0000
  H   H2093     1.0  0.97512  0.47760  0.60548  1.0000
  H   H2094     1.0  0.54889  0.07134  0.70524  1.0000
  C   C1184     1.0  0.99416  0.26751  0.57208  1.0000
  H   H2095     1.0  0.50417  0.07428  0.71269  1.0000
  C   C1185     1.0  0.53109  0.11424  0.68579  1.0000
  H   H2096     1.0  0.54877  0.03139  0.69700  1.0000
  H   H2097     1.0  0.51916  0.03566  0.69256  1.0000
  C   C1186     1.0  0.53260  0.04123  0.70063  1.0000
  H   H2098     1.0  0.95771  0.32677  0.71136  1.0000
  H   H2099     1.0  0.96666  0.32112  0.68859  1.0000
  H   H2100     1.0  0.69401  0.03627  0.53564  1.0000
  H   H2101     1.0  0.65758  0.02280  0.52886  1.0000
  H   H2102     1.0  0.86402  0.30831  0.74675  1.0000
  H   H2103     1.0  0.69936  0.02087  0.60593  1.0000
  H   H2104     1.0  0.53930  0.99751  0.60409  1.0000
  C   C1187     1.0  0.50715  0.04506  0.65553  1.0000
  C   C1188     1.0  0.72035  0.99925  0.57692  1.0000
  H   H2105     1.0  0.63404  0.03699  0.73942  1.0000
  C   C1189     1.0  0.64059  0.00938  0.60417  1.0000
  C   C1190     1.0  0.96743  0.48155  0.61888  1.0000
  C   C1191     1.0  0.95156  0.39989  0.73915  1.0000
  H   H2106     1.0  0.51313  0.13248  0.71846  1.0000
  C   C1192     1.0  0.60505  0.01597  0.70577  1.0000
  C   C1193     1.0  0.98990  0.39806  0.70318  1.0000
  H   H2107     1.0  0.96726  0.39003  0.74307  1.0000
  H   H2108     1.0  0.93770  0.38813  0.73955  1.0000
  H   H2109     1.0  0.91471  0.32165  0.74675  1.0000
  H   H2110     1.0  0.84131  0.15637  0.50195  1.0000
  H   H2111     1.0  0.80793  0.13353  0.50024  1.0000
  H   H2112     1.0  0.73631  0.99728  0.58414  1.0000
  C   C1194     1.0  0.53378  0.99559  0.61846  1.0000
  H   H2113     1.0  0.99662  0.38994  0.69076  1.0000
  C   C1195     1.0  0.72710  0.99606  0.51006  1.0000
  C   C1196     1.0  0.82525  0.16472  0.49825  1.0000
  Fe  Fe133     1.0  0.61673  0.09255  0.82030  1.0000
  S   S264      1.0  0.58526  0.07415  0.82744  1.0000
  S   S265      1.0  0.63394  0.09428  0.79191  1.0000
  Fe  Fe134     1.0  0.62033  0.10636  0.85963  1.0000
  S   S266      1.0  0.58945  0.08862  0.86891  1.0000
  S   S267      1.0  0.63917  0.12570  0.87915  1.0000
  Fe  Fe135     1.0  0.60300  0.06036  0.85181  1.0000
  S   S268      1.0  0.59743  0.02607  0.86580  1.0000
  Fe  Fe136     1.0  0.57458  0.10388  0.84403  1.0000
  S   S269      1.0  0.53933  0.12024  0.84778  1.0000
  S   S270      1.0  0.63556  0.07679  0.84396  1.0000
  S   S271      1.0  0.60461  0.12358  0.83527  1.0000
  Fe  Fe137     1.0  0.62369  0.17647  0.98124  1.0000
  S   S272      1.0  0.61730  0.15024  0.96086  1.0000
  S   S273      1.0  0.60816  0.21249  0.97856  1.0000
  H   H2114     1.0  0.59125  0.07992  0.77974  1.0000
  S   S274      1.0  0.81773  0.37728  0.94241  1.0000
  Fe  Fe138     1.0  0.88661  0.36516  0.84537  1.0000
  S   S275      1.0  0.90089  0.39891  0.84694  1.0000
  S   S276      1.0  0.87247  0.34492  0.87032  1.0000
  Fe  Fe139     1.0  0.89843  0.36483  0.80416  1.0000
  S   S277      1.0  0.91258  0.39874  0.80333  1.0000
  S   S278      1.0  0.90316  0.34412  0.77924  1.0000
  Fe  Fe140     1.0  0.92955  0.38623  0.82824  1.0000
  S   S279      1.0  0.96476  0.39862  0.82793  1.0000
  Fe  Fe141     1.0  0.88298  0.40840  0.82191  1.0000
  S   S280      1.0  0.86538  0.44312  0.81960  1.0000
  S   S281      1.0  0.91716  0.35141  0.82840  1.0000
  S   S282      1.0  0.86677  0.37543  0.82100  1.0000
  Fe  Fe142     1.0  0.80328  0.36736  0.97108  1.0000
  H   H2115     1.0  0.55251  0.09724  0.78322  1.0000
  H   H2116     1.0  0.83293  0.25583  0.81639  1.0000
  C   C1197     1.0  0.87360  0.48146  0.83585  1.0000
  C   C1198     1.0  0.88283  0.46107  0.82917  1.0000
  C   C1199     1.0  0.90608  0.45509  0.83012  1.0000
  C   C1200     1.0  0.92010  0.46956  0.83757  1.0000
  C   C1201     1.0  0.65816  0.03833  0.78182  1.0000
  H   H2117     1.0  0.91344  0.43948  0.82484  1.0000
  H   H2118     1.0  0.85684  0.22096  0.80858  1.0000
  C   C1202     1.0  0.88668  0.47544  0.77306  1.0000
  H   H2119     1.0  0.83556  0.31332  0.85856  1.0000
  C   C1203     1.0  0.59146  0.20885  0.92075  1.0000
  H   H2120     1.0  0.85409  0.28519  0.83722  1.0000
  H   H2121     1.0  0.83495  0.26630  0.79338  1.0000
  C   C1204     1.0  0.86689  0.46229  0.89825  1.0000
  H   H2122     1.0  0.85999  0.32326  0.79423  1.0000
  H   H2123     1.0  0.88312  0.38587  0.76153  1.0000
  H   H2124     1.0  0.85829  0.23126  0.78537  1.0000
  C   C1205     1.0  0.83424  0.36801  0.92296  1.0000
  C   C1206     1.0  0.83821  0.38377  0.90846  1.0000
  C   C1207     1.0  0.85008  0.37716  0.89244  1.0000
  C   C1208     1.0  0.85812  0.35455  0.89055  1.0000
  C   C1209     1.0  0.85416  0.33878  0.90504  1.0000
  C   C1210     1.0  0.84251  0.34545  0.92113  1.0000
  H   H2125     1.0  0.83187  0.40124  0.90959  1.0000
  H   H2126     1.0  0.85279  0.38953  0.88148  1.0000
  H   H2127     1.0  0.86033  0.32127  0.90386  1.0000
  H   H2128     1.0  0.83987  0.33310  0.93208  1.0000
  C   C1211     1.0  0.53803  0.99926  0.87504  1.0000
  H   H2129     1.0  0.71014  0.06041  0.78775  1.0000
  C   C1212     1.0  0.82980  0.32395  0.84677  1.0000
  H   H2130     1.0  0.69096  0.02487  0.79137  1.0000
  H   H2131     1.0  0.65187  0.04037  0.79593  1.0000
  C   C1213     1.0  0.60225  0.08371  0.76811  1.0000
  C   C1214     1.0  0.55097  0.14406  0.98921  1.0000
  C   C1215     1.0  0.51098  0.12214  0.79052  1.0000
  H   H2132     1.0  0.54511  0.07158  0.84829  1.0000
  H   H2133     1.0  0.55743  0.12518  0.90663  1.0000
  C   C1216     1.0  0.63134  0.13422  0.90130  1.0000
  C   C1217     1.0  0.64514  0.14860  0.90934  1.0000
  C   C1218     1.0  0.64074  0.15434  0.92728  1.0000
  C   C1219     1.0  0.62281  0.14522  0.93769  1.0000
  C   C1220     1.0  0.60892  0.13094  0.92962  1.0000
  C   C1221     1.0  0.61275  0.12597  0.91147  1.0000
  H   H2134     1.0  0.65954  0.15519  0.90166  1.0000
  H   H2135     1.0  0.65166  0.16529  0.93320  1.0000
  H   H2136     1.0  0.59506  0.12367  0.93748  1.0000
  H   H2137     1.0  0.60161  0.11537  0.90548  1.0000
  H   H2138     1.0  0.94521  0.41904  0.88928  1.0000
  H   H2139     1.0  0.89083  0.29616  0.82870  1.0000
  H   H2140     1.0  0.68067  0.01136  0.86029  1.0000
  C   C1222     1.0  0.62359  0.09148  0.77034  1.0000
  H   H2141     1.0  0.85712  0.33092  0.76148  1.0000
  H   H2142     1.0  0.57888  0.07420  0.74937  1.0000
  C   C1223     1.0  0.53228  0.11859  0.80171  1.0000
  H   H2143     1.0  0.97373  0.48452  0.84841  1.0000
  H   H2144     1.0  0.65458  0.10158  0.75649  1.0000
  H   H2145     1.0  0.61527  0.01123  0.80287  1.0000
  C   C1224     1.0  0.97115  0.45308  0.87369  1.0000
  H   H2146     1.0  0.54692  0.14150  0.88751  1.0000
  S   S283      1.0  0.80956  0.38943  0.99349  1.0000
  H   H2147     1.0  0.67858  0.02451  0.89094  1.0000
  H   H2148     1.0  0.67706  0.04786  0.87454  1.0000
  C   C1225     1.0  0.84410  0.25621  0.80395  1.0000
  H   H2149     1.0  0.91181  0.26792  0.81106  1.0000
  H   H2150     1.0  0.69246  0.03568  0.76827  1.0000
  C   C1226     1.0  0.96607  0.35470  0.78961  1.0000
  H   H2151     1.0  0.87370  0.25687  0.81936  1.0000
  H   H2152     1.0  0.89051  0.46757  0.78648  1.0000
  H   H2153     1.0  0.52820  0.14580  0.93532  1.0000
  H   H2154     1.0  0.70390  0.24056  0.98675  1.0000
  C   C1227     1.0  0.91021  0.28571  0.80544  1.0000
  H   H2155     1.0  0.56269  0.16648  0.90750  1.0000
  C   C1228     1.0  0.49822  0.10524  0.85999  1.0000
  H   H2156     1.0  0.57748  0.07818  0.90721  1.0000
  C   C1229     1.0  0.69135  0.06087  0.78752  1.0000
  H   H2157     1.0  0.55667  0.12726  0.77986  1.0000
  C   C1230     1.0  0.65736  0.01452  0.75553  1.0000
  H   H2158     1.0  0.54839  0.20116  0.92124  1.0000
  N   N66       1.0  0.64866  0.01809  0.77456  1.0000
  C   C1231     1.0  0.52064  0.09924  0.85408  1.0000
  H   H2159     1.0  0.61566  0.00863  0.76808  1.0000
  S   S284      1.0  0.65531  0.25475  0.99591  1.0000
  H   H2160     1.0  0.97827  0.41736  0.86667  1.0000
  H   H2161     1.0  0.94237  0.40796  0.76653  1.0000
  C   C1232     1.0  0.66403  0.01763  0.86647  1.0000
  H   H2162     1.0  0.64049  0.00584  0.95020  1.0000
  C   C1233     1.0  0.89951  0.35310  0.75644  1.0000
  C   C1234     1.0  0.84799  0.23185  0.79824  1.0000
  H   H2163     1.0  0.88555  0.30120  0.77327  1.0000
  H   H2164     1.0  0.88572  0.46130  0.89756  1.0000
  H   H2165     1.0  0.87917  0.26147  0.79608  1.0000
  H   H2166     1.0  0.86052  0.46023  0.91241  1.0000
  N   N67       1.0  0.76316  0.32780  0.92937  1.0000
  C   C1235     1.0  0.74594  0.32637  0.94505  1.0000
  C   C1236     1.0  0.78686  0.32080  0.93525  1.0000
  C   C1237     1.0  0.76289  0.35233  0.92251  1.0000
  C   C1238     1.0  0.75741  0.31390  0.91434  1.0000
  C   C1239     1.0  0.75363  0.28866  0.91913  1.0000
  C   C1240     1.0  0.72100  0.33422  0.94117  1.0000
  C   C1241     1.0  0.77976  0.35762  0.90638  1.0000
  C   C1242     1.0  0.78916  0.30218  0.95061  1.0000
  C   C1243     1.0  0.81398  0.29392  0.95283  1.0000
  C   C1244     1.0  0.74522  0.27743  0.90325  1.0000
  C   C1245     1.0  0.70481  0.32861  0.95718  1.0000
  C   C1246     1.0  0.77999  0.38314  0.90206  1.0000
  H   H2167     1.0  0.75093  0.33666  0.95585  1.0000
  H   H2168     1.0  0.74581  0.30893  0.95127  1.0000
  H   H2169     1.0  0.79826  0.31538  0.92370  1.0000
  H   H2170     1.0  0.79476  0.33555  0.94020  1.0000
  H   H2171     1.0  0.76634  0.36321  0.93351  1.0000
  H   H2172     1.0  0.74590  0.35851  0.91797  1.0000
  H   H2173     1.0  0.74216  0.32183  0.90781  1.0000
  H   H2174     1.0  0.77127  0.31392  0.90362  1.0000
  H   H2175     1.0  0.74079  0.28648  0.93037  1.0000
  H   H2176     1.0  0.76989  0.27936  0.92252  1.0000
  H   H2177     1.0  0.71910  0.35286  0.93852  1.0000
  H   H2178     1.0  0.71531  0.32586  0.92962  1.0000
  H   H2179     1.0  0.77473  0.34996  0.89425  1.0000
  H   H2180     1.0  0.79729  0.35098  0.90900  1.0000
  H   H2181     1.0  0.78247  0.30925  0.96338  1.0000
  H   H2182     1.0  0.77964  0.28730  0.94859  1.0000
  H   H2183     1.0  0.53482  0.13432  0.80842  1.0000
  H   H2184     1.0  0.81503  0.28104  0.96417  1.0000
  H   H2185     1.0  0.88999  0.31692  0.81085  1.0000
  H   H2186     1.0  0.74306  0.25924  0.90691  1.0000
  H   H2187     1.0  0.72854  0.28561  0.89948  1.0000
  H   H2188     1.0  0.75767  0.27858  0.89159  1.0000
  H   H2189     1.0  0.70985  0.33657  0.96920  1.0000
  H   H2190     1.0  0.68724  0.33520  0.95439  1.0000
  H   H2191     1.0  0.70489  0.30998  0.95989  1.0000
  H   H2192     1.0  0.76293  0.39041  0.89844  1.0000
  H   H2193     1.0  0.78522  0.39178  0.91369  1.0000
  H   H2194     1.0  0.79237  0.38644  0.89064  1.0000
  H   H2195     1.0  0.52139  0.00347  0.90198  1.0000
  H   H2196     1.0  0.96536  0.33674  0.78640  1.0000
  H   H2197     1.0  0.95661  0.46580  0.87153  1.0000
  C   C1247     1.0  0.62315  0.02251  0.77457  1.0000
  C   C1248     1.0  0.94314  0.42263  0.87478  1.0000
  C   C1249     1.0  0.52230  0.22552  0.98745  1.0000
  H   H2198     1.0  0.93808  0.46502  0.83797  1.0000
  H   H2199     1.0  0.96124  0.43490  0.85133  1.0000
  H   H2200     1.0  0.82099  0.48966  0.91468  1.0000
  H   H2201     1.0  0.61850  0.03834  0.76655  1.0000
  C   C1250     1.0  0.96479  0.43131  0.86547  1.0000
  Fe  Fe143     1.0  0.76903  0.33939  0.99508  1.0000
  H   H2202     1.0  0.82821  0.48819  0.94703  1.0000
  H   H2203     1.0  0.82149  0.28613  0.94055  1.0000
  H   H2204     1.0  0.97329  0.35052  0.83927  1.0000
  H   H2205     1.0  0.90193  0.47074  0.76427  1.0000
  C   C1251     1.0  0.68430  0.03826  0.78172  1.0000
  C   C1252     1.0  0.58003  0.19174  0.93369  1.0000
  S   S285      1.0  0.65284  0.18571  0.99736  1.0000
  H   H2206     1.0  0.50629  0.17142  0.95318  1.0000
  C   C1253     1.0  0.52779  0.07643  0.85246  1.0000
  H   H2207     1.0  0.55081  0.18572  0.96909  1.0000
  S   S286      1.0  0.80733  0.33527  0.98875  1.0000
  C   C1254     1.0  0.61049  0.02534  0.79316  1.0000
  H   H2208     1.0  0.61019  0.20538  0.92070  1.0000
  H   H2209     1.0  0.86163  0.46950  0.75351  1.0000
  H   H2210     1.0  0.82401  0.30820  0.95579  1.0000
  H   H2211     1.0  0.58275  0.07718  0.93068  1.0000
  N   N68       1.0  0.64635  0.05383  0.90737  1.0000
  C   C1255     1.0  0.64477  0.04315  0.88982  1.0000
  C   C1256     1.0  0.62376  0.06619  0.91223  1.0000
  C   C1257     1.0  0.66369  0.07142  0.90454  1.0000
  C   C1258     1.0  0.65352  0.03691  0.92220  1.0000
  C   C1259     1.0  0.52590  0.01388  0.88970  1.0000
  H   H2212     1.0  0.68386  0.06432  0.80110  1.0000
  C   C1260     1.0  0.66666  0.08598  0.92061  1.0000
  C   C1261     1.0  0.60302  0.05174  0.91552  1.0000
  C   C1262     1.0  0.58122  0.06677  0.91908  1.0000
  H   H2213     1.0  0.53050  0.10464  0.81210  1.0000
  H   H2214     1.0  0.90967  0.28541  0.79082  1.0000
  C   C1263     1.0  0.68665  0.10084  0.91687  1.0000
  H   H2215     1.0  0.63699  0.05572  0.87996  1.0000
  H   H2216     1.0  0.63298  0.02939  0.89113  1.0000
  H   H2217     1.0  0.62450  0.07509  0.92473  1.0000
  H   H2218     1.0  0.61970  0.07952  0.90157  1.0000
  H   H2219     1.0  0.65956  0.08325  0.89289  1.0000
  H   H2220     1.0  0.68082  0.06323  0.90113  1.0000
  H   H2221     1.0  0.67238  0.03516  0.92261  1.0000
  H   H2222     1.0  0.64735  0.04333  0.93539  1.0000
  C   C1264     1.0  0.51234  0.05975  0.85584  1.0000
  H   H2223     1.0  0.88675  0.43409  0.75667  1.0000
  H   H2224     1.0  0.93333  0.29728  0.82397  1.0000
  H   H2225     1.0  0.93950  0.40661  0.86897  1.0000
  H   H2226     1.0  0.66972  0.07517  0.93292  1.0000
  H   H2227     1.0  0.65145  0.09763  0.92321  1.0000
  C   C1265     1.0  0.63795  0.09570  0.75499  1.0000
  C   C1266     1.0  0.86641  0.46320  0.76705  1.0000
  H   H2228     1.0  0.81275  0.31933  0.84351  1.0000
  C   C1267     1.0  0.70288  0.25805  0.99022  1.0000
  H   H2229     1.0  0.56672  0.05602  0.92206  1.0000
  C   C1268     1.0  0.51622  0.18508  0.94653  1.0000
  H   H2230     1.0  0.56867  0.11104  0.79841  1.0000
  C   C1269     1.0  0.53743  0.15265  0.97322  1.0000
  C   C1270     1.0  0.87233  0.43769  0.76650  1.0000
  H   H2231     1.0  0.85556  0.48592  0.83542  1.0000
  H   H2232     1.0  0.67600  0.01054  0.75465  1.0000
  H   H2233     1.0  0.68776  0.11178  0.92822  1.0000
  H   H2234     1.0  0.70286  0.09025  0.91521  1.0000
  H   H2235     1.0  0.68419  0.11199  0.90460  1.0000
  H   H2236     1.0  0.53283  0.17286  0.90632  1.0000
  C   C1271     1.0  0.88875  0.29846  0.81404  1.0000
  H   H2237     1.0  0.65394  0.02668  0.85592  1.0000
  C   C1272     1.0  0.86006  0.44210  0.88860  1.0000
  C   C1273     1.0  0.65074  0.99842  0.93882  1.0000
  C   C1274     1.0  0.59540  0.08032  0.75084  1.0000
  C   C1275     1.0  0.66767  0.03368  0.88099  1.0000
  H   H2238     1.0  0.83746  0.30925  0.75994  1.0000
  H   H2239     1.0  0.62641  0.01486  0.83424  1.0000
  C   C1276     1.0  0.58476  0.02600  0.79186  1.0000
  H   H2240     1.0  0.86761  0.42611  0.89497  1.0000
  H   H2241     1.0  0.84130  0.44140  0.88939  1.0000
  H   H2242     1.0  0.86636  0.44318  0.87435  1.0000
  N   N69       1.0  0.54083  0.17683  0.94323  1.0000
  Fe  Fe144     1.0  0.63633  0.22142  0.99598  1.0000
  H   H2243     1.0  0.83833  0.30460  0.79314  1.0000
  C   C1277     1.0  0.55025  0.17041  0.96125  1.0000
  C   C1278     1.0  0.54305  0.15617  0.93220  1.0000
  C   C1279     1.0  0.54581  0.16023  0.91156  1.0000
  H   H2244     1.0  0.58616  0.20738  0.90697  1.0000
  H   H2245     1.0  0.96450  0.35592  0.80432  1.0000
  C   C1280     1.0  0.54421  0.13827  0.90219  1.0000
  H   H2246     1.0  0.84082  0.33268  0.81974  1.0000
  H   H2247     1.0  0.64997  0.99942  0.75070  1.0000
  H   H2248     1.0  0.51237  0.13849  0.78249  1.0000
  H   H2249     1.0  0.51010  0.02284  0.88492  1.0000
  C   C1281     1.0  0.86690  0.26618  0.80726  1.0000
  C   C1282     1.0  0.86731  0.29826  0.77481  1.0000
  C   C1283     1.0  0.88879  0.37417  0.75142  1.0000
  H   H2250     1.0  0.56817  0.16329  0.95956  1.0000
  H   H2251     1.0  0.55806  0.14477  0.93591  1.0000
  H   H2252     1.0  0.83139  0.22495  0.79641  1.0000
  H   H2253     1.0  0.83181  0.29206  0.82249  1.0000
  C   C1284     1.0  0.99580  0.46204  0.83203  1.0000
  H   H2254     1.0  0.58677  0.19315  0.94700  1.0000
  H   H2255     1.0  0.58516  0.17454  0.92929  1.0000
  H   H2256     1.0  0.49824  0.24582  0.97159  1.0000
  H   H2257     1.0  0.57974  0.00971  0.78732  1.0000
  C   C1285     1.0  0.65376  0.99699  0.78649  1.0000
  H   H2258     1.0  0.58709  0.22637  0.92491  1.0000
  C   C1286     1.0  0.85711  0.30501  0.79338  1.0000
  N   N70       1.0  0.99332  0.46265  0.86693  1.0000
  H   H2259     1.0  0.95133  0.36465  0.78384  1.0000
  C   C1287     1.0  0.55379  0.19616  0.93485  1.0000
  H   H2260     1.0  0.85139  0.46567  0.77651  1.0000
  H   H2261     1.0  0.65178  0.05410  0.77459  1.0000
  H   H2262     1.0  0.82842  0.34193  0.85036  1.0000
  H   H2263     1.0  0.54194  0.01123  0.86350  1.0000
  C   C1288     1.0  0.93187  0.29658  0.80935  1.0000
  H   H2264     1.0  0.65598  0.00358  0.91049  1.0000
  H   H2265     1.0  0.54983  0.21161  0.94256  1.0000
  S   S287      1.0  0.76515  0.37089  0.97658  1.0000
  H   H2266     1.0  0.51774  0.04230  0.85377  1.0000
  H   H2267     1.0  0.65500  0.00282  0.87217  1.0000
  C   C1289     1.0  0.55379  0.11318  0.78999  1.0000
  H   H2268     1.0  0.60050  0.04178  0.90390  1.0000
  H   H2269     1.0  0.61435  0.04150  0.79865  1.0000
  H   H2270     1.0  0.86508  0.28030  0.77252  1.0000
  H   H2271     1.0  0.97085  0.44951  0.88841  1.0000
  C   C1290     1.0  0.72295  0.26995  0.98972  1.0000
  H   H2272     1.0  0.54588  0.04309  0.88298  1.0000
  H   H2273     1.0  0.52716  0.13170  0.90496  1.0000
  H   H2274     1.0  0.68560  0.07497  0.77805  1.0000
  H   H2275     1.0  0.50800  0.00419  0.85073  1.0000
  C   C1291     1.0  0.50068  0.23119  0.98078  1.0000
  C   C1292     1.0  0.98842  0.47604  0.81539  1.0000
  C   C1293     1.0  0.85570  0.31258  0.75990  1.0000
  H   H2276     1.0  0.53621  0.23599  0.98358  1.0000
  C   C1294     1.0  0.98903  0.35879  0.83888  1.0000
  H   H2277     1.0  0.87682  0.43035  0.77989  1.0000
  C   C1295     1.0  0.84923  0.29618  0.82528  1.0000
  N   N71       1.0  0.86574  0.29135  0.80955  1.0000
  H   H2278     1.0  0.55693  0.02377  0.90041  1.0000
  C   C1296     1.0  0.84690  0.32105  0.83083  1.0000
  C   C1297     1.0  0.94502  0.41705  0.75327  1.0000
  H   H2279     1.0  0.93193  0.31400  0.80304  1.0000
  H   H2280     1.0  0.86339  0.32642  0.83471  1.0000
  H   H2281     1.0  0.53427  0.13785  0.96563  1.0000
  C   C1298     1.0  0.64620  0.01234  0.92146  1.0000
  H   H2282     1.0  0.60513  0.04023  0.92758  1.0000
  H   H2283     1.0  0.66904  0.99778  0.94150  1.0000
  H   H2284     1.0  0.92846  0.43518  0.87281  1.0000
  H   H2285     1.0  0.57888  0.04008  0.78244  1.0000
  H   H2286     1.0  0.65466  0.00163  0.80054  1.0000
  C   C1299     1.0  0.54116  0.03187  0.89482  1.0000
  H   H2287     1.0  0.51234  0.10886  0.78069  1.0000
  H   H2288     1.0  0.57621  0.02876  0.80522  1.0000
  H   H2289     1.0  0.99328  0.46640  0.80337  1.0000
  H   H2290     1.0  0.56768  0.13582  0.98468  1.0000
  H   H2291     1.0  0.53198  0.04250  0.90499  1.0000
  H   H2292     1.0  0.89475  0.49318  0.90698  1.0000
  H   H2293     1.0  0.91782  0.48462  0.79792  1.0000
  H   H2294     1.0  0.83859  0.48345  0.88880  1.0000
  H   H2295     1.0  0.52091  0.16033  0.97862  1.0000
  H   H2296     1.0  0.98729  0.38226  0.78492  1.0000
  H   H2297     1.0  0.50031  0.17874  0.92199  1.0000
  H   H2298     1.0  0.62800  0.01181  0.91905  1.0000
  H   H2299     1.0  0.85745  0.42926  0.76249  1.0000
  H   H2300     1.0  0.98694  0.44627  0.83277  1.0000
  C   C1300     1.0  0.98818  0.36413  0.78183  1.0000
  C   C1301     1.0  0.85708  0.48497  0.88940  1.0000
  C   C1302     1.0  0.91097  0.49017  0.84389  1.0000
  H   H2301     1.0  0.94694  0.28649  0.80377  1.0000
  H   H2302     1.0  0.86385  0.48571  0.87525  1.0000
  H   H2303     1.0  0.51174  0.20629  0.92149  1.0000
  C   C1303     1.0  0.60822  0.00017  0.85723  1.0000
  H   H2304     1.0  0.95871  0.42872  0.75407  1.0000
  H   H2305     1.0  0.73911  0.26131  0.98585  1.0000
  C   C1304     1.0  0.62221  0.99931  0.84155  1.0000
  H   H2306     1.0  0.51492  0.19902  0.95590  1.0000
  H   H2307     1.0  0.96970  0.47947  0.81618  1.0000
  H   H2308     1.0  0.53146  0.11735  0.75220  1.0000
  S   S288      1.0  0.74851  0.30720  0.99286  1.0000
  C   C1305     1.0  0.72238  0.29284  0.99410  1.0000
  H   H2309     1.0  0.51225  0.07601  0.80102  1.0000
  C   C1306     1.0  0.99092  0.47559  0.84905  1.0000
  C   C1307     1.0  0.68159  0.26884  0.99494  1.0000
  C   C1308     1.0  0.50295  0.19334  0.92999  1.0000
  C   C1309     1.0  0.98918  0.38198  0.83413  1.0000
  H   H2310     1.0  0.50175  0.13450  0.82466  1.0000
  H   H2311     1.0  0.86143  0.49317  0.92553  1.0000
  H   H2312     1.0  0.98864  0.36288  0.76717  1.0000
  H   H2313     1.0  0.55381  0.15830  0.99754  1.0000
  H   H2314     1.0  0.54140  0.13148  0.99756  1.0000
  H   H2315     1.0  0.92897  0.42702  0.75013  1.0000
  Fe  Fe145     1.0  0.59544  0.86613  0.19908  1.0000
  S   S289      1.0  0.58289  0.90131  0.18980  1.0000
  S   S290      1.0  0.59139  0.86704  0.22971  1.0000
  Fe  Fe146     1.0  0.60011  0.85163  0.15935  1.0000
  S   S291      1.0  0.58807  0.88621  0.14835  1.0000
  S   S292      1.0  0.60481  0.82123  0.14123  1.0000
  Fe  Fe147     1.0  0.61016  0.89933  0.16805  1.0000
  S   S293      1.0  0.63040  0.93009  0.16212  1.0000
  Fe  Fe148     1.0  0.56182  0.88548  0.17115  1.0000
  S   S294      1.0  0.52659  0.90164  0.16718  1.0000
  S   S295      1.0  0.62457  0.86484  0.17794  1.0000
  S   S296      1.0  0.57224  0.85019  0.18149  1.0000
  Fe  Fe149     1.0  0.89789  0.58768  0.18779  1.0000
  S   S297      1.0  0.93255  0.57059  0.18252  1.0000
  S   S298      1.0  0.89245  0.60845  0.21249  1.0000
  Fe  Fe150     1.0  0.88130  0.57456  0.15127  1.0000
  S   S299      1.0  0.91496  0.55619  0.14396  1.0000
  S   S300      1.0  0.84977  0.57424  0.13464  1.0000
  Fe  Fe151     1.0  0.91383  0.54297  0.17259  1.0000
  C   C1310     1.0  0.87877  0.55795  0.01905  1.0000
  Fe  Fe152     1.0  0.93058  0.58565  0.15468  1.0000
  S   S301      1.0  0.95930  0.60313  0.13994  1.0000
  S   S302      1.0  0.87906  0.55880  0.17958  1.0000
  S   S303      1.0  0.89714  0.60519  0.16025  1.0000
  Fe  Fe153     1.0  0.80577  0.59107  0.03056  1.0000
  S   S304      1.0  0.76773  0.58873  0.03272  1.0000
  S   S305      1.0  0.83192  0.59511  0.05157  1.0000
  H   H2316     1.0  0.70947  0.75553  0.00483  1.0000
  H   H2317     1.0  0.98784  0.56603  0.20248  1.0000
  H   H2318     1.0  0.69749  0.61203  0.02399  1.0000
  H   H2319     1.0  0.94726  0.59112  0.21287  1.0000
  H   H2320     1.0  0.66228  0.61349  0.00651  1.0000
  H   H2321     1.0  0.56293  0.78557  0.15638  1.0000
  Fe  Fe154     1.0  0.60986  0.78576  0.03501  1.0000
  S   S306      1.0  0.60048  0.74984  0.03955  1.0000
  S   S307      1.0  0.61522  0.81147  0.05613  1.0000
  Fe  Fe155     1.0  0.62530  0.74128  0.01619  1.0000
  S   S308      1.0  0.65046  0.70970  0.02241  1.0000
  Fe  Fe156     1.0  0.57395  0.75829  0.01931  1.0000
  H   H2322     1.0  0.52693  0.95572  0.16976  1.0000
  S   S309      1.0  0.63584  0.77742  0.01248  1.0000
  S   S310      1.0  0.58250  0.79456  0.01584  1.0000
  C   C1311     1.0  0.59282  0.96463  0.22035  1.0000
  S   S311      1.0  0.81203  0.56129  0.01327  1.0000
  H   H2323     1.0  0.69483  0.56047  0.02429  1.0000
  H   H2324     1.0  0.54315  0.90668  0.10289  1.0000
  C   C1312     1.0  0.99303  0.55816  0.21546  1.0000
  H   H2325     1.0  0.68679  0.79259  0.08807  1.0000
  H   H2326     1.0  0.69245  0.73063  0.07677  1.0000
  H   H2327     1.0  0.78889  0.49630  0.00237  1.0000
  C   C1313     1.0  0.68348  0.67460  0.02913  1.0000
  C   C1314     1.0  0.70295  0.65981  0.02520  1.0000
  H   H2328     1.0  0.84463  0.55016  0.04410  1.0000
  S   S312      1.0  0.73913  0.64242  0.00237  1.0000
  H   H2329     1.0  0.54021  0.89575  0.12577  1.0000
  H   H2330     1.0  0.94036  0.65432  0.19959  1.0000
  C   C1315     1.0  0.75581  0.49943  0.01618  1.0000
  H   H2331     1.0  0.72276  0.49643  0.02941  1.0000
  H   H2332     1.0  0.97408  0.60022  0.20500  1.0000
  C   C1316     1.0  0.84543  0.57957  0.11138  1.0000
  C   C1317     1.0  0.86254  0.58672  0.09908  1.0000
  C   C1318     1.0  0.85801  0.59136  0.08093  1.0000
  C   C1319     1.0  0.83646  0.58864  0.07468  1.0000
  C   C1320     1.0  0.81948  0.58101  0.08691  1.0000
  C   C1321     1.0  0.82396  0.57655  0.10510  1.0000
  H   H2333     1.0  0.87924  0.58881  0.10355  1.0000
  H   H2334     1.0  0.87135  0.59716  0.07163  1.0000
  H   H2335     1.0  0.80280  0.57887  0.08240  1.0000
  H   H2336     1.0  0.81061  0.57086  0.11442  1.0000
  C   C1322     1.0  0.68682  0.69257  0.99957  1.0000
  Fe  Fe157     1.0  0.77431  0.56038  0.01373  1.0000
  C   C1323     1.0  0.88860  0.59781  0.23507  1.0000
  H   H2337     1.0  0.93724  0.58572  0.24475  1.0000
  S   S313      1.0  0.92498  0.50755  0.18177  1.0000
  C   C1324     1.0  0.61480  0.95607  0.16572  1.0000
  C   C1325     1.0  0.62598  0.97619  0.16543  1.0000
  H   H2338     1.0  0.50071  0.85453  0.13413  1.0000
  C   C1326     1.0  0.98182  0.60996  0.15242  1.0000
  C   C1327     1.0  0.82622  0.51137  0.05702  1.0000
  C   C1328     1.0  0.59118  0.95698  0.16855  1.0000
  N   N72       1.0  0.97132  0.59052  0.23331  1.0000
  Fe  Fe158     1.0  0.76622  0.61225  0.00789  1.0000
  H   H2339     1.0  0.86865  0.57372  0.02276  1.0000
  H   H2340     1.0  0.58228  0.94178  0.16825  1.0000
  C   C1329     1.0  0.99202  0.60176  0.23822  1.0000
  C   C1330     1.0  0.51010  0.86007  0.17546  1.0000
  C   C1331     1.0  0.95159  0.62596  0.21733  1.0000
  C   C1332     1.0  0.94820  0.63680  0.19861  1.0000
  H   H2341     1.0  0.52719  0.85399  0.17800  1.0000
  H   H2342     1.0  0.87956  0.56474  0.22912  1.0000
  C   C1333     1.0  0.60705  0.81910  0.11748  1.0000
  C   C1334     1.0  0.61052  0.83776  0.10554  1.0000
  C   C1335     1.0  0.61276  0.83507  0.08692  1.0000
  C   C1336     1.0  0.61113  0.81382  0.07982  1.0000
  C   C1337     1.0  0.60714  0.79524  0.09174  1.0000
  C   C1338     1.0  0.60541  0.79783  0.11038  1.0000
  H   H2343     1.0  0.61195  0.85422  0.11067  1.0000
  H   H2344     1.0  0.61593  0.84959  0.07792  1.0000
  H   H2345     1.0  0.60566  0.77881  0.08662  1.0000
  H   H2346     1.0  0.60271  0.78323  0.11940  1.0000
  C   C1339     1.0  0.52009  0.96402  0.15737  1.0000
  H   H2347     1.0  0.52585  0.95323  0.14615  1.0000
  H   H2348     1.0  0.93675  0.62695  0.19142  1.0000
  C   C1340     1.0  0.81020  0.53033  0.06541  1.0000
  C   C1341     1.0  0.51063  0.75036  0.01820  1.0000
  H   H2349     1.0  0.56065  0.97820  0.17376  1.0000
  H   H2350     1.0  0.67131  0.83258  0.08786  1.0000
  H   H2351     1.0  0.61701  0.98852  0.21117  1.0000
  C   C1342     1.0  0.65193  0.75487  0.07220  1.0000
  H   H2352     1.0  0.72848  0.75479  0.09789  1.0000
  C   C1343     1.0  0.67393  0.82375  0.07520  1.0000
  H   H2353     1.0  0.54634  0.86788  0.09238  1.0000
  C   C1344     1.0  0.64603  0.72969  0.07297  1.0000
  H   H2354     1.0  0.98169  0.53151  0.15352  1.0000
  C   C1345     1.0  0.69273  0.74937  0.07597  1.0000
  H   H2355     1.0  0.50285  0.81336  0.11078  1.0000
  H   H2356     1.0  0.65971  0.90231  0.22038  1.0000
  C   C1346     1.0  0.62339  0.72652  0.08347  1.0000
  H   H2357     1.0  0.50474  0.84090  0.10091  1.0000
  C   C1347     1.0  0.67772  0.74978  0.04571  1.0000
  H   H2358     1.0  0.68521  0.77785  0.02633  1.0000
  H   H2359     1.0  0.66030  0.83030  0.06631  1.0000
  H   H2360     1.0  0.63832  0.76490  0.06491  1.0000
  H   H2361     1.0  0.64999  0.76017  0.08618  1.0000
  H   H2362     1.0  0.68863  0.75441  0.08990  1.0000
  H   H2363     1.0  0.84456  0.60826  0.19992  1.0000
  C   C1348     1.0  0.70183  0.57595  0.01775  1.0000
  N   N73       1.0  0.67506  0.75995  0.06379  1.0000
  H   H2364     1.0  0.63086  0.90403  0.21368  1.0000
  C   C1349     1.0  0.85958  0.52366  0.07168  1.0000
  H   H2365     1.0  0.65906  0.71830  0.07957  1.0000
  H   H2366     1.0  0.64451  0.72395  0.05936  1.0000
  C   C1350     1.0  0.54761  0.89200  0.11222  1.0000
  C   C1351     1.0  0.50962  0.88071  0.22641  1.0000
  C   C1352     1.0  0.53836  0.87066  0.10589  1.0000
  H   H2367     1.0  0.51976  0.87406  0.10493  1.0000
  C   C1353     1.0  0.57887  0.97769  0.17140  1.0000
  C   C1354     1.0  0.67559  0.78542  0.06168  1.0000
  H   H2368     1.0  0.70652  0.73010  0.01893  1.0000
  C   C1355     1.0  0.85671  0.50725  0.08843  1.0000
  H   H2369     1.0  0.83086  0.71347  0.14381  1.0000
  H   H2370     1.0  0.66070  0.94831  0.24723  1.0000
  H   H2371     1.0  0.60949  0.73746  0.07746  1.0000
  H   H2372     1.0  0.61916  0.70860  0.08325  1.0000
  H   H2373     1.0  0.62443  0.73072  0.09758  1.0000
  H   H2374     1.0  0.81950  0.50873  0.04384  1.0000
  H   H2375     1.0  0.98335  0.64297  0.13899  1.0000
  C   C1356     1.0  0.54186  0.81550  0.14780  1.0000
  N   N74       1.0  0.85110  0.51582  0.05475  1.0000
  C   C1357     1.0  0.73322  0.74565  0.08558  1.0000
  H   H2376     1.0  0.85613  0.68002  0.15324  1.0000
  H   H2377     1.0  0.66305  0.56853  0.00688  1.0000
  H   H2378     1.0  0.57121  0.98743  0.09891  1.0000
  C   C1358     1.0  0.58413  0.96983  0.12294  1.0000
  H   H2379     1.0  0.83207  0.58246  0.19584  1.0000
  C   C1359     1.0  0.57675  0.94714  0.11764  1.0000
  H   H2380     1.0  0.57496  0.96432  0.22584  1.0000
  H   H2381     1.0  0.57121  0.97636  0.13302  1.0000
  H   H2382     1.0  0.53258  0.78275  0.15973  1.0000
  H   H2383     1.0  0.73212  0.72716  0.08858  1.0000
  C   C1360     1.0  0.54629  0.79448  0.16021  1.0000
  H   H2384     1.0  0.71006  0.76465  0.03603  1.0000
  H   H2385     1.0  0.55382  0.79273  0.24494  1.0000
  H   H2386     1.0  0.97690  0.52714  0.21114  1.0000
  C   C1361     1.0  0.69812  0.74689  0.01496  1.0000
  H   H2387     1.0  0.88752  0.51413  0.15863  1.0000
  H   H2388     1.0  0.87804  0.52615  0.06997  1.0000
  H   H2389     1.0  0.50784  0.89197  0.21413  1.0000
  C   C1362     1.0  0.87852  0.54018  0.03469  1.0000
  C   C1363     1.0  0.69350  0.76133  0.03111  1.0000
  H   H2390     1.0  0.54679  0.79961  0.17414  1.0000
  H   H2391     1.0  0.68335  0.73142  0.04717  1.0000
  H   H2392     1.0  0.83898  0.50256  0.09077  1.0000
  H   H2393     1.0  0.98508  0.57802  0.16765  1.0000
  H   H2394     1.0  0.97283  0.52430  0.17649  1.0000
  H   H2395     1.0  0.60406  0.95404  0.22929  1.0000
  H   H2396     1.0  0.56003  0.94941  0.11157  1.0000
  H   H2397     1.0  0.58961  0.93921  0.10808  1.0000
  H   H2398     1.0  0.57511  0.93548  0.12973  1.0000
  C   C1364     1.0  0.88192  0.57594  0.23957  1.0000
  H   H2399     1.0  0.78010  0.52239  0.05236  1.0000
  C   C1365     1.0  0.83114  0.70729  0.15806  1.0000
  N   N75       1.0  0.82810  0.64261  0.15083  1.0000
  C   C1366     1.0  0.82862  0.63386  0.17015  1.0000
  C   C1367     1.0  0.82216  0.66785  0.15064  1.0000
  C   C1368     1.0  0.81007  0.63089  0.14217  1.0000
  C   C1369     1.0  0.85126  0.63714  0.14195  1.0000
  C   C1370     1.0  0.85483  0.64486  0.12203  1.0000
  C   C1371     1.0  0.83086  0.60768  0.17366  1.0000
  C   C1372     1.0  0.79814  0.64400  0.12641  1.0000
  C   C1373     1.0  0.87984  0.64124  0.11568  1.0000
  C   C1374     1.0  0.83029  0.60119  0.19368  1.0000
  C   C1375     1.0  0.78346  0.62875  0.11710  1.0000
  H   H2400     1.0  0.81297  0.64034  0.17783  1.0000
  H   H2401     1.0  0.84320  0.64020  0.17656  1.0000
  H   H2402     1.0  0.82093  0.67531  0.13682  1.0000
  H   H2403     1.0  0.80494  0.67117  0.15729  1.0000
  H   H2404     1.0  0.79593  0.62698  0.15214  1.0000
  H   H2405     1.0  0.81720  0.61416  0.13755  1.0000
  H   H2406     1.0  0.86469  0.64376  0.14948  1.0000
  H   H2407     1.0  0.85524  0.61859  0.14245  1.0000
  H   H2408     1.0  0.84964  0.66304  0.11949  1.0000
  H   H2409     1.0  0.84510  0.63450  0.11383  1.0000
  H   H2410     1.0  0.81694  0.59939  0.16802  1.0000
  H   H2411     1.0  0.84718  0.60037  0.16778  1.0000
  H   H2412     1.0  0.81035  0.65111  0.11622  1.0000
  H   H2413     1.0  0.78677  0.65826  0.13150  1.0000
  H   H2414     1.0  0.89039  0.65221  0.12268  1.0000
  H   H2415     1.0  0.88614  0.62327  0.11822  1.0000
  H   H2416     1.0  0.88185  0.64552  0.10110  1.0000
  H   H2417     1.0  0.86239  0.50534  0.11672  1.0000
  H   H2418     1.0  0.88937  0.52514  0.03052  1.0000
  H   H2419     1.0  0.96040  0.55715  0.23008  1.0000
  H   H2420     1.0  0.79424  0.61496  0.11080  1.0000
  H   H2421     1.0  0.77071  0.62123  0.12673  1.0000
  H   H2422     1.0  0.77437  0.63880  0.10644  1.0000
  H   H2423     1.0  0.70906  0.64748  0.03530  1.0000
  H   H2424     1.0  0.85107  0.53258  0.10829  1.0000
  C   C1376     1.0  0.85389  0.53414  0.04013  1.0000
  H   H2425     1.0  0.96277  0.63635  0.22422  1.0000
  H   H2426     1.0  0.72060  0.57366  0.01897  1.0000
  H   H2427     1.0  0.96475  0.63752  0.19079  1.0000
  H   H2428     1.0  0.84321  0.71707  0.16466  1.0000
  H   H2429     1.0  0.53129  0.85432  0.21337  1.0000
  C   C1377     1.0  0.67517  0.69120  0.01641  1.0000
  H   H2430     1.0  0.88066  0.52369  0.10351  1.0000
  H   H2431     1.0  0.67360  0.59560  0.03110  1.0000
  C   C1378     1.0  0.69239  0.59535  0.02958  1.0000
  C   C1379     1.0  0.70109  0.59194  0.04834  1.0000
  H   H2432     1.0  0.62311  0.82888  0.24139  1.0000
  H   H2433     1.0  0.88624  0.54752  0.04589  1.0000
  C   C1380     1.0  0.71769  0.75412  0.07070  1.0000
  H   H2434     1.0  0.72370  0.74482  0.05874  1.0000
  C   C1381     1.0  0.67296  0.79823  0.07916  1.0000
  H   H2435     1.0  0.68203  0.74440  0.00873  1.0000
  H   H2436     1.0  0.53582  0.81833  0.24731  1.0000
  S   S314      1.0  0.75405  0.52913  0.01957  1.0000
  H   H2437     1.0  0.54566  0.87806  0.21949  1.0000
  H   H2438     1.0  0.64156  0.87948  0.22668  1.0000
  H   H2439     1.0  0.52575  0.82431  0.15248  1.0000
  H   H2440     1.0  0.81132  0.54669  0.05755  1.0000
  H   H2441     1.0  0.69362  0.60580  0.05663  1.0000
  H   H2442     1.0  0.69624  0.57550  0.05479  1.0000
  H   H2443     1.0  0.71985  0.59235  0.04781  1.0000
  C   C1382     1.0  0.53210  0.86661  0.22384  1.0000
  H   H2444     1.0  0.69160  0.79055  0.05469  1.0000
  H   H2445     1.0  0.98683  0.61648  0.24648  1.0000
  H   H2446     1.0  0.67485  0.67323  0.04222  1.0000
  H   H2447     1.0  0.89648  0.56223  0.01537  1.0000
  C   C1383     1.0  0.96140  0.60101  0.21649  1.0000
  N   N76       1.0  0.53463  0.82797  0.11449  1.0000
  C   C1384     1.0  0.54370  0.84996  0.11895  1.0000
  C   C1385     1.0  0.54164  0.80925  0.12807  1.0000
  C   C1386     1.0  0.54540  0.82182  0.09645  1.0000
  H   H2448     1.0  0.70617  0.53042  0.01050  1.0000
  C   C1387     1.0  0.50508  0.88280  0.17025  1.0000
  H   H2449     1.0  0.56640  0.88982  0.11251  1.0000
  C   C1388     1.0  0.54224  0.79745  0.09085  1.0000
  H   H2450     1.0  0.60051  0.96636  0.12936  1.0000
  H   H2451     1.0  0.53672  0.85745  0.23656  1.0000
  C   C1389     1.0  0.63386  0.90980  0.24166  1.0000
  H   H2452     1.0  0.60049  0.97885  0.09749  1.0000
  C   C1390     1.0  0.55021  0.79454  0.07132  1.0000
  H   H2453     1.0  0.56252  0.84763  0.11973  1.0000
  H   H2454     1.0  0.53729  0.85504  0.13241  1.0000
  H   H2455     1.0  0.52708  0.98088  0.15498  1.0000
  H   H2456     1.0  0.55939  0.80245  0.12474  1.0000
  H   H2457     1.0  0.56404  0.82371  0.09592  1.0000
  H   H2458     1.0  0.53873  0.83370  0.08567  1.0000
  C   C1391     1.0  0.89036  0.49625  0.16225  1.0000
  C   C1392     1.0  0.78545  0.52441  0.06604  1.0000
  H   H2459     1.0  0.85147  0.54067  0.07471  1.0000
  H   H2460     1.0  0.59406  0.95712  0.20712  1.0000
  H   H2461     1.0  0.84590  0.52974  0.02792  1.0000
  C   C1393     1.0  0.86316  0.51794  0.10519  1.0000
  H   H2462     1.0  0.52424  0.79336  0.09237  1.0000
  H   H2463     1.0  0.55233  0.78471  0.09911  1.0000
  H   H2464     1.0  0.55565  0.82682  0.14933  1.0000
  H   H2465     1.0  0.86607  0.49716  0.02055  1.0000
  H   H2466     1.0  0.83944  0.67718  0.17409  1.0000
  C   C1394     1.0  0.97656  0.56543  0.23125  1.0000
  H   H2467     1.0  0.53085  0.79471  0.12757  1.0000
  H   H2468     1.0  0.78306  0.50849  0.07430  1.0000
  H   H2469     1.0  0.64425  0.97562  0.16312  1.0000
  H   H2470     1.0  0.66097  0.75038  0.03966  1.0000
  S   S315      1.0  0.80422  0.61629  0.00671  1.0000
  S   S316      1.0  0.53643  0.75457  0.02831  1.0000
  H   H2471     1.0  0.62709  0.59252  0.00971  1.0000
  H   H2472     1.0  0.54845  0.77682  0.06785  1.0000
  H   H2473     1.0  0.53979  0.80601  0.06230  1.0000
  H   H2474     1.0  0.56830  0.79817  0.06891  1.0000
  H   H2475     1.0  0.65646  0.79561  0.08649  1.0000
  C   C1395     1.0  0.83875  0.68207  0.15965  1.0000
  H   H2476     1.0  0.93474  0.62663  0.22477  1.0000
  H   H2477     1.0  0.71986  0.77244  0.06802  1.0000
  H   H2478     1.0  0.75109  0.74874  0.08129  1.0000
  H   H2479     1.0  0.81438  0.53279  0.07930  1.0000
  H   H2480     1.0  0.81396  0.71047  0.16468  1.0000
  H   H2481     1.0  0.81396  0.60751  0.20036  1.0000
  C   C1396     1.0  0.50918  0.83008  0.11300  1.0000
  H   H2482     1.0  0.66197  0.79249  0.05289  1.0000
  H   H2483     1.0  0.69068  0.82770  0.06873  1.0000
  C   C1397     1.0  0.71452  0.66108  0.00832  1.0000
  C   C1398     1.0  0.64210  0.89816  0.22460  1.0000
  C   C1399     1.0  0.99187  0.59438  0.16491  1.0000
  H   H2484     1.0  0.63445  0.92822  0.23883  1.0000
  C   C1400     1.0  0.99099  0.63091  0.14865  1.0000
  C   C1401     1.0  0.59996  0.98894  0.21827  1.0000
  H   H2485     1.0  0.77436  0.53830  0.07195  1.0000
  H   H2486     1.0  0.61581  0.90615  0.24460  1.0000
  H   H2487     1.0  0.49701  0.82724  0.18091  1.0000
  C   C1402     1.0  0.58686  0.98677  0.10646  1.0000
  C   C1403     1.0  0.99387  0.53250  0.21395  1.0000
  H   H2488     1.0  0.87161  0.55148  0.00719  1.0000
  C   C1404     1.0  0.51019  0.74037  0.00182  1.0000
  H   H2489     1.0  0.87599  0.50008  0.23389  1.0000
  H   H2490     1.0  0.98440  0.55730  0.24330  1.0000
  H   H2491     1.0  0.51083  0.89134  0.23788  1.0000
  H   H2492     1.0  0.61486  0.98950  0.24340  1.0000
  H   H2493     1.0  0.89635  0.62918  0.24559  1.0000
  H   H2494     1.0  0.58505  0.99491  0.24488  1.0000
  H   H2495     1.0  0.99631  0.62896  0.10640  1.0000
  C   C1405     1.0  0.98743  0.52378  0.16645  1.0000
  H   H2496     1.0  0.89486  0.49876  0.21421  1.0000
  H   H2497     1.0  0.88307  0.49591  0.05062  1.0000
  N   N77       1.0  0.69661  0.57850  0.99828  1.0000
  Fe  Fe159     1.0  0.58603  0.87763  0.35712  1.0000
  S   S317      1.0  0.60018  0.84132  0.35835  1.0000
  S   S318      1.0  0.54963  0.89195  0.36166  1.0000
  Fe  Fe160     1.0  0.63223  0.89477  0.34603  1.0000
  S   S319      1.0  0.64963  0.85999  0.34641  1.0000
  S   S320      1.0  0.65170  0.92501  0.33724  1.0000
  Fe  Fe161     1.0  0.61927  0.85098  0.33227  1.0000
  S   S321      1.0  0.62347  0.83144  0.30680  1.0000
  Fe  Fe162     1.0  0.62921  0.85425  0.37243  1.0000
  S   S322      1.0  0.64487  0.83601  0.39715  1.0000
  S   S323      1.0  0.60333  0.88627  0.33040  1.0000
  S   S324      1.0  0.61354  0.88991  0.37273  1.0000
  Fe  Fe163     1.0  0.93505  0.58146  0.33468  1.0000
  S   S325      1.0  0.90714  0.60795  0.32852  1.0000
  S   S326      1.0  0.97082  0.58821  0.32521  1.0000
  Fe  Fe164     1.0  0.90265  0.54823  0.35169  1.0000
  S   S327      1.0  0.87220  0.57238  0.34697  1.0000
  S   S328      1.0  0.90277  0.51372  0.36629  1.0000
  Fe  Fe165     1.0  0.88918  0.57894  0.31942  1.0000
  S   S329      1.0  0.87119  0.57468  0.29385  1.0000
  Fe  Fe166     1.0  0.89329  0.59906  0.35671  1.0000
  S   S330      1.0  0.88274  0.62727  0.37606  1.0000
  S   S331      1.0  0.91822  0.55304  0.32398  1.0000
  S   S332      1.0  0.92241  0.57433  0.36308  1.0000
  Fe  Fe167     1.0  0.89273  0.66665  0.48138  1.0000
  S   S333      1.0  0.90535  0.70180  0.48011  1.0000
  S   S334      1.0  0.89348  0.64024  0.45961  1.0000
  Fe  Fe168     1.0  0.70501  0.86754  0.48857  1.0000
  C   C1406     1.0  0.95318  0.59286  0.24835  1.0000
  S   S335      1.0  0.69304  0.87849  0.46051  1.0000
  H   H2498     1.0  0.76637  0.94967  0.46585  1.0000
  N   N78       1.0  0.64479  0.91350  0.27463  1.0000
  H   H2499     1.0  0.73605  0.95622  0.43262  1.0000
  C   C1407     1.0  0.53579  0.88825  0.31095  1.0000
  H   H2500     1.0  0.60953  0.90673  0.27885  1.0000
  H   H2501     1.0  0.58232  0.77094  0.33060  1.0000
  C   C1408     1.0  0.87979  0.58333  0.27146  1.0000
  C   C1409     1.0  0.82912  0.52537  0.35827  1.0000
  C   C1410     1.0  0.54659  0.84597  0.31021  1.0000
  C   C1411     1.0  0.52226  0.81387  0.30779  1.0000
  C   C1412     1.0  0.88721  0.60494  0.26695  1.0000
  C   C1413     1.0  0.63924  0.97009  0.33143  1.0000
  H   H2502     1.0  0.88889  0.61638  0.27738  1.0000
  H   H2503     1.0  0.98476  0.59171  0.40306  1.0000
  H   H2504     1.0  0.96802  0.56343  0.35946  1.0000
  H   H2505     1.0  0.53782  0.84590  0.32370  1.0000
  C   C1414     1.0  0.88610  0.63044  0.39931  1.0000
  C   C1415     1.0  0.88065  0.65177  0.40640  1.0000
  C   C1416     1.0  0.88278  0.65515  0.42469  1.0000
  C   C1417     1.0  0.89016  0.63711  0.43633  1.0000
  C   C1418     1.0  0.89540  0.61569  0.42926  1.0000
  C   C1419     1.0  0.89358  0.61240  0.41092  1.0000
  H   H2506     1.0  0.87474  0.66587  0.39766  1.0000
  H   H2507     1.0  0.87863  0.67170  0.42980  1.0000
  H   H2508     1.0  0.90115  0.60158  0.43806  1.0000
  H   H2509     1.0  0.89780  0.59590  0.40579  1.0000
  H   H2510     1.0  0.77992  0.82052  0.43781  1.0000
  H   H2511     1.0  0.88139  0.52201  0.42611  1.0000
  H   H2512     1.0  0.74387  0.76791  0.44325  1.0000
  H   H2513     1.0  0.76530  0.78354  0.43209  1.0000
  H   H2514     1.0  0.87806  0.51283  0.33413  1.0000
  C   C1420     1.0  0.61531  0.84203  0.28530  1.0000
  C   C1421     1.0  0.62342  0.83043  0.27013  1.0000
  H   H2515     1.0  0.70348  0.91744  0.43624  1.0000
  H   H2516     1.0  0.56477  0.79255  0.27547  1.0000
  C   C1422     1.0  0.60030  0.86121  0.28305  1.0000
  H   H2517     1.0  0.63498  0.81550  0.27169  1.0000
  H   H2518     1.0  0.59382  0.87026  0.29455  1.0000
  C   C1423     1.0  0.52675  0.87454  0.36097  1.0000
  C   C1424     1.0  0.75994  0.93410  0.46113  1.0000
  C   C1425     1.0  0.59387  0.96473  0.34242  1.0000
  C   C1426     1.0  0.65178  0.97441  0.39683  1.0000
  C   C1427     1.0  0.53017  0.85132  0.35847  1.0000
  H   H2519     1.0  0.52277  0.88597  0.32210  1.0000
  C   C1428     1.0  0.65519  0.95308  0.26096  1.0000
  H   H2520     1.0  0.54721  0.84332  0.35800  1.0000
  C   C1429     1.0  0.67904  0.86614  0.44343  1.0000
  C   C1430     1.0  0.67604  0.84293  0.44356  1.0000
  C   C1431     1.0  0.66553  0.83402  0.42936  1.0000
  C   C1432     1.0  0.65779  0.84813  0.41487  1.0000
  C   C1433     1.0  0.66067  0.87135  0.41482  1.0000
  C   C1434     1.0  0.67120  0.88024  0.42896  1.0000
  H   H2521     1.0  0.68184  0.83181  0.45455  1.0000
  H   H2522     1.0  0.66335  0.81605  0.42961  1.0000
  H   H2523     1.0  0.65478  0.88242  0.40384  1.0000
  H   H2524     1.0  0.67305  0.89821  0.42869  1.0000
  H   H2525     1.0  0.60124  0.79374  0.32888  1.0000
  C   C1435     1.0  0.54860  0.82590  0.28212  1.0000
  C   C1436     1.0  0.63229  0.94865  0.33713  1.0000
  C   C1437     1.0  0.60963  0.94602  0.34265  1.0000
  H   H2526     1.0  0.96181  0.56301  0.26645  1.0000
  H   H2527     1.0  0.74740  0.82159  0.46415  1.0000
  H   H2528     1.0  0.60412  0.92955  0.34709  1.0000
  N   N79       1.0  0.96635  0.63396  0.38602  1.0000
  H   H2529     1.0  0.53416  0.79445  0.27519  1.0000
  H   H2530     1.0  0.66521  0.98732  0.25473  1.0000
  C   C1438     1.0  0.95230  0.64703  0.37224  1.0000
  C   C1439     1.0  0.95633  0.61151  0.39045  1.0000
  C   C1440     1.0  0.96659  0.59682  0.40619  1.0000
  H   H2531     1.0  0.57872  0.92682  0.29799  1.0000
  C   C1441     1.0  0.95364  0.63729  0.35348  1.0000
  C   C1442     1.0  0.99066  0.62947  0.37909  1.0000
  H   H2532     1.0  0.79918  0.53686  0.41515  1.0000
  C   C1443     1.0  0.95418  0.57522  0.40994  1.0000
  H   H2533     1.0  0.78070  0.85383  0.46765  1.0000
  C   C1444     1.0  0.93913  0.65229  0.34071  1.0000
  H   H2534     1.0  0.81886  0.74649  0.44343  1.0000
  H   H2535     1.0  0.76283  0.93432  0.44642  1.0000
  C   C1445     1.0  0.90987  0.53705  0.41254  1.0000
  H   H2536     1.0  0.71836  0.90909  0.40605  1.0000
  H   H2537     1.0  0.99177  0.61740  0.36827  1.0000
  H   H2538     1.0  0.71255  0.78183  0.46842  1.0000
  H   H2539     1.0  0.93761  0.61390  0.39317  1.0000
  H   H2540     1.0  0.95848  0.60093  0.37870  1.0000
  H   H2541     1.0  0.73391  0.91366  0.43509  1.0000
  C   C1446     1.0  0.53708  0.96669  0.37266  1.0000
  H   H2542     1.0  0.79894  0.81857  0.45566  1.0000
  C   C1447     1.0  0.96597  0.51543  0.35207  1.0000
  H   H2543     1.0  0.94730  0.62011  0.35420  1.0000
  H   H2544     1.0  0.85128  0.51700  0.38792  1.0000
  H   H2545     1.0  0.94851  0.52353  0.35122  1.0000
  H   H2546     1.0  0.87121  0.55228  0.26093  1.0000
  H   H2547     1.0  0.51026  0.96067  0.32026  1.0000
  C   C1448     1.0  0.86855  0.55106  0.40913  1.0000
  H   H2548     1.0  0.55965  0.95518  0.39366  1.0000
  H   H2549     1.0  0.74090  0.97707  0.45751  1.0000
  H   H2550     1.0  0.96235  0.56453  0.42073  1.0000
  C   C1449     1.0  0.55152  0.80886  0.25183  1.0000
  N   N80       1.0  0.54474  0.82343  0.30217  1.0000
  H   H2551     1.0  0.76103  0.85635  0.44996  1.0000
  H   H2552     1.0  0.79105  0.85822  0.44473  1.0000
  H   H2553     1.0  0.94492  0.66973  0.33933  1.0000
  H   H2554     1.0  0.94069  0.64518  0.32732  1.0000
  H   H2555     1.0  0.92096  0.65295  0.34560  1.0000
  H   H2556     1.0  0.72446  0.97395  0.47771  1.0000
  H   H2557     1.0  0.58136  0.88312  0.26441  1.0000
  H   H2558     1.0  0.52486  0.97521  0.38233  1.0000
  C   C1450     1.0  0.83024  0.56780  0.40461  1.0000
  C   C1451     1.0  0.98450  0.56995  0.35746  1.0000
  H   H2559     1.0  0.54950  0.79881  0.33667  1.0000
  C   C1452     1.0  0.84699  0.53561  0.38633  1.0000
  H   H2560     1.0  0.78057  0.74105  0.47262  1.0000
  C   C1453     1.0  0.83988  0.58812  0.39340  1.0000
  H   H2561     1.0  0.70997  0.81066  0.41596  1.0000
  H   H2562     1.0  0.69898  0.93860  0.49376  1.0000
  C   C1454     1.0  0.66849  0.97319  0.26484  1.0000
  H   H2563     1.0  0.88474  0.51749  0.40262  1.0000
  C   C1455     1.0  0.82169  0.60743  0.39039  1.0000
  H   H2564     1.0  0.93622  0.57956  0.41435  1.0000
  H   H2565     1.0  0.82726  0.57323  0.41856  1.0000
  H   H2566     1.0  0.81308  0.56560  0.40015  1.0000
  H   H2567     1.0  0.70844  0.99488  0.44143  1.0000
  H   H2568     1.0  0.78642  0.50250  0.43152  1.0000
  H   H2569     1.0  0.97125  0.63624  0.34744  1.0000
  H   H2570     1.0  0.86752  0.56121  0.42121  1.0000
  H   H2571     1.0  0.94647  0.57947  0.29433  1.0000
  H   H2572     1.0  0.83656  0.53659  0.43204  1.0000
  H   H2573     1.0  0.66135  0.92515  0.48737  1.0000
  C   C1456     1.0  0.89138  0.61217  0.24888  1.0000
  H   H2574     1.0  0.85346  0.59494  0.40058  1.0000
  H   H2575     1.0  0.84730  0.58301  0.38025  1.0000
  H   H2576     1.0  0.72205  0.80458  0.48039  1.0000
  H   H2577     1.0  0.71203  0.78152  0.42431  1.0000
  H   H2578     1.0  0.93029  0.66125  0.40405  1.0000
  H   H2579     1.0  0.65677  0.97204  0.32701  1.0000
  C   C1457     1.0  0.65422  0.93370  0.38804  1.0000
  C   C1458     1.0  0.82618  0.53965  0.37461  1.0000
  C   C1459     1.0  0.73447  0.93260  0.46713  1.0000
  H   H2580     1.0  0.56639  0.81890  0.24792  1.0000
  H   H2581     1.0  0.95481  0.56532  0.39782  1.0000
  H   H2582     1.0  0.99499  0.55761  0.38345  1.0000
  H   H2583     1.0  0.81424  0.61337  0.40335  1.0000
  H   H2584     1.0  0.82952  0.62187  0.38284  1.0000
  H   H2585     1.0  0.80808  0.60188  0.38249  1.0000
  H   H2586     1.0  0.53766  0.94791  0.34879  1.0000
  H   H2587     1.0  0.93398  0.64795  0.37685  1.0000
  H   H2588     1.0  0.94848  0.61104  0.25058  1.0000
  C   C1460     1.0  0.58485  0.78808  0.33497  1.0000
  H   H2589     1.0  0.67810  0.92658  0.27110  1.0000
  C   C1461     1.0  0.99058  0.58182  0.34146  1.0000
  H   H2590     1.0  0.79398  0.77898  0.47274  1.0000
  C   C1462     1.0  0.74778  0.77607  0.47592  1.0000
  C   C1463     1.0  0.78692  0.74913  0.45972  1.0000
  H   H2591     1.0  0.93702  0.60523  0.28222  1.0000
  C   C1464     1.0  0.77826  0.84971  0.45371  1.0000
  C   C1465     1.0  0.70733  0.99326  0.45623  1.0000
  C   C1466     1.0  0.71941  0.92638  0.41074  1.0000
  C   C1467     1.0  0.56337  0.80697  0.30915  1.0000
  H   H2592     1.0  0.97316  0.52086  0.36428  1.0000
  H   H2593     1.0  0.50991  0.92547  0.33753  1.0000
  C   C1468     1.0  0.76396  0.81155  0.46447  1.0000
  H   H2594     1.0  0.74617  0.75792  0.47371  1.0000
  C   C1469     1.0  0.78535  0.77528  0.46061  1.0000
  H   H2595     1.0  0.68946  0.99093  0.46086  1.0000
  H   H2596     1.0  0.95190  0.68122  0.42553  1.0000
  H   H2597     1.0  0.91140  0.54931  0.42292  1.0000
  H   H2598     1.0  0.97168  0.66493  0.39842  1.0000
  H   H2599     1.0  0.53953  0.93514  0.38929  1.0000
  H   H2600     1.0  0.54975  0.87133  0.28786  1.0000
  H   H2601     1.0  0.68703  0.96833  0.26427  1.0000
  C   C1470     1.0  0.94266  0.65149  0.41257  1.0000
  H   H2602     1.0  0.53063  0.90377  0.30276  1.0000
  C   C1471     1.0  0.50453  0.88452  0.36234  1.0000
  H   H2603     1.0  0.72958  0.91513  0.46532  1.0000
  C   C1472     1.0  0.96605  0.64773  0.40226  1.0000
  C   C1473     1.0  0.78139  0.82411  0.45197  1.0000
  H   H2604     1.0  0.76923  0.81274  0.47829  1.0000
  H   H2605     1.0  0.58476  0.95219  0.30822  1.0000
  H   H2606     1.0  0.56499  0.83366  0.27867  1.0000
  C   C1474     1.0  0.64817  0.90093  0.25760  1.0000
  C   C1475     1.0  0.66020  0.93271  0.27436  1.0000
  H   H2607     1.0  0.64777  0.92195  0.37894  1.0000
  C   C1476     1.0  0.52480  0.99057  0.33737  1.0000
  C   C1477     1.0  0.52459  0.95682  0.35772  1.0000
  H   H2608     1.0  0.65009  0.92746  0.40201  1.0000
  H   H2609     1.0  0.52009  0.81192  0.32257  1.0000
  C   C1478     1.0  0.64320  0.95754  0.38432  1.0000
  H   H2610     1.0  0.68207  0.98639  0.36856  1.0000
  C   C1479     1.0  0.80365  0.50795  0.43335  1.0000
  H   H2611     1.0  0.74222  0.81916  0.43251  1.0000
  H   H2612     1.0  0.70460  0.93721  0.40602  1.0000
  H   H2613     1.0  0.67293  0.93343  0.38551  1.0000
  H   H2614     1.0  0.51415  0.82052  0.35460  1.0000
  H   H2615     1.0  0.56469  0.84864  0.31228  1.0000
  C   C1480     1.0  0.60076  0.98623  0.33712  1.0000
  C   C1481     1.0  0.94090  0.58670  0.28125  1.0000
  H   H2616     1.0  0.70618  0.95990  0.43226  1.0000
  C   C1482     1.0  0.51146  0.83847  0.35649  1.0000
  H   H2617     1.0  0.57634  0.96247  0.34645  1.0000
  C   C1483     1.0  0.83598  0.52946  0.41869  1.0000
  C   C1484     1.0  0.77439  0.91391  0.46894  1.0000
  H   H2618     1.0  0.73447  0.79247  0.40941  1.0000
  H   H2619     1.0  0.63699  0.95905  0.26146  1.0000
  H   H2620     1.0  0.67561  0.87262  0.27642  1.0000
  C   C1485     1.0  0.69428  0.94505  0.46494  1.0000
  N   N81       1.0  0.71815  0.95001  0.45837  1.0000
  H   H2621     1.0  0.65956  0.99131  0.43040  1.0000
  C   C1486     1.0  0.72363  0.97328  0.46305  1.0000
  S   S336      1.0  0.74163  0.87209  0.49370  1.0000
  C   C1487     1.0  0.62012  0.92151  0.27785  1.0000
  H   H2622     1.0  0.91515  0.54473  0.39922  1.0000
  C   C1488     1.0  0.65107  0.89693  0.28997  1.0000
  H   H2623     1.0  0.92749  0.66817  0.43580  1.0000
  C   C1489     1.0  0.71919  0.92516  0.43110  1.0000
  C   C1490     1.0  0.61409  0.93515  0.29465  1.0000
  C   C1491     1.0  0.67473  0.88370  0.28785  1.0000
  H   H2624     1.0  0.68154  0.95489  0.45672  1.0000
  C   C1492     1.0  0.94460  0.66472  0.42915  1.0000
  H   H2625     1.0  0.55233  0.89059  0.31659  1.0000
  C   C1493     1.0  0.58864  0.94208  0.29633  1.0000
  C   C1494     1.0  0.67961  0.86849  0.30448  1.0000
  C   C1495     1.0  0.54960  0.80377  0.27203  1.0000
  C   C1496     1.0  0.72014  0.94900  0.43832  1.0000
  C   C1497     1.0  0.56518  0.80489  0.32974  1.0000
  C   C1498     1.0  0.81156  0.73978  0.45650  1.0000
  H   H2626     1.0  0.63823  0.88407  0.29234  1.0000
  H   H2627     1.0  0.65090  0.90569  0.30263  1.0000
  H   H2628     1.0  0.66031  0.93917  0.28798  1.0000
  C   C1499     1.0  0.59325  0.86846  0.26594  1.0000
  H   H2629     1.0  0.73337  0.93399  0.48182  1.0000
  H   H2630     1.0  0.96520  0.60595  0.41868  1.0000
  H   H2631     1.0  0.61834  0.92494  0.30695  1.0000
  H   H2632     1.0  0.62329  0.95084  0.29404  1.0000
  H   H2633     1.0  0.68856  0.89535  0.28582  1.0000
  H   H2634     1.0  0.69145  0.92700  0.46322  1.0000
  H   H2635     1.0  0.62459  0.95656  0.38654  1.0000
  H   H2636     1.0  0.68877  0.96719  0.48773  1.0000
  H   H2637     1.0  0.52185  0.79639  0.30331  1.0000
  C   C1500     1.0  0.55083  0.94790  0.38299  1.0000
  H   H2638     1.0  0.93569  0.63519  0.41713  1.0000
  H   H2639     1.0  0.79261  0.91586  0.46510  1.0000
  C   C1501     1.0  0.72193  0.79648  0.42060  1.0000
  C   C1502     1.0  0.49888  0.96136  0.33264  1.0000
  C   C1503     1.0  0.73387  0.80338  0.43666  1.0000
  C   C1504     1.0  0.87722  0.56890  0.25764  1.0000
  H   H2640     1.0  0.58333  0.95262  0.28438  1.0000
  H   H2641     1.0  0.67992  0.87883  0.31629  1.0000
  H   H2642     1.0  0.66652  0.85600  0.30700  1.0000
  H   H2643     1.0  0.69642  0.85902  0.30258  1.0000
  H   H2644     1.0  0.64377  0.88298  0.26023  1.0000
  H   H2645     1.0  0.77692  0.74394  0.44886  1.0000
  H   H2646     1.0  0.56383  0.93920  0.37396  1.0000
  N   N82       1.0  0.76175  0.78709  0.46075  1.0000
  C   C1505     1.0  0.75172  0.78444  0.44304  1.0000
  C   C1506     1.0  0.72306  0.78602  0.47932  1.0000
  H   H2647     1.0  0.82418  0.55767  0.36965  1.0000
  H   H2648     1.0  0.77219  0.91280  0.48374  1.0000
  H   H2649     1.0  0.97856  0.64010  0.41178  1.0000
  H   H2650     1.0  0.87667  0.56182  0.39821  1.0000
  C   C1507     1.0  0.68773  0.94919  0.48486  1.0000
  N   N83       1.0  0.84507  0.54592  0.40435  1.0000
  H   H2651     1.0  0.51472  0.94319  0.36441  1.0000
  H   H2652     1.0  0.53552  0.83777  0.27604  1.0000
  H   H2653     1.0  0.54910  0.97900  0.36697  1.0000
  H   H2654     1.0  0.72065  0.80768  0.44719  1.0000
  H   H2655     1.0  0.95677  0.66498  0.37062  1.0000
  H   H2656     1.0  0.56129  0.78955  0.30509  1.0000
  H   H2657     1.0  0.58023  0.81166  0.30314  1.0000
  C   C1508     1.0  0.53774  0.86772  0.29945  1.0000
  H   H2658     1.0  0.80278  0.51801  0.44539  1.0000
  H   H2659     1.0  0.79610  0.78188  0.44905  1.0000
  H   H2660     1.0  0.86156  0.54205  0.37793  1.0000
  H   H2661     1.0  0.95527  0.65464  0.43883  1.0000
  H   H2662     1.0  0.52094  0.86616  0.29422  1.0000
  H   H2663     1.0  0.83131  0.50703  0.36231  1.0000
  H   H2664     1.0  0.56833  0.82135  0.33498  1.0000
  H   H2665     1.0  0.58585  0.78703  0.34970  1.0000
  H   H2666     1.0  0.64614  0.96849  0.41061  1.0000
  H   H2667     1.0  0.73535  0.93322  0.40483  1.0000
  H   H2668     1.0  0.82209  0.74440  0.46729  1.0000
  H   H2669     1.0  0.80819  0.81689  0.49742  1.0000
  H   H2670     1.0  0.60455  0.98624  0.37569  1.0000
  H   H2671     1.0  0.64738  0.96235  0.37011  1.0000
  C   C1509     1.0  0.88547  0.53021  0.41272  1.0000
  H   H2672     1.0  0.76956  0.89795  0.46372  1.0000
  H   H2673     1.0  0.75662  0.77629  0.48855  1.0000
  H   H2674     1.0  0.81231  0.72101  0.45646  1.0000
  C   C1510     1.0  0.66339  0.94315  0.48989  1.0000
  H   H2675     1.0  0.67066  0.97220  0.39634  1.0000
  H   H2676     1.0  0.53992  0.98172  0.33053  1.0000
  H   H2677     1.0  0.61377  0.93231  0.26642  1.0000
  C   C1511     1.0  0.81171  0.52215  0.41682  1.0000
  N   N84       1.0  0.50973  0.97347  0.34676  1.0000
  C   C1512     1.0  0.95957  0.58172  0.26680  1.0000
  H   H2678     1.0  0.81013  0.53555  0.38199  1.0000
  H   H2679     1.0  0.50169  0.90213  0.36521  1.0000
  H   H2680     1.0  0.65117  0.95422  0.48207  1.0000
  H   H2681     1.0  0.97545  0.58808  0.27105  1.0000
  H   H2682     1.0  0.81164  0.51136  0.40527  1.0000
  H   H2683     1.0  0.92533  0.57858  0.27845  1.0000
  H   H2684     1.0  0.81392  0.52831  0.35026  1.0000
  H   H2685     1.0  0.50159  0.83304  0.28758  1.0000
  C   C1513     1.0  0.50065  0.82802  0.30201  1.0000
  C   C1514     1.0  0.61672  0.83797  0.25292  1.0000
  H   H2686     1.0  0.99406  0.66073  0.36172  1.0000
  H   H2687     1.0  0.97662  0.52140  0.34027  1.0000
  H   H2688     1.0  0.84687  0.51333  0.41916  1.0000
  H   H2689     1.0  0.84414  0.53024  0.34969  1.0000
  H   H2690     1.0  0.92149  0.52183  0.41535  1.0000
  H   H2691     1.0  0.66642  0.90001  0.25283  1.0000
  H   H2692     1.0  0.78024  0.98281  0.49225  1.0000
  H   H2693     1.0  0.98247  0.67940  0.44866  1.0000
  C   C1515     1.0  0.62345  0.98898  0.33155  1.0000
  C   C1516     1.0  0.60142  0.85696  0.25076  1.0000
  H   H2694     1.0  0.98069  0.69895  0.46614  1.0000
  H   H2695     1.0  0.66317  0.97928  0.27827  1.0000
  H   H2696     1.0  0.84315  0.79173  0.49140  1.0000
  H   H2697     1.0  0.49802  0.84335  0.30988  1.0000
  C   C1517     1.0  0.99223  0.69097  0.45571  1.0000
  H   H2698     1.0  0.57251  0.99314  0.39804  1.0000
  C   C1518     1.0  0.87977  0.49584  0.34026  1.0000
  H   H2699     1.0  0.61277  0.99099  0.40833  1.0000
  H   H2700     1.0  0.97945  0.73220  0.49770  1.0000
  C   C1519     1.0  0.71240  0.77576  0.49674  1.0000
  H   H2701     1.0  0.71249  0.75706  0.49639  1.0000
  Fe  Fe169     1.0  0.57486  0.84873  0.66835  1.0000
  S   S337      1.0  0.61182  0.84282  0.67444  1.0000
  S   S338      1.0  0.55603  0.81823  0.66366  1.0000
  Fe  Fe170     1.0  0.57566  0.89898  0.66778  1.0000
  S   S339      1.0  0.61245  0.89683  0.67374  1.0000
  S   S340      1.0  0.55544  0.93259  0.66462  1.0000
  Fe  Fe171     1.0  0.61731  0.87071  0.65312  1.0000
  S   S341      1.0  0.64828  0.87197  0.63307  1.0000
  Fe  Fe172     1.0  0.60353  0.86955  0.69447  1.0000
  S   S342      1.0  0.61956  0.87387  0.72095  1.0000
  S   S343      1.0  0.58095  0.87477  0.64588  1.0000
  S   S344      1.0  0.56623  0.87339  0.68970  1.0000
  Fe  Fe173     1.0  0.88999  0.66456  0.52360  1.0000
  S   S345      1.0  0.90162  0.69980  0.52437  1.0000
  S   S346      1.0  0.89004  0.63596  0.54598  1.0000
  C   C1520     1.0  0.98825  0.59112  0.65949  1.0000
  H   H2702     1.0  0.96292  0.69613  0.57283  1.0000
  H   H2703     1.0  0.64252  0.96864  0.62085  1.0000
  H   H2704     1.0  0.70443  0.97853  0.55875  1.0000
  C   C1521     1.0  0.51011  0.97313  0.64149  1.0000
  H   H2705     1.0  0.69454  0.78281  0.49872  1.0000
  Fe  Fe174     1.0  0.69235  0.85952  0.52947  1.0000
  S   S347      1.0  0.72816  0.86313  0.53652  1.0000
  S   S348      1.0  0.66107  0.85644  0.54918  1.0000
  C   C1522     1.0  0.81484  0.60191  0.65032  1.0000
  C   C1523     1.0  0.80716  0.57555  0.61663  1.0000
  H   H2706     1.0  0.80381  0.56235  0.62749  1.0000
  C   C1524     1.0  0.72967  0.95757  0.57213  1.0000
  H   H2707     1.0  0.70684  0.99474  0.58717  1.0000
  C   C1525     1.0  0.89046  0.50653  0.73952  1.0000
  Fe  Fe175     1.0  0.89980  0.58798  0.64804  1.0000
  S   S349      1.0  0.91409  0.55639  0.63519  1.0000
  S   S350      1.0  0.88720  0.61958  0.63123  1.0000
  Fe  Fe176     1.0  0.91054  0.56831  0.68671  1.0000
  S   S351      1.0  0.92547  0.53583  0.67556  1.0000
  S   S352      1.0  0.91970  0.56768  0.71601  1.0000
  Fe  Fe177     1.0  0.94200  0.55756  0.65397  1.0000
  S   S353      1.0  0.97915  0.55018  0.64698  1.0000
  Fe  Fe178     1.0  0.89598  0.53794  0.65826  1.0000
  S   S354      1.0  0.87524  0.50746  0.65773  1.0000
  S   S355      1.0  0.92891  0.59005  0.66570  1.0000
  S   S356      1.0  0.87955  0.56943  0.67037  1.0000
  H   H2708     1.0  0.74887  0.58990  0.61370  1.0000
  C   C1526     1.0  0.78525  0.59155  0.61508  1.0000
  H   H2709     1.0  0.78272  0.60323  0.62606  1.0000
  C   C1527     1.0  0.61484  0.81002  0.55448  1.0000
  H   H2710     1.0  0.62809  0.79996  0.54662  1.0000
  Fe  Fe179     1.0  0.73935  0.84136  0.51319  1.0000
  C   C1528     1.0  0.55406  0.82881  0.60926  1.0000
  H   H2711     1.0  0.59734  0.77325  0.60161  1.0000
  H   H2712     1.0  0.97282  0.59808  0.65374  1.0000
  C   C1529     1.0  0.89112  0.63265  0.56969  1.0000
  C   C1530     1.0  0.89774  0.61114  0.57748  1.0000
  C   C1531     1.0  0.89759  0.60711  0.59620  1.0000
  C   C1532     1.0  0.89025  0.62444  0.60750  1.0000
  C   C1533     1.0  0.88395  0.64605  0.59972  1.0000
  C   C1534     1.0  0.88460  0.65022  0.58096  1.0000
  H   H2713     1.0  0.90290  0.59742  0.56893  1.0000
  H   H2714     1.0  0.90281  0.59047  0.60185  1.0000
  H   H2715     1.0  0.87823  0.65964  0.60825  1.0000
  H   H2716     1.0  0.87930  0.66681  0.57524  1.0000
  H   H2717     1.0  0.86159  0.53120  0.59507  1.0000
  C   C1535     1.0  0.59636  0.81544  0.58551  1.0000
  H   H2718     1.0  0.62604  0.92107  0.70813  1.0000
  C   C1536     1.0  0.64426  0.95000  0.69764  1.0000
  H   H2719     1.0  0.87759  0.53622  0.72356  1.0000
  H   H2720     1.0  0.81245  0.61942  0.64439  1.0000
  H   H2721     1.0  0.50204  0.93538  0.62440  1.0000
  H   H2722     1.0  0.93276  0.61201  0.73309  1.0000
  C   C1537     1.0  0.97333  0.59728  0.71956  1.0000
  C   C1538     1.0  0.82852  0.78479  0.49849  1.0000
  H   H2723     1.0  0.98974  0.55144  0.72414  1.0000
  H   H2724     1.0  0.97080  0.59728  0.70501  1.0000
  H   H2725     1.0  0.73353  0.98390  0.55180  1.0000
  H   H2726     1.0  0.97546  0.65575  0.59161  1.0000
  H   H2727     1.0  0.50875  0.97794  0.67742  1.0000
  H   H2728     1.0  0.63594  0.96189  0.73278  1.0000
  H   H2729     1.0  0.57943  0.85169  0.73685  1.0000
  C   C1539     1.0  0.57473  0.95343  0.66005  1.0000
  C   C1540     1.0  0.59670  0.94708  0.65352  1.0000
  C   C1541     1.0  0.61341  0.96254  0.65247  1.0000
  S   S357      1.0  0.96670  0.68521  0.50612  1.0000
  C   C1542     1.0  0.56890  0.97600  0.66399  1.0000
  H   H2730     1.0  0.60088  0.93013  0.64938  1.0000
  H   H2731     1.0  0.63072  0.95701  0.64867  1.0000
  H   H2732     1.0  0.70550  0.97179  0.52373  1.0000
  C   C1543     1.0  0.65136  0.86732  0.60977  1.0000
  C   C1544     1.0  0.67333  0.86442  0.60150  1.0000
  C   C1545     1.0  0.67667  0.86130  0.58301  1.0000
  C   C1546     1.0  0.65802  0.86107  0.57247  1.0000
  C   C1547     1.0  0.63604  0.86428  0.58071  1.0000
  C   C1548     1.0  0.63269  0.86743  0.59920  1.0000
  H   H2733     1.0  0.68794  0.86444  0.60947  1.0000
  H   H2734     1.0  0.69369  0.85886  0.57693  1.0000
  H   H2735     1.0  0.62153  0.86466  0.57261  1.0000
  H   H2736     1.0  0.61573  0.87020  0.60524  1.0000
  H   H2737     1.0  0.56647  0.74943  0.64305  1.0000
  C   C1549     1.0  0.52642  0.81932  0.66135  1.0000
  C   C1550     1.0  0.49975  0.93438  0.63921  1.0000
  H   H2738     1.0  0.98797  0.67035  0.54493  1.0000
  H   H2739     1.0  0.52555  0.96695  0.64854  1.0000
  H   H2740     1.0  0.52886  0.78596  0.65130  1.0000
  H   H2741     1.0  0.61097  0.78331  0.57469  1.0000
  N   N85       1.0  0.82889  0.58637  0.61956  1.0000
  C   C1551     1.0  0.82965  0.61000  0.61091  1.0000
  C   C1552     1.0  0.83247  0.58715  0.63923  1.0000
  C   C1553     1.0  0.84873  0.57202  0.61157  1.0000
  C   C1554     1.0  0.83124  0.61159  0.59018  1.0000
  C   C1555     1.0  0.85257  0.54757  0.62003  1.0000
  C   C1556     1.0  0.82523  0.63571  0.58272  1.0000
  H   H2742     1.0  0.98815  0.50889  0.62217  1.0000
  H   H2743     1.0  0.84450  0.61825  0.61524  1.0000
  H   H2744     1.0  0.81485  0.62118  0.61548  1.0000
  H   H2745     1.0  0.83247  0.56990  0.64595  1.0000
  H   H2746     1.0  0.84956  0.59311  0.64100  1.0000
  H   H2747     1.0  0.86480  0.58041  0.61251  1.0000
  H   H2748     1.0  0.84685  0.57038  0.59708  1.0000
  H   H2749     1.0  0.80893  0.56625  0.60412  1.0000
  H   H2750     1.0  0.84890  0.60672  0.58519  1.0000
  H   H2751     1.0  0.81983  0.60008  0.58469  1.0000
  H   H2752     1.0  0.94041  0.64092  0.69790  1.0000
  H   H2753     1.0  0.58795  0.92605  0.61752  1.0000
  C   C1557     1.0  0.51756  0.97661  0.62144  1.0000
  H   H2754     1.0  0.82843  0.63662  0.56798  1.0000
  H   H2755     1.0  0.80704  0.64076  0.58592  1.0000
  H   H2756     1.0  0.83588  0.64784  0.58835  1.0000
  C   C1558     1.0  0.61352  0.99418  0.71577  1.0000
  H   H2757     1.0  0.81108  0.73547  0.51799  1.0000
  C   C1559     1.0  0.65815  0.93504  0.68448  1.0000
  C   C1560     1.0  0.88004  0.51755  0.72271  1.0000
  S   S358      1.0  0.70294  0.83626  0.50711  1.0000
  H   H2758     1.0  0.57991  0.81362  0.57956  1.0000
  H   H2759     1.0  0.77607  0.76058  0.52396  1.0000
  H   H2760     1.0  0.55230  0.83063  0.59467  1.0000
  H   H2761     1.0  0.57906  0.92488  0.69845  1.0000
  H   H2762     1.0  0.54581  0.81341  0.61467  1.0000
  C   C1561     1.0  0.56865  0.75573  0.62886  1.0000
  H   H2763     1.0  0.58195  0.97880  0.71925  1.0000
  H   H2764     1.0  0.93626  0.61118  0.69992  1.0000
  H   H2765     1.0  0.54909  0.99159  0.62625  1.0000
  H   H2766     1.0  0.66317  0.91825  0.69104  1.0000
  H   H2767     1.0  0.83644  0.53913  0.62220  1.0000
  S   S359      1.0  0.85580  0.74418  0.49940  1.0000
  H   H2768     1.0  0.56941  0.78598  0.60134  1.0000
  H   H2769     1.0  0.54187  0.84854  0.63198  1.0000
  H   H2770     1.0  0.52677  0.96097  0.61654  1.0000
  C   C1562     1.0  0.54077  0.84927  0.61728  1.0000
  H   H2771     1.0  0.67042  0.97218  0.61165  1.0000
  H   H2772     1.0  0.55151  0.75945  0.62366  1.0000
  H   H2773     1.0  0.59820  0.77265  0.63365  1.0000
  C   C1563     1.0  0.96411  0.63432  0.53339  1.0000
  C   C1564     1.0  0.75826  0.95857  0.50527  1.0000
  C   C1565     1.0  0.97330  0.62207  0.74541  1.0000
  H   H2774     1.0  0.53863  0.92130  0.70575  1.0000
  H   H2775     1.0  0.90241  0.64909  0.71346  1.0000
  N   N86       1.0  0.60787  0.95074  0.71900  1.0000
  N   N87       1.0  0.96867  0.64960  0.56437  1.0000
  C   C1566     1.0  0.96522  0.62945  0.55382  1.0000
  C   C1567     1.0  0.97063  0.64173  0.58374  1.0000
  C   C1568     1.0  0.94875  0.66678  0.56202  1.0000
  H   H2776     1.0  0.59593  0.97470  0.69804  1.0000
  H   H2777     1.0  0.52258  0.84931  0.61440  1.0000
  C   C1569     1.0  0.94721  0.68693  0.57435  1.0000
  C   C1570     1.0  0.51760  0.80045  0.65478  1.0000
  C   C1571     1.0  0.95291  0.62599  0.61309  1.0000
  C   C1572     1.0  0.92735  0.70388  0.56982  1.0000
  H   H2778     1.0  0.94885  0.62218  0.55828  1.0000
  C   C1573     1.0  0.59890  0.97425  0.71256  1.0000
  H   H2779     1.0  0.98076  0.63345  0.70029  1.0000
  C   C1574     1.0  0.88460  0.58051  0.74078  1.0000
  H   H2780     1.0  0.93240  0.65848  0.56373  1.0000
  H   H2781     1.0  0.94919  0.67438  0.54808  1.0000
  H   H2782     1.0  0.83867  0.61195  0.66887  1.0000
  H   H2783     1.0  0.96147  0.58505  0.72590  1.0000
  H   H2784     1.0  0.87148  0.51571  0.61476  1.0000
  H   H2785     1.0  0.65938  0.94551  0.50431  1.0000
  H   H2786     1.0  0.97863  0.61563  0.55632  1.0000
  H   H2787     1.0  0.94446  0.68106  0.58856  1.0000
  C   C1575     1.0  0.94937  0.63160  0.59328  1.0000
  H   H2788     1.0  0.80935  0.61387  0.67710  1.0000
  H   H2789     1.0  0.49780  0.89403  0.62247  1.0000
  H   H2790     1.0  0.95525  0.64163  0.61997  1.0000
  C   C1576     1.0  0.58916  0.85668  0.74749  1.0000
  H   H2791     1.0  0.92997  0.71137  0.55600  1.0000
  H   H2792     1.0  0.77081  0.94443  0.50402  1.0000
  H   H2793     1.0  0.92612  0.71780  0.57914  1.0000
  N   N88       1.0  0.65478  0.94357  0.60204  1.0000
  C   C1577     1.0  0.66102  0.94375  0.58223  1.0000
  H   H2794     1.0  0.67377  0.94331  0.67958  1.0000
  C   C1578     1.0  0.67356  0.92990  0.61149  1.0000
  C   C1579     1.0  0.63301  0.93230  0.60691  1.0000
  C   C1580     1.0  0.61136  0.94305  0.59841  1.0000
  C   C1581     1.0  0.66484  0.92037  0.57394  1.0000
  C   C1582     1.0  0.67234  0.93012  0.63221  1.0000
  C   C1583     1.0  0.73723  0.95521  0.51424  1.0000
  C   C1584     1.0  0.65334  0.96749  0.60829  1.0000
  C   C1585     1.0  0.59138  0.92831  0.60284  1.0000
  C   C1586     1.0  0.67054  0.92306  0.55384  1.0000
  C   C1587     1.0  0.69264  0.91619  0.63987  1.0000
  H   H2795     1.0  0.67689  0.95261  0.57923  1.0000
  H   H2796     1.0  0.64791  0.95357  0.57446  1.0000
  S   S360      1.0  0.86448  0.67425  0.50250  1.0000
  H   H2797     1.0  0.64668  0.81498  0.65088  1.0000
  H   H2798     1.0  0.69042  0.93570  0.60649  1.0000
  H   H2799     1.0  0.67383  0.91172  0.60854  1.0000
  H   H2800     1.0  0.63507  0.91412  0.60394  1.0000
  H   H2801     1.0  0.62899  0.93218  0.62153  1.0000
  H   H2802     1.0  0.61371  0.94504  0.58368  1.0000
  H   H2803     1.0  0.50521  0.99015  0.64645  1.0000
  H   H2804     1.0  0.67933  0.91013  0.57973  1.0000
  H   H2805     1.0  0.64938  0.91085  0.57601  1.0000
  H   H2806     1.0  0.65686  0.92248  0.63816  1.0000
  H   H2807     1.0  0.67239  0.94755  0.63678  1.0000
  H   H2808     1.0  0.97537  0.49678  0.64256  1.0000
  C   C1588     1.0  0.58783  0.93678  0.72406  1.0000
  H   H2809     1.0  0.56492  0.95186  0.70346  1.0000
  C   C1589     1.0  0.62200  0.93927  0.70428  1.0000
  H   H2810     1.0  0.61205  0.93924  0.69222  1.0000
  H   H2811     1.0  0.59499  0.91141  0.59725  1.0000
  C   C1590     1.0  0.62085  0.95197  0.73555  1.0000
  H   H2812     1.0  0.57587  0.93657  0.59696  1.0000
  H   H2813     1.0  0.65630  0.93237  0.54694  1.0000
  H   H2814     1.0  0.68625  0.93213  0.55098  1.0000
  H   H2815     1.0  0.67350  0.90604  0.54835  1.0000
  H   H2816     1.0  0.70882  0.92340  0.63493  1.0000
  H   H2817     1.0  0.69129  0.91622  0.65466  1.0000
  H   H2818     1.0  0.69293  0.89831  0.63611  1.0000
  N   N89       1.0  0.59485  0.80926  0.60536  1.0000
  C   C1591     1.0  0.57930  0.82733  0.61409  1.0000
  C   C1592     1.0  0.61856  0.80886  0.61202  1.0000
  C   C1593     1.0  0.61455  0.80143  0.57408  1.0000
  C   C1594     1.0  0.62082  0.81470  0.63165  1.0000
  C   C1595     1.0  0.64523  0.80968  0.63712  1.0000
  H   H2819     1.0  0.58609  0.84423  0.61096  1.0000
  H   H2820     1.0  0.57884  0.82505  0.62883  1.0000
  H   H2821     1.0  0.62787  0.79210  0.60995  1.0000
  H   H2822     1.0  0.62872  0.82141  0.60405  1.0000
  H   H2823     1.0  0.59987  0.83359  0.58307  1.0000
  H   H2824     1.0  0.78606  0.60205  0.60235  1.0000
  H   H2825     1.0  0.63193  0.80266  0.57855  1.0000
  H   H2826     1.0  0.61635  0.83307  0.63303  1.0000
  H   H2827     1.0  0.60956  0.80522  0.64122  1.0000
  C   C1596     1.0  0.86880  0.53289  0.60817  1.0000
  H   H2828     1.0  0.88550  0.54035  0.60598  1.0000
  H   H2829     1.0  0.65715  0.81922  0.62804  1.0000
  H   H2830     1.0  0.61896  0.82806  0.55303  1.0000
  H   H2831     1.0  0.91110  0.69548  0.57105  1.0000
  Fe  Fe180     1.0  0.72744  0.89332  0.51645  1.0000
  C   C1597     1.0  0.82242  0.60360  0.66924  1.0000
  H   H2832     1.0  0.54749  0.86529  0.61151  1.0000
  C   C1598     1.0  0.99274  0.69866  0.50587  1.0000
  H   H2833     1.0  0.76199  0.56792  0.62806  1.0000
  N   N90       1.0  0.96743  0.62062  0.72627  1.0000
  H   H2834     1.0  0.51830  0.85264  0.67100  1.0000
  C   C1599     1.0  0.55003  0.92303  0.71671  1.0000
  H   H2835     1.0  0.51677  0.92886  0.64416  1.0000
  H   H2836     1.0  0.82474  0.58650  0.67609  1.0000
  C   C1600     1.0  0.97884  0.63856  0.71436  1.0000
  H   H2837     1.0  0.93650  0.64155  0.73205  1.0000
  C   C1601     1.0  0.72154  0.98047  0.56340  1.0000
  H   H2838     1.0  0.74754  0.95782  0.57583  1.0000
  S   S361      1.0  0.73196  0.92887  0.52582  1.0000
  C   C1602     1.0  0.60924  0.86745  0.74332  1.0000
  C   C1603     1.0  0.60788  0.98497  0.65657  1.0000
  C   C1604     1.0  0.94202  0.62550  0.72551  1.0000
  H   H2839     1.0  0.59815  0.80836  0.54888  1.0000
  C   C1605     1.0  0.51162  0.83800  0.66588  1.0000
  H   H2840     1.0  0.86345  0.51070  0.72081  1.0000
  C   C1606     1.0  0.96152  0.61265  0.52396  1.0000
  C   C1607     1.0  0.72166  0.97412  0.51656  1.0000
  C   C1608     1.0  0.78938  0.79076  0.51119  1.0000
  H   H2841     1.0  0.64822  0.93246  0.67282  1.0000
  C   C1609     1.0  0.64475  0.98696  0.59505  1.0000
  C   C1610     1.0  0.82987  0.76161  0.50425  1.0000
  H   H2842     1.0  0.65023  0.79127  0.63684  1.0000
  H   H2843     1.0  0.90081  0.63355  0.69373  1.0000
  H   H2844     1.0  0.93409  0.64349  0.59231  1.0000
  H   H2845     1.0  0.49981  0.94058  0.67163  1.0000
  C   C1611     1.0  0.99017  0.66058  0.55793  1.0000
  H   H2846     1.0  0.94554  0.60501  0.52889  1.0000
  C   C1612     1.0  0.90699  0.63261  0.70743  1.0000
  H   H2847     1.0  0.72899  0.94412  0.56257  1.0000
  C   C1613     1.0  0.81060  0.75315  0.51343  1.0000
  C   C1614     1.0  0.80860  0.79921  0.50192  1.0000
  H   H2848     1.0  0.96793  0.65476  0.71399  1.0000
  H   H2849     1.0  0.63153  0.99060  0.71135  1.0000
  C   C1615     1.0  0.93272  0.62734  0.70654  1.0000
  H   H2850     1.0  0.79834  0.59403  0.65156  1.0000
  H   H2851     1.0  0.57164  0.78967  0.63580  1.0000
  C   C1616     1.0  0.58560  0.78621  0.60810  1.0000
  C   C1617     1.0  0.58165  0.77714  0.62768  1.0000
  C   C1618     1.0  0.76420  0.57807  0.61523  1.0000
  H   H2852     1.0  0.87384  0.58388  0.72967  1.0000
  H   H2853     1.0  0.93779  0.61811  0.61952  1.0000
  H   H2854     1.0  0.96069  0.61676  0.50939  1.0000
  C   C1619     1.0  0.90717  0.57220  0.73772  1.0000
  H   H2855     1.0  0.76562  0.56658  0.60402  1.0000
  S   S362      1.0  0.91675  0.65488  0.50250  1.0000
  H   H2856     1.0  0.97623  0.60023  0.52618  1.0000
  H   H2857     1.0  0.60649  0.95976  0.60396  1.0000
  H   H2858     1.0  0.71878  0.95319  0.58421  1.0000
  H   H2859     1.0  0.96793  0.61381  0.61483  1.0000
  H   H2860     1.0  0.57809  0.74223  0.62119  1.0000
  H   H2861     1.0  0.97954  0.64198  0.52743  1.0000
  H   H2862     1.0  0.51045  0.88723  0.64367  1.0000
  H   H2863     1.0  0.63909  0.91807  0.73516  1.0000
  H   H2864     1.0  0.98464  0.62832  0.58517  1.0000
  H   H2865     1.0  0.86030  0.54795  0.63308  1.0000
  H   H2866     1.0  0.94918  0.64607  0.53043  1.0000
  H   H2867     1.0  0.54049  0.93292  0.72718  1.0000
  H   H2868     1.0  0.55514  0.90579  0.72242  1.0000
  H   H2869     1.0  0.89836  0.61903  0.71542  1.0000
  C   C1620     1.0  0.57091  0.93502  0.70931  1.0000
  Fe  Fe181     1.0  0.87759  0.70943  0.50203  1.0000
  H   H2870     1.0  0.62879  0.98343  0.58919  1.0000
  S   S363      1.0  0.76320  0.80804  0.51539  1.0000
  H   H2871     1.0  0.64028  0.96657  0.69041  1.0000
  C   C1621     1.0  0.58545  0.99192  0.66192  1.0000
  C   C1622     1.0  0.79065  0.76754  0.51682  1.0000
  H   H2872     1.0  0.55187  0.98107  0.66900  1.0000
  C   C1623     1.0  0.99566  0.56839  0.65743  1.0000
  H   H2873     1.0  0.90896  0.50054  0.62838  1.0000
  H   H2874     1.0  0.94597  0.61559  0.58738  1.0000
  H   H2875     1.0  0.99190  0.61933  0.74672  1.0000
  H   H2876     1.0  0.90737  0.51329  0.74021  1.0000
  H   H2877     1.0  0.99579  0.62285  0.66958  1.0000
  H   H2878     1.0  0.72185  0.78002  0.50827  1.0000
  H   H2879     1.0  0.65520  0.95225  0.70872  1.0000
  S   S364      1.0  0.69136  0.89012  0.51031  1.0000
  H   H2880     1.0  0.50274  0.98112  0.61327  1.0000
  H   H2881     1.0  0.65771  0.98936  0.58391  1.0000
  Fe  Fe182     1.0  0.92806  0.69010  0.50262  1.0000
  H   H2882     1.0  0.99389  0.67347  0.56728  1.0000
  H   H2883     1.0  0.59365  0.91895  0.72792  1.0000
  H   H2884     1.0  0.57808  0.94353  0.73601  1.0000
  C   C1624     1.0  0.99446  0.72170  0.50116  1.0000
  H   H2885     1.0  0.89160  0.51399  0.71083  1.0000
  C   C1625     1.0  0.62933  0.92909  0.74476  1.0000
  H   H2886     1.0  0.60996  0.96124  0.74576  1.0000
  H   H2887     1.0  0.99593  0.56256  0.70158  1.0000
  C   C1626     1.0  0.76371  0.98046  0.49882  1.0000
  Fe  Fe183     1.0  0.59488  0.86659  0.82727  1.0000
  S   S365      1.0  0.58461  0.90270  0.83298  1.0000
  S   S366      1.0  0.58511  0.85096  0.80200  1.0000
  Fe  Fe184     1.0  0.61123  0.85567  0.86590  1.0000
  S   S367      1.0  0.60337  0.89160  0.87371  1.0000
  S   S368      1.0  0.62173  0.82461  0.88418  1.0000
  Fe  Fe185     1.0  0.57127  0.88953  0.85982  1.0000
  S   S369      1.0  0.53822  0.90422  0.87213  1.0000
  Fe  Fe186     1.0  0.61763  0.90190  0.84614  1.0000
  S   S370      1.0  0.63811  0.93189  0.83778  1.0000
  S   S371      1.0  0.57830  0.85328  0.85312  1.0000
  S   S372      1.0  0.62886  0.86606  0.83924  1.0000
  H   H2888     1.0  0.55110  0.94588  0.88999  1.0000
  H   H2889     1.0  0.50412  0.97298  0.89336  1.0000
  S   S373      1.0  0.83783  0.58010  0.96802  1.0000
  H   H2890     1.0  0.71483  0.67903  0.98250  1.0000
  C   C1627     1.0  0.51907  0.86543  0.76188  1.0000
  S   S374      1.0  0.60615  0.81004  0.96949  1.0000
  Fe  Fe187     1.0  0.88578  0.58379  0.86245  1.0000
  S   S375      1.0  0.92115  0.56977  0.86825  1.0000
  S   S376      1.0  0.85560  0.59087  0.88271  1.0000
  Fe  Fe188     1.0  0.89549  0.58069  0.82116  1.0000
  S   S377      1.0  0.93106  0.56579  0.82437  1.0000
  S   S378      1.0  0.87826  0.58682  0.79465  1.0000
  Fe  Fe189     1.0  0.91638  0.54508  0.84762  1.0000
  S   S379      1.0  0.92899  0.50858  0.85226  1.0000
  Fe  Fe190     1.0  0.93299  0.59177  0.84456  1.0000
  S   S380      1.0  0.96491  0.61080  0.84238  1.0000
  S   S381      1.0  0.88047  0.55760  0.84290  1.0000
  S   S382      1.0  0.89797  0.60829  0.84017  1.0000
  C   C1628     1.0  0.70791  0.55798  0.98945  1.0000
  N   N91       1.0  0.86192  0.50637  0.89798  1.0000
  H   H2891     1.0  0.97234  0.56801  0.86279  1.0000
  H   H2892     1.0  0.86546  0.53229  0.87645  1.0000
  H   H2893     1.0  0.70409  0.51798  0.97162  1.0000
  C   C1629     1.0  0.98278  0.50079  0.88168  1.0000
  H   H2894     1.0  0.58951  0.79267  0.86046  1.0000
  C   C1630     1.0  0.92086  0.56793  0.75237  1.0000
  C   C1631     1.0  0.91240  0.57261  0.76981  1.0000
  C   C1632     1.0  0.88988  0.58103  0.77289  1.0000
  Fe  Fe191     1.0  0.60734  0.78355  0.99351  1.0000
  H   H2895     1.0  0.70802  0.83434  0.86121  1.0000
  H   H2896     1.0  0.92327  0.56972  0.78088  1.0000
  H   H2897     1.0  0.83488  0.51434  0.86551  1.0000
  H   H2898     1.0  0.93822  0.56116  0.75017  1.0000
  C   C1633     1.0  0.84217  0.58315  0.94424  1.0000
  C   C1634     1.0  0.86426  0.57885  0.93641  1.0000
  C   C1635     1.0  0.86875  0.58122  0.91772  1.0000
  C   C1636     1.0  0.85112  0.58768  0.90648  1.0000
  C   C1637     1.0  0.82899  0.59170  0.91427  1.0000
  C   C1638     1.0  0.82452  0.58951  0.93299  1.0000
  H   H2899     1.0  0.87810  0.57404  0.94493  1.0000
  H   H2900     1.0  0.88592  0.57849  0.91205  1.0000
  H   H2901     1.0  0.81519  0.59678  0.90577  1.0000
  H   H2902     1.0  0.80746  0.59290  0.93871  1.0000
  H   H2903     1.0  0.69139  0.59778  0.96413  1.0000
  C   C1639     1.0  0.71272  0.62584  0.96224  1.0000
  C   C1640     1.0  0.62602  0.95801  0.84515  1.0000
  C   C1641     1.0  0.61158  0.95889  0.86056  1.0000
  C   C1642     1.0  0.54780  0.97931  0.83861  1.0000
  C   C1643     1.0  0.70776  0.60183  0.96915  1.0000
  C   C1644     1.0  0.54924  0.80845  0.83607  1.0000
  H   H2904     1.0  0.60755  0.94339  0.86803  1.0000
  H   H2905     1.0  0.63770  0.88110  0.75434  1.0000
  H   H2906     1.0  0.63967  0.98543  0.78677  1.0000
  C   C1645     1.0  0.61741  0.82083  0.90792  1.0000
  C   C1646     1.0  0.61225  0.83910  0.91875  1.0000
  C   C1647     1.0  0.60926  0.83539  0.93748  1.0000
  C   C1648     1.0  0.61119  0.81340  0.94576  1.0000
  C   C1649     1.0  0.61630  0.79509  0.93492  1.0000
  C   C1650     1.0  0.61951  0.79882  0.91617  1.0000
  H   H2907     1.0  0.61083  0.85615  0.91272  1.0000
  H   H2908     1.0  0.60554  0.84973  0.94567  1.0000
  H   H2909     1.0  0.61788  0.77807  0.94099  1.0000
  H   H2910     1.0  0.62363  0.78451  0.90801  1.0000
  H   H2911     1.0  0.53755  0.76881  0.97494  1.0000
  H   H2912     1.0  0.82695  0.52846  0.80505  1.0000
  H   H2913     1.0  0.54736  0.81930  0.80858  1.0000
  C   C1651     1.0  0.52694  0.86035  0.87613  1.0000
  C   C1652     1.0  0.71037  0.51563  0.98526  1.0000
  H   H2914     1.0  0.69965  0.63844  0.96771  1.0000
  H   H2915     1.0  0.54448  0.85595  0.87860  1.0000
  C   C1653     1.0  0.58201  0.85177  0.76551  1.0000
  C   C1654     1.0  0.59431  0.85832  0.77954  1.0000
  C   C1655     1.0  0.61409  0.86952  0.77536  1.0000
  H   H2916     1.0  0.50903  0.76471  0.93260  1.0000
  H   H2917     1.0  0.56690  0.84275  0.76859  1.0000
  H   H2918     1.0  0.62379  0.87457  0.78598  1.0000
  H   H2919     1.0  0.59014  0.76453  0.87105  1.0000
  H   H2920     1.0  0.92836  0.54358  0.90743  1.0000
  H   H2921     1.0  0.64546  0.74427  0.82987  1.0000
  C   C1656     1.0  0.51817  0.96465  0.88501  1.0000
  H   H2922     1.0  0.98763  0.54554  0.83104  1.0000
  H   H2923     1.0  0.68066  0.79478  0.81584  1.0000
  H   H2924     1.0  0.83327  0.55652  0.86096  1.0000
  H   H2925     1.0  0.55633  0.96020  0.86268  1.0000
  H   H2926     1.0  0.97694  0.53011  0.89771  1.0000
  H   H2927     1.0  0.68510  0.82464  0.87601  1.0000
  S   S383      1.0  0.77080  0.58347  0.98895  1.0000
  H   H2928     1.0  0.84826  0.50106  0.78474  1.0000
  C   C1657     1.0  0.86133  0.53127  0.79313  1.0000
  C   C1658     1.0  0.67982  0.96296  0.79612  1.0000
  H   H2929     1.0  0.56786  0.81005  0.83525  1.0000
  C   C1659     1.0  0.53729  0.95570  0.89742  1.0000
  C   C1660     1.0  0.51897  0.88311  0.87445  1.0000
  H   H2930     1.0  0.96854  0.63952  0.74979  1.0000
  H   H2931     1.0  0.52082  0.87733  0.81265  1.0000
  H   H2932     1.0  0.51852  0.82570  0.87519  1.0000
  H   H2933     1.0  0.67931  0.84580  0.85820  1.0000
  H   H2934     1.0  0.50753  0.75156  0.95503  1.0000
  H   H2935     1.0  0.92963  0.52430  0.88975  1.0000
  H   H2936     1.0  0.56739  0.97292  0.81381  1.0000
  H   H2937     1.0  0.52626  0.80514  0.90551  1.0000
  H   H2938     1.0  0.96235  0.59497  0.78751  1.0000
  C   C1661     1.0  0.65883  0.82614  0.79316  1.0000
  H   H2939     1.0  0.52954  0.85094  0.79474  1.0000
  H   H2940     1.0  0.66045  0.94038  0.75428  1.0000
  H   H2941     1.0  0.96577  0.58759  0.75554  1.0000
  H   H2942     1.0  0.68089  0.70511  0.98955  1.0000
  C   C1662     1.0  0.82667  0.50494  0.92038  1.0000
  H   H2943     1.0  0.53324  0.87437  0.76659  1.0000
  H   H2944     1.0  0.56350  0.78122  0.97939  1.0000
  C   C1663     1.0  0.63253  0.60113  0.99678  1.0000
  H   H2945     1.0  0.72673  0.55755  0.99022  1.0000
  H   H2946     1.0  0.98941  0.60294  0.77771  1.0000
  H   H2947     1.0  0.92867  0.51350  0.91281  1.0000
  H   H2948     1.0  0.66250  0.61277  0.98284  1.0000
  H   H2949     1.0  0.54207  0.84163  0.82382  1.0000
  H   H2950     1.0  0.65515  0.78492  0.80928  1.0000
  C   C1664     1.0  0.51339  0.82705  0.93655  1.0000
  C   C1665     1.0  0.99339  0.55225  0.81752  1.0000
  H   H2951     1.0  0.64971  0.91615  0.76669  1.0000
  C   C1666     1.0  0.62180  0.87345  0.75738  1.0000
  H   H2952     1.0  0.69849  0.79671  0.85338  1.0000
  C   C1667     1.0  0.54468  0.78368  0.98020  1.0000
  H   H2953     1.0  0.86863  0.49568  0.80086  1.0000
  C   C1668     1.0  0.63137  0.97825  0.83572  1.0000
  C   C1669     1.0  0.51219  0.84328  0.87464  1.0000
  C   C1670     1.0  0.90527  0.51001  0.77747  1.0000
  H   H2954     1.0  0.63577  0.94377  0.76977  1.0000
  H   H2955     1.0  0.55866  0.81554  0.88373  1.0000
  H   H2956     1.0  0.81742  0.51686  0.88575  1.0000
  H   H2957     1.0  0.55219  0.94922  0.82308  1.0000
  N   N92       1.0  0.65586  0.78831  0.83771  1.0000
  N   N93       1.0  0.88302  0.50084  0.77385  1.0000
  C   C1671     1.0  0.66889  0.76594  0.84175  1.0000
  C   C1672     1.0  0.63052  0.78619  0.83983  1.0000
  C   C1673     1.0  0.66190  0.80500  0.85070  1.0000
  C   C1674     1.0  0.68690  0.81149  0.84942  1.0000
  H   H2958     1.0  0.50476  0.82947  0.94991  1.0000
  C   C1675     1.0  0.62181  0.77299  0.85709  1.0000
  C   C1676     1.0  0.66389  0.74635  0.83011  1.0000
  C   C1677     1.0  0.67530  0.72384  0.83709  1.0000
  N   N94       1.0  0.52515  0.98020  0.86930  1.0000
  H   H2959     1.0  0.66506  0.95233  0.79821  1.0000
  H   H2960     1.0  0.62743  0.59151  0.98564  1.0000
  H   H2961     1.0  0.85855  0.59135  0.76053  1.0000
  H   H2962     1.0  0.68747  0.76775  0.83972  1.0000
  H   H2963     1.0  0.66618  0.76043  0.85611  1.0000
  H   H2964     1.0  0.51819  0.80745  0.97150  1.0000
  H   H2965     1.0  0.51048  0.73430  0.93601  1.0000
  H   H2966     1.0  0.65066  0.82086  0.84953  1.0000
  H   H2967     1.0  0.65856  0.79825  0.86467  1.0000
  H   H2968     1.0  0.50007  0.96567  0.84041  1.0000
  C   C1678     1.0  0.85255  0.50672  0.91711  1.0000
  C   C1679     1.0  0.59591  0.77475  0.85897  1.0000
  H   H2969     1.0  0.68294  0.97021  0.80895  1.0000
  H   H2970     1.0  0.62803  0.77961  0.86919  1.0000
  H   H2971     1.0  0.62749  0.75475  0.85688  1.0000
  C   C1680     1.0  0.88744  0.50699  0.89793  1.0000
  H   H2972     1.0  0.67066  0.74965  0.81615  1.0000
  H   H2973     1.0  0.66850  0.71928  0.85085  1.0000
  H   H2974     1.0  0.67187  0.71019  0.82835  1.0000
  H   H2975     1.0  0.69398  0.72484  0.83712  1.0000
  H   H2976     1.0  0.57766  0.95644  0.83293  1.0000
  H   H2977     1.0  0.96682  0.62442  0.78253  1.0000
  H   H2978     1.0  0.61472  0.92013  0.75090  1.0000
  H   H2979     1.0  0.89026  0.53263  0.91773  1.0000
  C   C1681     1.0  0.98931  0.59683  0.85141  1.0000
  H   H2980     1.0  0.85599  0.52285  0.92291  1.0000
  H   H2981     1.0  0.52007  0.82735  0.78503  1.0000
  H   H2982     1.0  0.69502  0.95188  0.79206  1.0000
  C   C1682     1.0  0.85271  0.52707  0.88715  1.0000
  C   C1683     1.0  0.91451  0.50324  0.79605  1.0000
  H   H2983     1.0  0.54225  0.81335  0.84944  1.0000
  C   C1684     1.0  0.89642  0.52915  0.90388  1.0000
  H   H2984     1.0  0.93471  0.53261  0.79548  1.0000
  H   H2985     1.0  0.98369  0.50393  0.91036  1.0000
  H   H2986     1.0  0.66775  0.57180  0.98343  1.0000
  H   H2987     1.0  0.69081  0.99160  0.77987  1.0000
  H   H2988     1.0  0.84982  0.54185  0.89569  1.0000
  H   H2989     1.0  0.90241  0.50902  0.80695  1.0000
  H   H2990     1.0  0.94337  0.60911  0.76053  1.0000
  H   H2991     1.0  0.88040  0.51152  0.84851  1.0000
  H   H2992     1.0  0.51160  0.80334  0.81763  1.0000
  H   H2993     1.0  0.85752  0.50765  0.75430  1.0000
  C   C1685     1.0  0.82076  0.54798  0.87018  1.0000
  C   C1686     1.0  0.64475  0.93271  0.75978  1.0000
  H   H2994     1.0  0.89101  0.54391  0.89497  1.0000
  H   H2995     1.0  0.58869  0.76827  0.84715  1.0000
  C   C1687     1.0  0.54036  0.96656  0.85642  1.0000
  Fe  Fe192     1.0  0.80861  0.58616  0.98945  1.0000
  H   H2996     1.0  0.80546  0.54584  0.86280  1.0000
  H   H2997     1.0  0.81575  0.55899  0.88142  1.0000
  H   H2998     1.0  0.81742  0.52034  0.91456  1.0000
  C   C1688     1.0  0.56211  0.96344  0.82639  1.0000
  H   H2999     1.0  0.50527  0.82231  0.83496  1.0000
  H   H3000     1.0  0.62436  0.77804  0.82827  1.0000
  N   N95       1.0  0.53884  0.82511  0.93774  1.0000
  C   C1689     1.0  0.55117  0.82178  0.91977  1.0000
  C   C1690     1.0  0.54690  0.84549  0.94605  1.0000
  C   C1691     1.0  0.54502  0.80438  0.94969  1.0000
  H   H3001     1.0  0.54611  0.79051  0.83433  1.0000
  H   H3002     1.0  0.62134  0.80332  0.83966  1.0000
  C   C1692     1.0  0.54412  0.80197  0.90928  1.0000
  C   C1693     1.0  0.53696  0.80546  0.96973  1.0000
  C   C1694     1.0  0.55290  0.86617  0.93337  1.0000
  C   C1695     1.0  0.55792  0.88624  0.94394  1.0000
  C   C1696     1.0  0.55913  0.79947  0.89213  1.0000
  H   H3003     1.0  0.89527  0.50402  0.88430  1.0000
  H   H3004     1.0  0.56978  0.81921  0.92144  1.0000
  H   H3005     1.0  0.54909  0.83707  0.91062  1.0000
  H   H3006     1.0  0.53418  0.85157  0.95657  1.0000
  H   H3007     1.0  0.56278  0.84060  0.95307  1.0000
  H   H3008     1.0  0.56384  0.80070  0.94914  1.0000
  H   H3009     1.0  0.53791  0.78912  0.94505  1.0000
  H   H3010     1.0  0.84911  0.52483  0.82081  1.0000
  H   H3011     1.0  0.70473  0.55892  0.97500  1.0000
  C   C1697     1.0  0.93682  0.51398  0.79812  1.0000
  C   C1698     1.0  0.96204  0.60532  0.75930  1.0000
  H   H3012     1.0  0.54590  0.78554  0.91708  1.0000
  H   H3013     1.0  0.55303  0.78606  0.88434  1.0000
  C   C1699     1.0  0.98827  0.57590  0.86094  1.0000
  H   H3014     1.0  0.54413  0.81964  0.97595  1.0000
  H   H3015     1.0  0.56843  0.86178  0.92486  1.0000
  H   H3016     1.0  0.53921  0.87186  0.92443  1.0000
  H   H3017     1.0  0.57179  0.88130  0.95304  1.0000
  H   H3018     1.0  0.56349  0.90023  0.93457  1.0000
  H   H3019     1.0  0.54248  0.89244  0.95187  1.0000
  H   H3020     1.0  0.87714  0.53770  0.79734  1.0000
  H   H3021     1.0  0.51102  0.94937  0.88030  1.0000
  H   H3022     1.0  0.72971  0.62991  0.96612  1.0000
  H   H3023     1.0  0.57700  0.79466  0.89533  1.0000
  H   H3024     1.0  0.96481  0.49664  0.88342  1.0000
  H   H3025     1.0  0.71267  0.62722  0.94745  1.0000
  H   H3026     1.0  0.72143  0.59013  0.96331  1.0000
  C   C1700     1.0  0.92237  0.52742  0.90343  1.0000
  H   H3027     1.0  0.90401  0.52878  0.77574  1.0000
  C   C1701     1.0  0.53857  0.82402  0.82146  1.0000
  C   C1702     1.0  0.68996  0.83020  0.86199  1.0000
  H   H3028     1.0  0.52612  0.84987  0.75538  1.0000
  C   C1703     1.0  0.67555  0.98180  0.78164  1.0000
  C   C1704     1.0  0.65293  0.82066  0.81296  1.0000
  C   C1705     1.0  0.87513  0.51189  0.75647  1.0000
  H   H3029     1.0  0.94205  0.51060  0.81201  1.0000
  H   H3030     1.0  0.63419  0.82295  0.81517  1.0000
  H   H3031     1.0  0.64978  0.81536  0.78478  1.0000
  H   H3032     1.0  0.67364  0.97356  0.76901  1.0000
  C   C1706     1.0  0.83080  0.52487  0.87718  1.0000
  C   C1707     1.0  0.50227  0.85948  0.77746  1.0000
  C   C1708     1.0  0.84343  0.53433  0.80851  1.0000
  C   C1709     1.0  0.87601  0.58481  0.75829  1.0000
  H   H3033     1.0  0.52125  0.92504  0.90729  1.0000
  H   H3034     1.0  0.87402  0.53067  0.75700  1.0000
  C   C1710     1.0  0.60307  0.97991  0.86674  1.0000
  H   H3035     1.0  0.98464  0.51224  0.86949  1.0000
  H   H3036     1.0  0.98553  0.54283  0.80747  1.0000
  H   H3037     1.0  0.82465  0.51886  0.94672  1.0000
  C   C1711     1.0  0.66192  0.79622  0.81867  1.0000
  C   C1712     1.0  0.51277  0.82126  0.82102  1.0000
  S   S384      1.0  0.59766  0.74707  0.99613  1.0000
  H   H3038     1.0  0.53231  0.95100  0.85329  1.0000
  H   H3039     1.0  0.69233  0.81777  0.83575  1.0000
  H   H3040     1.0  0.85544  0.54212  0.78154  1.0000
  H   H3041     1.0  0.91880  0.50433  0.76745  1.0000
  H   H3042     1.0  0.54479  0.96974  0.90352  1.0000
  H   H3043     1.0  0.66071  0.83322  0.82055  1.0000
  H   H3044     1.0  0.51441  0.94918  0.92079  1.0000
  H   H3045     1.0  0.64266  0.97749  0.82394  1.0000
  H   H3046     1.0  0.84090  0.55258  0.81128  1.0000
  C   C1713     1.0  0.97079  0.60707  0.77785  1.0000
  H   H3047     1.0  0.51315  0.84822  0.91131  1.0000
  C   C1714     1.0  0.50253  0.75039  0.94113  1.0000
  C   C1715     1.0  0.52807  0.94005  0.91265  1.0000
  C   C1716     1.0  0.51387  0.84316  0.79165  1.0000
  C   C1717     1.0  0.50349  0.84678  0.92430  1.0000
  H   H3048     1.0  0.67742  0.82358  0.79008  1.0000
  C   C1718     1.0  0.98769  0.51391  0.89772  1.0000
  H   H3049     1.0  0.50367  0.86297  0.93095  1.0000
  H   H3050     1.0  0.95041  0.50683  0.78879  1.0000
  H   H3051     1.0  0.50754  0.81089  0.93235  1.0000
  C   C1719     1.0  0.70737  0.59916  0.98984  1.0000
  H   H3052     1.0  0.65349  0.84412  0.78969  1.0000
  H   H3053     1.0  0.51549  0.86668  0.83537  1.0000
  H   H3054     1.0  0.98741  0.57047  0.81614  1.0000
  C   C1720     1.0  0.86502  0.50608  0.78843  1.0000
  H   H3055     1.0  0.54198  0.93404  0.92139  1.0000
  H   H3056     1.0  0.72923  0.51529  0.98439  1.0000
  H   H3057     1.0  0.62366  0.61833  0.99591  1.0000
  H   H3058     1.0  0.53876  0.78476  0.99445  1.0000
  H   H3059     1.0  0.70541  0.49899  0.99126  1.0000
  H   H3060     1.0  0.64594  0.98082  0.93772  1.0000
  H   H3061     1.0  0.68150  0.53420  0.99749  1.0000
  H   H3062     1.0  0.59280  0.98041  0.87912  1.0000
  C   C1721     1.0  0.50738  0.87413  0.82321  1.0000
  H   H3063     1.0  0.50827  0.90758  0.83329  1.0000
  C   C1722     1.0  0.70618  0.67765  0.99559  1.0000
  H   H3064     1.0  0.99142  0.61274  0.94262  1.0000
  H   H3065     1.0  0.53295  0.98640  0.83129  1.0000
  C   C1723     1.0  0.50397  0.99025  0.86075  1.0000
  H   H3066     1.0  0.52600  0.73526  0.99469  1.0000
  H   H3067     1.0  0.72523  0.59905  0.99357  1.0000
  H   H3068     1.0  0.69924  0.61499  0.99518  1.0000
  C   C1724     1.0  0.65820  0.60312  0.99557  1.0000
  C   C1725     1.0  0.67131  0.57935  0.99609  1.0000
  H   H3069     1.0  0.51027  0.87674  0.75177  1.0000
  N   N96       1.0  0.49944  0.83728  0.80837  1.0000
  C   C1726     1.0  0.88769  0.49602  0.84315  1.0000
  H   H3070     1.0  0.80118  0.50271  0.94239  1.0000
  C   C1727     1.0  0.81987  0.50358  0.94036  1.0000
  C   C1728     1.0  0.70026  0.53456  0.99691  1.0000
  H   H3071     1.0  0.55843  0.99332  0.84107  1.0000
  H   H3072     1.0  0.55491  0.99273  0.87959  1.0000
