data_image0
_chemical_formula_structural       SNSHC3H3C2H3C6H4CH3CH4C5H4CH2C3H2C2H3CH7CH2C2HC3HNHCH2CH7C3SH3CSH7CH2CH3CHSC2HCH2FeH4CHC2H3SH3SH6NCH5CH2CH2CH8FeHSFeCSC2S2FeS2FeS2FeHFeS5H3FeHSH2S2FeS2FeS2FeSFeS3C6H6C2H3C7H4C6H4C6H5CH3CH3CHCHC2HC10H4NH2C3H4SH4CH3NHC3HC4HCH5Fe2H2CH5NC12H31C2H2CHCH2NC5H2C2H8CH5CH8C3HCH3NC2HC2H2C4H5CFeCH5CH6C2H2CH2CHCH6C2H3C3H6CHCHSH5CH2CH3CH4CFeCHFeS2FeSHSHFeS2FeS2FeSHSFeS2FeCSFeH2SHFeCSFeHSCSHCHCHCH2C6HSH5C3H2C2NHC7H3C6HCH7CH2CH2CH2C2H3CH7CH3C2HSC4H2CH11CH2CH2CH4CH2CHSNH2CH7C2HCH2CH4C2H5CHCH4CHSH3C2HFeCH2CNCNSH5CH3CH2CH2CH3SCH2FeH2CHCHCHFeCH3CH2C2HSFeS2FeS2FeSFeS3FeS2FeCSHFeS3CSFeSCHSFeSFeS2HFeS2FeS2FeSFeS3CH2CH2C6H4C2HC6H4CFeH2C2H6C7H4C4H2C6H4C6H5NC7H2C3H3CH9CH7C2HNH2NC12H28CH2C2H5NC5FeCH3CH2FeH6CNH3C2HCH7NC7HC2H13CH6C2H6CHCH2CH6C2HCHSHCHCH14C2H3CH3CH2CH4C5H2CHCHC2HCNH7CHCHCHCH6CH3C5S2H6CSCH3CH6CHSHSH3C4NH5CH9FeSHC2NH5C2FeCH2CH3CH2CHCHCH2NSH2C4H15SHSFeS2FeS2FeSFeS3FeS2FeSCFeSFeS4HFeSHSFeSFeSCFeS2FeS2FeSFeS3CHCNC6H4C4H2CHC2HC2H2C6H4CHC3H3C6H4C6H4NHCHC7H3C6H4CH2C3H2C3H11CH2CH2CNHC2HSHC2HSHC2H2SH3NC5HC3H2CH9CHCH4CH2CHCHC2H3NC12H19CH8FeH2C2HCH5C2H2CH2CHCHCHCNC2H2CHCH12CH2CHC3HCFeCHCH4CH2CHCH5C2HC2HCH2CH3CH2CHCH9CHNH3C3H3C2HCH4CH3CH5CH5CH6CNH4CH4C2H4C2SH2CSH2C2HCH3C2H2CHNCH5CH5CH4CHC2HC2NH14CH2CH2CH4C5HCH6CH4CH13CHC3H7CH6SHSH4CH4CSCSHSFeSFeHFeS2FeS2FeSFeS5FeS2FeS2FeSFeS3FeS2FeSCFeSFeS3CH3C2HCH2C6H4C6H4C6H4C6H4C3HCH2C6H7C6H4CH2CH2CH8C2H6N2H4CH2CHCH3CH11NC8H20NC10H22NC12H24C2H2CHCH10C2H2C2HC5H2NH6CH6CH2C4H4CH3CH2CH2CHC2HC2HCHCH4CHNCH3CHCH2C2H6CH3CH4C2H3SC2HCH2CH2C2H4CHNC4H3CH3CHCH5C3H3SH5C2H2CHNH7C4H6CH5C3H3CHCHC5H3CH6C2H2CH4CH5CH2CH5C2HCHCH2CHCH2C2H4CHNHCH2CH6CFeCHCH2SHSFeS2FeSFeSCSFeS2FeS2FeCFeS4FeS2FeS2FeSFeS3HSFeSHFeSFeS3CH2CHFeHC6H7C7H4C6H6C2HC4H4C6H4C4H2C7H4NC9HC2H21CH4CH2CNCH3C2H3CH6C3H3CH2SCH4CHCH2C2H3CH9C2HCHCH3CHCHCH3CH2N2CH2CH2CHC3H3CH3CH2CHC2H3CHC2HCH2CHCHCH3CH3CNH8CH6C2H2CHC2H4CH5C2H4CH2CH2C2HFeHNH2C3HC3H2CHCHC4HC2H8C2H2CH7CHCHCH3FeCH4NCSCH9NH3NHCH4CHCH7CH14SH3FeH3C2H3NH7CHCHCH2CHC3H4CHC2HC2H6CH2CH3FeHSFeHSHS2FeS2HSFeCFeS3FeSHFeSFeCFeS3FeS2FeS2NFeSHSC2HCH2C6H6FeC7H4C2SH2C3HC4H6NC8FeC2H16C2HCH6CH2NC4HC2SCH2CH2FeCH4CH2CH3CSH3CH15CHC2H2CH3C2H4C2H4CH2NSH2C2HCH3CH3C2H3CH4C4SH4CHSH3C2HCH4FeS2FeS2FeSFeS3FeH2FeS2FeSHSHSHFeS2FeS2FeSFeS3FeHSFeNSFeHCS2CH3C6H5C4H2C6H4C7H4CH2C6H4C6H4C3H5C4SH6CHCH2NCHCHC2H4CH3CH5C2H4CH5CH5C2HNC7H19CH3CH4CH2NCH4CHCH3CH3CH6CH2CHCHCHC2H4CH2CH7SC2H4CH5C3H2CH4CHCH3NHC2H6CHC3H2C2H4CH2C2HC2H2C2H4C2HCHCH3C2S2CH3SH2CH3CNHCHCH2CH2C5SCH5C2HSH2C6H3CH2CFeC3H8CHCHSC2HCHCH3CH3NCH3C2HSHCHCNHCH2SCH2CH7C2H21C2S
_chemical_formula_sum              "S256 N64 H2048 C1152 Fe128"
_cell_length_a       56.156
_cell_length_b       56.0999
_cell_length_c       48.4164
_cell_angle_alpha    89.7346
_cell_angle_beta     90.2729
_cell_angle_gamma    89.0245

_space_group_name_H-M_alt    "P 1"
_space_group_IT_number       1

loop_
  _space_group_symop_operation_xyz
  'x, y, z'

loop_
  _atom_site_type_symbol
  _atom_site_label
  _atom_site_symmetry_multiplicity
  _atom_site_fract_x
  _atom_site_fract_y
  _atom_site_fract_z
  _atom_site_occupancy
  S   S1        1.0  0.37227  0.03347  0.11124  1.0000
  N   N1        1.0  0.48494  0.29091  0.16202  1.0000
  S   S2        1.0  0.47260  0.07991  0.08206  1.0000
  H   H1        1.0  0.11068  0.02459  0.22925  1.0000
  C   C1        1.0  0.33709  0.05101  0.04308  1.0000
  C   C2        1.0  0.45340  0.30469  0.19777  1.0000
  C   C3        1.0  0.03644  0.03872  0.12363  1.0000
  H   H2        1.0  0.45672  0.04619  0.16418  1.0000
  H   H3        1.0  0.47945  0.05066  0.20528  1.0000
  H   H4        1.0  0.45160  0.12466  0.15125  1.0000
  C   C4        1.0  0.03936  0.07902  0.10489  1.0000
  C   C5        1.0  0.04940  0.05605  0.10957  1.0000
  H   H5        1.0  0.22286  0.00319  0.14546  1.0000
  H   H6        1.0  0.04962  0.09229  0.09414  1.0000
  H   H7        1.0  0.06720  0.05180  0.10248  1.0000
  C   C6        1.0  0.40003  0.04634  0.10233  1.0000
  C   C7        1.0  0.41742  0.03378  0.08747  1.0000
  C   C8        1.0  0.43923  0.04461  0.08103  1.0000
  C   C9        1.0  0.44399  0.06810  0.08926  1.0000
  C   C10       1.0  0.42657  0.08073  0.10403  1.0000
  C   C11       1.0  0.40475  0.06988  0.11052  1.0000
  H   H8        1.0  0.30993  0.09370  0.04984  1.0000
  H   H9        1.0  0.45260  0.03461  0.06972  1.0000
  H   H10       1.0  0.42997  0.09875  0.11060  1.0000
  H   H11       1.0  0.39145  0.07977  0.12204  1.0000
  C   C12       1.0  0.34645  0.04132  0.01566  1.0000
  H   H12       1.0  0.28151  0.09949  0.10367  1.0000
  H   H13       1.0  0.46496  0.20983  0.17779  1.0000
  H   H14       1.0  0.28872  0.14232  0.09718  1.0000
  C   C13       1.0  0.47979  0.29909  0.19104  1.0000
  H   H15       1.0  0.47037  0.04875  0.13129  1.0000
  H   H16       1.0  0.40529  0.00299  0.43190  1.0000
  H   H17       1.0  0.30206  0.05750  0.02509  1.0000
  H   H18       1.0  0.41415  0.01567  0.08106  1.0000
  C   C14       1.0  0.01622  0.08497  0.11399  1.0000
  C   C15       1.0  0.45823  0.09167  0.17414  1.0000
  C   C16       1.0  0.46123  0.00291  0.13867  1.0000
  C   C17       1.0  0.48283  0.08593  0.16100  1.0000
  C   C18       1.0  0.23293  0.03740  0.05986  1.0000
  H   H19       1.0  0.30888  0.13610  0.06914  1.0000
  H   H20       1.0  0.36624  0.04156  0.01577  1.0000
  H   H21       1.0  0.26147  0.06970  0.08171  1.0000
  H   H22       1.0  0.45211  0.27181  0.15449  1.0000
  C   C19       1.0  0.47612  0.24656  0.17364  1.0000
  H   H23       1.0  0.03452  0.00612  0.03123  1.0000
  H   H24       1.0  0.44178  0.28950  0.19289  1.0000
  C   C20       1.0  0.46115  0.22553  0.16433  1.0000
  C   C21       1.0  0.27118  0.06061  0.06477  1.0000
  C   C22       1.0  0.47164  0.26859  0.15473  1.0000
  H   H25       1.0  0.43495  0.12197  0.18275  1.0000
  H   H26       1.0  0.32092  0.03612  0.14751  1.0000
  C   C23       1.0  0.30947  0.04953  0.04453  1.0000
  C   C24       1.0  0.47973  0.01705  0.15477  1.0000
  H   H27       1.0  0.49176  0.30984  0.12363  1.0000
  H   H28       1.0  0.23125  0.00045  0.23543  1.0000
  H   H29       1.0  0.01110  0.04388  0.03312  1.0000
  C   C25       1.0  0.26007  0.03560  0.06225  1.0000
  H   H30       1.0  0.48140  0.09035  0.13860  1.0000
  H   H31       1.0  0.22514  0.04521  0.07891  1.0000
  H   H32       1.0  0.48259  0.29365  0.07311  1.0000
  H   H33       1.0  0.44184  0.23002  0.16562  1.0000
  H   H34       1.0  0.34550  0.04027  0.05983  1.0000
  H   H35       1.0  0.46625  0.12859  0.18434  1.0000
  H   H36       1.0  0.32356  0.08729  0.08227  1.0000
  C   C26       1.0  0.28901  0.10544  0.08378  1.0000
  H   H37       1.0  0.44724  0.32070  0.18605  1.0000
  H   H38       1.0  0.26636  0.07084  0.04569  1.0000
  C   C27       1.0  0.45252  0.11839  0.17304  1.0000
  C   C28       1.0  0.30623  0.08661  0.07093  1.0000
  H   H39       1.0  0.12165  0.01743  0.19535  1.0000
  C   C29       1.0  0.30544  0.04716  0.09467  1.0000
  C   C30       1.0  0.29441  0.05528  0.12236  1.0000
  C   C31       1.0  0.30159  0.12900  0.08877  1.0000
  H   H40       1.0  0.30219  0.02778  0.09193  1.0000
  N   N2        1.0  0.29782  0.06111  0.06931  1.0000
  H   H41       1.0  0.30540  0.03019  0.04374  1.0000
  C   C32       1.0  0.30122  0.03811  0.14578  1.0000
  H   H42       1.0  0.46368  0.25378  0.07374  1.0000
  H   H43       1.0  0.01000  0.04811  0.06939  1.0000
  C   C33       1.0  0.49608  0.23436  0.08367  1.0000
  H   H44       1.0  0.00531  0.20020  0.13503  1.0000
  H   H45       1.0  0.27388  0.10911  0.06938  1.0000
  H   H46       1.0  0.46553  0.22056  0.14272  1.0000
  H   H47       1.0  0.45230  0.29556  0.11369  1.0000
  H   H48       1.0  0.27470  0.05618  0.12135  1.0000
  H   H49       1.0  0.34344  0.06953  0.04498  1.0000
  H   H50       1.0  0.32500  0.04826  0.09764  1.0000
  C   C34       1.0  0.48256  0.25517  0.07786  1.0000
  C   C35       1.0  0.49321  0.27782  0.07759  1.0000
  C   C36       1.0  0.01328  0.04469  0.13266  1.0000
  S   S3        1.0  0.49384  0.14271  0.05208  1.0000
  H   H51       1.0  0.45774  0.08585  0.19606  1.0000
  H   H52       1.0  0.30144  0.07294  0.12811  1.0000
  H   H53       1.0  0.15254  0.01077  0.23141  1.0000
  C   C37       1.0  0.00051  0.03961  0.05182  1.0000
  S   S4        1.0  0.48161  0.20641  0.08563  1.0000
  H   H54       1.0  0.31633  0.12648  0.10395  1.0000
  H   H55       1.0  0.29430  0.04510  0.16566  1.0000
  H   H56       1.0  0.26426  0.02468  0.08077  1.0000
  H   H57       1.0  0.22554  0.01931  0.05721  1.0000
  H   H58       1.0  0.00309  0.03151  0.14363  1.0000
  H   H59       1.0  0.44377  0.08274  0.16263  1.0000
  H   H60       1.0  0.02996  0.20214  0.15886  1.0000
  C   C38       1.0  0.47398  0.04409  0.15328  1.0000
  H   H61       1.0  0.43131  0.31475  0.23262  1.0000
  H   H62       1.0  0.47200  0.21500  0.02542  1.0000
  C   C39       1.0  0.45030  0.31029  0.22842  1.0000
  H   H63       1.0  0.46200  0.00738  0.11631  1.0000
  H   H64       1.0  0.29334  0.02039  0.14217  1.0000
  H   H65       1.0  0.00425  0.12160  0.01115  1.0000
  C   C40       1.0  0.47924  0.31064  0.14138  1.0000
  H   H66       1.0  0.46854  0.18441  0.01531  1.0000
  S   S5        1.0  0.04790  0.00938  0.13036  1.0000
  C   C41       1.0  0.47757  0.20130  0.01015  1.0000
  C   C42       1.0  0.45410  0.31104  0.12775  1.0000
  H   H67       1.0  0.43969  0.31020  0.14320  1.0000
  C   C43       1.0  0.11692  0.00980  0.21579  1.0000
  H   H68       1.0  0.26664  0.02609  0.04367  1.0000
  H   H69       1.0  0.01358  0.08487  0.03746  1.0000
  Fe  Fe1       1.0  0.49301  0.11493  0.08591  1.0000
  H   H70       1.0  0.00703  0.18065  0.16483  1.0000
  H   H71       1.0  0.47619  0.26314  0.13329  1.0000
  H   H72       1.0  0.22753  0.04843  0.04171  1.0000
  H   H73       1.0  0.48951  0.31576  0.19554  1.0000
  C   C44       1.0  0.00271  0.01224  0.05625  1.0000
  H   H74       1.0  0.04049  0.01309  0.06704  1.0000
  C   C45       1.0  0.01054  0.19897  0.15718  1.0000
  C   C46       1.0  0.00324  0.06761  0.12790  1.0000
  H   H75       1.0  0.34081  0.02265  0.01252  1.0000
  H   H76       1.0  0.46120  0.32582  0.23438  1.0000
  H   H77       1.0  0.49496  0.24053  0.17276  1.0000
  S   S6        1.0  0.49538  0.14212  0.12026  1.0000
  H   H78       1.0  0.47138  0.25058  0.19536  1.0000
  H   H79       1.0  0.45559  0.29464  0.24134  1.0000
  H   H80       1.0  0.48681  0.28587  0.20637  1.0000
  S   S7        1.0  0.00427  0.11412  0.10724  1.0000
  H   H81       1.0  0.48207  0.32838  0.15095  1.0000
  H   H82       1.0  0.47905  0.01085  0.17655  1.0000
  H   H83       1.0  0.00108  0.32089  0.04497  1.0000
  H   H84       1.0  0.00226  0.29902  0.01776  1.0000
  H   H85       1.0  0.44296  0.00683  0.14635  1.0000
  H   H86       1.0  0.00145  0.23528  0.16596  1.0000
  N   N3        1.0  0.49233  0.06073  0.16492  1.0000
  C   C47       1.0  0.49638  0.05623  0.19543  1.0000
  H   H87       1.0  0.49549  0.09895  0.16982  1.0000
  H   H88       1.0  0.49825  0.02394  0.24011  1.0000
  H   H89       1.0  0.49737  0.01254  0.14591  1.0000
  H   H90       1.0  0.00305  0.21570  0.19588  1.0000
  H   H91       1.0  0.43223  0.33307  0.10025  1.0000
  C   C48       1.0  0.02846  0.00345  0.05281  1.0000
  H   H92       1.0  0.47658  0.03710  0.71371  1.0000
  H   H93       1.0  0.48642  0.01020  0.85447  1.0000
  C   C49       1.0  0.48827  0.04642  0.75529  1.0000
  H   H94       1.0  0.33984  0.05251  0.99816  1.0000
  H   H95       1.0  0.46525  0.01808  0.74083  1.0000
  C   C50       1.0  0.46977  0.03670  0.73522  1.0000
  H   H96       1.0  0.48042  0.04638  0.77615  1.0000
  H   H97       1.0  0.49775  0.25349  0.68645  1.0000
  H   H98       1.0  0.45323  0.04781  0.73613  1.0000
  H   H99       1.0  0.47178  0.20712  0.98918  1.0000
  H   H100      1.0  0.49122  0.06531  0.74959  1.0000
  H   H101      1.0  0.48791  0.01629  0.80374  1.0000
  H   H102      1.0  0.49947  0.04128  0.82301  1.0000
  H   H103      1.0  0.42270  0.00282  0.00214  1.0000
  Fe  Fe2       1.0  0.34277  0.62226  0.31416  1.0000
  H   H104      1.0  0.12802  0.49773  0.03709  1.0000
  S   S8        1.0  0.36089  0.59793  0.28270  1.0000
  Fe  Fe3       1.0  0.32392  0.63046  0.37367  1.0000
  C   C51       1.0  0.25525  0.57637  0.45452  1.0000
  S   S9        1.0  0.31599  0.61498  0.41626  1.0000
  C   C52       1.0  0.04297  0.63908  0.26313  1.0000
  C   C53       1.0  0.06432  0.65603  0.25893  1.0000
  S   S10       1.0  0.30831  0.61396  0.33521  1.0000
  S   S11       1.0  0.35968  0.63494  0.35386  1.0000
  Fe  Fe4       1.0  0.36983  0.52657  0.10683  1.0000
  S   S12       1.0  0.37421  0.56540  0.09556  1.0000
  S   S13       1.0  0.40509  0.50688  0.11595  1.0000
  Fe  Fe5       1.0  0.31480  0.53098  0.10224  1.0000
  S   S14       1.0  0.31635  0.56907  0.08879  1.0000
  S   S15       1.0  0.27949  0.51350  0.11286  1.0000
  Fe  Fe6       1.0  0.34749  0.55794  0.06207  1.0000
  H   H105      1.0  0.21450  0.65389  0.44563  1.0000
  Fe  Fe7       1.0  0.34293  0.57262  0.12354  1.0000
  S   S16       1.0  0.33608  0.60274  0.15417  1.0000
  S   S17       1.0  0.34376  0.51897  0.07293  1.0000
  S   S18       1.0  0.34080  0.53471  0.13756  1.0000
  S   S19       1.0  0.26416  0.65769  0.29934  1.0000
  S   S20       1.0  0.44994  0.40453  0.08617  1.0000
  H   H106      1.0  0.28454  0.59419  0.17607  1.0000
  H   H107      1.0  0.15148  0.57337  0.47295  1.0000
  H   H108      1.0  0.03155  0.47082  0.19616  1.0000
  Fe  Fe8       1.0  0.11162  0.63825  0.33260  1.0000
  H   H109      1.0  0.05852  0.62124  0.29919  1.0000
  S   S21       1.0  0.10754  0.60390  0.30801  1.0000
  H   H110      1.0  0.00745  0.49228  0.19272  1.0000
  H   H111      1.0  0.08056  0.64446  0.26078  1.0000
  S   S22       1.0  0.12915  0.64105  0.37480  1.0000
  S   S23       1.0  0.07813  0.65757  0.34631  1.0000
  Fe  Fe9       1.0  0.13893  0.54942  0.09569  1.0000
  S   S24       1.0  0.12090  0.58501  0.10187  1.0000
  S   S25       1.0  0.17604  0.55109  0.07623  1.0000
  Fe  Fe10      1.0  0.09468  0.52295  0.11637  1.0000
  S   S26       1.0  0.07455  0.55717  0.12527  1.0000
  S   S27       1.0  0.08139  0.48476  0.12260  1.0000
  Fe  Fe11      1.0  0.08809  0.56910  0.08360  1.0000
  S   S28       1.0  0.06154  0.58757  0.05415  1.0000
  Fe  Fe12      1.0  0.10927  0.57035  0.14300  1.0000
  S   S29       1.0  0.11754  0.59754  0.17679  1.0000
  S   S30       1.0  0.10664  0.53439  0.07410  1.0000
  S   S31       1.0  0.12870  0.53522  0.13732  1.0000
  C   C54       1.0  0.27082  0.61125  0.12320  1.0000
  C   C55       1.0  0.13388  0.45431  0.01140  1.0000
  C   C56       1.0  0.03429  0.48601  0.10346  1.0000
  C   C57       1.0  0.05309  0.47235  0.11467  1.0000
  C   C58       1.0  0.04940  0.44794  0.11988  1.0000
  C   C59       1.0  0.02733  0.43728  0.11389  1.0000
  H   H112      1.0  0.03675  0.50480  0.09945  1.0000
  H   H113      1.0  0.06375  0.43718  0.12860  1.0000
  H   H114      1.0  0.02488  0.41852  0.11799  1.0000
  H   H115      1.0  0.44807  0.44766  0.01193  1.0000
  H   H116      1.0  0.27464  0.62987  0.12906  1.0000
  H   H117      1.0  0.26521  0.58405  0.20217  1.0000
  C   C60       1.0  0.09314  0.65543  0.45989  1.0000
  C   C61       1.0  0.10789  0.63512  0.45911  1.0000
  H   H118      1.0  0.34335  0.48217  0.02565  1.0000
  H   H119      1.0  0.18110  0.56118  0.46739  1.0000
  H   H120      1.0  0.10286  0.58207  0.01787  1.0000
  C   C62       1.0  0.21716  0.66237  0.31138  1.0000
  C   C63       1.0  0.11105  0.60175  0.27160  1.0000
  C   C64       1.0  0.10123  0.58239  0.25735  1.0000
  C   C65       1.0  0.10347  0.58035  0.22838  1.0000
  C   C66       1.0  0.11579  0.59758  0.21344  1.0000
  C   C67       1.0  0.12603  0.61661  0.22781  1.0000
  C   C68       1.0  0.12359  0.61878  0.25665  1.0000
  H   H121      1.0  0.09164  0.56902  0.26874  1.0000
  H   H122      1.0  0.09545  0.56563  0.21763  1.0000
  H   H123      1.0  0.13577  0.62989  0.21645  1.0000
  H   H124      1.0  0.13156  0.63351  0.26738  1.0000
  C   C69       1.0  0.25107  0.52615  0.10451  1.0000
  C   C70       1.0  0.24801  0.54221  0.08257  1.0000
  C   C71       1.0  0.22496  0.55010  0.07473  1.0000
  C   C72       1.0  0.20469  0.54247  0.08904  1.0000
  C   C73       1.0  0.20780  0.52710  0.11167  1.0000
  C   C74       1.0  0.23084  0.51876  0.11913  1.0000
  H   H125      1.0  0.26333  0.54784  0.07092  1.0000
  H   H126      1.0  0.22280  0.56190  0.05712  1.0000
  H   H127      1.0  0.19244  0.52123  0.12307  1.0000
  H   H128      1.0  0.23299  0.50633  0.13614  1.0000
  C   C75       1.0  0.41724  0.47875  0.10585  1.0000
  C   C76       1.0  0.44179  0.47433  0.10958  1.0000
  C   C77       1.0  0.45217  0.45195  0.10313  1.0000
  C   C78       1.0  0.43802  0.43354  0.09319  1.0000
  C   C79       1.0  0.41347  0.43805  0.08926  1.0000
  C   C80       1.0  0.40313  0.46051  0.09550  1.0000
  H   H129      1.0  0.45291  0.48825  0.11767  1.0000
  H   H130      1.0  0.47105  0.44881  0.10630  1.0000
  H   H131      1.0  0.40232  0.42394  0.08167  1.0000
  H   H132      1.0  0.38417  0.46349  0.09297  1.0000
  H   H133      1.0  0.45264  0.49642  0.03974  1.0000
  C   C81       1.0  0.03347  0.53563  0.00461  1.0000
  H   H134      1.0  0.03488  0.61316  0.19264  1.0000
  H   H135      1.0  0.17216  0.65429  0.45835  1.0000
  H   H136      1.0  0.47280  0.46798  0.00881  1.0000
  C   C82       1.0  0.25131  0.65600  0.21795  1.0000
  H   H137      1.0  0.30666  0.55618  0.17734  1.0000
  H   H138      1.0  0.43053  0.55561  0.08726  1.0000
  H   H139      1.0  0.23246  0.49236  0.06682  1.0000
  C   C83       1.0  0.04157  0.63027  0.29294  1.0000
  H   H140      1.0  0.30075  0.60866  0.47247  1.0000
  C   C84       1.0  0.37961  0.47736  0.01051  1.0000
  H   H141      1.0  0.11211  0.62701  0.43947  1.0000
  C   C85       1.0  0.32748  0.62587  0.44799  1.0000
  C   C86       1.0  0.31628  0.61976  0.47294  1.0000
  H   H142      1.0  0.06071  0.60368  0.17341  1.0000
  C   C87       1.0  0.14994  0.51428  0.00568  1.0000
  C   C88       1.0  0.34775  0.63996  0.44891  1.0000
  C   C89       1.0  0.25491  0.64692  0.41328  1.0000
  C   C90       1.0  0.18030  0.59700  0.48484  1.0000
  C   C91       1.0  0.35191  0.59809  0.24746  1.0000
  C   C92       1.0  0.36246  0.58167  0.22919  1.0000
  C   C93       1.0  0.35683  0.58214  0.20077  1.0000
  C   C94       1.0  0.34112  0.59953  0.19020  1.0000
  C   C95       1.0  0.33020  0.61569  0.20851  1.0000
  C   C96       1.0  0.33530  0.61478  0.23705  1.0000
  H   H143      1.0  0.37528  0.56876  0.23707  1.0000
  H   H144      1.0  0.36518  0.56963  0.18682  1.0000
  H   H145      1.0  0.31792  0.62914  0.20055  1.0000
  H   H146      1.0  0.32674  0.62727  0.25089  1.0000
  N   N4        1.0  0.40986  0.51170  0.00682  1.0000
  H   H147      1.0  0.45063  0.34976  0.12346  1.0000
  H   H148      1.0  0.03061  0.60794  0.01276  1.0000
  C   C97       1.0  0.45002  0.33357  0.11034  1.0000
  C   C98       1.0  0.38739  0.59657  0.00661  1.0000
  C   C99       1.0  0.43118  0.55588  0.06432  1.0000
  H   H149      1.0  0.12256  0.46965  0.00460  1.0000
  H   H150      1.0  0.35674  0.64446  0.42993  1.0000
  H   H151      1.0  0.29134  0.52850  0.17243  1.0000
  H   H152      1.0  0.28738  0.54493  0.20404  1.0000
  S   S32       1.0  0.35095  0.56410  0.01538  1.0000
  H   H153      1.0  0.39849  0.64337  0.16852  1.0000
  H   H154      1.0  0.01580  0.47356  0.16385  1.0000
  H   H155      1.0  0.26058  0.58623  0.47335  1.0000
  H   H156      1.0  0.42223  0.57252  0.05682  1.0000
  C   C100      1.0  0.18653  0.64074  0.41952  1.0000
  H   H157      1.0  0.42795  0.47635  0.04361  1.0000
  H   H158      1.0  0.15043  0.65064  0.43132  1.0000
  H   H159      1.0  0.06830  0.54068  0.02375  1.0000
  N   N5        1.0  0.16275  0.48034  0.03971  1.0000
  H   H160      1.0  0.39457  0.49666  0.04428  1.0000
  C   C101      1.0  0.18839  0.48795  0.04031  1.0000
  C   C102      1.0  0.15549  0.46954  0.06698  1.0000
  C   C103      1.0  0.14714  0.50200  0.03425  1.0000
  H   H161      1.0  0.04394  0.62967  0.16220  1.0000
  C   C104      1.0  0.16144  0.48426  0.09311  1.0000
  C   C105      1.0  0.24895  0.62978  0.21014  1.0000
  C   C106      1.0  0.15254  0.47201  0.11925  1.0000
  C   C107      1.0  0.06628  0.63495  0.19856  1.0000
  H   H162      1.0  0.40001  0.53449  0.06076  1.0000
  C   C108      1.0  0.05380  0.52745  0.02374  1.0000
  H   H163      1.0  0.19066  0.50337  0.05441  1.0000
  H   H164      1.0  0.16355  0.45141  0.06971  1.0000
  H   H165      1.0  0.13589  0.46684  0.06739  1.0000
  H   H166      1.0  0.37457  0.51401  0.02403  1.0000
  H   H167      1.0  0.15080  0.51591  0.04977  1.0000
  Fe  Fe13      1.0  0.48919  0.39248  0.08809  1.0000
  Fe  Fe14      1.0  0.09726  0.66331  0.38683  1.0000
  H   H168      1.0  0.15299  0.50224  0.09216  1.0000
  H   H169      1.0  0.18092  0.48634  0.09552  1.0000
  C   C109      1.0  0.16987  0.57767  0.46641  1.0000
  H   H170      1.0  0.23729  0.48685  0.03052  1.0000
  H   H171      1.0  0.28572  0.61711  0.08249  1.0000
  H   H172      1.0  0.13289  0.47006  0.11843  1.0000
  H   H173      1.0  0.16112  0.45415  0.12182  1.0000
  H   H174      1.0  0.15695  0.48297  0.13756  1.0000
  N   N6        1.0  0.40467  0.49746  0.19909  1.0000
  C   C110      1.0  0.37918  0.50141  0.18966  1.0000
  C   C111      1.0  0.42085  0.51591  0.18645  1.0000
  C   C112      1.0  0.41257  0.47316  0.18881  1.0000
  C   C113      1.0  0.40685  0.49747  0.23017  1.0000
  C   C114      1.0  0.39727  0.52002  0.24501  1.0000
  C   C115      1.0  0.36062  0.48386  0.20137  1.0000
  C   C116      1.0  0.43937  0.46651  0.19283  1.0000
  C   C117      1.0  0.41002  0.54105  0.18028  1.0000
  C   C118      1.0  0.42892  0.55806  0.16972  1.0000
  C   C119      1.0  0.39769  0.51670  0.27636  1.0000
  C   C120      1.0  0.33550  0.49028  0.19119  1.0000
  C   C121      1.0  0.44489  0.44162  0.18153  1.0000
  H   H175      1.0  0.37820  0.50050  0.16669  1.0000
  H   H176      1.0  0.37255  0.51956  0.19488  1.0000
  H   H177      1.0  0.43707  0.51817  0.19944  1.0000
  H   H178      1.0  0.42774  0.50969  0.16618  1.0000
  H   H179      1.0  0.40853  0.47157  0.16629  1.0000
  H   H180      1.0  0.40252  0.45882  0.19922  1.0000
  H   H181      1.0  0.39805  0.48161  0.23917  1.0000
  H   H182      1.0  0.42583  0.49553  0.23654  1.0000
  H   H183      1.0  0.37863  0.52436  0.23903  1.0000
  H   H184      1.0  0.40873  0.53539  0.24029  1.0000
  H   H185      1.0  0.36446  0.46533  0.19467  1.0000
  H   H186      1.0  0.36032  0.48439  0.22426  1.0000
  H   H187      1.0  0.44439  0.46641  0.21500  1.0000
  H   H188      1.0  0.45102  0.47915  0.18180  1.0000
  H   H189      1.0  0.39615  0.53997  0.16390  1.0000
  H   H190      1.0  0.40180  0.54906  0.19879  1.0000
  H   H191      1.0  0.42049  0.57567  0.16495  1.0000
  H   H192      1.0  0.44300  0.56057  0.18557  1.0000
  H   H193      1.0  0.43708  0.55103  0.15046  1.0000
  H   H194      1.0  0.41612  0.51292  0.28383  1.0000
  H   H195      1.0  0.39107  0.53331  0.28641  1.0000
  H   H196      1.0  0.38596  0.50188  0.28260  1.0000
  H   H197      1.0  0.33046  0.50878  0.19717  1.0000
  H   H198      1.0  0.33434  0.48855  0.16837  1.0000
  H   H199      1.0  0.32249  0.47794  0.20052  1.0000
  H   H200      1.0  0.43491  0.42791  0.19312  1.0000
  H   H201      1.0  0.44006  0.44057  0.15930  1.0000
  H   H202      1.0  0.46425  0.43755  0.18365  1.0000
  H   H203      1.0  0.36313  0.46604  0.04905  1.0000
  H   H204      1.0  0.40608  0.54935  0.01564  1.0000
  H   H205      1.0  0.21412  0.65186  0.29304  1.0000
  C   C122      1.0  0.26884  0.61086  0.09170  1.0000
  C   C123      1.0  0.23194  0.47864  0.05041  1.0000
  H   H206      1.0  0.45013  0.55575  0.05789  1.0000
  H   H207      1.0  0.39439  0.61283  0.17851  1.0000
  C   C124      1.0  0.05034  0.61951  0.18061  1.0000
  H   H208      1.0  0.07274  0.62404  0.21629  1.0000
  C   C125      1.0  0.41856  0.53402  0.05306  1.0000
  H   H209      1.0  0.38941  0.59723  0.02882  1.0000
  H   H210      1.0  0.20294  0.45988  0.06837  1.0000
  N   N7        1.0  0.23220  0.63284  0.41406  1.0000
  C   C126      1.0  0.32527  0.62761  0.49857  1.0000
  C   C127      1.0  0.22603  0.62395  0.38545  1.0000
  C   C128      1.0  0.05314  0.65794  0.20839  1.0000
  C   C129      1.0  0.23364  0.61258  0.43461  1.0000
  C   C130      1.0  0.25305  0.59331  0.42976  1.0000
  H   H211      1.0  0.26910  0.63266  0.17298  1.0000
  H   H212      1.0  0.39797  0.63690  0.27020  1.0000
  C   C131      1.0  0.24701  0.61636  0.36639  1.0000
  C   C132      1.0  0.23808  0.60329  0.34084  1.0000
  H   H213      1.0  0.46596  0.45458  0.04163  1.0000
  H   H214      1.0  0.04713  0.52570  0.04522  1.0000
  H   H215      1.0  0.00414  0.43772  0.19043  1.0000
  H   H216      1.0  0.26336  0.61974  0.22113  1.0000
  H   H217      1.0  0.27001  0.63613  0.40519  1.0000
  H   H218      1.0  0.21340  0.60889  0.38684  1.0000
  H   H219      1.0  0.21641  0.63814  0.37348  1.0000
  H   H220      1.0  0.02699  0.61727  0.29496  1.0000
  C   C133      1.0  0.16890  0.65621  0.43581  1.0000
  H   H221      1.0  0.23590  0.61960  0.45590  1.0000
  H   H222      1.0  0.21671  0.60272  0.43481  1.0000
  H   H223      1.0  0.27059  0.60130  0.42662  1.0000
  H   H224      1.0  0.24838  0.58240  0.41151  1.0000
  H   H225      1.0  0.12665  0.60831  0.48311  1.0000
  C   C134      1.0  0.35821  0.46888  0.02703  1.0000
  H   H226      1.0  0.18437  0.62213  0.42647  1.0000
  H   H227      1.0  0.43614  0.53897  0.01357  1.0000
  H   H228      1.0  0.25650  0.63244  0.35918  1.0000
  H   H229      1.0  0.26030  0.60467  0.37686  1.0000
  H   H230      1.0  0.25321  0.59964  0.32669  1.0000
  H   H231      1.0  0.23008  0.58605  0.34680  1.0000
  H   H232      1.0  0.22460  0.61431  0.32952  1.0000
  H   H233      1.0  0.37526  0.63946  0.21182  1.0000
  C   C135      1.0  0.21244  0.64960  0.42337  1.0000
  C   C136      1.0  0.34594  0.64120  0.49950  1.0000
  C   C137      1.0  0.01221  0.47538  0.09760  1.0000
  H   H234      1.0  0.19381  0.49472  0.01970  1.0000
  C   C138      1.0  0.11619  0.62459  0.48387  1.0000
  H   H235      1.0  0.13684  0.54919  0.01900  1.0000
  H   H236      1.0  0.20764  0.45417  0.03226  1.0000
  H   H237      1.0  0.24505  0.46432  0.05586  1.0000
  N   N8        1.0  0.24715  0.60144  0.16781  1.0000
  C   C139      1.0  0.24752  0.60244  0.13663  1.0000
  C   C140      1.0  0.22299  0.59340  0.17786  1.0000
  H   H238      1.0  0.26911  0.66265  0.21205  1.0000
  C   C141      1.0  0.26693  0.58576  0.17937  1.0000
  C   C142      1.0  0.26871  0.56005  0.16821  1.0000
  H   H239      1.0  0.18130  0.64167  0.39739  1.0000
  H   H240      1.0  0.10017  0.65793  0.22238  1.0000
  C   C143      1.0  0.20891  0.57605  0.15920  1.0000
  C   C144      1.0  0.18646  0.56734  0.17355  1.0000
  C   C145      1.0  0.38957  0.50078  0.02256  1.0000
  C   C146      1.0  0.28984  0.54665  0.18138  1.0000
  H   H241      1.0  0.16973  0.61361  0.48123  1.0000
  H   H242      1.0  0.23267  0.61420  0.12900  1.0000
  H   H243      1.0  0.24416  0.58463  0.12759  1.0000
  H   H244      1.0  0.22458  0.58519  0.19881  1.0000
  H   H245      1.0  0.21062  0.60902  0.18034  1.0000
  C   C147      1.0  0.25100  0.62643  0.17835  1.0000
  Fe  Fe15      1.0  0.29781  0.65134  0.32347  1.0000
  C   C148      1.0  0.35709  0.64725  0.47453  1.0000
  H   H246      1.0  0.12576  0.44633  0.03006  1.0000
  H   H247      1.0  0.27139  0.55994  0.14554  1.0000
  H   H248      1.0  0.25257  0.54998  0.17347  1.0000
  H   H249      1.0  0.26973  0.64222  0.45504  1.0000
  H   H250      1.0  0.42669  0.64915  0.26868  1.0000
  C   C149      1.0  0.00857  0.45096  0.10265  1.0000
  H   H251      1.0  0.23158  0.62367  0.21810  1.0000
  H   H252      1.0  0.20308  0.58521  0.13984  1.0000
  H   H253      1.0  0.21973  0.56026  0.15345  1.0000
  H   H254      1.0  0.17663  0.55539  0.15944  1.0000
  H   H255      1.0  0.19112  0.55720  0.19263  1.0000
  H   H256      1.0  0.17447  0.58260  0.17886  1.0000
  C   C150      1.0  0.15983  0.46196  0.01739  1.0000
  C   C151      1.0  0.01375  0.47418  0.18666  1.0000
  H   H257      1.0  0.26560  0.59249  0.08429  1.0000
  H   H258      1.0  0.43467  0.64309  0.31895  1.0000
  C   C152      1.0  0.06638  0.59428  0.01878  1.0000
  H   H259      1.0  0.24931  0.65792  0.24064  1.0000
  H   H260      1.0  0.03444  0.65341  0.21294  1.0000
  C   C153      1.0  0.26371  0.65703  0.44126  1.0000
  H   H261      1.0  0.39339  0.46294  0.01130  1.0000
  C   C154      1.0  0.45807  0.46206  0.02227  1.0000
  H   H262      1.0  0.39939  0.62288  0.22763  1.0000
  H   H263      1.0  0.25282  0.66201  0.39840  1.0000
  H   H264      1.0  0.28617  0.59969  0.12935  1.0000
  H   H265      1.0  0.25408  0.62280  0.08448  1.0000
  H   H266      1.0  0.16992  0.44537  0.02292  1.0000
  H   H267      1.0  0.16912  0.58395  0.44464  1.0000
  C   C155      1.0  0.40758  0.65406  0.27159  1.0000
  C   C156      1.0  0.44152  0.48306  0.02916  1.0000
  H   H268      1.0  0.08201  0.63975  0.18596  1.0000
  H   H269      1.0  0.04500  0.62313  0.24983  1.0000
  H   H270      1.0  0.23813  0.56730  0.45829  1.0000
  C   C157      1.0  0.40328  0.62964  0.18430  1.0000
  C   C158      1.0  0.41815  0.53405  0.02107  1.0000
  C   C159      1.0  0.20701  0.46829  0.04822  1.0000
  H   H271      1.0  0.03785  0.64540  0.30707  1.0000
  H   H272      1.0  0.06115  0.50990  0.01714  1.0000
  H   H273      1.0  0.23815  0.63910  0.16818  1.0000
  H   H274      1.0  0.02549  0.55208  0.01367  1.0000
  H   H275      1.0  0.26920  0.56260  0.45028  1.0000
  H   H276      1.0  0.19865  0.60011  0.47787  1.0000
  C   C160      1.0  0.40670  0.66114  0.22163  1.0000
  H   H277      1.0  0.42738  0.51805  0.06198  1.0000
  C   C161      1.0  0.39488  0.63748  0.21288  1.0000
  H   H278      1.0  0.07835  0.65424  0.01198  1.0000
  S   S33       1.0  0.33125  0.65875  0.30057  1.0000
  H   H279      1.0  0.29941  0.66450  0.42599  1.0000
  H   H280      1.0  0.02565  0.64764  0.25794  1.0000
  H   H281      1.0  0.11409  0.53016  0.00496  1.0000
  H   H282      1.0  0.42284  0.62641  0.18425  1.0000
  H   H283      1.0  0.37344  0.65709  0.47504  1.0000
  C   C162      1.0  0.08726  0.66541  0.48563  1.0000
  H   H284      1.0  0.35192  0.45173  0.01854  1.0000
  H   H285      1.0  0.40684  0.62720  0.32007  1.0000
  C   C163      1.0  0.08820  0.58955  0.00593  1.0000
  H   H286      1.0  0.42624  0.65758  0.22156  1.0000
  H   H287      1.0  0.36412  0.65561  0.25257  1.0000
  H   H288      1.0  0.18012  0.66411  0.32234  1.0000
  C   C164      1.0  0.41517  0.64494  0.32226  1.0000
  H   H289      1.0  0.41214  0.65137  0.34365  1.0000
  H   H290      1.0  0.46371  0.33488  0.09392  1.0000
  H   H291      1.0  0.01994  0.52150  0.00444  1.0000
  H   H292      1.0  0.38494  0.66458  0.30657  1.0000
  C   C165      1.0  0.40414  0.66275  0.30172  1.0000
  Fe  Fe16      1.0  0.34425  0.64612  0.57486  1.0000
  C   C166      1.0  0.26796  0.66190  0.71415  1.0000
  H   H293      1.0  0.48397  0.66012  0.71687  1.0000
  Fe  Fe17      1.0  0.35615  0.63972  0.63759  1.0000
  S   S34       1.0  0.31965  0.65184  0.65002  1.0000
  S   S35       1.0  0.38489  0.62985  0.66956  1.0000
  Fe  Fe18      1.0  0.30692  0.62885  0.61544  1.0000
  S   S36       1.0  0.27422  0.60665  0.62131  1.0000
  H   H294      1.0  0.49356  0.41712  0.95192  1.0000
  S   S37       1.0  0.34336  0.61465  0.60430  1.0000
  H   H295      1.0  0.23145  0.61447  0.57188  1.0000
  Fe  Fe19      1.0  0.41086  0.63506  0.83144  1.0000
  S   S38       1.0  0.44862  0.63980  0.81794  1.0000
  S   S39       1.0  0.37931  0.63783  0.80131  1.0000
  Fe  Fe20      1.0  0.42528  0.63048  0.89318  1.0000
  S   S40       1.0  0.46408  0.63564  0.88291  1.0000
  S   S41       1.0  0.41901  0.62749  0.93995  1.0000
  Fe  Fe21      1.0  0.45807  0.61005  0.84803  1.0000
  S   S42       1.0  0.47822  0.57537  0.83663  1.0000
  H   H296      1.0  0.41682  0.55188  0.92037  1.0000
  S   S43       1.0  0.41971  0.60370  0.85941  1.0000
  Fe  Fe22      1.0  0.10575  0.63022  0.64431  1.0000
  S   S44       1.0  0.30681  0.65802  0.58374  1.0000
  S   S45       1.0  0.09006  0.60600  0.67712  1.0000
  Fe  Fe23      1.0  0.11623  0.63721  0.58232  1.0000
  C   C167      1.0  0.33162  0.58237  0.68469  1.0000
  S   S46       1.0  0.12083  0.62025  0.54013  1.0000
  Fe  Fe24      1.0  0.45102  0.66502  0.85409  1.0000
  H   H297      1.0  0.16044  0.58834  0.52147  1.0000
  H   H298      1.0  0.20239  0.64805  0.56646  1.0000
  S   S47       1.0  0.13789  0.62203  0.61786  1.0000
  H   H299      1.0  0.44525  0.56089  0.74332  1.0000
  Fe  Fe25      1.0  0.04257  0.63220  0.83141  1.0000
  C   C168      1.0  0.48144  0.61083  0.72807  1.0000
  S   S48       1.0  0.06478  0.64714  0.79621  1.0000
  Fe  Fe26      1.0  0.04806  0.61945  0.89383  1.0000
  H   H300      1.0  0.47389  0.56588  0.71216  1.0000
  S   S49       1.0  0.07654  0.61002  0.92609  1.0000
  C   C169      1.0  0.47852  0.66518  0.96881  1.0000
  S   S50       1.0  0.04557  0.59775  0.85505  1.0000
  H   H301      1.0  0.48979  0.63707  0.76045  1.0000
  C   C170      1.0  0.07219  0.60439  0.96178  1.0000
  H   H302      1.0  0.49478  0.66453  0.95585  1.0000
  C   C171      1.0  0.28177  0.63945  0.70373  1.0000
  H   H303      1.0  0.21062  0.56985  0.57621  1.0000
  C   C172      1.0  0.05040  0.60915  0.97463  1.0000
  H   H304      1.0  0.49563  0.61697  0.71388  1.0000
  H   H305      1.0  0.03571  0.61645  0.96263  1.0000
  C   C173      1.0  0.08350  0.61704  0.71059  1.0000
  C   C174      1.0  0.09381  0.63787  0.72041  1.0000
  C   C175      1.0  0.08815  0.64645  0.74687  1.0000
  C   C176      1.0  0.07202  0.63444  0.76382  1.0000
  C   C177      1.0  0.06177  0.61347  0.75419  1.0000
  C   C178      1.0  0.06763  0.60475  0.72772  1.0000
  H   H306      1.0  0.10644  0.64722  0.70783  1.0000
  S   S51       1.0  0.08307  0.64181  0.60790  1.0000
  H   H307      1.0  0.04935  0.60402  0.76707  1.0000
  H   H308      1.0  0.05969  0.58850  0.72039  1.0000
  H   H309      1.0  0.05924  0.65015  0.66557  1.0000
  H   H310      1.0  0.31663  0.62264  0.51761  1.0000
  H   H311      1.0  0.02472  0.66490  0.74894  1.0000
  C   C179      1.0  0.26177  0.60872  0.54604  1.0000
  C   C180      1.0  0.04256  0.54088  0.97502  1.0000
  C   C181      1.0  0.39988  0.60965  0.96044  1.0000
  H   H312      1.0  0.45916  0.62838  0.75943  1.0000
  H   H313      1.0  0.21049  0.58473  0.71292  1.0000
  C   C182      1.0  0.38237  0.59531  0.94884  1.0000
  C   C183      1.0  0.27251  0.61901  0.74874  1.0000
  N   N9        1.0  0.19263  0.60535  0.53584  1.0000
  H   H314      1.0  0.38018  0.59480  0.92664  1.0000
  C   C184      1.0  0.24922  0.62518  0.62672  1.0000
  C   C185      1.0  0.25199  0.64965  0.63014  1.0000
  C   C186      1.0  0.47217  0.58167  0.76537  1.0000
  C   C187      1.0  0.20904  0.65527  0.63259  1.0000
  C   C188      1.0  0.20624  0.63066  0.62994  1.0000
  C   C189      1.0  0.22637  0.61560  0.62726  1.0000
  C   C190      1.0  0.40029  0.51884  0.97862  1.0000
  H   H315      1.0  0.29799  0.58401  0.72872  1.0000
  H   H316      1.0  0.18862  0.62329  0.62993  1.0000
  H   H317      1.0  0.22429  0.59659  0.62494  1.0000
  C   C191      1.0  0.38297  0.63329  0.70607  1.0000
  C   C192      1.0  0.36184  0.64028  0.71925  1.0000
  C   C193      1.0  0.36104  0.64183  0.74836  1.0000
  C   C194      1.0  0.38135  0.63669  0.76463  1.0000
  C   C195      1.0  0.40253  0.63025  0.75141  1.0000
  C   C196      1.0  0.40328  0.62835  0.72236  1.0000
  H   H318      1.0  0.39705  0.50283  0.96578  1.0000
  C   C197      1.0  0.44620  0.57741  0.75579  1.0000
  H   H319      1.0  0.41818  0.62647  0.76372  1.0000
  H   H320      1.0  0.41965  0.62294  0.71237  1.0000
  H   H321      1.0  0.26725  0.60165  0.75800  1.0000
  H   H322      1.0  0.03521  0.65892  0.97064  1.0000
  H   H323      1.0  0.23235  0.63041  0.68950  1.0000
  H   H324      1.0  0.22393  0.58225  0.53455  1.0000
  H   H325      1.0  0.34448  0.59654  0.68980  1.0000
  C   C198      1.0  0.05843  0.53739  0.91794  1.0000
  H   H326      1.0  0.05304  0.55752  0.97612  1.0000
  H   H327      1.0  0.46234  0.48368  0.89762  1.0000
  C   C199      1.0  0.42969  0.57437  0.78054  1.0000
  H   H328      1.0  0.25701  0.63110  0.75221  1.0000
  H   H329      1.0  0.09122  0.66283  0.53009  1.0000
  C   C200      1.0  0.29368  0.62825  0.76622  1.0000
  H   H330      1.0  0.48680  0.43256  0.98331  1.0000
  H   H331      1.0  0.03373  0.66139  0.64680  1.0000
  C   C201      1.0  0.18502  0.59828  0.56458  1.0000
  C   C202      1.0  0.29958  0.60038  0.71575  1.0000
  H   H332      1.0  0.05527  0.51795  0.91870  1.0000
  H   H333      1.0  0.02352  0.55272  0.90890  1.0000
  H   H334      1.0  0.33426  0.56715  0.69919  1.0000
  C   C203      1.0  0.03036  0.62583  0.66215  1.0000
  H   H335      1.0  0.04153  0.57066  0.92963  1.0000
  H   H336      1.0  0.05166  0.54151  0.87366  1.0000
  H   H337      1.0  0.03537  0.61472  0.68038  1.0000
  H   H338      1.0  0.26076  0.59940  0.68294  1.0000
  H   H339      1.0  0.31545  0.60984  0.72380  1.0000
  H   H340      1.0  0.07355  0.54134  0.93202  1.0000
  H   H341      1.0  0.47743  0.49702  0.86839  1.0000
  C   C204      1.0  0.25708  0.60295  0.70512  1.0000
  H   H342      1.0  0.14049  0.44303  0.96901  1.0000
  H   H343      1.0  0.26724  0.61044  0.52411  1.0000
  H   H344      1.0  0.17092  0.64435  0.56908  1.0000
  C   C205      1.0  0.48580  0.43387  0.96044  1.0000
  C   C206      1.0  0.28559  0.63673  0.79466  1.0000
  H   H345      1.0  0.45608  0.52509  0.91667  1.0000
  S   S52       1.0  0.04870  0.65368  0.86979  1.0000
  C   C207      1.0  0.45977  0.52186  0.89452  1.0000
  C   C208      1.0  0.17963  0.58950  0.51576  1.0000
  C   C209      1.0  0.09109  0.59469  0.97761  1.0000
  C   C210      1.0  0.00243  0.51303  0.91963  1.0000
  H   H346      1.0  0.21683  0.58989  0.67682  1.0000
  H   H347      1.0  0.29412  0.57758  0.67947  1.0000
  C   C211      1.0  0.00547  0.56124  0.96163  1.0000
  H   H348      1.0  0.07206  0.56286  0.88832  1.0000
  H   H349      1.0  0.13508  0.54427  0.98234  1.0000
  H   H350      1.0  0.18434  0.55905  0.55904  1.0000
  H   H351      1.0  0.44509  0.50279  0.99156  1.0000
  H   H352      1.0  0.46593  0.60722  0.71437  1.0000
  H   H353      1.0  0.03846  0.61753  0.64356  1.0000
  H   H354      1.0  0.30261  0.64320  0.75569  1.0000
  H   H355      1.0  0.15987  0.56785  0.59998  1.0000
  H   H356      1.0  0.16784  0.46820  0.99770  1.0000
  H   H357      1.0  0.43561  0.55894  0.79348  1.0000
  H   H358      1.0  0.24849  0.65944  0.71397  1.0000
  C   C212      1.0  0.41611  0.53563  0.96117  1.0000
  H   H359      1.0  0.41124  0.57128  0.77320  1.0000
  H   H360      1.0  0.09633  0.66255  0.75426  1.0000
  C   C213      1.0  0.46844  0.65446  0.72927  1.0000
  H   H361      1.0  0.18478  0.54843  0.60838  1.0000
  H   H362      1.0  0.42948  0.59067  0.79348  1.0000
  C   C214      1.0  0.40641  0.53834  0.93173  1.0000
  H   H363      1.0  0.05570  0.52647  0.97007  1.0000
  H   H364      1.0  0.41564  0.62129  0.99867  1.0000
  H   H365      1.0  0.19314  0.60977  0.58040  1.0000
  H   H366      1.0  0.45823  0.63900  0.99202  1.0000
  C   C215      1.0  0.18540  0.63104  0.52992  1.0000
  H   H367      1.0  0.16540  0.60119  0.56666  1.0000
  H   H368      1.0  0.11447  0.43044  0.98466  1.0000
  C   C216      1.0  0.49736  0.49882  0.90737  1.0000
  H   H369      1.0  0.45613  0.66499  0.93234  1.0000
  S   S53       1.0  0.35880  0.65079  0.53110  1.0000
  N   N10       1.0  0.27746  0.61603  0.71832  1.0000
  H   H370      1.0  0.49036  0.47183  0.95776  1.0000
  H   H371      1.0  0.46995  0.53710  0.88612  1.0000
  C   C217      1.0  0.30606  0.59208  0.68613  1.0000
  H   H372      1.0  0.27301  0.65214  0.79266  1.0000
  H   H373      1.0  0.49521  0.55117  0.73342  1.0000
  H   H374      1.0  0.42464  0.47944  0.98898  1.0000
  H   H375      1.0  0.14362  0.41947  0.99458  1.0000
  H   H376      1.0  0.03936  0.65225  0.70947  1.0000
  H   H377      1.0  0.02562  0.50417  0.95351  1.0000
  H   H378      1.0  0.27335  0.62022  0.55876  1.0000
  C   C218      1.0  0.04755  0.60422  0.00300  1.0000
  C   C219      1.0  0.01256  0.51882  0.94875  1.0000
  H   H379      1.0  0.34470  0.64718  0.75841  1.0000
  C   C220      1.0  0.23242  0.61574  0.70501  1.0000
  H   H380      1.0  0.27685  0.62207  0.80607  1.0000
  H   H381      1.0  0.23432  0.63550  0.54375  1.0000
  C   C221      1.0  0.36984  0.58227  0.99499  1.0000
  H   H382      1.0  0.30712  0.61372  0.76955  1.0000
  H   H383      1.0  0.38748  0.54439  0.93193  1.0000
  H   H384      1.0  0.30433  0.60692  0.67114  1.0000
  H   H385      1.0  0.43468  0.52882  0.95990  1.0000
  C   C222      1.0  0.21903  0.60141  0.53166  1.0000
  C   C223      1.0  0.47377  0.49850  0.89082  1.0000
  H   H386      1.0  0.19557  0.60871  0.69447  1.0000
  H   H387      1.0  0.01717  0.50925  0.90501  1.0000
  H   H388      1.0  0.27785  0.63766  0.68127  1.0000
  H   H389      1.0  0.25523  0.58512  0.71510  1.0000
  H   H390      1.0  0.47185  0.59527  0.78204  1.0000
  C   C224      1.0  0.11033  0.63452  0.50959  1.0000
  H   H391      1.0  0.45325  0.65085  0.71520  1.0000
  C   C225      1.0  0.06633  0.54402  0.88882  1.0000
  H   H392      1.0  0.47807  0.56491  0.77586  1.0000
  H   H393      1.0  0.48978  0.63270  0.99014  1.0000
  H   H394      1.0  0.08172  0.53257  0.88270  1.0000
  H   H395      1.0  0.49279  0.44573  0.81763  1.0000
  C   C226      1.0  0.09605  0.65518  0.51039  1.0000
  H   H396      1.0  0.44261  0.52107  0.88310  1.0000
  S   S54       1.0  0.41287  0.66152  0.86650  1.0000
  H   H397      1.0  0.47113  0.62787  0.96033  1.0000
  H   H398      1.0  0.46682  0.43549  0.95407  1.0000
  H   H399      1.0  0.26955  0.65721  0.63007  1.0000
  C   C227      1.0  0.36744  0.58177  0.96604  1.0000
  C   C228      1.0  0.47482  0.63240  0.74659  1.0000
  H   H400      1.0  0.18693  0.57096  0.51679  1.0000
  Fe  Fe27      1.0  0.00568  0.60071  0.86079  1.0000
  C   C229      1.0  0.18552  0.64872  0.55458  1.0000
  H   H401      1.0  0.33544  0.57616  0.66338  1.0000
  H   H402      1.0  0.40776  0.52114  0.92056  1.0000
  C   C230      1.0  0.40226  0.61018  0.98942  1.0000
  N   N11       1.0  0.02380  0.54292  0.95253  1.0000
  C   C231      1.0  0.03592  0.55186  0.92677  1.0000
  N   N12       1.0  0.48956  0.58848  0.74313  1.0000
  S   S55       1.0  0.00250  0.63415  0.83422  1.0000
  H   H403      1.0  0.10807  0.59104  0.96789  1.0000
  H   H404      1.0  0.26461  0.58999  0.55306  1.0000
  H   H405      1.0  0.34615  0.64436  0.70702  1.0000
  H   H406      1.0  0.02959  0.66101  0.93409  1.0000
  H   H407      1.0  0.14604  0.50191  0.98853  1.0000
  C   C232      1.0  0.03033  0.66260  0.69263  1.0000
  H   H408      1.0  0.16673  0.63208  0.52212  1.0000
  H   H409      1.0  0.01096  0.65885  0.69448  1.0000
  H   H410      1.0  0.22761  0.62310  0.72543  1.0000
  C   C233      1.0  0.19105  0.57235  0.57385  1.0000
  H   H411      1.0  0.01069  0.62601  0.65968  1.0000
  H   H412      1.0  0.19649  0.63845  0.51302  1.0000
  C   C234      1.0  0.23574  0.61642  0.54978  1.0000
  H   H413      1.0  0.30132  0.64246  0.80680  1.0000
  H   H414      1.0  0.35386  0.57088  0.95681  1.0000
  C   C235      1.0  0.17961  0.56677  0.60170  1.0000
  H   H415      1.0  0.43912  0.59240  0.74317  1.0000
  H   H416      1.0  0.49481  0.54436  0.67255  1.0000
  H   H417      1.0  0.18550  0.57943  0.61779  1.0000
  S   S56       1.0  0.00867  0.62119  0.90066  1.0000
  C   C236      1.0  0.49134  0.56840  0.72263  1.0000
  H   H418      1.0  0.41645  0.55374  0.97034  1.0000
  H   H419      1.0  0.49860  0.52967  0.82372  1.0000
  Fe  Fe28      1.0  0.14793  0.66000  0.62552  1.0000
  H   H420      1.0  0.48425  0.45217  0.90987  1.0000
  H   H421      1.0  0.38263  0.52814  0.98062  1.0000
  C   C237      1.0  0.23200  0.66454  0.63369  1.0000
  H   H422      1.0  0.49320  0.50292  0.92927  1.0000
  C   C238      1.0  0.13318  0.43568  0.98850  1.0000
  H   H423      1.0  0.30095  0.64410  0.70505  1.0000
  C   C239      1.0  0.21270  0.59866  0.69679  1.0000
  H   H424      1.0  0.22407  0.60555  0.51008  1.0000
  Fe  Fe29      1.0  0.00919  0.65435  0.87373  1.0000
  C   C240      1.0  0.47408  0.63963  0.97841  1.0000
  H   H425      1.0  0.01435  0.57834  0.96621  1.0000
  H   H426      1.0  0.37351  0.47975  0.98887  1.0000
  H   H427      1.0  0.48366  0.45836  0.86400  1.0000
  C   C241      1.0  0.03948  0.65119  0.66539  1.0000
  H   H428      1.0  0.27330  0.66635  0.73556  1.0000
  H   H429      1.0  0.16825  0.52103  0.00308  1.0000
  C   C242      1.0  0.13289  0.53573  0.00289  1.0000
  C   C243      1.0  0.43025  0.49420  0.00271  1.0000
  H   H430      1.0  0.33435  0.70320  0.45335  1.0000
  S   S57       1.0  0.36756  0.70336  0.34729  1.0000
  Fe  Fe30      1.0  0.30165  0.87474  0.32965  1.0000
  S   S58       1.0  0.33249  0.89383  0.34829  1.0000
  S   S59       1.0  0.26668  0.89368  0.32186  1.0000
  Fe  Fe31      1.0  0.33187  0.83151  0.31362  1.0000
  S   S60       1.0  0.36540  0.84751  0.33035  1.0000
  S   S61       1.0  0.32672  0.79720  0.29037  1.0000
  Fe  Fe32      1.0  0.34232  0.85806  0.36672  1.0000
  S   S62       1.0  0.35544  0.84970  0.41038  1.0000
  Fe  Fe33      1.0  0.35220  0.88173  0.31034  1.0000
  S   S63       1.0  0.37169  0.90983  0.28558  1.0000
  S   S64       1.0  0.30980  0.83977  0.35083  1.0000
  S   S65       1.0  0.32069  0.86471  0.29105  1.0000
  Fe  Fe34      1.0  0.34793  0.94700  0.12568  1.0000
  S   S66       1.0  0.32796  0.98211  0.12573  1.0000
  S   S67       1.0  0.34486  0.91726  0.15771  1.0000
  Fe  Fe35      1.0  0.36184  0.95206  0.06390  1.0000
  C   C244      1.0  0.22725  0.91384  0.49359  1.0000
  S   S68       1.0  0.38323  0.93060  0.03184  1.0000
  H   H431      1.0  0.28543  0.87359  0.00483  1.0000
  Fe  Fe36      1.0  0.31292  0.97112  0.08485  1.0000
  S   S69       1.0  0.27406  0.97242  0.07012  1.0000
  S   S70       1.0  0.38021  0.96140  0.10403  1.0000
  S   S71       1.0  0.33121  0.93526  0.08584  1.0000
  C   C245      1.0  0.32384  0.90312  0.01358  1.0000
  S   S72       1.0  0.07984  0.71885  0.30489  1.0000
  Fe  Fe37      1.0  0.13747  0.98032  0.11792  1.0000
  S   S73       1.0  0.13368  0.94169  0.10782  1.0000
  C   C246      1.0  0.01233  0.78890  0.27458  1.0000
  H   H432      1.0  0.37359  0.71778  0.41291  1.0000
  S   S74       1.0  0.07594  0.94914  0.11168  1.0000
  Fe  Fe38      1.0  0.10616  0.94122  0.14167  1.0000
  S   S75       1.0  0.11065  0.91130  0.17405  1.0000
  Fe  Fe39      1.0  0.10391  0.95338  0.07896  1.0000
  S   S76       1.0  0.10307  0.94316  0.03312  1.0000
  S   S77       1.0  0.11071  0.97952  0.15264  1.0000
  H   H433      1.0  0.34587  0.70361  0.40504  1.0000
  Fe  Fe40      1.0  0.14970  0.84577  0.35022  1.0000
  S   S78       1.0  0.15036  0.88472  0.36038  1.0000
  S   S79       1.0  0.18169  0.82368  0.33902  1.0000
  Fe  Fe41      1.0  0.09771  0.84144  0.36413  1.0000
  S   S80       1.0  0.09405  0.87995  0.37608  1.0000
  S   S81       1.0  0.06782  0.81568  0.36983  1.0000
  Fe  Fe42      1.0  0.11535  0.88658  0.33718  1.0000
  S   S82       1.0  0.10291  0.91496  0.30590  1.0000
  Fe  Fe43      1.0  0.12916  0.87430  0.39806  1.0000
  S   S83       1.0  0.14241  0.88322  0.44141  1.0000
  S   S84       1.0  0.11676  0.84832  0.32437  1.0000
  S   S85       1.0  0.13092  0.83533  0.38870  1.0000
  C   C247      1.0  0.12681  0.87825  0.47263  1.0000
  H   H434      1.0  0.27408  0.92142  0.08924  1.0000
  H   H435      1.0  0.02604  0.77954  0.28750  1.0000
  C   C248      1.0  0.10194  0.87923  0.47387  1.0000
  H   H436      1.0  0.26317  0.89173  0.09404  1.0000
  H   H437      1.0  0.09168  0.88234  0.45519  1.0000
  C   C249      1.0  0.10877  0.91305  0.21071  1.0000
  C   C250      1.0  0.09732  0.93208  0.22405  1.0000
  C   C251      1.0  0.09572  0.93236  0.25314  1.0000
  C   C252      1.0  0.10560  0.91372  0.26931  1.0000
  C   C253      1.0  0.11728  0.89481  0.25599  1.0000
  C   C254      1.0  0.11876  0.89446  0.22689  1.0000
  H   H438      1.0  0.08937  0.94642  0.21193  1.0000
  H   H439      1.0  0.08665  0.94710  0.26319  1.0000
  H   H440      1.0  0.12516  0.88046  0.26812  1.0000
  H   H441      1.0  0.12765  0.87965  0.21681  1.0000
  C   C255      1.0  0.19791  0.66929  0.32793  1.0000
  C   C256      1.0  0.14749  0.97603  0.21094  1.0000
  H   H442      1.0  0.23563  0.88129  0.19846  1.0000
  C   C257      1.0  0.07707  0.74551  0.32343  1.0000
  C   C258      1.0  0.06190  0.74701  0.34621  1.0000
  C   C259      1.0  0.05886  0.76875  0.36008  1.0000
  C   C260      1.0  0.07164  0.78877  0.35188  1.0000
  C   C261      1.0  0.08719  0.78709  0.32947  1.0000
  C   C262      1.0  0.08957  0.76562  0.31493  1.0000
  H   H443      1.0  0.05215  0.73152  0.35275  1.0000
  H   H444      1.0  0.04673  0.77001  0.37732  1.0000
  H   H445      1.0  0.09732  0.80230  0.32324  1.0000
  H   H446      1.0  0.10141  0.76447  0.29741  1.0000
  C   C263      1.0  0.24686  0.97643  0.08859  1.0000
  Fe  Fe44      1.0  0.09670  0.69006  0.33120  1.0000
  H   H447      1.0  0.41243  0.93094  0.47699  1.0000
  H   H448      1.0  0.09911  0.70931  0.24380  1.0000
  C   C264      1.0  0.20323  0.97389  0.08881  1.0000
  C   C265      1.0  0.22545  0.96915  0.07625  1.0000
  H   H449      1.0  0.33664  0.71094  0.30007  1.0000
  H   H450      1.0  0.35649  0.88355  0.05172  1.0000
  H   H451      1.0  0.18693  0.96848  0.07880  1.0000
  H   H452      1.0  0.22596  0.96015  0.05654  1.0000
  H   H453      1.0  0.31678  0.86892  0.03542  1.0000
  H   H454      1.0  0.02196  0.89543  0.33369  1.0000
  C   C266      1.0  0.26565  0.90618  0.07862  1.0000
  C   C267      1.0  0.24265  0.87510  0.32846  1.0000
  C   C268      1.0  0.24582  0.85438  0.34427  1.0000
  C   C269      1.0  0.22702  0.83861  0.34768  1.0000
  C   C270      1.0  0.20493  0.84370  0.33546  1.0000
  C   C271      1.0  0.20142  0.86485  0.32045  1.0000
  C   C272      1.0  0.22034  0.88056  0.31692  1.0000
  H   H455      1.0  0.26261  0.85063  0.35423  1.0000
  H   H456      1.0  0.22953  0.82263  0.36001  1.0000
  H   H457      1.0  0.18425  0.86879  0.31115  1.0000
  H   H458      1.0  0.21787  0.89669  0.30488  1.0000
  C   C273      1.0  0.34327  0.86057  0.44174  1.0000
  C   C274      1.0  0.35378  0.85317  0.46683  1.0000
  C   C275      1.0  0.28892  0.88310  0.20276  1.0000
  C   C276      1.0  0.32454  0.87733  0.44225  1.0000
  H   H459      1.0  0.36824  0.84018  0.46667  1.0000
  H   H460      1.0  0.31614  0.88299  0.42312  1.0000
  C   C277      1.0  0.36549  0.91188  0.24967  1.0000
  C   C278      1.0  0.36705  0.93392  0.23583  1.0000
  C   C279      1.0  0.36135  0.93595  0.20744  1.0000
  C   C280      1.0  0.35449  0.91581  0.19262  1.0000
  C   C281      1.0  0.35379  0.89370  0.20629  1.0000
  C   C282      1.0  0.35905  0.89176  0.23467  1.0000
  H   H461      1.0  0.37225  0.94954  0.24722  1.0000
  H   H462      1.0  0.36204  0.95308  0.19715  1.0000
  H   H463      1.0  0.34892  0.87796  0.19491  1.0000
  H   H464      1.0  0.35838  0.87461  0.24490  1.0000
  C   C283      1.0  0.35591  0.72940  0.33171  1.0000
  C   C284      1.0  0.36186  0.75174  0.34232  1.0000
  C   C285      1.0  0.35279  0.77273  0.32994  1.0000
  C   C286      1.0  0.33830  0.77137  0.30646  1.0000
  C   C287      1.0  0.33277  0.74904  0.29555  1.0000
  C   C288      1.0  0.34118  0.72808  0.30843  1.0000
  H   H465      1.0  0.37330  0.75283  0.36030  1.0000
  H   H466      1.0  0.35719  0.78993  0.33842  1.0000
  H   H467      1.0  0.32198  0.74800  0.27709  1.0000
  H   H468      1.0  0.26222  0.68633  0.34863  1.0000
  H   H469      1.0  0.16099  0.95357  0.16342  1.0000
  N   N13       1.0  0.04712  0.84898  0.27212  1.0000
  C   C289      1.0  0.04055  0.85671  0.24309  1.0000
  C   C290      1.0  0.03095  0.82939  0.28200  1.0000
  C   C291      1.0  0.04333  0.87038  0.29063  1.0000
  C   C292      1.0  0.07288  0.84126  0.27465  1.0000
  C   C293      1.0  0.08169  0.82139  0.25493  1.0000
  C   C294      1.0  0.05605  0.87657  0.23035  1.0000
  C   C295      1.0  0.04548  0.86570  0.32222  1.0000
  H   H470      1.0  0.21803  0.94971  0.21778  1.0000
  H   H471      1.0  0.13210  0.96412  0.20748  1.0000
  C   C296      1.0  0.10883  0.81874  0.25582  1.0000
  C   C297      1.0  0.04825  0.88237  0.20075  1.0000
  C   C298      1.0  0.04017  0.88848  0.33844  1.0000
  H   H472      1.0  0.00906  0.81875  0.24672  1.0000
  H   H473      1.0  0.04140  0.84159  0.22848  1.0000
  H   H474      1.0  0.03932  0.81966  0.29984  1.0000
  C   C299      1.0  0.32812  0.88039  0.49257  1.0000
  H   H475      1.0  0.02541  0.87862  0.28672  1.0000
  H   H476      1.0  0.05647  0.88449  0.28599  1.0000
  H   H477      1.0  0.08470  0.85689  0.27234  1.0000
  H   H478      1.0  0.07644  0.83430  0.29577  1.0000
  H   H479      1.0  0.07661  0.82506  0.23319  1.0000
  H   H480      1.0  0.07444  0.80400  0.26155  1.0000
  H   H481      1.0  0.05463  0.89337  0.24226  1.0000
  H   H482      1.0  0.07500  0.87080  0.22965  1.0000
  H   H483      1.0  0.06374  0.85957  0.32778  1.0000
  C   C300      1.0  0.08124  0.67296  0.01855  1.0000
  H   H484      1.0  0.26689  0.92423  0.02738  1.0000
  H   H485      1.0  0.40930  0.89898  0.47491  1.0000
  H   H486      1.0  0.02937  0.88857  0.20017  1.0000
  H   H487      1.0  0.15177  0.98380  0.19038  1.0000
  H   H488      1.0  0.11502  0.81366  0.27689  1.0000
  H   H489      1.0  0.11466  0.80452  0.24134  1.0000
  H   H490      1.0  0.11733  0.83566  0.24954  1.0000
  C   C301      1.0  0.35987  0.68759  0.22728  1.0000
  C   C302      1.0  0.35446  0.87315  0.03239  1.0000
  H   H491      1.0  0.14113  0.70079  0.25319  1.0000
  N   N14       1.0  0.39909  0.67102  0.24921  1.0000
  H   H492      1.0  0.44363  0.68531  0.27320  1.0000
  H   H493      1.0  0.10034  0.67725  0.01598  1.0000
  N   N15       1.0  0.25041  0.76469  0.30834  1.0000
  C   C303      1.0  0.22917  0.75172  0.31956  1.0000
  C   C304      1.0  0.26873  0.76716  0.33108  1.0000
  C   C305      1.0  0.24203  0.78953  0.30024  1.0000
  C   C306      1.0  0.26119  0.75273  0.28327  1.0000
  C   C307      1.0  0.25942  0.72514  0.28148  1.0000
  C   C308      1.0  0.20677  0.75219  0.30058  1.0000
  C   C309      1.0  0.26180  0.80725  0.29220  1.0000
  C   C310      1.0  0.27944  0.74373  0.34323  1.0000
  C   C311      1.0  0.29580  0.74875  0.36778  1.0000
  C   C312      1.0  0.27400  0.71540  0.25736  1.0000
  C   C313      1.0  0.18978  0.73216  0.30774  1.0000
  C   C314      1.0  0.25154  0.82889  0.27669  1.0000
  H   H494      1.0  0.22358  0.75959  0.33969  1.0000
  H   H495      1.0  0.23372  0.73287  0.32456  1.0000
  H   H496      1.0  0.28436  0.77727  0.32363  1.0000
  H   H497      1.0  0.26104  0.77782  0.34839  1.0000
  H   H498      1.0  0.23158  0.79777  0.31730  1.0000
  H   H499      1.0  0.22950  0.78884  0.28239  1.0000
  H   H500      1.0  0.25281  0.75973  0.26390  1.0000
  H   H501      1.0  0.28030  0.75745  0.28146  1.0000
  H   H502      1.0  0.24069  0.71982  0.27809  1.0000
  H   H503      1.0  0.26580  0.71607  0.30050  1.0000
  H   H504      1.0  0.19697  0.76944  0.30320  1.0000
  H   H505      1.0  0.21165  0.75047  0.27849  1.0000
  H   H506      1.0  0.27539  0.79869  0.27881  1.0000
  H   H507      1.0  0.27075  0.81385  0.31114  1.0000
  H   H508      1.0  0.26546  0.73159  0.35059  1.0000
  H   H509      1.0  0.29052  0.73458  0.32749  1.0000
  H   H510      1.0  0.31017  0.76103  0.36164  1.0000
  H   H511      1.0  0.28553  0.75684  0.38500  1.0000
  H   H512      1.0  0.30424  0.73181  0.37516  1.0000
  H   H513      1.0  0.29305  0.71974  0.26011  1.0000
  H   H514      1.0  0.27251  0.69571  0.25656  1.0000
  H   H515      1.0  0.26741  0.72302  0.23749  1.0000
  H   H516      1.0  0.18586  0.73209  0.33018  1.0000
  H   H517      1.0  0.17278  0.73463  0.29618  1.0000
  H   H518      1.0  0.19781  0.71469  0.30195  1.0000
  H   H519      1.0  0.26504  0.84310  0.27600  1.0000
  H   H520      1.0  0.24659  0.82392  0.25529  1.0000
  H   H521      1.0  0.23554  0.83612  0.28728  1.0000
  C   C315      1.0  0.40957  0.69543  0.25267  1.0000
  H   H522      1.0  0.07113  0.87871  0.50038  1.0000
  H   H523      1.0  0.00587  0.77627  0.25873  1.0000
  C   C316      1.0  0.34612  0.86284  0.49215  1.0000
  C   C317      1.0  0.25416  0.94012  0.15397  1.0000
  H   H524      1.0  0.03769  0.80432  0.24723  1.0000
  H   H525      1.0  0.04127  0.88461  0.36093  1.0000
  H   H526      1.0  0.36586  0.70633  0.22683  1.0000
  H   H527      1.0  0.36622  0.93005  0.38987  1.0000
  H   H528      1.0  0.15162  0.93149  0.29954  1.0000
  N   N16       1.0  0.38475  0.92117  0.42809  1.0000
  C   C318      1.0  0.37857  0.91962  0.45837  1.0000
  C   C319      1.0  0.36219  0.92303  0.41088  1.0000
  C   C320      1.0  0.39777  0.89830  0.42049  1.0000
  C   C321      1.0  0.40121  0.94148  0.42195  1.0000
  C   C322      1.0  0.39228  0.96682  0.42955  1.0000
  Fe  Fe45      1.0  0.34513  0.67097  0.34138  1.0000
  C   C323      1.0  0.40102  0.89348  0.38907  1.0000
  H   H529      1.0  0.37808  0.97264  0.41487  1.0000
  H   H530      1.0  0.44575  0.68940  0.23640  1.0000
  H   H531      1.0  0.15908  0.87336  0.49620  1.0000
  C   C324      1.0  0.41577  0.87074  0.38426  1.0000
  H   H532      1.0  0.36627  0.90453  0.46175  1.0000
  H   H533      1.0  0.36851  0.93563  0.46535  1.0000
  Fe  Fe46      1.0  0.08231  0.98809  0.12077  1.0000
  H   H534      1.0  0.35480  0.90494  0.40755  1.0000
  H   H535      1.0  0.38851  0.88267  0.42936  1.0000
  H   H536      1.0  0.41592  0.89771  0.42981  1.0000
  H   H537      1.0  0.41880  0.93832  0.43214  1.0000
  H   H538      1.0  0.40523  0.94222  0.39952  1.0000
  H   H539      1.0  0.38552  0.96776  0.45097  1.0000
  C   C325      1.0  0.06443  0.91318  0.02527  1.0000
  N   N17       1.0  0.35953  0.72810  0.49776  1.0000
  H   H540      1.0  0.29891  0.89218  0.06454  1.0000
  H   H541      1.0  0.41024  0.90830  0.37865  1.0000
  H   H542      1.0  0.38360  0.89105  0.37863  1.0000
  C   C326      1.0  0.13140  0.68925  0.23852  1.0000
  C   C327      1.0  0.10480  0.69028  0.24505  1.0000
  H   H543      1.0  0.04673  0.68532  0.00565  1.0000
  C   C328      1.0  0.13987  0.87443  0.49714  1.0000
  H   H544      1.0  0.05590  0.71571  0.43244  1.0000
  H   H545      1.0  0.46494  0.98350  0.14113  1.0000
  H   H546      1.0  0.32572  0.66982  0.23065  1.0000
  H   H547      1.0  0.27300  0.88110  0.04647  1.0000
  H   H548      1.0  0.43395  0.87245  0.39308  1.0000
  H   H549      1.0  0.40701  0.85514  0.39381  1.0000
  H   H550      1.0  0.41732  0.86745  0.36172  1.0000
  N   N18       1.0  0.11919  0.75425  0.43370  1.0000
  C   C329      1.0  0.13570  0.75143  0.40938  1.0000
  C   C330      1.0  0.12948  0.74015  0.45773  1.0000
  C   C331      1.0  0.09485  0.74555  0.42570  1.0000
  C   C332      1.0  0.11685  0.78006  0.44210  1.0000
  C   C333      1.0  0.14048  0.79351  0.44631  1.0000
  C   C334      1.0  0.12792  0.76470  0.38255  1.0000
  C   C335      1.0  0.07608  0.74530  0.44911  1.0000
  H   H551      1.0  0.13854  0.67077  0.24080  1.0000
  C   C336      1.0  0.14735  0.76330  0.36064  1.0000
  C   C337      1.0  0.05284  0.73445  0.43908  1.0000
  H   H552      1.0  0.13770  0.73238  0.40366  1.0000
  H   H553      1.0  0.15408  0.75687  0.41491  1.0000
  H   H554      1.0  0.14852  0.74461  0.46089  1.0000
  H   H555      1.0  0.12047  0.74521  0.47732  1.0000
  H   H556      1.0  0.09613  0.72741  0.41660  1.0000
  H   H557      1.0  0.08700  0.75700  0.40906  1.0000
  H   H558      1.0  0.10585  0.79042  0.42684  1.0000
  H   H559      1.0  0.10698  0.78146  0.46185  1.0000
  H   H560      1.0  0.14929  0.79650  0.42614  1.0000
  H   H561      1.0  0.11188  0.75635  0.37361  1.0000
  H   H562      1.0  0.12379  0.78375  0.38634  1.0000
  H   H563      1.0  0.07189  0.76371  0.45601  1.0000
  H   H564      1.0  0.08235  0.73470  0.46718  1.0000
  C   C338      1.0  0.24578  0.98826  0.11396  1.0000
  H   H565      1.0  0.29406  0.96219  0.01582  1.0000
  H   H566      1.0  0.15128  0.74440  0.35539  1.0000
  H   H567      1.0  0.14120  0.77275  0.34162  1.0000
  H   H568      1.0  0.16385  0.77192  0.36804  1.0000
  H   H569      1.0  0.04529  0.74488  0.42145  1.0000
  H   H570      1.0  0.06174  0.91406  0.04736  1.0000
  C   C339      1.0  0.34095  0.93779  0.42284  1.0000
  C   C340      1.0  0.30241  0.83946  0.20454  1.0000
  H   H571      1.0  0.28521  0.83309  0.19618  1.0000
  H   H572      1.0  0.31496  0.84258  0.18726  1.0000
  H   H573      1.0  0.31017  0.82536  0.21824  1.0000
  H   H574      1.0  0.40162  0.70472  0.27084  1.0000
  H   H575      1.0  0.43991  0.74351  0.01654  1.0000
  H   H576      1.0  0.24869  0.86010  0.22175  1.0000
  C   C341      1.0  0.27328  0.92399  0.19794  1.0000
  H   H577      1.0  0.18119  0.94274  0.30535  1.0000
  C   C342      1.0  0.39972  0.91609  0.47875  1.0000
  H   H578      1.0  0.37459  0.69835  0.47499  1.0000
  H   H579      1.0  0.27623  0.87560  0.18768  1.0000
  C   C343      1.0  0.17648  0.94445  0.17337  1.0000
  H   H580      1.0  0.07671  0.67435  0.04080  1.0000
  H   H581      1.0  0.19254  0.95540  0.17046  1.0000
  H   H582      1.0  0.01500  0.68423  0.22996  1.0000
  H   H583      1.0  0.15271  0.82821  0.45958  1.0000
  H   H584      1.0  0.21915  0.87174  0.25795  1.0000
  H   H585      1.0  0.30602  0.95146  0.41071  1.0000
  C   C344      1.0  0.17072  0.92913  0.29425  1.0000
  C   C345      1.0  0.13601  0.81786  0.45961  1.0000
  H   H586      1.0  0.08110  0.78415  0.50208  1.0000
  C   C346      1.0  0.02599  0.69426  0.24484  1.0000
  H   H587      1.0  0.06512  0.84059  0.46422  1.0000
  S   S86       1.0  0.34249  0.98738  0.05981  1.0000
  H   H588      1.0  0.10240  0.68390  0.26650  1.0000
  C   C347      1.0  0.22496  0.68934  0.35886  1.0000
  H   H589      1.0  0.30410  0.88928  0.18993  1.0000
  C   C348      1.0  0.20207  0.98647  0.11368  1.0000
  H   H590      1.0  0.24787  0.91198  0.07068  1.0000
  H   H591      1.0  0.13006  0.81586  0.48129  1.0000
  H   H592      1.0  0.46509  0.72182  0.26180  1.0000
  H   H593      1.0  0.29162  0.67945  0.45750  1.0000
  H   H594      1.0  0.32428  0.69878  0.21439  1.0000
  H   H595      1.0  0.00219  0.91455  0.03781  1.0000
  H   H596      1.0  0.15306  0.78344  0.45986  1.0000
  H   H597      1.0  0.43770  0.72902  0.27936  1.0000
  H   H598      1.0  0.31362  0.92292  0.39616  1.0000
  H   H599      1.0  0.32129  0.72487  0.49409  1.0000
  H   H600      1.0  0.27165  0.94182  0.14352  1.0000
  H   H601      1.0  0.05337  0.90237  0.33340  1.0000
  H   H602      1.0  0.02986  0.98415  0.05789  1.0000
  H   H603      1.0  0.22795  0.69997  0.37709  1.0000
  C   C349      1.0  0.32077  0.94061  0.40173  1.0000
  C   C350      1.0  0.12869  0.71257  0.45530  1.0000
  H   H604      1.0  0.28655  0.85848  0.23850  1.0000
  H   H605      1.0  0.36346  0.67947  0.20686  1.0000
  H   H606      1.0  0.13871  0.70617  0.43704  1.0000
  C   C351      1.0  0.31716  0.88734  0.46756  1.0000
  H   H607      1.0  0.13466  0.69567  0.21715  1.0000
  H   H608      1.0  0.27904  0.68972  0.42506  1.0000
  H   H609      1.0  0.34105  0.73307  0.44255  1.0000
  C   C352      1.0  0.29860  0.86230  0.22109  1.0000
  H   H610      1.0  0.31607  0.86708  0.22999  1.0000
  H   H611      1.0  0.11017  0.70633  0.45342  1.0000
  C   C353      1.0  0.18992  0.97762  0.22116  1.0000
  H   H612      1.0  0.30314  0.90080  0.46771  1.0000
  H   H613      1.0  0.29039  0.92925  0.18807  1.0000
  H   H614      1.0  0.20546  0.86113  0.22674  1.0000
  H   H615      1.0  0.25996  0.89066  0.25477  1.0000
  C   C354      1.0  0.01575  0.71965  0.24635  1.0000
  C   C355      1.0  0.17158  0.93991  0.20442  1.0000
  C   C356      1.0  0.28903  0.93475  0.25593  1.0000
  C   C357      1.0  0.21601  0.87577  0.23574  1.0000
  C   C358      1.0  0.23966  0.87779  0.22048  1.0000
  H   H616      1.0  0.30033  0.89820  0.25408  1.0000
  H   H617      1.0  0.41949  0.98505  0.40573  1.0000
  C   C359      1.0  0.13955  0.70050  0.48091  1.0000
  H   H618      1.0  0.27101  0.93304  0.26497  1.0000
  C   C360      1.0  0.20181  0.68282  0.35161  1.0000
  H   H619      1.0  0.33351  0.92858  0.44111  1.0000
  C   C361      1.0  0.08308  0.92575  0.01328  1.0000
  C   C362      1.0  0.25550  0.89728  0.23353  1.0000
  H   H620      1.0  0.19592  0.91089  0.16675  1.0000
  C   C363      1.0  0.25488  0.91952  0.17472  1.0000
  N   N19       1.0  0.27788  0.90384  0.21816  1.0000
  H   H621      1.0  0.20977  0.92299  0.49037  1.0000
  H   H622      1.0  0.23680  0.91839  0.18370  1.0000
  H   H623      1.0  0.25904  0.90309  0.16298  1.0000
  H   H624      1.0  0.20547  0.89259  0.23382  1.0000
  H   H625      1.0  0.36795  0.87902  0.01723  1.0000
  H   H626      1.0  0.18627  0.92823  0.21208  1.0000
  H   H627      1.0  0.32438  0.95201  0.01140  1.0000
  C   C364      1.0  0.21411  0.96616  0.22960  1.0000
  H   H628      1.0  0.31316  0.91641  0.22824  1.0000
  C   C365      1.0  0.29611  0.91242  0.23878  1.0000
  H   H629      1.0  0.16589  0.91564  0.25326  1.0000
  C   C366      1.0  0.23636  0.90600  0.46528  1.0000
  H   H630      1.0  0.35790  0.85403  0.03721  1.0000
  C   C367      1.0  0.17440  0.93124  0.26308  1.0000
  H   H631      1.0  0.18424  0.92495  0.13586  1.0000
  H   H632      1.0  0.05053  0.86652  0.18730  1.0000
  H   H633      1.0  0.24416  0.91347  0.23686  1.0000
  H   H634      1.0  0.16436  0.90994  0.15898  1.0000
  H   H635      1.0  0.24959  0.95716  0.16442  1.0000
  H   H636      1.0  0.28941  0.95103  0.24286  1.0000
  C   C368      1.0  0.18054  0.92105  0.15793  1.0000
  H   H637      1.0  0.26650  0.94007  0.20876  1.0000
  H   H638      1.0  0.15533  0.92886  0.20570  1.0000
  H   H639      1.0  0.42582  0.98427  0.03248  1.0000
  C   C369      1.0  0.30656  0.93853  0.27972  1.0000
  C   C370      1.0  0.16282  0.95463  0.25164  1.0000
  C   C371      1.0  0.35995  0.70549  0.42104  1.0000
  C   C372      1.0  0.28484  0.91674  0.03294  1.0000
  C   C373      1.0  0.07044  0.82076  0.50244  1.0000
  S   S87       1.0  0.17804  0.69109  0.37275  1.0000
  S   S88       1.0  0.12916  0.67080  0.31551  1.0000
  H   H640      1.0  0.30686  0.92291  0.29394  1.0000
  H   H641      1.0  0.01399  0.83718  0.29017  1.0000
  H   H642      1.0  0.02162  0.86302  0.24246  1.0000
  H   H643      1.0  0.03553  0.88900  0.01827  1.0000
  H   H644      1.0  0.34611  0.95575  0.42954  1.0000
  H   H645      1.0  0.16709  0.96937  0.26611  1.0000
  C   C374      1.0  0.24430  0.68167  0.34282  1.0000
  S   S89       1.0  0.17439  0.99488  0.12909  1.0000
  C   C375      1.0  0.28148  0.89713  0.05510  1.0000
  H   H646      1.0  0.06531  0.66810  0.27713  1.0000
  H   H647      1.0  0.30110  0.95451  0.29171  1.0000
  H   H648      1.0  0.26203  0.99407  0.12367  1.0000
  C   C376      1.0  0.36784  0.71684  0.47105  1.0000
  H   H649      1.0  0.21422  0.96210  0.25204  1.0000
  H   H650      1.0  0.12956  0.70576  0.49975  1.0000
  H   H651      1.0  0.22376  0.89346  0.45550  1.0000
  H   H652      1.0  0.23796  0.92181  0.45155  1.0000
  H   H653      1.0  0.24040  0.93681  0.13792  1.0000
  H   H654      1.0  0.03964  0.73448  0.45608  1.0000
  C   C377      1.0  0.37238  0.67347  0.25103  1.0000
  H   H655      1.0  0.32827  0.69647  0.25127  1.0000
  S   S90       1.0  0.11258  0.69767  0.37229  1.0000
  H   H656      1.0  0.14331  0.95172  0.25388  1.0000
  S   S91       1.0  0.08092  0.66828  0.42939  1.0000
  H   H657      1.0  0.34157  0.75776  0.47720  1.0000
  H   H658      1.0  0.07484  0.81030  0.45926  1.0000
  H   H659      1.0  0.04440  0.81685  0.46917  1.0000
  C   C378      1.0  0.34894  0.71532  0.44753  1.0000
  C   C379      1.0  0.02296  0.81068  0.26046  1.0000
  C   C380      1.0  0.24035  0.66813  0.31914  1.0000
  C   C381      1.0  0.43709  0.69616  0.25543  1.0000
  N   N20       1.0  0.16850  0.96178  0.22222  1.0000
  H   H660      1.0  0.17660  0.91122  0.30155  1.0000
  H   H661      1.0  0.33058  0.91414  0.03088  1.0000
  H   H662      1.0  0.36831  0.68767  0.42475  1.0000
  H   H663      1.0  0.32480  0.94126  0.27169  1.0000
  H   H664      1.0  0.38317  0.72668  0.46237  1.0000
  C   C382      1.0  0.13853  0.99725  0.22897  1.0000
  H   H665      1.0  0.25419  0.89722  0.46721  1.0000
  H   H666      1.0  0.03281  0.85207  0.32939  1.0000
  H   H667      1.0  0.40478  0.70700  0.23470  1.0000
  H   H668      1.0  0.05410  0.70539  0.21715  1.0000
  H   H669      1.0  0.32708  0.94969  0.38276  1.0000
  H   H670      1.0  0.43992  0.73332  0.24236  1.0000
  H   H671      1.0  0.37223  0.76196  0.48259  1.0000
  H   H672      1.0  0.29418  0.93116  0.04393  1.0000
  H   H673      1.0  0.19373  0.92999  0.25908  1.0000
  Fe  Fe47      1.0  0.35920  0.99595  0.10106  1.0000
  S   S92       1.0  0.10939  0.99262  0.08698  1.0000
  H   H674      1.0  0.12223  0.82829  0.44800  1.0000
  C   C383      1.0  0.06326  0.82204  0.47195  1.0000
  C   C384      1.0  0.44537  0.72167  0.25999  1.0000
  N   N21       1.0  0.29820  0.90987  0.00707  1.0000
  H   H675      1.0  0.41256  0.68018  0.30544  1.0000
  H   H676      1.0  0.07566  0.68098  0.48641  1.0000
  H   H677      1.0  0.02427  0.68640  0.26580  1.0000
  H   H678      1.0  0.44019  0.95059  0.00522  1.0000
  H   H679      1.0  0.01156  0.94497  0.04232  1.0000
  C   C385      1.0  0.23442  0.98340  0.22433  1.0000
  C   C386      1.0  0.42208  0.98419  0.00993  1.0000
  Fe  Fe48      1.0  0.14348  0.67549  0.35851  1.0000
  C   C387      1.0  0.09035  0.87728  0.49955  1.0000
  H   H680      1.0  0.40390  0.97718  0.00670  1.0000
  H   H681      1.0  0.36741  0.68284  0.27043  1.0000
  C   C388      1.0  0.22352  0.99343  0.12626  1.0000
  H   H682      1.0  0.05943  0.89685  0.19234  1.0000
  H   H683      1.0  0.10206  0.99715  0.21317  1.0000
  H   H684      1.0  0.40356  0.67454  0.20491  1.0000
  C   C389      1.0  0.32939  0.87649  0.02046  1.0000
  H   H685      1.0  0.18737  0.99314  0.23507  1.0000
  H   H686      1.0  0.13848  0.68085  0.47880  1.0000
  C   C390      1.0  0.33288  0.68815  0.23120  1.0000
  H   H687      1.0  0.05190  0.67012  0.19015  1.0000
  C   C391      1.0  0.35609  0.75451  0.49248  1.0000
  H   H688      1.0  0.25147  0.97549  0.23196  1.0000
  C   C392      1.0  0.28470  0.67368  0.43712  1.0000
  H   H689      1.0  0.19178  0.98559  0.20015  1.0000
  H   H690      1.0  0.15856  0.70525  0.48331  1.0000
  N   N22       1.0  0.06465  0.67048  0.23242  1.0000
  S   S93       1.0  0.31027  0.66735  0.36329  1.0000
  H   H691      1.0  0.17047  0.67524  0.42985  1.0000
  H   H692      1.0  0.06139  0.70459  0.25291  1.0000
  C   C393      1.0  0.05249  0.69443  0.23631  1.0000
  C   C394      1.0  0.41229  0.98485  0.42707  1.0000
  C   C395      1.0  0.09021  0.67507  0.22455  1.0000
  C   C396      1.0  0.04959  0.89901  0.00870  1.0000
  H   H693      1.0  0.02581  0.73027  0.26170  1.0000
  H   H694      1.0  0.06824  0.70843  0.00970  1.0000
  H   H695      1.0  0.09105  0.68396  0.20394  1.0000
  H   H696      1.0  0.01655  0.72855  0.22583  1.0000
  H   H697      1.0  0.33679  0.69733  0.50021  1.0000
  H   H698      1.0  0.23609  0.98716  0.20186  1.0000
  H   H699      1.0  0.41116  0.72503  0.49468  1.0000
  H   H700      1.0  0.33877  0.80132  0.49283  1.0000
  H   H701      1.0  0.42693  0.98044  0.44186  1.0000
  H   H702      1.0  0.13301  0.99123  0.24980  1.0000
  H   H703      1.0  0.23998  0.92694  0.50186  1.0000
  H   H704      1.0  0.24968  0.66752  0.45192  1.0000
  H   H705      1.0  0.23721  0.66706  0.20772  1.0000
  H   H706      1.0  0.21340  0.66697  0.41218  1.0000
  H   H707      1.0  0.21164  0.88023  0.50300  1.0000
  S   S94       1.0  0.30687  0.71625  0.62545  1.0000
  H   H708      1.0  0.49914  0.88330  0.94428  1.0000
  S   S95       1.0  0.46921  0.70118  0.84932  1.0000
  Fe  Fe49      1.0  0.35209  0.83492  0.59254  1.0000
  S   S96       1.0  0.36608  0.87147  0.58381  1.0000
  S   S97       1.0  0.37169  0.80047  0.58544  1.0000
  Fe  Fe50      1.0  0.30417  0.85321  0.61238  1.0000
  S   S98       1.0  0.31393  0.89121  0.60507  1.0000
  S   S99       1.0  0.27002  0.83844  0.62923  1.0000
  Fe  Fe51      1.0  0.32970  0.87796  0.56497  1.0000
  S   S100      1.0  0.32024  0.89521  0.52357  1.0000
  Fe  Fe52      1.0  0.34926  0.88103  0.62483  1.0000
  S   S101      1.0  0.36428  0.90382  0.65968  1.0000
  S   S102      1.0  0.31710  0.84073  0.57117  1.0000
  S   S103      1.0  0.33824  0.84393  0.63443  1.0000
  Fe  Fe53      1.0  0.43593  0.84492  0.86464  1.0000
  S   S104      1.0  0.40159  0.86249  0.85072  1.0000
  S   S105      1.0  0.42916  0.80590  0.87728  1.0000
  Fe  Fe54      1.0  0.46337  0.89223  0.85441  1.0000
  S   S106      1.0  0.43035  0.91096  0.83790  1.0000
  C   C397      1.0  0.29186  0.89782  0.68010  1.0000
  Fe  Fe55      1.0  0.41215  0.89470  0.87491  1.0000
  S   S107      1.0  0.38622  0.91776  0.90044  1.0000
  Fe  Fe56      1.0  0.42271  0.87665  0.81511  1.0000
  S   S108      1.0  0.40868  0.86361  0.77312  1.0000
  S   S109      1.0  0.44489  0.87642  0.89172  1.0000
  S   S110      1.0  0.45725  0.85883  0.82900  1.0000
  S   S111      1.0  0.07470  0.71129  0.61955  1.0000
  H   H709      1.0  0.18987  0.92175  0.58382  1.0000
  Fe  Fe57      1.0  0.02260  0.83095  0.87232  1.0000
  S   S112      1.0  0.05413  0.85323  0.88395  1.0000
  H   H710      1.0  0.40858  0.89787  0.99693  1.0000
  S   S113      1.0  0.01894  0.90054  0.88234  1.0000
  Fe  Fe58      1.0  0.04021  0.87885  0.85150  1.0000
  S   S114      1.0  0.06526  0.89482  0.81972  1.0000
  Fe  Fe59      1.0  0.03002  0.87264  0.91373  1.0000
  S   S115      1.0  0.03345  0.87940  0.96026  1.0000
  C   C398      1.0  0.39097  0.91535  0.50862  1.0000
  Fe  Fe60      1.0  0.14507  0.88250  0.63826  1.0000
  S   S116      1.0  0.10771  0.89674  0.63052  1.0000
  S   S117      1.0  0.17818  0.90448  0.64157  1.0000
  Fe  Fe61      1.0  0.13048  0.83144  0.63621  1.0000
  S   S118      1.0  0.09241  0.84124  0.62773  1.0000
  S   S119      1.0  0.14619  0.79446  0.63961  1.0000
  Fe  Fe62      1.0  0.10648  0.86818  0.59787  1.0000
  S   S120      1.0  0.08801  0.87108  0.55588  1.0000
  Fe  Fe63      1.0  0.09680  0.86846  0.66129  1.0000
  S   S121      1.0  0.06579  0.86773  0.69181  1.0000
  S   S122      1.0  0.14431  0.85602  0.60373  1.0000
  S   S123      1.0  0.13433  0.85678  0.67144  1.0000
  C   C399      1.0  0.20272  0.83373  0.56976  1.0000
  H   H711      1.0  0.00248  0.75855  0.65120  1.0000
  C   C400      1.0  0.49093  0.97425  0.91979  1.0000
  N   N23       1.0  0.07219  0.79213  0.54480  1.0000
  C   C401      1.0  0.06586  0.88604  0.78453  1.0000
  C   C402      1.0  0.08506  0.89271  0.76780  1.0000
  C   C403      1.0  0.08571  0.88665  0.73955  1.0000
  C   C404      1.0  0.06684  0.87435  0.72760  1.0000
  C   C405      1.0  0.04762  0.86775  0.74433  1.0000
  C   C406      1.0  0.04730  0.87322  0.77271  1.0000
  H   H712      1.0  0.09952  0.90264  0.77672  1.0000
  H   H713      1.0  0.10056  0.89197  0.72690  1.0000
  H   H714      1.0  0.03290  0.85835  0.73522  1.0000
  H   H715      1.0  0.03261  0.86777  0.78541  1.0000
  C   C407      1.0  0.47522  0.97353  0.94610  1.0000
  C   C408      1.0  0.07138  0.91023  0.96790  1.0000
  C   C409      1.0  0.05297  0.89741  0.97996  1.0000
  C   C410      1.0  0.09229  0.69897  0.88269  1.0000
  H   H716      1.0  0.05592  0.82579  0.55726  1.0000
  H   H717      1.0  0.07425  0.90918  0.94587  1.0000
  C   C411      1.0  0.44315  0.74034  0.97180  1.0000
  H   H718      1.0  0.13853  0.86921  0.54144  1.0000
  C   C412      1.0  0.42054  0.72704  0.53745  1.0000
  C   C413      1.0  0.07177  0.68894  0.97057  1.0000
  H   H719      1.0  0.10338  0.81585  0.68963  1.0000
  C   C414      1.0  0.03234  0.74366  0.85778  1.0000
  C   C415      1.0  0.02325  0.72077  0.86269  1.0000
  H   H720      1.0  0.04862  0.74542  0.84623  1.0000
  H   H721      1.0  0.03227  0.70520  0.85446  1.0000
  C   C416      1.0  0.09394  0.73429  0.62816  1.0000
  C   C417      1.0  0.11831  0.72950  0.63109  1.0000
  C   C418      1.0  0.13402  0.74801  0.63623  1.0000
  C   C419      1.0  0.12557  0.77147  0.63763  1.0000
  C   C420      1.0  0.10105  0.77615  0.63625  1.0000
  C   C421      1.0  0.08518  0.75754  0.63158  1.0000
  H   H722      1.0  0.12529  0.71162  0.62906  1.0000
  H   H723      1.0  0.15281  0.74414  0.63846  1.0000
  H   H724      1.0  0.09432  0.79400  0.63893  1.0000
  H   H725      1.0  0.06626  0.76119  0.63022  1.0000
  C   C422      1.0  0.08654  0.74512  0.79129  1.0000
  H   H726      1.0  0.02454  0.71422  0.77652  1.0000
  C   C423      1.0  0.39903  0.90620  0.95466  1.0000
  C   C424      1.0  0.38555  0.92099  0.93702  1.0000
  C   C425      1.0  0.37125  0.93916  0.94869  1.0000
  H   H727      1.0  0.06896  0.80433  0.71622  1.0000
  H   H728      1.0  0.41011  0.89215  0.94606  1.0000
  H   H729      1.0  0.36097  0.95089  0.93523  1.0000
  C   C426      1.0  0.24499  0.85739  0.63294  1.0000
  C   C427      1.0  0.24652  0.88214  0.62996  1.0000
  C   C428      1.0  0.22611  0.89669  0.63358  1.0000
  C   C429      1.0  0.20404  0.88646  0.63933  1.0000
  C   C430      1.0  0.20262  0.86172  0.64232  1.0000
  C   C431      1.0  0.22308  0.84728  0.63941  1.0000
  H   H730      1.0  0.26336  0.89007  0.62498  1.0000
  H   H731      1.0  0.22731  0.91584  0.63139  1.0000
  H   H732      1.0  0.18574  0.85367  0.64697  1.0000
  H   H733      1.0  0.22181  0.82817  0.64190  1.0000
  C   C432      1.0  0.37663  0.89242  0.69114  1.0000
  C   C433      1.0  0.38150  0.90820  0.71292  1.0000
  C   C434      1.0  0.39130  0.89984  0.73818  1.0000
  C   C435      1.0  0.39639  0.87553  0.74191  1.0000
  C   C436      1.0  0.39128  0.85974  0.72023  1.0000
  C   C437      1.0  0.38149  0.86809  0.69503  1.0000
  H   H734      1.0  0.37782  0.92705  0.71016  1.0000
  H   H735      1.0  0.39507  0.91221  0.75464  1.0000
  H   H736      1.0  0.39519  0.84093  0.72279  1.0000
  H   H737      1.0  0.37806  0.85573  0.67846  1.0000
  N   N24       1.0  0.03445  0.68901  0.69588  1.0000
  H   H738      1.0  0.08430  0.76821  0.73783  1.0000
  C   C438      1.0  0.31841  0.82512  0.71252  1.0000
  H   H739      1.0  0.03008  0.81518  0.62577  1.0000
  C   C439      1.0  0.45694  0.73041  0.85428  1.0000
  C   C440      1.0  0.47122  0.75043  0.84958  1.0000
  C   C441      1.0  0.46282  0.77375  0.85554  1.0000
  C   C442      1.0  0.44009  0.77732  0.86668  1.0000
  C   C443      1.0  0.42562  0.75733  0.87069  1.0000
  C   C444      1.0  0.43375  0.73415  0.86392  1.0000
  C   C445      1.0  0.03031  0.68380  0.74910  1.0000
  H   H740      1.0  0.47423  0.78886  0.85236  1.0000
  H   H741      1.0  0.40793  0.75983  0.87907  1.0000
  H   H742      1.0  0.42226  0.71910  0.86673  1.0000
  C   C446      1.0  0.32557  0.73952  0.61549  1.0000
  C   C447      1.0  0.31818  0.76314  0.61963  1.0000
  C   C448      1.0  0.33220  0.78190  0.61021  1.0000
  C   C449      1.0  0.35413  0.77714  0.59759  1.0000
  C   C450      1.0  0.36189  0.75356  0.59427  1.0000
  C   C451      1.0  0.34749  0.73480  0.60288  1.0000
  H   H743      1.0  0.30158  0.76700  0.62999  1.0000
  H   H744      1.0  0.32588  0.79998  0.61267  1.0000
  H   H745      1.0  0.37894  0.74981  0.58482  1.0000
  H   H746      1.0  0.35334  0.71677  0.59946  1.0000
  C   C452      1.0  0.37836  0.72287  0.51943  1.0000
  H   H747      1.0  0.06516  0.71693  0.55525  1.0000
  H   H748      1.0  0.26529  0.86009  0.95338  1.0000
  C   C453      1.0  0.20163  0.85470  0.54951  1.0000
  C   C454      1.0  0.06545  0.69017  0.00171  1.0000
  C   C455      1.0  0.10344  0.87379  0.52412  1.0000
  H   H749      1.0  0.26158  0.68752  0.58454  1.0000
  H   H750      1.0  0.25502  0.69027  0.54815  1.0000
  C   C456      1.0  0.25997  0.91028  0.55463  1.0000
  C   C457      1.0  0.07020  0.76616  0.55311  1.0000
  C   C458      1.0  0.09889  0.83622  0.82005  1.0000
  H   H751      1.0  0.40634  0.91272  0.52289  1.0000
  H   H752      1.0  0.23652  0.86740  0.55916  1.0000
  H   H753      1.0  0.04213  0.97074  0.83934  1.0000
  H   H754      1.0  0.26784  0.68077  0.67454  1.0000
  H   H755      1.0  0.22954  0.93376  0.54649  1.0000
  H   H756      1.0  0.30886  0.92787  0.96946  1.0000
  H   H757      1.0  0.00272  0.69440  0.72018  1.0000
  H   H758      1.0  0.47003  0.93505  0.97972  1.0000
  H   H759      1.0  0.18278  0.86076  0.54792  1.0000
  H   H760      1.0  0.44969  0.75162  0.95476  1.0000
  H   H761      1.0  0.06735  0.77535  0.93859  1.0000
  C   C459      1.0  0.03951  0.95901  0.91728  1.0000
  H   H762      1.0  0.21427  0.87878  0.58122  1.0000
  H   H763      1.0  0.19173  0.92587  0.53136  1.0000
  C   C460      1.0  0.39123  0.71130  0.92160  1.0000
  H   H764      1.0  0.19239  0.81865  0.56146  1.0000
  H   H765      1.0  0.01828  0.70378  0.93853  1.0000
  C   C461      1.0  0.40478  0.73519  0.79076  1.0000
  N   N25       1.0  0.21686  0.89766  0.54226  1.0000
  H   H766      1.0  0.00735  0.69207  0.66379  1.0000
  C   C462      1.0  0.29642  0.92222  0.66714  1.0000
  C   C463      1.0  0.02429  0.95118  0.80698  1.0000
  H   H767      1.0  0.38163  0.93228  0.51408  1.0000
  S   S124      1.0  0.12834  0.67459  0.58847  1.0000
  H   H768      1.0  0.44536  0.70488  0.98839  1.0000
  C   C464      1.0  0.02484  0.66857  0.95450  1.0000
  C   C465      1.0  0.33640  0.71661  0.50589  1.0000
  H   H769      1.0  0.44512  0.96804  0.86291  1.0000
  S   S125      1.0  0.49658  0.91344  0.86740  1.0000
  H   H770      1.0  0.07313  0.66980  0.96451  1.0000
  C   C466      1.0  0.05736  0.72886  0.95688  1.0000
  C   C467      1.0  0.33621  0.88481  0.79078  1.0000
  H   H771      1.0  0.34244  0.87013  0.73610  1.0000
  H   H772      1.0  0.32267  0.85224  0.75552  1.0000
  S   S126      1.0  0.00964  0.85624  0.83883  1.0000
  H   H773      1.0  0.04111  0.97816  0.92258  1.0000
  H   H774      1.0  0.46866  0.88304  0.95565  1.0000
  H   H775      1.0  0.35529  0.88311  0.78494  1.0000
  N   N26       1.0  0.41346  0.78003  0.78330  1.0000
  C   C468      1.0  0.42345  0.75514  0.78784  1.0000
  C   C469      1.0  0.43320  0.79770  0.78716  1.0000
  C   C470      1.0  0.39524  0.78486  0.80558  1.0000
  C   C471      1.0  0.40149  0.78339  0.75543  1.0000
  C   C472      1.0  0.02231  0.69685  0.72219  1.0000
  H   H776      1.0  0.39655  0.73601  0.81159  1.0000
  C   C473      1.0  0.38477  0.81060  0.80659  1.0000
  C   C474      1.0  0.45505  0.79512  0.76800  1.0000
  C   C475      1.0  0.47433  0.81273  0.77606  1.0000
  H   H777      1.0  0.10103  0.74568  0.77584  1.0000
  H   H778      1.0  0.29284  0.93669  0.68223  1.0000
  C   C476      1.0  0.36413  0.81247  0.82696  1.0000
  H   H779      1.0  0.43450  0.75457  0.80699  1.0000
  H   H780      1.0  0.45839  0.97626  0.99884  1.0000
  H   H781      1.0  0.42650  0.81621  0.78366  1.0000
  H   H782      1.0  0.43971  0.79713  0.80897  1.0000
  H   H783      1.0  0.40302  0.78088  0.82633  1.0000
  H   H784      1.0  0.37980  0.77286  0.80325  1.0000
  H   H785      1.0  0.49873  0.92707  0.94323  1.0000
  H   H786      1.0  0.40179  0.80255  0.74925  1.0000
  H   H787      1.0  0.40723  0.76545  0.68649  1.0000
  C   C477      1.0  0.07905  0.71916  0.79413  1.0000
  H   H788      1.0  0.01640  0.96784  0.79819  1.0000
  C   C478      1.0  0.14049  0.80453  0.54915  1.0000
  H   H789      1.0  0.37823  0.81659  0.78599  1.0000
  H   H790      1.0  0.39854  0.82305  0.81377  1.0000
  H   H791      1.0  0.46319  0.77701  0.76910  1.0000
  H   H792      1.0  0.44982  0.79941  0.74641  1.0000
  C   C479      1.0  0.04282  0.74561  0.93723  1.0000
  H   H793      1.0  0.40998  0.67920  0.93314  1.0000
  H   H794      1.0  0.23254  0.87453  0.72049  1.0000
  C   C480      1.0  0.00268  0.71807  0.87852  1.0000
  H   H795      1.0  0.03484  0.94769  0.95897  1.0000
  C   C481      1.0  0.48140  0.91790  0.94282  1.0000
  H   H796      1.0  0.43092  0.76940  0.72918  1.0000
  C   C482      1.0  0.17921  0.91084  0.56947  1.0000
  C   C483      1.0  0.02945  0.80328  0.78932  1.0000
  H   H797      1.0  0.35735  0.83118  0.82752  1.0000
  H   H798      1.0  0.34935  0.80077  0.82061  1.0000
  H   H799      1.0  0.37030  0.80740  0.84808  1.0000
  N   N27       1.0  0.22259  0.75012  0.60754  1.0000
  C   C484      1.0  0.23263  0.76957  0.58967  1.0000
  C   C485      1.0  0.19594  0.74933  0.60334  1.0000
  C   C486      1.0  0.22699  0.75684  0.63733  1.0000
  C   C487      1.0  0.23386  0.72586  0.60235  1.0000
  C   C488      1.0  0.24317  0.72052  0.57281  1.0000
  C   C489      1.0  0.25914  0.77535  0.59524  1.0000
  C   C490      1.0  0.21517  0.74075  0.65938  1.0000
  C   C491      1.0  0.18704  0.74462  0.57362  1.0000
  C   C492      1.0  0.15991  0.74334  0.57265  1.0000
  C   C493      1.0  0.24809  0.69382  0.56919  1.0000
  C   C494      1.0  0.27006  0.78935  0.57145  1.0000
  C   C495      1.0  0.22505  0.74566  0.68822  1.0000
  H   H800      1.0  0.22226  0.78648  0.59271  1.0000
  H   H801      1.0  0.23061  0.76544  0.56744  1.0000
  H   H802      1.0  0.18829  0.73483  0.61612  1.0000
  H   H803      1.0  0.18742  0.76631  0.61056  1.0000
  H   H804      1.0  0.22077  0.77553  0.64119  1.0000
  H   H805      1.0  0.24646  0.75648  0.64193  1.0000
  H   H806      1.0  0.24946  0.72258  0.61634  1.0000
  H   H807      1.0  0.22099  0.71172  0.60774  1.0000
  H   H808      1.0  0.26010  0.72989  0.56922  1.0000
  H   H809      1.0  0.23069  0.72633  0.55634  1.0000
  H   H810      1.0  0.26064  0.78640  0.61416  1.0000
  H   H811      1.0  0.26993  0.75887  0.59859  1.0000
  H   H812      1.0  0.21817  0.72157  0.65487  1.0000
  H   H813      1.0  0.19566  0.74439  0.66002  1.0000
  H   H814      1.0  0.19248  0.75897  0.55927  1.0000
  H   H815      1.0  0.19376  0.72716  0.56629  1.0000
  H   H816      1.0  0.28447  0.92501  0.64902  1.0000
  H   H817      1.0  0.02549  0.74086  0.63491  1.0000
  H   H818      1.0  0.02504  0.68558  0.79345  1.0000
  C   C496      1.0  0.48412  0.73346  0.92299  1.0000
  H   H819      1.0  0.27939  0.93516  0.98043  1.0000
  H   H820      1.0  0.14261  0.80524  0.57198  1.0000
  H   H821      1.0  0.28892  0.79320  0.57645  1.0000
  H   H822      1.0  0.26966  0.77886  0.55207  1.0000
  H   H823      1.0  0.26042  0.80661  0.56837  1.0000
  H   H824      1.0  0.22191  0.76464  0.69383  1.0000
  H   H825      1.0  0.21595  0.73425  0.70357  1.0000
  H   H826      1.0  0.24446  0.74152  0.68911  1.0000
  Fe  Fe64      1.0  0.09726  0.67802  0.61708  1.0000
  H   H827      1.0  0.22832  0.91770  0.57786  1.0000
  H   H828      1.0  0.00097  0.97570  0.94650  1.0000
  C   C497      1.0  0.38372  0.92756  0.99522  1.0000
  C   C498      1.0  0.32377  0.86928  0.74377  1.0000
  H   H829      1.0  0.01815  0.91328  0.80728  1.0000
  C   C499      1.0  0.31490  0.85049  0.69988  1.0000
  H   H830      1.0  0.33235  0.85561  0.69103  1.0000
  H   H831      1.0  0.01347  0.95945  0.84907  1.0000
  H   H832      1.0  0.10555  0.78435  0.69649  1.0000
  H   H833      1.0  0.10651  0.78329  0.75676  1.0000
  H   H834      1.0  0.38033  0.70317  0.52246  1.0000
  C   C500      1.0  0.32070  0.88955  0.76520  1.0000
  C   C501      1.0  0.10596  0.80225  0.70616  1.0000
  H   H835      1.0  0.26814  0.83359  0.70864  1.0000
  H   H836      1.0  0.05116  0.81709  0.75732  1.0000
  C   C502      1.0  0.37049  0.94257  0.97758  1.0000
  H   H837      1.0  0.10579  0.71101  0.68760  1.0000
  H   H838      1.0  0.03511  0.80331  0.54902  1.0000
  C   C503      1.0  0.03219  0.81932  0.60346  1.0000
  H   H839      1.0  0.43843  0.73411  0.53274  1.0000
  C   C504      1.0  0.28508  0.86027  0.95319  1.0000
  H   H840      1.0  0.39207  0.70742  0.89916  1.0000
  C   C505      1.0  0.06503  0.76160  0.78317  1.0000
  H   H841      1.0  0.05119  0.76150  0.55626  1.0000
  C   C506      1.0  0.31984  0.80586  0.69030  1.0000
  N   N28       1.0  0.30643  0.86945  0.71974  1.0000
  C   C507      1.0  0.18125  0.67438  0.54486  1.0000
  C   C508      1.0  0.08620  0.80504  0.72755  1.0000
  H   H842      1.0  0.12369  0.80489  0.71582  1.0000
  H   H843      1.0  0.03081  0.94961  0.70342  1.0000
  C   C509      1.0  0.27333  0.68370  0.69628  1.0000
  H   H844      1.0  0.15652  0.79564  0.54033  1.0000
  C   C510      1.0  0.29409  0.88436  0.96301  1.0000
  H   H845      1.0  0.18047  0.68623  0.56316  1.0000
  H   H846      1.0  0.07503  0.83568  0.78562  1.0000
  H   H847      1.0  0.10499  0.82565  0.77822  1.0000
  H   H848      1.0  0.08764  0.82299  0.73679  1.0000
  H   H849      1.0  0.00397  0.90481  0.72120  1.0000
  H   H850      1.0  0.28747  0.89814  0.94816  1.0000
  H   H851      1.0  0.11431  0.82605  0.82883  1.0000
  H   H852      1.0  0.41418  0.73537  0.55691  1.0000
  H   H853      1.0  0.15376  0.72772  0.58471  1.0000
  H   H854      1.0  0.33125  0.76702  0.52423  1.0000
  H   H855      1.0  0.40524  0.79557  0.69913  1.0000
  H   H856      1.0  0.08430  0.83691  0.83545  1.0000
  C   C511      1.0  0.11828  0.79063  0.54134  1.0000
  H   H857      1.0  0.48987  0.81058  0.76213  1.0000
  H   H858      1.0  0.30283  0.84916  0.68179  1.0000
  C   C512      1.0  0.28157  0.86517  0.73036  1.0000
  H   H859      1.0  0.32273  0.96814  0.96245  1.0000
  C   C513      1.0  0.27390  0.93061  0.56759  1.0000
  C   C514      1.0  0.09021  0.82484  0.79331  1.0000
  C   C515      1.0  0.23279  0.91574  0.55563  1.0000
  H   H860      1.0  0.19489  0.83900  0.58987  1.0000
  C   C516      1.0  0.21810  0.87501  0.55915  1.0000
  Fe  Fe65      1.0  0.32281  0.67987  0.61738  1.0000
  C   C517      1.0  0.00651  0.81474  0.77794  1.0000
  H   H861      1.0  0.04388  0.77669  0.96419  1.0000
  C   C518      1.0  0.02970  0.69566  0.95507  1.0000
  H   H862      1.0  0.04388  0.92017  0.70856  1.0000
  H   H863      1.0  0.32656  0.89714  0.69992  1.0000
  H   H864      1.0  0.17627  0.89325  0.57926  1.0000
  H   H865      1.0  0.09796  0.80028  0.57676  1.0000
  C   C519      1.0  0.09572  0.80208  0.55403  1.0000
  H   H866      1.0  0.36215  0.76709  0.53517  1.0000
  H   H867      1.0  0.09026  0.69555  0.96879  1.0000
  C   C520      1.0  0.06952  0.71845  0.70146  1.0000
  H   H868      1.0  0.30015  0.70936  0.56370  1.0000
  C   C521      1.0  0.30782  0.89356  0.70586  1.0000
  H   H869      1.0  0.33078  0.86821  0.80146  1.0000
  H   H870      1.0  0.30255  0.90797  0.72036  1.0000
  H   H871      1.0  0.03737  0.78327  0.92844  1.0000
  H   H872      1.0  0.29187  0.72308  0.53127  1.0000
  H   H873      1.0  0.09611  0.72300  0.56258  1.0000
  C   C522      1.0  0.06251  0.69664  0.92196  1.0000
  C   C523      1.0  0.03001  0.95540  0.83738  1.0000
  H   H874      1.0  0.02276  0.94780  0.75332  1.0000
  C   C524      1.0  0.23818  0.85544  0.72017  1.0000
  C   C525      1.0  0.40341  0.73291  0.51365  1.0000
  H   H875      1.0  0.02994  0.91734  0.75900  1.0000
  C   C526      1.0  0.12828  0.87205  0.52274  1.0000
  H   H876      1.0  0.06547  0.72952  0.68293  1.0000
  H   H877      1.0  0.07780  0.70434  0.86812  1.0000
  C   C527      1.0  0.41170  0.69861  0.93689  1.0000
  H   H878      1.0  0.05467  0.75262  0.76661  1.0000
  H   H879      1.0  0.42966  0.98453  0.95664  1.0000
  H   H880      1.0  0.02429  0.78642  0.79946  1.0000
  C   C528      1.0  0.07951  0.74708  0.53238  1.0000
  H   H881      1.0  0.42222  0.70743  0.54051  1.0000
  H   H882      1.0  0.47589  0.91479  0.92121  1.0000
  C   C529      1.0  0.02722  0.93020  0.70322  1.0000
  H   H883      1.0  0.46744  0.83137  0.77411  1.0000
  C   C530      1.0  0.05268  0.80630  0.55913  1.0000
  H   H884      1.0  0.40945  0.70162  0.95936  1.0000
  H   H885      1.0  0.27281  0.89786  0.68605  1.0000
  H   H886      1.0  0.29518  0.88418  0.66404  1.0000
  H   H887      1.0  0.23446  0.68329  0.63708  1.0000
  H   H888      1.0  0.07913  0.76299  0.57345  1.0000
  H   H889      1.0  0.05338  0.76185  0.80161  1.0000
  H   H890      1.0  0.06632  0.80195  0.60178  1.0000
  H   H891      1.0  0.03588  0.70148  0.65355  1.0000
  H   H892      1.0  0.26450  0.86024  0.68906  1.0000
  C   C531      1.0  0.00741  0.92415  0.72350  1.0000
  H   H893      1.0  0.28213  0.85377  0.74926  1.0000
  N   N29       1.0  0.07102  0.78665  0.77421  1.0000
  H   H894      1.0  0.29218  0.84566  0.96661  1.0000
  H   H895      1.0  0.02248  0.70310  0.97465  1.0000
  H   H896      1.0  0.29253  0.97845  0.96863  1.0000
  C   C532      1.0  0.09652  0.71889  0.70568  1.0000
  C   C533      1.0  0.08301  0.79873  0.79816  1.0000
  C   C534      1.0  0.00741  0.92981  0.80315  1.0000
  H   H897      1.0  0.10451  0.85477  0.81582  1.0000
  H   H898      1.0  0.09690  0.75152  0.52332  1.0000
  H   H899      1.0  0.44655  0.92112  0.96138  1.0000
  C   C535      1.0  0.08764  0.78483  0.74964  1.0000
  C   C536      1.0  0.43126  0.97370  0.90449  1.0000
  H   H900      1.0  0.01442  0.81878  0.59332  1.0000
  C   C537      1.0  0.01490  0.92972  0.75364  1.0000
  H   H901      1.0  0.02342  0.74331  0.94035  1.0000
  H   H902      1.0  0.04839  0.70232  0.90704  1.0000
  H   H903      1.0  0.10074  0.93388  0.97502  1.0000
  H   H904      1.0  0.43948  0.69819  0.90632  1.0000
  C   C538      1.0  0.04794  0.79914  0.76603  1.0000
  H   H905      1.0  0.36008  0.95704  0.98618  1.0000
  H   H906      1.0  0.03914  0.78905  0.74914  1.0000
  H   H907      1.0  0.09979  0.78912  0.80392  1.0000
  C   C539      1.0  0.02333  0.70174  0.67124  1.0000
  H   H908      1.0  0.01011  0.83240  0.76859  1.0000
  H   H909      1.0  0.12070  0.77231  0.54961  1.0000
  H   H910      1.0  0.22618  0.84595  0.70576  1.0000
  H   H911      1.0  0.23627  0.84763  0.74115  1.0000
  H   H912      1.0  0.18022  0.89705  0.52777  1.0000
  C   C540      1.0  0.44457  0.95201  0.91776  1.0000
  H   H913      1.0  0.48912  0.74785  0.84183  1.0000
  H   H914      1.0  0.23154  0.68357  0.57207  1.0000
  H   H915      1.0  0.35469  0.85729  0.51125  1.0000
  H   H916      1.0  0.42365  0.73868  0.96882  1.0000
  H   H917      1.0  0.26338  0.69951  0.70416  1.0000
  C   C541      1.0  0.08635  0.92426  0.98450  1.0000
  H   H918      1.0  0.07169  0.79783  0.81698  1.0000
  H   H919      1.0  0.31384  0.88402  0.96206  1.0000
  H   H920      1.0  0.40688  0.74936  0.73371  1.0000
  H   H921      1.0  0.29330  0.92696  0.56550  1.0000
  H   H922      1.0  0.37397  0.70481  0.92954  1.0000
  H   H923      1.0  0.30188  0.89137  0.77186  1.0000
  C   C542      1.0  0.28506  0.89030  0.99252  1.0000
  N   N30       1.0  0.05533  0.70257  0.95117  1.0000
  H   H924      1.0  0.46627  0.75699  0.00218  1.0000
  H   H925      1.0  0.30374  0.82069  0.72679  1.0000
  H   H926      1.0  0.33537  0.82421  0.72446  1.0000
  H   H927      1.0  0.46917  0.74112  0.91070  1.0000
  C   C543      1.0  0.43636  0.70701  0.92661  1.0000
  H   H928      1.0  0.42381  0.70805  0.76684  1.0000
  H   H929      1.0  0.08785  0.70917  0.53051  1.0000
  H   H930      1.0  0.26457  0.89373  0.56626  1.0000
  H   H931      1.0  0.33608  0.80803  0.67761  1.0000
  C   C544      1.0  0.00009  0.76157  0.88367  1.0000
  C   C545      1.0  0.06100  0.69271  0.69674  1.0000
  H   H932      1.0  0.09390  0.75059  0.81159  1.0000
  H   H933      1.0  0.41330  0.97576  0.91387  1.0000
  H   H934      1.0  0.40257  0.69653  0.79104  1.0000
  H   H935      1.0  0.44078  0.67055  0.96367  1.0000
  C   C546      1.0  0.29784  0.93142  0.98812  1.0000
  C   C547      1.0  0.04929  0.80116  0.59042  1.0000
  S   S127      1.0  0.03335  0.79249  0.86098  1.0000
  H   H936      1.0  0.03911  0.93943  0.84643  1.0000
  H   H937      1.0  0.09432  0.70804  0.80170  1.0000
  C   C548      1.0  0.02079  0.76422  0.86806  1.0000
  S   S128      1.0  0.18440  0.67501  0.63358  1.0000
  H   H938      1.0  0.06125  0.72663  0.71992  1.0000
  H   H939      1.0  0.38068  0.77546  0.70401  1.0000
  C   C549      1.0  0.43502  0.96638  0.96397  1.0000
  C   C550      1.0  0.45704  0.67530  0.95193  1.0000
  H   H940      1.0  0.29267  0.68760  0.69679  1.0000
  C   C551      1.0  0.34979  0.77029  0.51762  1.0000
  H   H941      1.0  0.34123  0.70310  0.54819  1.0000
  H   H942      1.0  0.24182  0.88174  0.51338  1.0000
  H   H943      1.0  0.43175  0.93709  0.91842  1.0000
  C   C552      1.0  0.08228  0.72260  0.54608  1.0000
  C   C553      1.0  0.44060  0.96849  0.99530  1.0000
  H   H944      1.0  0.03666  0.81547  0.80517  1.0000
  H   H945      1.0  0.30386  0.80662  0.67664  1.0000
  C   C554      1.0  0.39811  0.90950  0.98353  1.0000
  H   H946      1.0  0.38222  0.77907  0.75662  1.0000
  N   N31       1.0  0.45705  0.70175  0.94581  1.0000
  C   C555      1.0  0.41136  0.76842  0.73099  1.0000
  H   H947      1.0  0.10245  0.73756  0.70780  1.0000
  H   H948      1.0  0.31686  0.99058  0.98816  1.0000
  H   H949      1.0  0.27329  0.88232  0.73723  1.0000
  H   H950      1.0  0.48664  0.74425  0.94189  1.0000
  H   H951      1.0  0.41840  0.98631  0.86459  1.0000
  C   C556      1.0  0.15488  0.92319  0.56622  1.0000
  H   H952      1.0  0.45845  0.94579  0.90310  1.0000
  H   H953      1.0  0.41880  0.95538  0.96200  1.0000
  H   H954      1.0  0.33430  0.89989  0.80543  1.0000
  H   H955      1.0  0.39039  0.73721  0.77510  1.0000
  H   H956      1.0  0.02766  0.73885  0.68640  1.0000
  C   C557      1.0  0.30997  0.97414  0.97854  1.0000
  H   H957      1.0  0.14614  0.92441  0.58672  1.0000
  H   H958      1.0  0.43053  0.70763  0.80348  1.0000
  H   H959      1.0  0.10177  0.70876  0.72459  1.0000
  H   H960      1.0  0.03933  0.83763  0.60161  1.0000
  C   C558      1.0  0.48538  0.89337  0.95609  1.0000
  H   H961      1.0  0.37301  0.72978  0.53991  1.0000
  C   C559      1.0  0.41621  0.71039  0.78782  1.0000
  C   C560      1.0  0.40040  0.77680  0.70355  1.0000
  H   H962      1.0  0.15381  0.74127  0.55096  1.0000
  C   C561      1.0  0.32990  0.71649  0.53701  1.0000
  C   C562      1.0  0.46240  0.93258  0.95871  1.0000
  N   N32       1.0  0.45480  0.95624  0.94620  1.0000
  H   H963      1.0  0.26639  0.90820  0.53315  1.0000
  H   H964      1.0  0.11723  0.79007  0.51852  1.0000
  H   H965      1.0  0.20735  0.84790  0.52906  1.0000
  H   H966      1.0  0.41658  0.95459  0.86954  1.0000
  H   H967      1.0  0.09486  0.67930  0.88206  1.0000
  H   H968      1.0  0.30068  0.69179  0.53256  1.0000
  H   H969      1.0  0.32085  0.78797  0.70018  1.0000
  H   H970      1.0  0.43593  0.74992  0.77119  1.0000
  H   H971      1.0  0.04684  0.74201  0.91528  1.0000
  H   H972      1.0  0.39190  0.73087  0.92479  1.0000
  H   H973      1.0  0.31512  0.92335  0.66000  1.0000
  H   H974      1.0  0.07635  0.73427  0.95667  1.0000
  H   H975      1.0  0.15687  0.94152  0.55789  1.0000
  H   H976      1.0  0.15174  0.75981  0.58136  1.0000
  C   C563      1.0  0.30705  0.95494  0.00072  1.0000
  H   H977      1.0  0.04987  0.68418  0.75171  1.0000
  H   H978      1.0  0.07347  0.71216  0.77378  1.0000
  C   C564      1.0  0.04827  0.77178  0.94258  1.0000
  H   H979      1.0  0.46314  0.66935  0.74313  1.0000
  H   H980      1.0  0.29121  0.85698  0.93174  1.0000
  C   C565      1.0  0.00911  0.74005  0.64767  1.0000
  H   H981      1.0  0.08570  0.72686  0.91169  1.0000
  H   H982      1.0  0.13927  0.82300  0.54086  1.0000
  H   H983      1.0  0.48042  0.80949  0.79765  1.0000
  H   H984      1.0  0.26577  0.89516  0.99059  1.0000
  C   C566      1.0  0.19183  0.90791  0.54122  1.0000
  C   C567      1.0  0.30399  0.70974  0.54124  1.0000
  C   C568      1.0  0.45541  0.71525  0.97273  1.0000
  C   C569      1.0  0.47993  0.70710  0.93088  1.0000
  C   C570      1.0  0.26387  0.85292  0.71023  1.0000
  H   H985      1.0  0.05108  0.73296  0.97812  1.0000
  C   C571      1.0  0.08644  0.70709  0.91201  1.0000
  H   H986      1.0  0.04175  0.78322  0.59377  1.0000
  H   H987      1.0  0.09617  0.82160  0.55011  1.0000
  H   H988      1.0  0.02184  0.92511  0.68197  1.0000
  H   H989      1.0  0.10138  0.70124  0.92561  1.0000
  H   H990      1.0  0.06421  0.71742  0.80906  1.0000
  H   H991      1.0  0.02457  0.71615  0.72583  1.0000
  C   C572      1.0  0.42771  0.97040  0.87346  1.0000
  H   H992      1.0  0.14319  0.91297  0.55223  1.0000
  H   H993      1.0  0.32840  0.86556  0.00145  1.0000
  H   H994      1.0  0.04145  0.94749  0.79629  1.0000
  H   H995      1.0  0.16401  0.67602  0.53358  1.0000
  C   C573      1.0  0.01454  0.72790  0.67537  1.0000
  H   H996      1.0  0.26975  0.94775  0.55692  1.0000
  H   H997      1.0  0.22143  0.82769  0.57318  1.0000
  H   H998      1.0  0.32651  0.90677  0.75629  1.0000
  H   H999      1.0  0.26964  0.93225  0.58990  1.0000
  H   H1000     1.0  0.06922  0.68700  0.67694  1.0000
  H   H1001     1.0  0.05769  0.95093  0.91623  1.0000
  H   H1002     1.0  0.43493  0.72628  0.92169  1.0000
  H   H1003     1.0  0.36949  0.80158  0.50451  1.0000
  H   H1004     1.0  0.34577  0.80766  0.52838  1.0000
  H   H1005     1.0  0.33255  0.73389  0.54696  1.0000
  H   H1006     1.0  0.48201  0.67619  0.98732  1.0000
  H   H1007     1.0  0.05886  0.83365  0.51356  1.0000
  H   H1008     1.0  0.06404  0.67697  0.91947  1.0000
  C   C574      1.0  0.44701  0.75376  0.99880  1.0000
  H   H1009     1.0  0.49668  0.95625  0.91326  1.0000
  C   C575      1.0  0.06828  0.79507  0.51405  1.0000
  C   C576      1.0  0.22469  0.89208  0.51320  1.0000
  C   C577      1.0  0.01907  0.69537  0.77456  1.0000
  H   H1010     1.0  0.47353  0.71721  0.98184  1.0000
  H   H1011     1.0  0.10904  0.70732  0.87574  1.0000
  H   H1012     1.0  0.48093  0.98245  0.90226  1.0000
  H   H1013     1.0  0.48119  0.69619  0.91169  1.0000
  H   H1014     1.0  0.08916  0.82665  0.50412  1.0000
  H   H1015     1.0  0.00825  0.95635  0.99172  1.0000
  H   H1016     1.0  0.43754  0.77131  0.99780  1.0000
  C   C578      1.0  0.35104  0.79678  0.51022  1.0000
  H   H1017     1.0  0.06944  0.68100  0.71260  1.0000
  H   H1018     1.0  0.03096  0.95737  0.89672  1.0000
  H   H1019     1.0  0.00738  0.92487  0.98804  1.0000
  H   H1020     1.0  0.48719  0.97001  0.96414  1.0000
  H   H1021     1.0  0.44103  0.99046  0.90788  1.0000
  H   H1022     1.0  0.49161  0.89514  0.97778  1.0000
  S   S129      1.0  0.11777  0.66687  0.65481  1.0000
  H   H1023     1.0  0.06653  0.74543  0.51510  1.0000
  S   S130      1.0  0.36056  0.66977  0.60719  1.0000
  H   H1024     1.0  0.49563  0.70199  0.94374  1.0000
  H   H1025     1.0  0.40258  0.75260  0.51135  1.0000
  H   H1026     1.0  0.05038  0.78829  0.50831  1.0000
  H   H1027     1.0  0.46861  0.99219  0.94902  1.0000
  C   C579      1.0  0.02507  0.94600  0.93913  1.0000
  H   H1028     1.0  0.19595  0.68020  0.53128  1.0000
  H   H1029     1.0  0.33568  0.90755  0.99594  1.0000
  H   H1030     1.0  0.02499  0.92692  0.93360  1.0000
  H   H1031     1.0  0.37858  0.90033  0.51169  1.0000
  C   C580      1.0  0.60856  0.12602  0.46861  1.0000
  S   S131      1.0  0.67020  0.30346  0.35470  1.0000
  C   C581      1.0  0.51613  0.03771  0.20358  1.0000
  S   S132      1.0  0.53940  0.16565  0.08456  1.0000
  H   H1032     1.0  0.56942  0.18598  0.26721  1.0000
  S   S133      1.0  0.53285  0.10824  0.08458  1.0000
  Fe  Fe66      1.0  0.53506  0.13703  0.11679  1.0000
  S   S134      1.0  0.56261  0.13569  0.15174  1.0000
  Fe  Fe67      1.0  0.53360  0.13724  0.05253  1.0000
  H   H1033     1.0  0.61194  0.19514  0.05551  1.0000
  Fe  Fe68      1.0  0.64177  0.13876  0.32863  1.0000
  S   S135      1.0  0.60740  0.12718  0.34813  1.0000
  S   S136      1.0  0.67588  0.11715  0.33066  1.0000
  Fe  Fe69      1.0  0.62187  0.18681  0.31198  1.0000
  S   S137      1.0  0.58666  0.17953  0.33095  1.0000
  S   S138      1.0  0.62423  0.22065  0.28769  1.0000
  Fe  Fe70      1.0  0.60710  0.16391  0.36703  1.0000
  S   S139      1.0  0.60178  0.17886  0.41056  1.0000
  Fe  Fe71      1.0  0.59018  0.14405  0.30990  1.0000
  S   S140      1.0  0.55783  0.13400  0.28369  1.0000
  S   S141      1.0  0.64217  0.17436  0.34924  1.0000
  S   S142      1.0  0.62477  0.15231  0.28943  1.0000
  S   S143      1.0  0.97448  0.31085  0.10713  1.0000
  S   S144      1.0  0.80775  0.30298  0.33872  1.0000
  Fe  Fe72      1.0  0.84259  0.13975  0.33377  1.0000
  S   S145      1.0  0.83139  0.17802  0.32942  1.0000
  S   S146      1.0  0.85299  0.11827  0.29550  1.0000
  Fe  Fe73      1.0  0.82869  0.13874  0.39565  1.0000
  S   S147      1.0  0.81642  0.17684  0.39519  1.0000
  S   S148      1.0  0.82176  0.11858  0.43548  1.0000
  Fe  Fe74      1.0  0.79950  0.16846  0.35452  1.0000
  S   S149      1.0  0.76423  0.18492  0.34173  1.0000
  Fe  Fe75      1.0  0.84931  0.18279  0.37038  1.0000
  S   S150      1.0  0.87126  0.21530  0.37668  1.0000
  S   S151      1.0  0.80908  0.12963  0.35640  1.0000
  S   S152      1.0  0.86327  0.14507  0.37342  1.0000
  Fe  Fe76      1.0  0.93441  0.17231  0.09680  1.0000
  S   S153      1.0  0.90131  0.15465  0.11246  1.0000
  S   S154      1.0  0.92791  0.21035  0.08025  1.0000
  Fe  Fe77      1.0  0.96557  0.12762  0.11107  1.0000
  S   S155      1.0  0.93457  0.10790  0.12876  1.0000
  C   C582      1.0  0.59524  0.27167  0.48740  1.0000
  Fe  Fe78      1.0  0.91475  0.12157  0.09066  1.0000
  S   S156      1.0  0.89192  0.09542  0.06601  1.0000
  Fe  Fe79      1.0  0.92360  0.14277  0.14895  1.0000
  S   S157      1.0  0.91412  0.15525  0.19293  1.0000
  S   S158      1.0  0.94619  0.13995  0.07237  1.0000
  S   S159      1.0  0.95632  0.16158  0.13370  1.0000
  C   C583      1.0  0.68398  0.15668  0.46171  1.0000
  H   H1034     1.0  0.96049  0.30413  0.17771  1.0000
  H   H1035     1.0  0.53600  0.08053  0.17681  1.0000
  H   H1036     1.0  0.76653  0.16845  0.26504  1.0000
  C   C584      1.0  0.83187  0.13076  0.46703  1.0000
  C   C585      1.0  0.55430  0.29801  0.15865  1.0000
  H   H1037     1.0  0.53115  0.22066  0.09308  1.0000
  C   C586      1.0  0.85255  0.14429  0.46821  1.0000
  H   H1038     1.0  0.80406  0.11477  0.49101  1.0000
  H   H1039     1.0  0.86165  0.14890  0.44932  1.0000
  C   C587      1.0  0.86948  0.12903  0.26683  1.0000
  C   C588      1.0  0.87132  0.11507  0.24279  1.0000
  C   C589      1.0  0.88468  0.12278  0.21984  1.0000
  C   C590      1.0  0.89657  0.14448  0.22079  1.0000
  C   C591      1.0  0.89463  0.15842  0.24483  1.0000
  C   C592      1.0  0.88108  0.15087  0.26762  1.0000
  H   H1040     1.0  0.86254  0.09808  0.24198  1.0000
  H   H1041     1.0  0.88604  0.11180  0.20158  1.0000
  H   H1042     1.0  0.90379  0.17512  0.24592  1.0000
  H   H1043     1.0  0.88002  0.16168  0.28602  1.0000
  C   C593      1.0  0.82564  0.27957  0.35144  1.0000
  C   C594      1.0  0.85046  0.28110  0.35198  1.0000
  C   C595      1.0  0.86445  0.26156  0.36075  1.0000
  C   C596      1.0  0.85365  0.24031  0.36841  1.0000
  C   C597      1.0  0.82882  0.23885  0.36803  1.0000
  C   C598      1.0  0.81483  0.25852  0.35980  1.0000
  H   H1044     1.0  0.85902  0.29687  0.34463  1.0000
  H   H1045     1.0  0.88368  0.26266  0.36073  1.0000
  H   H1046     1.0  0.82029  0.22250  0.37368  1.0000
  H   H1047     1.0  0.79563  0.25719  0.35936  1.0000
  C   C599      1.0  0.96100  0.28282  0.10139  1.0000
  C   C600      1.0  0.93675  0.28104  0.09526  1.0000
  C   C601      1.0  0.92684  0.25866  0.08958  1.0000
  C   C602      1.0  0.94091  0.23767  0.09043  1.0000
  C   C603      1.0  0.96504  0.23933  0.09739  1.0000
  C   C604      1.0  0.97502  0.26180  0.10278  1.0000
  H   H1048     1.0  0.92564  0.29694  0.09469  1.0000
  H   H1049     1.0  0.90812  0.25757  0.08446  1.0000
  H   H1050     1.0  0.97618  0.22340  0.09771  1.0000
  H   H1051     1.0  0.54337  0.31063  0.41045  1.0000
  C   C605      1.0  0.70056  0.13579  0.33371  1.0000
  C   C606      1.0  0.72156  0.12736  0.34645  1.0000
  C   C607      1.0  0.74124  0.14232  0.34916  1.0000
  C   C608      1.0  0.74001  0.16568  0.33890  1.0000
  C   C609      1.0  0.71902  0.17405  0.32619  1.0000
  C   C610      1.0  0.69935  0.15916  0.32360  1.0000
  H   H1052     1.0  0.72249  0.10937  0.35456  1.0000
  H   H1053     1.0  0.75723  0.13588  0.35940  1.0000
  H   H1054     1.0  0.71796  0.19207  0.31820  1.0000
  H   H1055     1.0  0.68339  0.16566  0.31328  1.0000
  C   C611      1.0  0.60602  0.16294  0.44207  1.0000
  C   C612      1.0  0.60940  0.17566  0.46675  1.0000
  C   C613      1.0  0.55907  0.20293  0.26477  1.0000
  H   H1056     1.0  0.71565  0.05177  0.29817  1.0000
  C   C614      1.0  0.60552  0.13806  0.44316  1.0000
  H   H1057     1.0  0.60974  0.19492  0.46615  1.0000
  H   H1058     1.0  0.60253  0.12808  0.42444  1.0000
  C   C615      1.0  0.56021  0.13355  0.18826  1.0000
  C   C616      1.0  0.53836  0.13478  0.20207  1.0000
  C   C617      1.0  0.53780  0.13464  0.23128  1.0000
  C   C618      1.0  0.55903  0.13350  0.24693  1.0000
  C   C619      1.0  0.58074  0.13195  0.23301  1.0000
  C   C620      1.0  0.58130  0.13202  0.20393  1.0000
  H   H1059     1.0  0.52198  0.13612  0.19029  1.0000
  H   H1060     1.0  0.52089  0.13568  0.24184  1.0000
  H   H1061     1.0  0.59718  0.13061  0.24462  1.0000
  H   H1062     1.0  0.59830  0.13107  0.19350  1.0000
  H   H1063     1.0  0.96274  0.18162  0.27009  1.0000
  H   H1064     1.0  0.69706  0.17066  0.46637  1.0000
  H   H1065     1.0  0.90433  0.30608  0.38217  1.0000
  C   C621      1.0  0.65967  0.28023  0.33450  1.0000
  C   C622      1.0  0.64378  0.28528  0.31291  1.0000
  C   C623      1.0  0.63404  0.26676  0.29769  1.0000
  C   C624      1.0  0.63941  0.24313  0.30470  1.0000
  C   C625      1.0  0.65578  0.23794  0.32582  1.0000
  C   C626      1.0  0.66617  0.25658  0.34057  1.0000
  H   H1066     1.0  0.63855  0.30342  0.30817  1.0000
  H   H1067     1.0  0.62172  0.27073  0.28107  1.0000
  H   H1068     1.0  0.66041  0.21966  0.33079  1.0000
  H   H1069     1.0  0.67858  0.25267  0.35720  1.0000
  C   C627      1.0  0.74581  0.28206  0.30938  1.0000
  H   H1070     1.0  0.92439  0.04603  0.06142  1.0000
  H   H1071     1.0  0.57289  0.28608  0.22292  1.0000
  C   C628      1.0  0.58797  0.25076  0.23204  1.0000
  H   H1072     1.0  0.79775  0.17264  0.25787  1.0000
  H   H1073     1.0  0.69300  0.07475  0.29489  1.0000
  C   C629      1.0  0.96609  0.19965  0.26146  1.0000
  H   H1074     1.0  0.58665  0.17589  0.05547  1.0000
  H   H1075     1.0  0.71252  0.07447  0.32447  1.0000
  H   H1076     1.0  0.97778  0.23210  0.22444  1.0000
  H   H1077     1.0  0.77547  0.28790  0.26482  1.0000
  H   H1078     1.0  0.85813  0.32374  0.26745  1.0000
  H   H1079     1.0  0.89541  0.05693  0.47672  1.0000
  H   H1080     1.0  0.90766  0.05187  0.10769  1.0000
  H   H1081     1.0  0.92787  0.21258  0.14072  1.0000
  C   C630      1.0  0.93645  0.05210  0.07804  1.0000
  C   C631      1.0  0.92840  0.22198  0.18469  1.0000
  H   H1082     1.0  0.89982  0.26040  0.03359  1.0000
  H   H1083     1.0  0.99400  0.07907  0.00881  1.0000
  H   H1084     1.0  0.87765  0.29325  0.01365  1.0000
  H   H1085     1.0  0.99381  0.26293  0.10755  1.0000
  H   H1086     1.0  0.93781  0.19599  0.23224  1.0000
  H   H1087     1.0  0.80696  0.31797  0.26805  1.0000
  N   N33       1.0  0.95386  0.22948  0.18918  1.0000
  N   N34       1.0  0.97546  0.04980  0.04918  1.0000
  H   H1088     1.0  0.75904  0.12465  0.45351  1.0000
  H   H1089     1.0  0.51887  0.19170  0.39378  1.0000
  H   H1090     1.0  0.95081  0.27827  0.03727  1.0000
  H   H1091     1.0  0.96550  0.21649  0.14941  1.0000
  C   C632      1.0  0.99217  0.30509  0.03617  1.0000
  H   H1092     1.0  0.93666  0.07181  0.07851  1.0000
  H   H1093     1.0  0.59628  0.23412  0.49776  1.0000
  C   C633      1.0  0.91849  0.22498  0.15487  1.0000
  H   H1094     1.0  0.70249  0.29708  0.28814  1.0000
  C   C634      1.0  0.53111  0.25903  0.08851  1.0000
  H   H1095     1.0  0.88943  0.20011  0.15990  1.0000
  H   H1096     1.0  0.72278  0.23509  0.34846  1.0000
  H   H1097     1.0  0.96686  0.18754  0.21971  1.0000
  C   C635      1.0  0.79302  0.31944  0.25172  1.0000
  H   H1098     1.0  0.51527  0.27636  0.14013  1.0000
  H   H1099     1.0  0.75255  0.30678  0.35569  1.0000
  H   H1100     1.0  0.70110  0.12937  0.48861  1.0000
  H   H1101     1.0  0.93689  0.04988  0.12307  1.0000
  H   H1102     1.0  0.96431  0.27876  0.00452  1.0000
  H   H1103     1.0  0.51388  0.23187  0.02505  1.0000
  H   H1104     1.0  0.67791  0.32869  0.41013  1.0000
  H   H1105     1.0  0.72392  0.29029  0.26253  1.0000
  H   H1106     1.0  0.54996  0.26039  0.09279  1.0000
  H   H1107     1.0  0.82823  0.28621  0.49381  1.0000
  H   H1108     1.0  0.66918  0.12670  0.48551  1.0000
  N   N35       1.0  0.57099  0.21103  0.21307  1.0000
  C   C636      1.0  0.59355  0.19791  0.22145  1.0000
  C   C637      1.0  0.55158  0.20662  0.23410  1.0000
  C   C638      1.0  0.56281  0.20085  0.18587  1.0000
  C   C639      1.0  0.57481  0.23738  0.20879  1.0000
  C   C640      1.0  0.61458  0.19894  0.20089  1.0000
  C   C641      1.0  0.53861  0.21072  0.17465  1.0000
  C   C642      1.0  0.63717  0.18790  0.21368  1.0000
  C   C643      1.0  0.53062  0.19678  0.14937  1.0000
  H   H1109     1.0  0.58974  0.17876  0.22497  1.0000
  H   H1110     1.0  0.60020  0.20439  0.24154  1.0000
  H   H1111     1.0  0.53791  0.22120  0.23335  1.0000
  H   H1112     1.0  0.54190  0.18997  0.22892  1.0000
  H   H1113     1.0  0.56157  0.18114  0.18758  1.0000
  H   H1114     1.0  0.57599  0.20412  0.16925  1.0000
  H   H1115     1.0  0.58484  0.24048  0.18933  1.0000
  H   H1116     1.0  0.61056  0.18856  0.18200  1.0000
  H   H1117     1.0  0.61848  0.21756  0.19491  1.0000
  H   H1118     1.0  0.54029  0.22967  0.16831  1.0000
  H   H1119     1.0  0.52426  0.20944  0.19020  1.0000
  H   H1120     1.0  0.54271  0.19790  0.30492  1.0000
  H   H1121     1.0  0.64270  0.19808  0.23221  1.0000
  H   H1122     1.0  0.63414  0.16906  0.21976  1.0000
  H   H1123     1.0  0.65187  0.18825  0.19844  1.0000
  H   H1124     1.0  0.51387  0.20470  0.14082  1.0000
  H   H1125     1.0  0.54453  0.19722  0.13318  1.0000
  H   H1126     1.0  0.52727  0.17792  0.15505  1.0000
  H   H1127     1.0  0.78842  0.16552  0.29243  1.0000
  H   H1128     1.0  0.98551  0.07190  0.13523  1.0000
  N   N36       1.0  0.85678  0.24779  0.27258  1.0000
  C   C644      1.0  0.83711  0.23784  0.29010  1.0000
  C   C645      1.0  0.88020  0.24451  0.28773  1.0000
  C   C646      1.0  0.85216  0.27434  0.26959  1.0000
  C   C647      1.0  0.85792  0.23670  0.24415  1.0000
  C   C648      1.0  0.85026  0.21028  0.24162  1.0000
  C   C649      1.0  0.81140  0.24440  0.28062  1.0000
  C   C650      1.0  0.87206  0.28874  0.25536  1.0000
  C   C651      1.0  0.88791  0.21866  0.29528  1.0000
  C   C652      1.0  0.91026  0.21841  0.31341  1.0000
  C   C653      1.0  0.79313  0.22821  0.29403  1.0000
  H   H1129     1.0  0.83895  0.24415  0.31166  1.0000
  H   H1130     1.0  0.83858  0.21821  0.29189  1.0000
  H   H1131     1.0  0.89510  0.25160  0.27529  1.0000
  H   H1132     1.0  0.87990  0.25507  0.30716  1.0000
  H   H1133     1.0  0.84895  0.28257  0.29024  1.0000
  H   H1134     1.0  0.83560  0.27782  0.25739  1.0000
  H   H1135     1.0  0.84640  0.24686  0.22926  1.0000
  H   H1136     1.0  0.87627  0.23808  0.23569  1.0000
  H   H1137     1.0  0.83066  0.20893  0.24386  1.0000
  H   H1138     1.0  0.85852  0.19869  0.25762  1.0000
  H   H1139     1.0  0.80698  0.26301  0.28682  1.0000
  H   H1140     1.0  0.80951  0.24308  0.25786  1.0000
  H   H1141     1.0  0.87791  0.28009  0.23592  1.0000
  H   H1142     1.0  0.88768  0.29033  0.26936  1.0000
  H   H1143     1.0  0.87400  0.20917  0.30692  1.0000
  H   H1144     1.0  0.89241  0.20866  0.27627  1.0000
  H   H1145     1.0  0.91591  0.19969  0.31780  1.0000
  H   H1146     1.0  0.92504  0.22766  0.30296  1.0000
  H   H1147     1.0  0.90662  0.22733  0.33342  1.0000
  H   H1148     1.0  0.77500  0.23308  0.28654  1.0000
  H   H1149     1.0  0.79677  0.20932  0.28863  1.0000
  H   H1150     1.0  0.79359  0.22994  0.31686  1.0000
  N   N37       1.0  0.77402  0.09399  0.27935  1.0000
  C   C654      1.0  0.75474  0.08272  0.29644  1.0000
  C   C655      1.0  0.79842  0.08879  0.29185  1.0000
  C   C656      1.0  0.76981  0.12066  0.28002  1.0000
  C   C657      1.0  0.77330  0.08611  0.24962  1.0000
  C   C658      1.0  0.77434  0.05890  0.24466  1.0000
  C   C659      1.0  0.72873  0.08676  0.28616  1.0000
  C   C660      1.0  0.78816  0.13575  0.26396  1.0000
  C   C661      1.0  0.80198  0.06519  0.30838  1.0000
  C   C662      1.0  0.82805  0.06135  0.31676  1.0000
  C   C663      1.0  0.77167  0.05328  0.21394  1.0000
  C   C664      1.0  0.71154  0.07091  0.30195  1.0000
  C   C665      1.0  0.78491  0.16223  0.27021  1.0000
  H   H1151     1.0  0.75566  0.08944  0.31807  1.0000
  H   H1152     1.0  0.75754  0.06316  0.29811  1.0000
  H   H1153     1.0  0.81247  0.08937  0.27568  1.0000
  H   H1154     1.0  0.80339  0.10298  0.30666  1.0000
  H   H1155     1.0  0.76943  0.12695  0.30186  1.0000
  H   H1156     1.0  0.75212  0.12562  0.27110  1.0000
  H   H1157     1.0  0.75728  0.09369  0.23891  1.0000
  H   H1158     1.0  0.78864  0.09351  0.23810  1.0000
  H   H1159     1.0  0.75990  0.04962  0.25567  1.0000
  H   H1160     1.0  0.79185  0.05149  0.25143  1.0000
  H   H1161     1.0  0.72288  0.10553  0.28944  1.0000
  H   H1162     1.0  0.72676  0.08250  0.26396  1.0000
  H   H1163     1.0  0.78575  0.13346  0.24135  1.0000
  H   H1164     1.0  0.80676  0.13066  0.26934  1.0000
  H   H1165     1.0  0.79139  0.06586  0.32771  1.0000
  H   H1166     1.0  0.79642  0.04949  0.29636  1.0000
  H   H1167     1.0  0.83406  0.07615  0.33017  1.0000
  H   H1168     1.0  0.83014  0.04438  0.32847  1.0000
  H   H1169     1.0  0.83962  0.06046  0.29823  1.0000
  H   H1170     1.0  0.78610  0.06165  0.20185  1.0000
  H   H1171     1.0  0.77281  0.03368  0.21085  1.0000
  H   H1172     1.0  0.75412  0.05981  0.20602  1.0000
  H   H1173     1.0  0.96774  0.27468  0.21708  1.0000
  H   H1174     1.0  0.55742  0.24683  0.20573  1.0000
  C   C666      1.0  0.85685  0.19995  0.21348  1.0000
  C   C667      1.0  0.53713  0.20117  0.28323  1.0000
  H   H1175     1.0  0.60614  0.24322  0.23541  1.0000
  H   H1176     1.0  0.85094  0.18118  0.21222  1.0000
  C   C668      1.0  0.85767  0.30331  0.47133  1.0000
  H   H1177     1.0  0.86934  0.21184  0.47190  1.0000
  C   C669      1.0  0.52854  0.30615  0.16366  1.0000
  H   H1178     1.0  0.57018  0.21751  0.27261  1.0000
  H   H1179     1.0  0.53403  0.04478  0.19905  1.0000
  H   H1180     1.0  0.59918  0.22357  0.36520  1.0000
  H   H1181     1.0  0.84809  0.21033  0.19656  1.0000
  H   H1182     1.0  0.87647  0.19998  0.21059  1.0000
  H   H1183     1.0  0.52639  0.21796  0.28237  1.0000
  H   H1184     1.0  0.50924  0.18989  0.03173  1.0000
  H   H1185     1.0  0.57786  0.25003  0.25153  1.0000
  H   H1186     1.0  0.55996  0.20453  0.38935  1.0000
  H   H1187     1.0  0.52598  0.18599  0.27670  1.0000
  C   C670      1.0  0.71101  0.32703  0.26253  1.0000
  C   C671      1.0  0.89682  0.11121  0.01159  1.0000
  H   H1188     1.0  0.59526  0.25559  0.44661  1.0000
  H   H1189     1.0  0.77432  0.31934  0.30246  1.0000
  C   C672      1.0  0.65121  0.09446  0.40029  1.0000
  C   C673      1.0  0.59064  0.27713  0.22458  1.0000
  H   H1190     1.0  0.89181  0.28536  0.44053  1.0000
  C   C674      1.0  0.51126  0.28499  0.16027  1.0000
  C   C675      1.0  0.95276  0.28955  0.01850  1.0000
  C   C676      1.0  0.89212  0.21888  0.15332  1.0000
  C   C677      1.0  0.95939  0.22654  0.21959  1.0000
  C   C678      1.0  0.56312  0.31077  0.40925  1.0000
  H   H1191     1.0  0.80606  0.28075  0.41940  1.0000
  H   H1192     1.0  0.86287  0.32224  0.46880  1.0000
  N   N38       1.0  0.73845  0.30662  0.29925  1.0000
  H   H1193     1.0  0.95934  0.25664  0.15785  1.0000
  H   H1194     1.0  0.73359  0.16148  0.45430  1.0000
  H   H1195     1.0  0.87304  0.29458  0.48216  1.0000
  H   H1196     1.0  0.59163  0.29633  0.38487  1.0000
  H   H1197     1.0  0.60094  0.28631  0.24088  1.0000
  H   H1198     1.0  0.86773  0.07925  0.44398  1.0000
  C   C679      1.0  0.57196  0.29576  0.38498  1.0000
  H   H1199     1.0  0.60032  0.27916  0.20477  1.0000
  H   H1200     1.0  0.62334  0.25289  0.46495  1.0000
  H   H1201     1.0  0.56556  0.30474  0.36581  1.0000
  H   H1202     1.0  0.61172  0.26654  0.40180  1.0000
  H   H1203     1.0  0.62995  0.22816  0.41705  1.0000
  H   H1204     1.0  0.64062  0.22292  0.38247  1.0000
  C   C680      1.0  0.75812  0.13695  0.43547  1.0000
  H   H1205     1.0  0.92248  0.30789  0.41318  1.0000
  H   H1206     1.0  0.77285  0.30961  0.41892  1.0000
  C   C681      1.0  0.63570  0.23692  0.39762  1.0000
  C   C682      1.0  0.79132  0.31619  0.41729  1.0000
  C   C683      1.0  0.51754  0.27991  0.08324  1.0000
  C   C684      1.0  0.69567  0.20400  0.39056  1.0000
  H   H1207     1.0  0.71126  0.19681  0.37906  1.0000
  H   H1208     1.0  0.62274  0.26204  0.36738  1.0000
  H   H1209     1.0  0.98227  0.08251  0.07089  1.0000
  H   H1210     1.0  0.97206  0.04523  0.09325  1.0000
  C   C685      1.0  0.61581  0.25303  0.38593  1.0000
  H   H1211     1.0  0.65167  0.24768  0.40206  1.0000
  H   H1212     1.0  0.72257  0.27866  0.34601  1.0000
  H   H1213     1.0  0.79543  0.31888  0.39511  1.0000
  C   C686      1.0  0.58023  0.26294  0.33953  1.0000
  H   H1214     1.0  0.52926  0.09428  0.14424  1.0000
  H   H1215     1.0  0.93154  0.06357  0.02260  1.0000
  C   C687      1.0  0.56242  0.26992  0.38662  1.0000
  H   H1216     1.0  0.51666  0.27186  0.17645  1.0000
  H   H1217     1.0  0.77309  0.11614  0.01687  1.0000
  C   C688      1.0  0.95678  0.20105  0.23178  1.0000
  H   H1218     1.0  0.59347  0.27711  0.34290  1.0000
  C   C689      1.0  0.86354  0.31410  0.24841  1.0000
  C   C690      1.0  0.83491  0.30580  0.42704  1.0000
  H   H1219     1.0  0.58986  0.24944  0.32670  1.0000
  C   C691      1.0  0.52048  0.23644  0.08873  1.0000
  C   C692      1.0  0.88653  0.31046  0.01741  1.0000
  H   H1220     1.0  0.69902  0.22296  0.39555  1.0000
  C   C693      1.0  0.55545  0.20793  0.02774  1.0000
  H   H1221     1.0  0.55746  0.06624  0.12057  1.0000
  C   C694      1.0  0.59350  0.23842  0.37908  1.0000
  H   H1222     1.0  0.67964  0.20319  0.37717  1.0000
  H   H1223     1.0  0.58838  0.22995  0.39895  1.0000
  H   H1224     1.0  0.54951  0.18926  0.03043  1.0000
  H   H1225     1.0  0.67801  0.19881  0.42943  1.0000
  C   C695      1.0  0.85591  0.22373  0.46168  1.0000
  H   H1226     1.0  0.56472  0.33062  0.22001  1.0000
  N   N39       1.0  0.57259  0.25189  0.36648  1.0000
  C   C696      1.0  0.69220  0.18977  0.41719  1.0000
  H   H1227     1.0  0.95956  0.02179  0.07367  1.0000
  H   H1228     1.0  0.55984  0.22196  0.34290  1.0000
  H   H1229     1.0  0.91984  0.32430  0.03162  1.0000
  C   C697      1.0  0.97778  0.29462  0.18119  1.0000
  H   H1230     1.0  0.57655  0.30693  0.31171  1.0000
  C   C698      1.0  0.73453  0.15099  0.43499  1.0000
  H   H1231     1.0  0.98558  0.20270  0.26205  1.0000
  H   H1232     1.0  0.70891  0.19087  0.42921  1.0000
  C   C699      1.0  0.69167  0.32172  0.24124  1.0000
  C   C700      1.0  0.51547  0.03210  0.23448  1.0000
  H   H1233     1.0  0.58252  0.28252  0.00748  1.0000
  H   H1234     1.0  0.88140  0.23109  0.16649  1.0000
  H   H1235     1.0  0.61424  0.28111  0.45008  1.0000
  H   H1236     1.0  0.85254  0.21677  0.44057  1.0000
  H   H1237     1.0  0.55955  0.28347  0.17312  1.0000
  H   H1238     1.0  0.73520  0.16318  0.41688  1.0000
  C   C701      1.0  0.86528  0.24916  0.46022  1.0000
  H   H1239     1.0  0.56488  0.26339  0.40822  1.0000
  H   H1240     1.0  0.58205  0.28354  0.28693  1.0000
  H   H1241     1.0  0.82995  0.26404  0.45693  1.0000
  C   C702      1.0  0.51482  0.05838  0.14813  1.0000
  H   H1242     1.0  0.65388  0.32403  0.43401  1.0000
  H   H1243     1.0  0.92641  0.20281  0.18963  1.0000
  H   H1244     1.0  0.58520  0.20415  0.07347  1.0000
  H   H1245     1.0  0.92442  0.02418  0.10604  1.0000
  C   C703      1.0  0.68472  0.16372  0.41109  1.0000
  C   C704      1.0  0.96969  0.21379  0.17165  1.0000
  H   H1246     1.0  0.69361  0.15758  0.39175  1.0000
  H   H1247     1.0  0.66539  0.16539  0.40586  1.0000
  H   H1248     1.0  0.66624  0.16598  0.46136  1.0000
  S   S160      1.0  0.53194  0.30789  0.08516  1.0000
  C   C705      1.0  0.80863  0.29798  0.43020  1.0000
  C   C706      1.0  0.60777  0.26484  0.46059  1.0000
  H   H1249     1.0  0.54563  0.28204  0.33413  1.0000
  C   C707      1.0  0.96439  0.04078  0.02272  1.0000
  H   H1250     1.0  0.60823  0.28065  0.50103  1.0000
  H   H1251     1.0  0.57173  0.08320  0.14725  1.0000
  C   C708      1.0  0.56853  0.29167  0.30071  1.0000
  H   H1252     1.0  0.96600  0.19471  0.17566  1.0000
  H   H1253     1.0  0.64935  0.08783  0.37881  1.0000
  C   C709      1.0  0.67064  0.12589  0.43016  1.0000
  C   C710      1.0  0.77046  0.30679  0.26085  1.0000
  H   H1254     1.0  0.94757  0.23865  0.23179  1.0000
  H   H1255     1.0  0.51056  0.05995  0.12562  1.0000
  H   H1256     1.0  0.88225  0.24824  0.44861  1.0000
  H   H1257     1.0  0.54274  0.27181  0.38400  1.0000
  C   C711      1.0  0.84697  0.26614  0.44577  1.0000
  H   H1258     1.0  0.88583  0.22077  0.13160  1.0000
  N   N40       1.0  0.68857  0.14545  0.43386  1.0000
  C   C712      1.0  0.55846  0.06916  0.14322  1.0000
  C   C713      1.0  0.55962  0.27334  0.32139  1.0000
  C   C714      1.0  0.91288  0.30644  0.02627  1.0000
  C   C715      1.0  0.55368  0.23388  0.35982  1.0000
  H   H1259     1.0  0.83589  0.32520  0.43167  1.0000
  H   H1260     1.0  0.84371  0.25885  0.42470  1.0000
  H   H1261     1.0  0.55350  0.29860  0.28784  1.0000
  C   C716      1.0  0.89127  0.07611  0.48002  1.0000
  H   H1262     1.0  0.75758  0.30748  0.24341  1.0000
  H   H1263     1.0  0.57085  0.30397  0.42899  1.0000
  H   H1264     1.0  0.67497  0.11050  0.44402  1.0000
  C   C717      1.0  0.59218  0.19482  0.05493  1.0000
  H   H1265     1.0  0.93838  0.26502  0.18326  1.0000
  C   C718      1.0  0.90768  0.31645  0.40125  1.0000
  H   H1266     1.0  0.73992  0.23279  0.31735  1.0000
  H   H1267     1.0  0.52764  0.31343  0.18490  1.0000
  H   H1268     1.0  0.55121  0.25874  0.30957  1.0000
  H   H1269     1.0  0.80190  0.12713  0.00734  1.0000
  H   H1270     1.0  0.53729  0.24300  0.35181  1.0000
  C   C719      1.0  0.71314  0.13416  0.43211  1.0000
  C   C720      1.0  0.99101  0.11439  0.02581  1.0000
  C   C721      1.0  0.50455  0.19727  0.01107  1.0000
  H   H1271     1.0  0.92043  0.24346  0.14709  1.0000
  H   H1272     1.0  0.83919  0.22313  0.47381  1.0000
  H   H1273     1.0  0.65837  0.07970  0.41342  1.0000
  S   S161      1.0  0.55543  0.14024  0.01283  1.0000
  H   H1274     1.0  0.71558  0.12535  0.41179  1.0000
  H   H1275     1.0  0.52449  0.32083  0.14887  1.0000
  H   H1276     1.0  0.66038  0.12927  0.38632  1.0000
  H   H1277     1.0  0.87592  0.28182  0.40904  1.0000
  H   H1278     1.0  0.71527  0.11955  0.44756  1.0000
  C   C722      1.0  0.61239  0.16360  0.49224  1.0000
  C   C723      1.0  0.87692  0.29302  0.42788  1.0000
  H   H1279     1.0  0.86894  0.25505  0.48165  1.0000
  H   H1280     1.0  0.83844  0.30425  0.40446  1.0000
  C   C724      1.0  0.66801  0.11561  0.40060  1.0000
  H   H1281     1.0  0.51451  0.02075  0.19228  1.0000
  N   N41       1.0  0.85368  0.29205  0.44347  1.0000
  H   H1282     1.0  0.63329  0.09990  0.40779  1.0000
  H   H1283     1.0  0.65264  0.13243  0.43630  1.0000
  H   H1284     1.0  0.68532  0.10934  0.39225  1.0000
  H   H1285     1.0  0.87342  0.31360  0.05967  1.0000
  H   H1286     1.0  0.87143  0.32747  0.40602  1.0000
  H   H1287     1.0  0.67525  0.31567  0.25170  1.0000
  H   H1288     1.0  0.86476  0.09825  0.50040  1.0000
  C   C725      1.0  0.71884  0.30396  0.27813  1.0000
  C   C726      1.0  0.88827  0.09368  0.02943  1.0000
  C   C727      1.0  0.87609  0.07426  0.01802  1.0000
  C   C728      1.0  0.88515  0.31815  0.41874  1.0000
  H   H1289     1.0  0.87828  0.32400  0.23865  1.0000
  H   H1290     1.0  0.90619  0.12626  0.01996  1.0000
  H   H1291     1.0  0.52746  0.19217  0.35801  1.0000
  H   H1292     1.0  0.99138  0.00255  0.04135  1.0000
  H   H1293     1.0  0.85548  0.06902  0.49221  1.0000
  H   H1294     1.0  0.80005  0.31107  0.23261  1.0000
  C   C729      1.0  0.97419  0.27080  0.19587  1.0000
  H   H1295     1.0  0.98659  0.29161  0.16100  1.0000
  H   H1296     1.0  0.71173  0.31538  0.32959  1.0000
  H   H1297     1.0  0.99254  0.29070  0.05202  1.0000
  H   H1298     1.0  0.95692  0.21305  0.27460  1.0000
  H   H1299     1.0  0.59057  0.22510  0.02782  1.0000
  C   C730      1.0  0.99681  0.21748  0.17422  1.0000
  C   C731      1.0  0.82019  0.12504  0.49173  1.0000
  C   C732      1.0  0.52372  0.20352  0.37629  1.0000
  H   H1300     1.0  0.91316  0.29633  0.04605  1.0000
  H   H1301     1.0  0.52309  0.04042  0.15050  1.0000
  H   H1302     1.0  0.56646  0.31318  0.16174  1.0000
  C   C733      1.0  0.72920  0.32188  0.32251  1.0000
  H   H1303     1.0  0.98941  0.30612  0.19385  1.0000
  C   C734      1.0  0.92580  0.04390  0.10542  1.0000
  H   H1304     1.0  0.77320  0.14946  0.43706  1.0000
  C   C735      1.0  0.53418  0.07708  0.15436  1.0000
  C   C736      1.0  0.58428  0.24960  0.50163  1.0000
  C   C737      1.0  0.86246  0.15039  0.49395  1.0000
  C   C738      1.0  0.74589  0.32428  0.34796  1.0000
  C   C739      1.0  0.72711  0.26875  0.32693  1.0000
  H   H1305     1.0  0.89894  0.08295  0.43677  1.0000
  H   H1306     1.0  0.87920  0.15965  0.49469  1.0000
  H   H1307     1.0  0.86943  0.06056  0.03160  1.0000
  C   C740      1.0  0.83622  0.30399  0.49122  1.0000
  H   H1308     1.0  0.54153  0.22843  0.40271  1.0000
  H   H1309     1.0  0.56152  0.29780  0.02949  1.0000
  H   H1310     1.0  0.71736  0.32563  0.37834  1.0000
  H   H1311     1.0  0.54907  0.21734  0.04650  1.0000
  H   H1312     1.0  0.92901  0.24705  0.02976  1.0000
  H   H1313     1.0  0.60335  0.32021  0.46888  1.0000
  C   C741      1.0  0.54572  0.21774  0.38408  1.0000
  C   C742      1.0  0.88459  0.08683  0.45189  1.0000
  H   H1314     1.0  0.56470  0.05248  0.15359  1.0000
  H   H1315     1.0  0.60807  0.10675  0.46921  1.0000
  C   C743      1.0  0.95572  0.25537  0.18041  1.0000
  H   H1316     1.0  0.71053  0.26618  0.31489  1.0000
  H   H1317     1.0  0.69786  0.30776  0.22660  1.0000
  H   H1318     1.0  0.80349  0.29553  0.45202  1.0000
  H   H1319     1.0  0.58085  0.28483  0.48223  1.0000
  C   C744      1.0  0.73636  0.24408  0.33569  1.0000
  H   H1320     1.0  0.75295  0.24545  0.34813  1.0000
  H   H1321     1.0  0.76040  0.12651  0.41617  1.0000
  H   H1322     1.0  0.59026  0.19657  0.01088  1.0000
  H   H1323     1.0  0.84834  0.31395  0.23366  1.0000
  H   H1324     1.0  0.97833  0.03736  0.00685  1.0000
  C   C745      1.0  0.58307  0.20695  0.02850  1.0000
  H   H1325     1.0  0.88242  0.10646  0.45344  1.0000
  H   H1326     1.0  0.88920  0.32941  0.43688  1.0000
  C   C746      1.0  0.97710  0.07663  0.04986  1.0000
  H   H1327     1.0  0.74989  0.27022  0.29162  1.0000
  H   H1328     1.0  0.91630  0.23188  0.19895  1.0000
  H   H1329     1.0  0.95780  0.31950  0.04674  1.0000
  H   H1330     1.0  0.55647  0.29163  0.13710  1.0000
  H   H1331     1.0  0.76274  0.28264  0.32138  1.0000
  C   C747      1.0  0.51779  0.22098  0.00643  1.0000
  C   C748      1.0  0.96654  0.31176  0.02823  1.0000
  H   H1332     1.0  0.53322  0.26530  0.02528  1.0000
  C   C749      1.0  0.96176  0.04144  0.07410  1.0000
  H   H1333     1.0  0.95950  0.08541  0.04627  1.0000
  C   C750      1.0  0.61184  0.13868  0.49332  1.0000
  H   H1334     1.0  0.99183  0.26183  0.19766  1.0000
  H   H1335     1.0  0.96727  0.32583  0.01215  1.0000
  C   C751      1.0  0.75978  0.31863  0.28700  1.0000
  H   H1336     1.0  0.89782  0.21772  0.02319  1.0000
  C   C752      1.0  0.91268  0.25291  0.01852  1.0000
  H   H1337     1.0  0.56140  0.25481  0.03889  1.0000
  H   H1338     1.0  0.65766  0.31830  0.48867  1.0000
  C   C753      1.0  0.90160  0.23059  0.00630  1.0000
  C   C754      1.0  0.99514  0.08758  0.02940  1.0000
  H   H1339     1.0  0.82254  0.31688  0.48337  1.0000
  H   H1340     1.0  0.53008  0.01928  0.23987  1.0000
  H   H1341     1.0  0.99726  0.00750  0.07760  1.0000
  H   H1342     1.0  0.90767  0.08498  0.48719  1.0000
  C   C755      1.0  0.68402  0.13949  0.48697  1.0000
  H   H1343     1.0  0.56760  0.24546  0.49014  1.0000
  N   N42       1.0  0.92880  0.29454  0.00528  1.0000
  H   H1344     1.0  0.56863  0.32954  0.40637  1.0000
  C   C756      1.0  0.94549  0.05721  0.00826  1.0000
  H   H1345     1.0  0.95613  0.02313  0.02635  1.0000
  H   H1346     1.0  0.54606  0.08892  0.01257  1.0000
  C   C757      1.0  0.87054  0.07921  0.50094  1.0000
  H   H1347     1.0  0.63274  0.32976  0.23426  1.0000
  H   H1348     1.0  0.69044  0.33011  0.46007  1.0000
  H   H1349     1.0  0.97286  0.11823  0.01749  1.0000
  H   H1350     1.0  0.99320  0.12358  0.04592  1.0000
  H   H1351     1.0  0.51793  0.04858  0.24675  1.0000
  H   H1352     1.0  0.50836  0.21565  0.37170  1.0000
  C   C758      1.0  0.87252  0.32360  0.03981  1.0000
  Fe  Fe80      1.0  0.49980  0.16949  0.08609  1.0000
  C   C759      1.0  0.55209  0.26140  0.02005  1.0000
  H   H1353     1.0  0.85355  0.32551  0.03344  1.0000
  C   C760      1.0  0.56329  0.28507  0.01206  1.0000
  H   H1354     1.0  0.50126  0.07303  0.20613  1.0000
  H   H1355     1.0  0.79236  0.33350  0.42821  1.0000
  S   S162      1.0  0.63719  0.29493  0.63844  1.0000
  H   H1356     1.0  0.58947  0.18355  0.74901  1.0000
  S   S163      1.0  0.57625  0.04928  0.84787  1.0000
  Fe  Fe81      1.0  0.64556  0.03981  0.85257  1.0000
  S   S164      1.0  0.62668  0.07456  0.86254  1.0000
  S   S165      1.0  0.68613  0.04446  0.84712  1.0000
  Fe  Fe82      1.0  0.59977  0.05275  0.88543  1.0000
  S   S166      1.0  0.58177  0.05668  0.92771  1.0000
  Fe  Fe83      1.0  0.60502  0.06786  0.82412  1.0000
  S   S167      1.0  0.59940  0.09836  0.79301  1.0000
  C   C761      1.0  0.55486  0.03035  0.76485  1.0000
  S   S168      1.0  0.62424  0.03399  0.81347  1.0000
  Fe  Fe84      1.0  0.59845  0.17308  0.61017  1.0000
  S   S169      1.0  0.58603  0.13661  0.59844  1.0000
  S   S170      1.0  0.57418  0.20495  0.61589  1.0000
  Fe  Fe85      1.0  0.64989  0.15807  0.61196  1.0000
  S   S171      1.0  0.64203  0.12041  0.60020  1.0000
  S   S172      1.0  0.68501  0.17383  0.62310  1.0000
  Fe  Fe86      1.0  0.61693  0.13706  0.56873  1.0000
  C   C762      1.0  0.89269  0.10963  0.98286  1.0000
  Fe  Fe87      1.0  0.61223  0.12346  0.63095  1.0000
  S   S173      1.0  0.60670  0.09309  0.66171  1.0000
  S   S174      1.0  0.62735  0.17447  0.57847  1.0000
  S   S175      1.0  0.62198  0.15996  0.64472  1.0000
  S   S176      1.0  0.86738  0.29772  0.60744  1.0000
  Fe  Fe88      1.0  0.80496  0.12338  0.62108  1.0000
  S   S177      1.0  0.84127  0.10776  0.61325  1.0000
  S   S178      1.0  0.77218  0.10216  0.61408  1.0000
  Fe  Fe89      1.0  0.82367  0.17168  0.63642  1.0000
  S   S179      1.0  0.86151  0.15988  0.62999  1.0000
  S   S180      1.0  0.81236  0.20796  0.65176  1.0000
  Fe  Fe90      1.0  0.84755  0.14259  0.59138  1.0000
  S   S181      1.0  0.86639  0.14813  0.55049  1.0000
  Fe  Fe91      1.0  0.85124  0.12645  0.65269  1.0000
  S   S182      1.0  0.87515  0.10943  0.68573  1.0000
  S   S183      1.0  0.81040  0.15677  0.59654  1.0000
  S   S184      1.0  0.81429  0.13961  0.66179  1.0000
  H   H1357     1.0  0.77542  0.18943  0.56847  1.0000
  S   S185      1.0  0.88420  0.05814  0.86466  1.0000
  Fe  Fe92      1.0  0.82530  0.02706  0.88273  1.0000
  S   S186      1.0  0.82872  0.06659  0.87953  1.0000
  H   H1358     1.0  0.92490  0.11919  0.56728  1.0000
  Fe  Fe93      1.0  0.84969  0.05910  0.84098  1.0000
  S   S187      1.0  0.83499  0.08070  0.80438  1.0000
  Fe  Fe94      1.0  0.86283  0.06208  0.90372  1.0000
  S   S188      1.0  0.87490  0.09008  0.93508  1.0000
  S   S189      1.0  0.84508  0.01934  0.84320  1.0000
  S   S190      1.0  0.85840  0.02263  0.90973  1.0000
  C   C763      1.0  0.88033  0.09036  0.97144  1.0000
  H   H1359     1.0  0.63847  0.22498  0.71178  1.0000
  H   H1360     1.0  0.55029  0.11796  0.66359  1.0000
  C   C764      1.0  0.87224  0.07251  0.98922  1.0000
  H   H1361     1.0  0.80750  0.00866  0.96169  1.0000
  Fe  Fe95      1.0  0.87853  0.01850  0.86965  1.0000
  H   H1362     1.0  0.86274  0.05758  0.98082  1.0000
  C   C765      1.0  0.86395  0.10129  0.71871  1.0000
  C   C766      1.0  0.84034  0.10623  0.72607  1.0000
  C   C767      1.0  0.83206  0.10012  0.75251  1.0000
  C   C768      1.0  0.84708  0.08858  0.77184  1.0000
  C   C769      1.0  0.87067  0.08337  0.76449  1.0000
  C   C770      1.0  0.87906  0.08979  0.73806  1.0000
  H   H1363     1.0  0.82846  0.11496  0.71152  1.0000
  H   H1364     1.0  0.81383  0.10435  0.75799  1.0000
  H   H1365     1.0  0.88244  0.07451  0.77918  1.0000
  H   H1366     1.0  0.89737  0.08587  0.73261  1.0000
  H   H1367     1.0  0.63117  0.24990  0.52032  1.0000
  H   H1368     1.0  0.51172  0.10800  0.77553  1.0000
  H   H1369     1.0  0.82051  0.12735  0.53631  1.0000
  C   C771      1.0  0.77440  0.00645  0.78279  1.0000
  C   C772      1.0  0.85123  0.27292  0.61851  1.0000
  C   C773      1.0  0.83416  0.27538  0.63926  1.0000
  C   C774      1.0  0.82250  0.25528  0.64941  1.0000
  C   C775      1.0  0.82709  0.23273  0.63809  1.0000
  C   C776      1.0  0.84356  0.23033  0.61666  1.0000
  C   C777      1.0  0.85594  0.25035  0.60723  1.0000
  H   H1370     1.0  0.83045  0.29269  0.64810  1.0000
  H   H1371     1.0  0.80997  0.25727  0.66616  1.0000
  H   H1372     1.0  0.84710  0.21300  0.60770  1.0000
  H   H1373     1.0  0.86909  0.24838  0.59110  1.0000
  C   C778      1.0  0.70898  0.15369  0.62028  1.0000
  C   C779      1.0  0.70664  0.13214  0.60621  1.0000
  C   C780      1.0  0.72598  0.11609  0.60458  1.0000
  C   C781      1.0  0.74792  0.12201  0.61622  1.0000
  C   C782      1.0  0.75038  0.14380  0.62978  1.0000
  C   C783      1.0  0.73080  0.15939  0.63228  1.0000
  H   H1374     1.0  0.69011  0.12793  0.59619  1.0000
  H   H1375     1.0  0.72410  0.09936  0.59383  1.0000
  H   H1376     1.0  0.76726  0.14855  0.63874  1.0000
  H   H1377     1.0  0.73262  0.17595  0.64340  1.0000
  H   H1378     1.0  0.52725  0.00083  0.79428  1.0000
  H   H1379     1.0  0.65741  0.12428  0.68688  1.0000
  C   C784      1.0  0.54146  0.30400  0.56584  1.0000
  C   C785      1.0  0.71424  0.03521  0.86132  1.0000
  H   H1380     1.0  0.51272  0.06710  0.79409  1.0000
  C   C786      1.0  0.78449  0.12111  0.99914  1.0000
  C   C787      1.0  0.76035  0.02114  0.88087  1.0000
  C   C788      1.0  0.75758  0.04061  0.86290  1.0000
  C   C789      1.0  0.73472  0.04755  0.85327  1.0000
  H   H1381     1.0  0.82224  0.01954  0.78643  1.0000
  H   H1382     1.0  0.74600  0.09331  0.79963  1.0000
  H   H1383     1.0  0.77309  0.05026  0.85635  1.0000
  H   H1384     1.0  0.73277  0.06265  0.83948  1.0000
  C   C790      1.0  0.60401  0.09630  0.75682  1.0000
  C   C791      1.0  0.60615  0.11737  0.74126  1.0000
  C   C792      1.0  0.60760  0.11672  0.71219  1.0000
  C   C793      1.0  0.60653  0.09492  0.69834  1.0000
  C   C794      1.0  0.60519  0.07379  0.71397  1.0000
  C   C795      1.0  0.60420  0.07442  0.74306  1.0000
  H   H1385     1.0  0.60678  0.13425  0.75187  1.0000
  H   H1386     1.0  0.60945  0.13304  0.70055  1.0000
  H   H1387     1.0  0.60468  0.05681  0.70349  1.0000
  H   H1388     1.0  0.60290  0.05805  0.75480  1.0000
  C   C796      1.0  0.56177  0.07530  0.97489  1.0000
  C   C797      1.0  0.57438  0.08052  0.95058  1.0000
  C   C798      1.0  0.58075  0.10417  0.94552  1.0000
  C   C799      1.0  0.57473  0.12222  0.96469  1.0000
  H   H1389     1.0  0.78729  0.01189  0.72435  1.0000
  H   H1390     1.0  0.59048  0.10848  0.92699  1.0000
  C   C800      1.0  0.76464  0.09024  0.96904  1.0000
  C   C801      1.0  0.61907  0.27007  0.63399  1.0000
  C   C802      1.0  0.59443  0.27264  0.63028  1.0000
  C   C803      1.0  0.58048  0.25247  0.62572  1.0000
  C   C804      1.0  0.59125  0.22983  0.62424  1.0000
  C   C805      1.0  0.61575  0.22724  0.62873  1.0000
  C   C806      1.0  0.62959  0.24729  0.63392  1.0000
  H   H1391     1.0  0.58614  0.29014  0.63106  1.0000
  H   H1392     1.0  0.56146  0.25451  0.62268  1.0000
  H   H1393     1.0  0.62426  0.20987  0.62769  1.0000
  H   H1394     1.0  0.64862  0.24519  0.63699  1.0000
  N   N43       1.0  0.75431  0.25344  0.60865  1.0000
  C   C807      1.0  0.77053  0.27418  0.60347  1.0000
  C   C808      1.0  0.75604  0.24626  0.63870  1.0000
  C   C809      1.0  0.76374  0.23274  0.59183  1.0000
  C   C810      1.0  0.72868  0.25858  0.60057  1.0000
  C   C811      1.0  0.71964  0.28481  0.60329  1.0000
  C   C812      1.0  0.77280  0.28236  0.57283  1.0000
  C   C813      1.0  0.75166  0.20842  0.59671  1.0000
  C   C814      1.0  0.74779  0.26498  0.66018  1.0000
  C   C815      1.0  0.75247  0.25596  0.68959  1.0000
  H   H1395     1.0  0.91372  0.31195  0.96907  1.0000
  C   C816      1.0  0.79663  0.27483  0.55991  1.0000
  C   C817      1.0  0.75605  0.19140  0.57260  1.0000
  H   H1396     1.0  0.78863  0.27015  0.61188  1.0000
  H   H1397     1.0  0.76487  0.29012  0.61528  1.0000
  H   H1398     1.0  0.74520  0.23023  0.64287  1.0000
  H   H1399     1.0  0.77466  0.24092  0.64380  1.0000
  H   H1400     1.0  0.78317  0.22982  0.59593  1.0000
  H   H1401     1.0  0.76211  0.23678  0.56940  1.0000
  H   H1402     1.0  0.72530  0.25353  0.57869  1.0000
  H   H1403     1.0  0.71659  0.24703  0.61277  1.0000
  H   H1404     1.0  0.72666  0.29584  0.58617  1.0000
  H   H1405     1.0  0.72530  0.29312  0.62284  1.0000
  H   H1406     1.0  0.75797  0.27603  0.55974  1.0000
  H   H1407     1.0  0.77165  0.30217  0.57203  1.0000
  H   H1408     1.0  0.73213  0.21041  0.59945  1.0000
  H   H1409     1.0  0.75939  0.19993  0.61559  1.0000
  H   H1410     1.0  0.75732  0.28200  0.65788  1.0000
  H   H1411     1.0  0.72832  0.26831  0.65825  1.0000
  H   H1412     1.0  0.74626  0.26959  0.70461  1.0000
  H   H1413     1.0  0.74274  0.23920  0.69347  1.0000
  H   H1414     1.0  0.77182  0.25262  0.69300  1.0000
  H   H1415     1.0  0.74690  0.19814  0.55367  1.0000
  H   H1416     1.0  0.90230  0.27449  0.98290  1.0000
  C   C818      1.0  0.85425  0.07766  0.54757  1.0000
  H   H1417     1.0  0.81174  0.28220  0.57187  1.0000
  H   H1418     1.0  0.79881  0.25518  0.55922  1.0000
  H   H1419     1.0  0.79752  0.28183  0.53847  1.0000
  H   H1420     1.0  0.57423  0.15782  0.78612  1.0000
  C   C819      1.0  0.86400  0.18382  0.71146  1.0000
  H   H1421     1.0  0.75555  0.06616  0.76112  1.0000
  H   H1422     1.0  0.54421  0.16180  0.77352  1.0000
  C   C820      1.0  0.93322  0.04435  0.98450  1.0000
  N   N44       1.0  0.78793  0.02476  0.76648  1.0000
  C   C821      1.0  0.50291  0.02263  0.81661  1.0000
  H   H1423     1.0  0.75554  0.01210  0.78562  1.0000
  H   H1424     1.0  0.81488  0.06286  0.96237  1.0000
  H   H1425     1.0  0.70050  0.03871  0.92861  1.0000
  C   C822      1.0  0.76392  0.08475  0.79807  1.0000
  C   C823      1.0  0.88800  0.00608  0.55579  1.0000
  H   H1426     1.0  0.65286  0.06909  0.63362  1.0000
  H   H1427     1.0  0.68010  0.14039  0.53156  1.0000
  H   H1428     1.0  0.86275  0.21988  0.72485  1.0000
  C   C824      1.0  0.87708  0.26169  0.70904  1.0000
  H   H1429     1.0  0.75370  0.01655  0.68815  1.0000
  H   H1430     1.0  0.70144  0.00612  0.88590  1.0000
  H   H1431     1.0  0.56865  0.03295  0.78123  1.0000
  H   H1432     1.0  0.83898  0.15819  0.72738  1.0000
  H   H1433     1.0  0.92763  0.20770  0.60561  1.0000
  H   H1434     1.0  0.64682  0.26011  0.56858  1.0000
  C   C825      1.0  0.55616  0.15193  0.68351  1.0000
  C   C826      1.0  0.94122  0.18932  0.73114  1.0000
  C   C827      1.0  0.89038  0.20653  0.66351  1.0000
  H   H1435     1.0  0.67087  0.05110  0.78144  1.0000
  H   H1436     1.0  0.67932  0.06676  0.61287  1.0000
  H   H1437     1.0  0.57433  0.15837  0.73567  1.0000
  C   C828      1.0  0.57168  0.17554  0.74624  1.0000
  H   H1438     1.0  0.79778  0.08578  0.99262  1.0000
  H   H1439     1.0  0.77086  0.08140  0.81927  1.0000
  S   S191      1.0  0.61994  0.01796  0.87812  1.0000
  C   C829      1.0  0.89874  0.09120  0.57171  1.0000
  H   H1440     1.0  0.83482  0.18783  0.74086  1.0000
  H   H1441     1.0  0.66432  0.17168  0.68559  1.0000
  H   H1442     1.0  0.68095  0.18371  0.71419  1.0000
  H   H1443     1.0  0.84947  0.21575  0.69187  1.0000
  C   C830      1.0  0.55012  0.20262  0.97799  1.0000
  H   H1444     1.0  0.72458  0.02533  0.70039  1.0000
  C   C831      1.0  0.83929  0.17745  0.72205  1.0000
  H   H1445     1.0  0.87310  0.20692  0.65220  1.0000
  H   H1446     1.0  0.86751  0.17253  0.69317  1.0000
  C   C832      1.0  0.68005  0.14500  0.71340  1.0000
  C   C833      1.0  0.68043  0.16917  0.69874  1.0000
  H   H1447     1.0  0.69647  0.17041  0.68549  1.0000
  H   H1448     1.0  0.87686  0.17907  0.72813  1.0000
  H   H1449     1.0  0.82739  0.04901  0.74436  1.0000
  C   C834      1.0  0.91417  0.19985  0.61954  1.0000
  H   H1450     1.0  0.89453  0.18732  0.66654  1.0000
  H   H1451     1.0  0.54625  0.14335  0.64110  1.0000
  H   H1452     1.0  0.82555  0.18105  0.70590  1.0000
  H   H1453     1.0  0.92115  0.18238  0.62721  1.0000
  H   H1454     1.0  0.66500  0.14529  0.72827  1.0000
  H   H1455     1.0  0.89762  0.19701  0.60738  1.0000
  H   H1456     1.0  0.68583  0.12918  0.67317  1.0000
  H   H1457     1.0  0.68157  0.10100  0.64371  1.0000
  H   H1458     1.0  0.54735  0.18359  0.98351  1.0000
  C   C835      1.0  0.67669  0.12434  0.69262  1.0000
  C   C836      1.0  0.90924  0.21677  0.64356  1.0000
  H   H1459     1.0  0.72556  0.13204  0.69319  1.0000
  C   C837      1.0  0.73986  0.00896  0.88927  1.0000
  H   H1460     1.0  0.59803  0.24894  0.57092  1.0000
  C   C838      1.0  0.77860  0.02603  0.73711  1.0000
  H   H1461     1.0  0.69684  0.14280  0.72537  1.0000
  H   H1462     1.0  0.85832  0.25851  0.71502  1.0000
  H   H1463     1.0  0.94653  0.03766  0.96938  1.0000
  C   C839      1.0  0.68490  0.08313  0.65283  1.0000
  H   H1464     1.0  0.72246  0.11098  0.66596  1.0000
  C   C840      1.0  0.86533  0.21078  0.70471  1.0000
  H   H1465     1.0  0.75683  0.08751  0.68313  1.0000
  C   C841      1.0  0.72728  0.11285  0.68797  1.0000
  H   H1466     1.0  0.73925  0.33225  0.69880  1.0000
  H   H1467     1.0  0.59076  0.20406  0.55331  1.0000
  H   H1468     1.0  0.93327  0.19115  0.68788  1.0000
  C   C842      1.0  0.58660  0.19491  0.69320  1.0000
  H   H1469     1.0  0.93139  0.26206  0.98153  1.0000
  H   H1470     1.0  0.87026  0.24816  0.66818  1.0000
  N   N45       1.0  0.88767  0.21927  0.69072  1.0000
  N   N46       1.0  0.68458  0.09997  0.70286  1.0000
  C   C843      1.0  0.81074  0.07164  0.55946  1.0000
  H   H1471     1.0  0.92623  0.22016  0.65451  1.0000
  H   H1472     1.0  0.76473  0.11817  0.67939  1.0000
  C   C844      1.0  0.75355  0.10571  0.69132  1.0000
  H   H1473     1.0  0.67889  0.10836  0.74606  1.0000
  H   H1474     1.0  0.90264  0.23389  0.63446  1.0000
  C   C845      1.0  0.88418  0.24554  0.68441  1.0000
  H   H1475     1.0  0.86718  0.29234  0.68318  1.0000
  C   C846      1.0  0.55488  0.19270  0.72970  1.0000
  C   C847      1.0  0.88143  0.04523  0.53034  1.0000
  C   C848      1.0  0.53035  0.06160  0.78593  1.0000
  H   H1476     1.0  0.80787  0.09117  0.56186  1.0000
  H   H1477     1.0  0.71634  0.10262  0.72850  1.0000
  H   H1478     1.0  0.70423  0.07878  0.65215  1.0000
  C   C849      1.0  0.71126  0.09768  0.70701  1.0000
  H   H1479     1.0  0.83225  0.04680  0.53658  1.0000
  H   H1480     1.0  0.79475  0.04800  0.80118  1.0000
  H   H1481     1.0  0.57993  0.14037  0.96067  1.0000
  C   C850      1.0  0.67252  0.09559  0.73025  1.0000
  H   H1482     1.0  0.65300  0.09900  0.72840  1.0000
  H   H1483     1.0  0.91149  0.17639  0.70812  1.0000
  C   C851      1.0  0.93087  0.31097  0.98065  1.0000
  H   H1484     1.0  0.77149  0.03340  0.94507  1.0000
  C   C852      1.0  0.80563  0.04703  0.95453  1.0000
  C   C853      1.0  0.67574  0.08147  0.68289  1.0000
  H   H1485     1.0  0.75915  0.10644  0.71333  1.0000
  H   H1486     1.0  0.78372  0.09667  0.86670  1.0000
  H   H1487     1.0  0.52382  0.13648  0.66655  1.0000
  C   C854      1.0  0.92254  0.10237  0.57911  1.0000
  H   H1488     1.0  0.90382  0.21870  0.73138  1.0000
  C   C855      1.0  0.81382  0.01685  0.76580  1.0000
  C   C856      1.0  0.92320  0.19202  0.70753  1.0000
  H   H1489     1.0  0.71707  0.07871  0.70489  1.0000
  C   C857      1.0  0.90913  0.21607  0.70945  1.0000
  H   H1490     1.0  0.90073  0.25308  0.67560  1.0000
  H   H1491     1.0  0.63242  0.19385  0.71736  1.0000
  C   C858      1.0  0.74399  0.02817  0.70300  1.0000
  H   H1492     1.0  0.74023  0.03282  0.74674  1.0000
  C   C859      1.0  0.85623  0.02398  0.74984  1.0000
  H   H1493     1.0  0.87275  0.29927  0.71891  1.0000
  C   C860      1.0  0.71695  0.01589  0.87954  1.0000
  H   H1494     1.0  0.54341  0.18727  0.52874  1.0000
  H   H1495     1.0  0.57539  0.15015  0.67897  1.0000
  H   H1496     1.0  0.93194  0.18891  0.75136  1.0000
  C   C861      1.0  0.66563  0.30090  0.52696  1.0000
  H   H1497     1.0  0.92245  0.23015  0.70540  1.0000
  H   H1498     1.0  0.95141  0.17230  0.72880  1.0000
  H   H1499     1.0  0.65588  0.08205  0.68215  1.0000
  C   C862      1.0  0.50326  0.00739  0.84292  1.0000
  N   N47       1.0  0.56028  0.19622  0.69936  1.0000
  H   H1500     1.0  0.95397  0.20424  0.73091  1.0000
  H   H1501     1.0  0.64425  0.33209  0.51820  1.0000
  H   H1502     1.0  0.68582  0.27797  0.58277  1.0000
  H   H1503     1.0  0.63937  0.23009  0.57868  1.0000
  H   H1504     1.0  0.56339  0.19234  0.92368  1.0000
  H   H1505     1.0  0.59698  0.00356  0.75984  1.0000
  H   H1506     1.0  0.68089  0.08111  0.78575  1.0000
  H   H1507     1.0  0.88881  0.25821  0.72718  1.0000
  C   C863      1.0  0.87873  0.28808  0.70131  1.0000
  H   H1508     1.0  0.81069  0.04494  0.93255  1.0000
  H   H1509     1.0  0.69012  0.03801  0.96371  1.0000
  H   H1510     1.0  0.69535  0.16566  0.51744  1.0000
  H   H1511     1.0  0.63390  0.20585  0.68256  1.0000
  H   H1512     1.0  0.54282  0.06337  0.80375  1.0000
  H   H1513     1.0  0.53389  0.19431  0.90888  1.0000
  C   C864      1.0  0.67596  0.07021  0.74281  1.0000
  C   C865      1.0  0.56188  0.17031  0.77499  1.0000
  H   H1514     1.0  0.96418  0.31693  0.92017  1.0000
  H   H1515     1.0  0.82580  0.02319  0.72305  1.0000
  C   C866      1.0  0.84371  0.31251  0.51989  1.0000
  H   H1516     1.0  0.55730  0.07982  0.76153  1.0000
  C   C867      1.0  0.53774  0.08048  0.76418  1.0000
  C   C868      1.0  0.64401  0.24170  0.56098  1.0000
  H   H1517     1.0  0.56021  0.18698  0.78716  1.0000
  H   H1518     1.0  0.88522  0.32147  0.99836  1.0000
  H   H1519     1.0  0.56938  0.20353  0.97290  1.0000
  H   H1520     1.0  0.74916  0.05004  0.79276  1.0000
  C   C869      1.0  0.56458  0.23144  0.54159  1.0000
  H   H1521     1.0  0.54013  0.10974  0.79340  1.0000
  H   H1522     1.0  0.78619  0.01597  0.82490  1.0000
  H   H1523     1.0  0.62087  0.22243  0.53418  1.0000
  H   H1524     1.0  0.55228  0.14426  0.70407  1.0000
  H   H1525     1.0  0.54661  0.00238  0.73447  1.0000
  C   C870      1.0  0.57599  0.20631  0.53826  1.0000
  C   C871      1.0  0.52657  0.01980  0.80059  1.0000
  H   H1526     1.0  0.55265  0.31886  0.55847  1.0000
  H   H1527     1.0  0.54827  0.18366  0.65965  1.0000
  H   H1528     1.0  0.86733  0.03551  0.51899  1.0000
  H   H1529     1.0  0.73365  0.03373  0.96287  1.0000
  C   C872      1.0  0.55394  0.24311  0.99612  1.0000
  H   H1530     1.0  0.79746  0.08522  0.92595  1.0000
  H   H1531     1.0  0.89738  0.29272  0.69629  1.0000
  C   C873      1.0  0.67235  0.06528  0.63424  1.0000
  H   H1532     1.0  0.54765  0.27367  0.52184  1.0000
  H   H1533     1.0  0.53632  0.18641  0.73229  1.0000
  C   C874      1.0  0.55129  0.22070  0.69062  1.0000
  C   C875      1.0  0.66906  0.06960  0.77333  1.0000
  H   H1534     1.0  0.71155  0.33083  0.64632  1.0000
  Fe  Fe96      1.0  0.62345  0.32893  0.61885  1.0000
  H   H1535     1.0  0.79375  0.06387  0.55229  1.0000
  N   N48       1.0  0.57911  0.25233  0.53202  1.0000
  H   H1536     1.0  0.54139  0.02190  0.81570  1.0000
  H   H1537     1.0  0.86992  0.03636  0.57283  1.0000
  C   C876      1.0  0.74085  0.06594  0.93795  1.0000
  C   C877      1.0  0.62422  0.24128  0.53922  1.0000
  C   C878      1.0  0.53130  0.10577  0.77337  1.0000
  H   H1538     1.0  0.93253  0.32147  0.92414  1.0000
  C   C879      1.0  0.55538  0.28036  0.56506  1.0000
  C   C880      1.0  0.81535  0.02518  0.97012  1.0000
  C   C881      1.0  0.82954  0.13206  0.51744  1.0000
  H   H1539     1.0  0.50910  0.18365  0.99537  1.0000
  H   H1540     1.0  0.94760  0.28619  0.95092  1.0000
  C   C882      1.0  0.51743  0.25107  0.68641  1.0000
  H   H1541     1.0  0.66091  0.23477  0.55204  1.0000
  C   C883      1.0  0.60146  0.25472  0.54933  1.0000
  H   H1542     1.0  0.77985  0.06636  0.90563  1.0000
  C   C884      1.0  0.88517  0.03310  0.55883  1.0000
  C   C885      1.0  0.77805  0.04901  0.95694  1.0000
  C   C886      1.0  0.85130  0.14385  0.51870  1.0000
  C   C887      1.0  0.89710  0.08567  0.54032  1.0000
  H   H1543     1.0  0.83498  0.02394  0.96765  1.0000
  C   C888      1.0  0.54742  0.17823  0.68180  1.0000
  C   C889      1.0  0.76736  0.10304  0.90684  1.0000
  H   H1544     1.0  0.51838  0.01230  0.85654  1.0000
  H   H1545     1.0  0.54702  0.23158  0.53072  1.0000
  H   H1546     1.0  0.51955  0.03598  0.73301  1.0000
  H   H1547     1.0  0.53600  0.30791  0.58740  1.0000
  H   H1548     1.0  0.77391  0.12696  0.87241  1.0000
  H   H1549     1.0  0.52502  0.26245  0.70287  1.0000
  H   H1550     1.0  0.81533  0.06375  0.57994  1.0000
  H   H1551     1.0  0.74941  0.09905  0.89856  1.0000
  C   C890      1.0  0.62822  0.20959  0.70409  1.0000
  C   C891      1.0  0.78238  0.11105  0.88235  1.0000
  H   H1552     1.0  0.80042  0.10571  0.96329  1.0000
  H   H1553     1.0  0.74894  0.17356  0.57764  1.0000
  C   C892      1.0  0.53629  0.20781  0.95077  1.0000
  H   H1554     1.0  0.85273  0.32995  0.51859  1.0000
  H   H1555     1.0  0.59662  0.21970  0.72653  1.0000
  H   H1556     1.0  0.51663  0.21956  0.71190  1.0000
  H   H1557     1.0  0.69471  0.06385  0.74124  1.0000
  H   H1558     1.0  0.57291  0.24182  0.98960  1.0000
  H   H1559     1.0  0.51504  0.21441  0.67513  1.0000
  H   H1560     1.0  0.86148  0.03069  0.77053  1.0000
  C   C893      1.0  0.56221  0.11691  0.98906  1.0000
  H   H1561     1.0  0.82774  0.31487  0.53305  1.0000
  C   C894      1.0  0.78855  0.09978  0.98010  1.0000
  H   H1562     1.0  0.88460  0.23512  0.99553  1.0000
  C   C895      1.0  0.55867  0.00510  0.75236  1.0000
  H   H1563     1.0  0.55049  0.18870  0.56521  1.0000
  H   H1564     1.0  0.52817  0.17795  0.68704  1.0000
  H   H1565     1.0  0.55937  0.04270  0.74774  1.0000
  Fe  Fe97      1.0  0.59689  0.01536  0.83985  1.0000
  C   C896      1.0  0.77871  0.08082  0.92127  1.0000
  H   H1566     1.0  0.56058  0.23286  0.56400  1.0000
  H   H1567     1.0  0.69126  0.06602  0.94544  1.0000
  H   H1568     1.0  0.58265  0.20312  0.51714  1.0000
  H   H1569     1.0  0.74777  0.04707  0.69815  1.0000
  N   N49       1.0  0.87588  0.07163  0.53038  1.0000
  C   C897      1.0  0.76221  0.06139  0.78207  1.0000
  S   S192      1.0  0.78890  0.01141  0.89333  1.0000
  C   C898      1.0  0.55808  0.18672  0.54419  1.0000
  H   H1570     1.0  0.57354  0.29058  0.52845  1.0000
  H   H1571     1.0  0.74723  0.00307  0.73630  1.0000
  H   H1572     1.0  0.58942  0.19486  0.67050  1.0000
  H   H1573     1.0  0.57091  0.28196  0.57908  1.0000
  H   H1574     1.0  0.92264  0.02928  0.99248  1.0000
  H   H1575     1.0  0.52949  0.07725  0.74372  1.0000
  H   H1576     1.0  0.85712  0.07270  0.56952  1.0000
  H   H1577     1.0  0.93754  0.08983  0.57463  1.0000
  H   H1578     1.0  0.89808  0.04153  0.51867  1.0000
  N   N50       1.0  0.76605  0.07173  0.94656  1.0000
  H   H1579     1.0  0.91405  0.07667  0.53408  1.0000
  H   H1580     1.0  0.59864  0.23194  0.69220  1.0000
  H   H1581     1.0  0.66437  0.05744  0.73183  1.0000
  N   N51       1.0  0.54431  0.21868  0.00208  1.0000
  H   H1582     1.0  0.60651  0.27381  0.55110  1.0000
  C   C899      1.0  0.94997  0.32186  0.93506  1.0000
  H   H1583     1.0  0.55709  0.22474  0.66914  1.0000
  H   H1584     1.0  0.75335  0.10569  0.96224  1.0000
  H   H1585     1.0  0.58847  0.01511  0.72610  1.0000
  H   H1586     1.0  0.52425  0.25701  0.66603  1.0000
  C   C900      1.0  0.56376  0.27456  0.53533  1.0000
  H   H1587     1.0  0.54437  0.25134  0.97822  1.0000
  C   C901      1.0  0.52393  0.22484  0.69155  1.0000
  H   H1588     1.0  0.68642  0.30525  0.60243  1.0000
  H   H1589     1.0  0.66884  0.30514  0.54900  1.0000
  H   H1590     1.0  0.54339  0.26651  0.57317  1.0000
  H   H1591     1.0  0.55539  0.21000  0.74090  1.0000
  H   H1592     1.0  0.55924  0.23472  0.70381  1.0000
  H   H1593     1.0  0.59471  0.17786  0.70051  1.0000
  H   H1594     1.0  0.67554  0.04675  0.64175  1.0000
  C   C902      1.0  0.78688  0.04892  0.78007  1.0000
  H   H1595     1.0  0.96839  0.30486  0.96874  1.0000
  H   H1596     1.0  0.69819  0.33159  0.50523  1.0000
  H   H1597     1.0  0.92288  0.10666  0.60149  1.0000
  H   H1598     1.0  0.65031  0.07568  0.77610  1.0000
  H   H1599     1.0  0.68077  0.06320  0.69003  1.0000
  H   H1600     1.0  0.89655  0.07519  0.58476  1.0000
  H   H1601     1.0  0.73046  0.08255  0.93321  1.0000
  H   H1602     1.0  0.89725  0.10360  0.53016  1.0000
  H   H1603     1.0  0.79817  0.06166  0.76876  1.0000
  H   H1604     1.0  0.62697  0.31742  0.69648  1.0000
  H   H1605     1.0  0.64986  0.28932  0.52568  1.0000
  H   H1606     1.0  0.90177  0.03950  0.56855  1.0000
  H   H1607     1.0  0.89902  0.12355  0.96937  1.0000
  H   H1608     1.0  0.53765  0.11868  0.75771  1.0000
  S   S193      1.0  0.61546  0.12248  0.52476  1.0000
  H   H1609     1.0  0.85139  0.09729  0.54786  1.0000
  H   H1610     1.0  0.77310  0.04561  0.97884  1.0000
  H   H1611     1.0  0.77601  0.09725  0.78741  1.0000
  Fe  Fe98      1.0  0.84668  0.33216  0.61277  1.0000
  H   H1612     1.0  0.74099  0.05542  0.91847  1.0000
  H   H1613     1.0  0.50824  0.00754  0.93074  1.0000
  H   H1614     1.0  0.56720  0.16901  0.54297  1.0000
  C   C903      1.0  0.60160  0.21557  0.70491  1.0000
  C   C904      1.0  0.54325  0.13658  0.66238  1.0000
  H   H1615     1.0  0.72361  0.32620  0.73039  1.0000
  H   H1616     1.0  0.85591  0.29929  0.52999  1.0000
  H   H1617     1.0  0.88459  0.10427  0.57749  1.0000
  N   N52       1.0  0.53031  0.03609  0.77607  1.0000
  H   H1618     1.0  0.76594  0.11824  0.92133  1.0000
  H   H1619     1.0  0.72461  0.06116  0.97918  1.0000
  H   H1620     1.0  0.54073  0.17177  0.93452  1.0000
  H   H1621     1.0  0.68474  0.27701  0.62005  1.0000
  H   H1622     1.0  0.52521  0.30313  0.55273  1.0000
  H   H1623     1.0  0.66333  0.16326  0.51360  1.0000
  H   H1624     1.0  0.78353  0.04332  0.72739  1.0000
  C   C905      1.0  0.75148  0.02211  0.73264  1.0000
  H   H1625     1.0  0.95402  0.07320  0.99938  1.0000
  C   C906      1.0  0.95037  0.30430  0.95932  1.0000
  H   H1626     1.0  0.66444  0.33138  0.71704  1.0000
  C   C907      1.0  0.58428  0.00176  0.74230  1.0000
  H   H1627     1.0  0.55675  0.05711  0.97906  1.0000
  H   H1628     1.0  0.62169  0.32900  0.73067  1.0000
  C   C908      1.0  0.68052  0.15316  0.51395  1.0000
  H   H1629     1.0  0.55410  0.29301  0.99375  1.0000
  C   C909      1.0  0.72584  0.05178  0.95914  1.0000
  C   C910      1.0  0.83042  0.06642  0.53849  1.0000
  C   C911      1.0  0.69249  0.28630  0.60197  1.0000
  H   H1630     1.0  0.61518  0.17349  0.51105  1.0000
  H   H1631     1.0  0.68134  0.29105  0.51867  1.0000
  H   H1632     1.0  0.53954  0.22618  0.94330  1.0000
  H   H1633     1.0  0.77597  0.13619  0.98762  1.0000
  C   C912      1.0  0.82988  0.02944  0.74425  1.0000
  H   H1634     1.0  0.92093  0.05695  0.97355  1.0000
  C   C913      1.0  0.70042  0.04848  0.94850  1.0000
  C   C914      1.0  0.66082  0.32369  0.51036  1.0000
  H   H1635     1.0  0.51686  0.20565  0.95359  1.0000
  C   C915      1.0  0.54411  0.19048  0.92813  1.0000
  C   C916      1.0  0.51202  0.03184  0.75372  1.0000
  H   H1636     1.0  0.80057  0.11585  0.88927  1.0000
  H   H1637     1.0  0.50771  0.01252  0.75301  1.0000
  H   H1638     1.0  0.50919  0.23096  0.98903  1.0000
  H   H1639     1.0  0.86725  0.03305  0.73410  1.0000
  H   H1640     1.0  0.91405  0.22181  0.99161  1.0000
  H   H1641     1.0  0.93399  0.32959  0.98734  1.0000
  C   C917      1.0  0.55566  0.09333  0.99397  1.0000
  H   H1642     1.0  0.81134  0.02657  0.99250  1.0000
  H   H1643     1.0  0.75540  0.08299  0.98741  1.0000
  C   C918      1.0  0.91865  0.27127  0.99558  1.0000
  H   H1644     1.0  0.85993  0.00449  0.74889  1.0000
  H   H1645     1.0  0.82425  0.07402  0.51844  1.0000
  H   H1646     1.0  0.90343  0.00157  0.54239  1.0000
  Fe  Fe99      1.0  0.53693  0.39556  0.05832  1.0000
  H   H1647     1.0  0.96061  0.47581  0.04715  1.0000
  S   S194      1.0  0.55842  0.41562  0.02545  1.0000
  Fe  Fe100     1.0  0.53532  0.39036  0.12256  1.0000
  H   H1648     1.0  0.67454  0.40322  0.24226  1.0000
  S   S195      1.0  0.55212  0.40339  0.16312  1.0000
  H   H1649     1.0  0.79539  0.37096  0.47630  1.0000
  S   S196      1.0  0.55495  0.37073  0.08909  1.0000
  S   S197      1.0  0.51980  0.41733  0.09226  1.0000
  Fe  Fe101     1.0  0.65406  0.38674  0.31996  1.0000
  S   S198      1.0  0.61482  0.39423  0.32506  1.0000
  S   S199      1.0  0.67752  0.41439  0.30099  1.0000
  H   H1650     1.0  0.73812  0.38141  0.40981  1.0000
  S   S200      1.0  0.50545  0.37169  0.05253  1.0000
  Fe  Fe102     1.0  0.61000  0.35795  0.30629  1.0000
  C   C919      1.0  0.99637  0.45524  0.19645  1.0000
  Fe  Fe103     1.0  0.61932  0.37529  0.36632  1.0000
  S   S201      1.0  0.60607  0.39052  0.40721  1.0000
  S   S202      1.0  0.64919  0.35173  0.29900  1.0000
  S   S203      1.0  0.65897  0.37116  0.36216  1.0000
  Fe  Fe104     1.0  0.96307  0.40178  0.09565  1.0000
  S   S204      1.0  0.92418  0.40714  0.08529  1.0000
  H   H1651     1.0  0.61618  0.38855  0.20235  1.0000
  Fe  Fe105     1.0  0.95600  0.34688  0.09936  1.0000
  S   S205      1.0  0.91707  0.34966  0.08925  1.0000
  Fe  Fe106     1.0  0.92793  0.37618  0.05660  1.0000
  C   C920      1.0  0.60572  0.35062  0.44169  1.0000
  Fe  Fe107     1.0  0.91719  0.38046  0.11915  1.0000
  S   S206      1.0  0.88816  0.38872  0.15073  1.0000
  S   S207      1.0  0.96718  0.37174  0.06520  1.0000
  S   S208      1.0  0.95566  0.37650  0.13094  1.0000
  Fe  Fe108     1.0  0.86100  0.37083  0.31179  1.0000
  S   S209      1.0  0.82277  0.36306  0.30175  1.0000
  S   S210      1.0  0.89168  0.36881  0.28088  1.0000
  Fe  Fe109     1.0  0.85053  0.37375  0.37527  1.0000
  S   S211      1.0  0.81194  0.36604  0.36921  1.0000
  S   S212      1.0  0.86687  0.37847  0.41809  1.0000
  N   N53       1.0  0.67854  0.36490  0.49832  1.0000
  Fe  Fe110     1.0  0.81380  0.39111  0.33324  1.0000
  S   S213      1.0  0.78771  0.42176  0.32823  1.0000
  H   H1652     1.0  0.62098  0.46759  0.16231  1.0000
  S   S214      1.0  0.85202  0.40087  0.34086  1.0000
  C   C921      1.0  0.85117  0.37666  0.44978  1.0000
  C   C922      1.0  0.86359  0.37943  0.47481  1.0000
  H   H1653     1.0  0.62699  0.47164  0.27954  1.0000
  C   C923      1.0  0.82662  0.37297  0.45056  1.0000
  H   H1654     1.0  0.65690  0.44652  0.25621  1.0000
  H   H1655     1.0  0.81701  0.37015  0.43155  1.0000
  C   C924      1.0  0.88925  0.38235  0.18675  1.0000
  C   C925      1.0  0.90893  0.37098  0.19917  1.0000
  C   C926      1.0  0.90939  0.36700  0.22798  1.0000
  C   C927      1.0  0.89000  0.37390  0.24464  1.0000
  C   C928      1.0  0.87013  0.38487  0.23214  1.0000
  C   C929      1.0  0.86986  0.38920  0.20340  1.0000
  H   H1656     1.0  0.92378  0.36528  0.18657  1.0000
  H   H1657     1.0  0.92482  0.35844  0.23741  1.0000
  H   H1658     1.0  0.85511  0.39032  0.24467  1.0000
  H   H1659     1.0  0.85451  0.39795  0.19401  1.0000
  H   H1660     1.0  0.92230  0.41653  0.22445  1.0000
  H   H1661     1.0  0.60706  0.41564  0.17252  1.0000
  Fe  Fe111     1.0  0.82481  0.33881  0.33873  1.0000
  C   C930      1.0  0.78286  0.43456  0.47177  1.0000
  C   C931      1.0  0.70790  0.41532  0.31026  1.0000
  C   C932      1.0  0.71990  0.43660  0.30582  1.0000
  C   C933      1.0  0.74423  0.43812  0.31174  1.0000
  C   C934      1.0  0.75709  0.41820  0.32143  1.0000
  C   C935      1.0  0.74523  0.39668  0.32590  1.0000
  C   C936      1.0  0.72048  0.39537  0.32066  1.0000
  H   H1662     1.0  0.71033  0.45206  0.29780  1.0000
  H   H1663     1.0  0.75322  0.45478  0.30835  1.0000
  H   H1664     1.0  0.75507  0.38127  0.33350  1.0000
  H   H1665     1.0  0.71112  0.37900  0.32425  1.0000
  C   C937      1.0  0.60419  0.37548  0.43952  1.0000
  C   C938      1.0  0.60026  0.38889  0.46360  1.0000
  S   S215      1.0  0.98017  0.43881  0.09475  1.0000
  H   H1666     1.0  0.97525  0.45652  0.16018  1.0000
  H   H1667     1.0  0.59887  0.40812  0.46215  1.0000
  C   C939      1.0  0.63857  0.36764  0.22886  1.0000
  C   C940      1.0  0.55988  0.38699  0.19356  1.0000
  C   C941      1.0  0.55849  0.36214  0.19499  1.0000
  H   H1668     1.0  0.71281  0.42297  0.24807  1.0000
  C   C942      1.0  0.57480  0.36214  0.24218  1.0000
  C   C943      1.0  0.57573  0.38701  0.24094  1.0000
  C   C944      1.0  0.56823  0.39933  0.21684  1.0000
  C   C945      1.0  0.95236  0.49169  0.03703  1.0000
  H   H1669     1.0  0.85109  0.44925  0.36561  1.0000
  H   H1670     1.0  0.58203  0.39675  0.25869  1.0000
  H   H1671     1.0  0.56890  0.41857  0.21619  1.0000
  H   H1672     1.0  0.62407  0.44326  0.13794  1.0000
  H   H1673     1.0  0.86251  0.46552  0.39484  1.0000
  H   H1674     1.0  0.84558  0.43672  0.42693  1.0000
  N   N54       1.0  0.79384  0.44371  0.42044  1.0000
  C   C946      1.0  0.77403  0.46209  0.41744  1.0000
  C   C947      1.0  0.80164  0.44225  0.45034  1.0000
  C   C948      1.0  0.81480  0.45254  0.40398  1.0000
  C   C949      1.0  0.78695  0.41951  0.40977  1.0000
  C   C950      1.0  0.76051  0.41233  0.41329  1.0000
  C   C951      1.0  0.76679  0.46841  0.38719  1.0000
  C   C952      1.0  0.66795  0.36208  0.46991  1.0000
  C   C953      1.0  0.73283  0.33637  0.37185  1.0000
  Fe  Fe112     1.0  0.52220  0.34800  0.08550  1.0000
  C   C954      1.0  0.75716  0.38594  0.40722  1.0000
  C   C955      1.0  0.74210  0.48022  0.38561  1.0000
  H   H1675     1.0  0.66601  0.37964  0.45930  1.0000
  H   H1676     1.0  0.77918  0.47905  0.42760  1.0000
  H   H1677     1.0  0.75780  0.45651  0.42847  1.0000
  H   H1678     1.0  0.81635  0.42891  0.45303  1.0000
  H   H1679     1.0  0.90824  0.42380  0.27200  1.0000
  H   H1680     1.0  0.81924  0.47106  0.41025  1.0000
  H   H1681     1.0  0.81022  0.45347  0.38157  1.0000
  H   H1682     1.0  0.79068  0.41801  0.38728  1.0000
  H   H1683     1.0  0.79844  0.40551  0.41947  1.0000
  H   H1684     1.0  0.74896  0.42253  0.39862  1.0000
  H   H1685     1.0  0.75375  0.41579  0.43429  1.0000
  H   H1686     1.0  0.77973  0.48108  0.37830  1.0000
  H   H1687     1.0  0.76673  0.45239  0.37385  1.0000
  H   H1688     1.0  0.64388  0.38083  0.18697  1.0000
  H   H1689     1.0  0.76614  0.44523  0.47019  1.0000
  H   H1690     1.0  0.99783  0.48620  0.08911  1.0000
  C   C956      1.0  0.68245  0.34602  0.44982  1.0000
  C   C957      1.0  0.60257  0.33937  0.46753  1.0000
  H   H1691     1.0  0.72507  0.43981  0.21995  1.0000
  C   C958      1.0  0.63268  0.34312  0.21725  1.0000
  H   H1692     1.0  0.76804  0.37470  0.42161  1.0000
  H   H1693     1.0  0.60332  0.45330  0.26671  1.0000
  H   H1694     1.0  0.63548  0.45923  0.23197  1.0000
  H   H1695     1.0  0.72831  0.46776  0.39297  1.0000
  H   H1696     1.0  0.74150  0.49670  0.39823  1.0000
  H   H1697     1.0  0.73793  0.48502  0.36380  1.0000
  C   C959      1.0  0.68844  0.42918  0.21347  1.0000
  H   H1698     1.0  0.96308  0.52847  0.02957  1.0000
  H   H1699     1.0  0.98189  0.41787  0.03589  1.0000
  N   N55       1.0  0.95205  0.44262  0.19193  1.0000
  C   C960      1.0  0.94707  0.44681  0.22216  1.0000
  C   C961      1.0  0.90696  0.46807  0.01220  1.0000
  C   C962      1.0  0.92968  0.44971  0.17614  1.0000
  C   C963      1.0  0.95835  0.41689  0.18564  1.0000
  H   H1700     1.0  0.59500  0.45259  0.14962  1.0000
  C   C964      1.0  0.92445  0.43449  0.23342  1.0000
  C   C965      1.0  0.93163  0.45007  0.14421  1.0000
  S   S216      1.0  0.58472  0.34573  0.27182  1.0000
  C   C966      1.0  0.92504  0.43197  0.26484  1.0000
  H   H1701     1.0  0.64934  0.44543  0.19270  1.0000
  H   H1702     1.0  0.98655  0.41214  0.21780  1.0000
  C   C967      1.0  0.90724  0.45431  0.13074  1.0000
  H   H1703     1.0  0.94479  0.46626  0.22619  1.0000
  H   H1704     1.0  0.69012  0.43131  0.19072  1.0000
  Fe  Fe113     1.0  0.65021  0.33666  0.34195  1.0000
  C   C968      1.0  0.71344  0.42464  0.22521  1.0000
  H   H1705     1.0  0.92331  0.46777  0.18260  1.0000
  H   H1706     1.0  0.91497  0.43728  0.18103  1.0000
  H   H1707     1.0  0.94205  0.40666  0.18068  1.0000
  H   H1708     1.0  0.96930  0.41592  0.16653  1.0000
  C   C969      1.0  0.59756  0.37765  0.48950  1.0000
  H   H1709     1.0  0.90409  0.43821  0.04120  1.0000
  H   H1710     1.0  0.90833  0.44524  0.22777  1.0000
  C   C970      1.0  0.98012  0.41531  0.01323  1.0000
  H   H1711     1.0  0.93916  0.43294  0.13659  1.0000
  H   H1712     1.0  0.94307  0.46482  0.13714  1.0000
  H   H1713     1.0  0.63612  0.40861  0.25711  1.0000
  C   C971      1.0  0.56572  0.34982  0.21923  1.0000
  S   S217      1.0  0.61077  0.33961  0.34816  1.0000
  H   H1714     1.0  0.62622  0.37128  0.24620  1.0000
  H   H1715     1.0  0.88261  0.38218  0.47448  1.0000
  H   H1716     1.0  0.93600  0.49700  0.04834  1.0000
  C   C972      1.0  0.85737  0.44765  0.38734  1.0000
  H   H1717     1.0  0.92676  0.44967  0.27475  1.0000
  H   H1718     1.0  0.69719  0.35645  0.44078  1.0000
  H   H1719     1.0  0.87339  0.43574  0.38790  1.0000
  H   H1720     1.0  0.90933  0.45555  0.10802  1.0000
  H   H1721     1.0  0.89519  0.43934  0.13543  1.0000
  H   H1722     1.0  0.89900  0.47123  0.13814  1.0000
  H   H1723     1.0  0.87516  0.45625  0.07270  1.0000
  H   H1724     1.0  0.96881  0.39963  0.00916  1.0000
  H   H1725     1.0  0.75573  0.33772  0.28222  1.0000
  H   H1726     1.0  0.65659  0.35241  0.41681  1.0000
  H   H1727     1.0  0.86410  0.45805  0.03779  1.0000
  H   H1728     1.0  0.65141  0.42019  0.17102  1.0000
  H   H1729     1.0  0.72141  0.40808  0.21648  1.0000
  H   H1730     1.0  0.95911  0.39814  0.22576  1.0000
  H   H1731     1.0  0.80890  0.45972  0.45695  1.0000
  C   C973      1.0  0.63826  0.44591  0.24869  1.0000
  H   H1732     1.0  0.64941  0.35560  0.47143  1.0000
  C   C974      1.0  0.63238  0.42045  0.23902  1.0000
  C   C975      1.0  0.62241  0.45337  0.27286  1.0000
  H   H1733     1.0  0.94010  0.42013  0.27144  1.0000
  H   H1734     1.0  0.62526  0.44108  0.29069  1.0000
  C   C976      1.0  0.61540  0.43222  0.17994  1.0000
  H   H1735     1.0  0.61286  0.41958  0.23575  1.0000
  H   H1736     1.0  0.60460  0.43966  0.19707  1.0000
  H   H1737     1.0  0.96602  0.47788  0.18531  1.0000
  C   C977      1.0  0.81448  0.37321  0.47598  1.0000
  C   C978      1.0  0.82684  0.37644  0.50100  1.0000
  H   H1738     1.0  0.55202  0.35252  0.17728  1.0000
  H   H1739     1.0  0.67938  0.39278  0.20829  1.0000
  H   H1740     1.0  0.65687  0.36667  0.23741  1.0000
  H   H1741     1.0  0.96686  0.36719  0.19062  1.0000
  C   C979      1.0  0.83805  0.43723  0.40573  1.0000
  C   C980      1.0  0.61392  0.45005  0.15600  1.0000
  H   H1742     1.0  0.83470  0.41871  0.39898  1.0000
  H   H1743     1.0  0.87924  0.40541  0.02314  1.0000
  H   H1744     1.0  0.70123  0.39253  0.48209  1.0000
  H   H1745     1.0  0.70364  0.34052  0.27700  1.0000
  C   C981      1.0  0.64165  0.42764  0.18913  1.0000
  H   H1746     1.0  0.87970  0.34175  0.04285  1.0000
  H   H1747     1.0  0.77895  0.41538  0.46913  1.0000
  N   N56       1.0  0.64543  0.41147  0.21388  1.0000
  S   S218      1.0  0.86342  0.34461  0.34714  1.0000
  H   H1748     1.0  0.76237  0.38197  0.38561  1.0000
  H   H1749     1.0  0.68173  0.44627  0.22194  1.0000
  C   C982      1.0  0.63563  0.38738  0.20649  1.0000
  C   C983      1.0  0.67179  0.40811  0.22012  1.0000
  H   H1750     1.0  0.74509  0.33791  0.38974  1.0000
  C   C984      1.0  0.90283  0.45796  0.04165  1.0000
  H   H1751     1.0  0.91607  0.46434  0.05676  1.0000
  H   H1752     1.0  0.87602  0.48426  0.05431  1.0000
  H   H1753     1.0  0.61475  0.34341  0.20751  1.0000
  C   C985      1.0  0.97154  0.40234  0.20872  1.0000
  H   H1754     1.0  0.99534  0.45639  0.21926  1.0000
  H   H1755     1.0  0.96245  0.44129  0.23527  1.0000
  H   H1756     1.0  0.90098  0.48712  0.01189  1.0000
  C   C986      1.0  0.87799  0.46462  0.05217  1.0000
  C   C987      1.0  0.96994  0.51204  0.04000  1.0000
  H   H1757     1.0  0.76150  0.33527  0.34266  1.0000
  H   H1758     1.0  0.97265  0.51604  0.06224  1.0000
  H   H1759     1.0  0.72642  0.35448  0.36572  1.0000
  C   C988      1.0  0.97167  0.45889  0.18261  1.0000
  H   H1760     1.0  0.67434  0.41564  0.50302  1.0000
  H   H1761     1.0  0.78917  0.33860  0.24738  1.0000
  H   H1762     1.0  0.94532  0.44266  0.03360  1.0000
  H   H1763     1.0  0.93278  0.42724  0.00565  1.0000
  C   C989      1.0  0.94389  0.44288  0.01074  1.0000
  C   C990      1.0  0.59843  0.35279  0.49157  1.0000
  C   C991      1.0  0.94625  0.48723  0.00628  1.0000
  C   C992      1.0  0.66674  0.33728  0.42625  1.0000
  S   S219      1.0  0.91985  0.37397  0.01034  1.0000
  H   H1764     1.0  0.60888  0.34009  0.42338  1.0000
  H   H1765     1.0  0.98743  0.50679  0.03112  1.0000
  H   H1766     1.0  0.71508  0.36417  0.48462  1.0000
  H   H1767     1.0  0.64791  0.40630  0.48509  1.0000
  C   C993      1.0  0.98149  0.37866  0.19795  1.0000
  H   H1768     1.0  0.99419  0.38170  0.18081  1.0000
  S   S220      1.0  0.50345  0.36678  0.12061  1.0000
  H   H1769     1.0  0.99110  0.36904  0.21485  1.0000
  H   H1770     1.0  0.72548  0.34033  0.31511  1.0000
  H   H1771     1.0  0.64606  0.33759  0.20162  1.0000
  C   C994      1.0  0.70249  0.37640  0.49553  1.0000
  C   C995      1.0  0.85154  0.37918  0.50031  1.0000
  H   H1772     1.0  0.68742  0.33811  0.22919  1.0000
  C   C996      1.0  0.79241  0.43749  0.50118  1.0000
  H   H1773     1.0  0.99812  0.41163  0.00471  1.0000
  H   H1774     1.0  0.72606  0.33504  0.25126  1.0000
  H   H1775     1.0  0.91314  0.33468  0.39513  1.0000
  H   H1776     1.0  0.98142  0.45256  0.00417  1.0000
  Fe  Fe114     1.0  0.59480  0.49154  0.84636  1.0000
  S   S221      1.0  0.57294  0.46191  0.82909  1.0000
  S   S222      1.0  0.58304  0.53045  0.85324  1.0000
  Fe  Fe115     1.0  0.63820  0.45775  0.85725  1.0000
  S   S223      1.0  0.61862  0.42575  0.84190  1.0000
  S   S224      1.0  0.67516  0.45403  0.87683  1.0000
  Fe  Fe116     1.0  0.60638  0.44980  0.80693  1.0000
  S   S225      1.0  0.61544  0.44168  0.76176  1.0000
  Fe  Fe117     1.0  0.58705  0.44040  0.86569  1.0000
  S   S226      1.0  0.56150  0.41906  0.89288  1.0000
  S   S227      1.0  0.62740  0.48132  0.82181  1.0000
  S   S228      1.0  0.60753  0.47049  0.88345  1.0000
  Fe  Fe118     1.0  0.60217  0.35208  0.56637  1.0000
  H   H1777     1.0  0.99171  0.52785  0.91066  1.0000
  H   H1778     1.0  0.95314  0.34028  0.94244  1.0000
  Fe  Fe119     1.0  0.59326  0.37377  0.62449  1.0000
  S   S229      1.0  0.62972  0.36382  0.63954  1.0000
  S   S230      1.0  0.56923  0.38892  0.65810  1.0000
  Fe  Fe120     1.0  0.64158  0.37628  0.59807  1.0000
  S   S231      1.0  0.67557  0.39546  0.59115  1.0000
  H   H1779     1.0  0.93334  0.51927  0.73716  1.0000
  S   S232      1.0  0.60557  0.38926  0.58366  1.0000
  H   H1780     1.0  0.64388  0.37163  0.51636  1.0000
  S   S233      1.0  0.83054  0.34553  0.65230  1.0000
  H   H1781     1.0  0.89614  0.48457  0.96236  1.0000
  Fe  Fe121     1.0  0.81476  0.46864  0.84617  1.0000
  S   S234      1.0  0.82814  0.43214  0.85831  1.0000
  S   S235      1.0  0.77768  0.47723  0.82840  1.0000
  Fe  Fe122     1.0  0.86601  0.48915  0.84830  1.0000
  S   S236      1.0  0.88271  0.45353  0.85929  1.0000
  S   S237      1.0  0.88339  0.52545  0.84267  1.0000
  Fe  Fe123     1.0  0.85728  0.43845  0.82740  1.0000
  S   S238      1.0  0.86411  0.40871  0.79614  1.0000
  Fe  Fe124     1.0  0.85207  0.45031  0.88902  1.0000
  S   S239      1.0  0.85398  0.44236  0.93546  1.0000
  S   S240      1.0  0.84320  0.47420  0.81428  1.0000
  S   S241      1.0  0.83630  0.48673  0.87908  1.0000
  Fe  Fe125     1.0  0.83982  0.38189  0.63637  1.0000
  H   H1782     1.0  0.50658  0.43601  0.86549  1.0000
  S   S242      1.0  0.85129  0.41231  0.66476  1.0000
  Fe  Fe126     1.0  0.82310  0.37044  0.57625  1.0000
  N   N57       1.0  0.51333  0.47697  0.90548  1.0000
  S   S243      1.0  0.81036  0.37891  0.53211  1.0000
  Fe  Fe127     1.0  0.79730  0.35029  0.62688  1.0000
  H   H1783     1.0  0.91886  0.38307  0.95192  1.0000
  C   C997      1.0  0.94271  0.52578  0.78004  1.0000
  S   S244      1.0  0.80530  0.38751  0.61314  1.0000
  S   S245      1.0  0.85877  0.36815  0.59796  1.0000
  C   C998      1.0  0.65214  0.36757  0.72699  1.0000
  H   H1784     1.0  0.65202  0.52323  0.86347  1.0000
  H   H1785     1.0  0.99103  0.57161  0.92065  1.0000
  H   H1786     1.0  0.53738  0.46249  0.87468  1.0000
  C   C999      1.0  0.85946  0.41018  0.75979  1.0000
  C   C1000     1.0  0.86027  0.43173  0.74522  1.0000
  C   C1001     1.0  0.85788  0.43204  0.71619  1.0000
  C   C1002     1.0  0.85410  0.41088  0.70138  1.0000
  C   C1003     1.0  0.85283  0.38938  0.71602  1.0000
  C   C1004     1.0  0.85580  0.38902  0.74499  1.0000
  H   H1787     1.0  0.86304  0.44808  0.75636  1.0000
  H   H1788     1.0  0.85894  0.44875  0.70508  1.0000
  H   H1789     1.0  0.85006  0.37294  0.70496  1.0000
  H   H1790     1.0  0.85532  0.37221  0.75601  1.0000
  H   H1791     1.0  0.94082  0.44881  0.73577  1.0000
  C   C1005     1.0  0.89040  0.40861  0.94393  1.0000
  C   C1006     1.0  0.87201  0.42241  0.95543  1.0000
  C   C1007     1.0  0.98461  0.56666  0.94143  1.0000
  C   C1008     1.0  0.75650  0.43917  0.75557  1.0000
  H   H1792     1.0  0.89354  0.40942  0.92193  1.0000
  H   H1793     1.0  0.96134  0.58318  0.97217  1.0000
  C   C1009     1.0  0.95945  0.55344  0.85614  1.0000
  C   C1010     1.0  0.94062  0.56890  0.84898  1.0000
  C   C1011     1.0  0.91750  0.55997  0.84510  1.0000
  C   C1012     1.0  0.91282  0.53557  0.84864  1.0000
  C   C1013     1.0  0.93163  0.52008  0.85594  1.0000
  C   C1014     1.0  0.95482  0.52898  0.85945  1.0000
  H   H1794     1.0  0.94388  0.58772  0.84622  1.0000
  H   H1795     1.0  0.90311  0.57210  0.83937  1.0000
  H   H1796     1.0  0.92835  0.50127  0.85856  1.0000
  H   H1797     1.0  0.96932  0.51684  0.86456  1.0000
  C   C1015     1.0  0.69940  0.37800  0.60370  1.0000
  C   C1016     1.0  0.69540  0.35834  0.62089  1.0000
  C   C1017     1.0  0.57602  0.42980  0.97501  1.0000
  C   C1018     1.0  0.73803  0.35207  0.62623  1.0000
  C   C1019     1.0  0.74192  0.37100  0.60803  1.0000
  C   C1020     1.0  0.72267  0.38424  0.59721  1.0000
  C   C1021     1.0  0.50267  0.45488  0.85959  1.0000
  H   H1798     1.0  0.70432  0.39753  0.53380  1.0000
  H   H1799     1.0  0.75972  0.37566  0.60241  1.0000
  H   H1800     1.0  0.72585  0.39943  0.58397  1.0000
  H   H1801     1.0  0.98075  0.48650  0.89943  1.0000
  C   C1022     1.0  0.79881  0.45163  0.75700  1.0000
  H   H1802     1.0  0.65131  0.42174  0.54578  1.0000
  H   H1803     1.0  0.65591  0.34864  0.68712  1.0000
  C   C1023     1.0  0.70355  0.45861  0.86188  1.0000
  C   C1024     1.0  0.70617  0.46810  0.83532  1.0000
  C   C1025     1.0  0.72904  0.47347  0.82535  1.0000
  C   C1026     1.0  0.74954  0.46883  0.84146  1.0000
  C   C1027     1.0  0.74698  0.45863  0.86764  1.0000
  C   C1028     1.0  0.72408  0.45373  0.87784  1.0000
  H   H1804     1.0  0.69054  0.47185  0.82280  1.0000
  H   H1805     1.0  0.73087  0.48175  0.80531  1.0000
  H   H1806     1.0  0.76257  0.45503  0.88030  1.0000
  H   H1807     1.0  0.72226  0.44636  0.89841  1.0000
  C   C1029     1.0  0.60176  0.42674  0.73364  1.0000
  C   C1030     1.0  0.61372  0.42620  0.70819  1.0000
  C   C1031     1.0  0.60428  0.41408  0.68531  1.0000
  C   C1032     1.0  0.58226  0.40295  0.68727  1.0000
  C   C1033     1.0  0.57001  0.40381  0.71258  1.0000
  C   C1034     1.0  0.57982  0.41540  0.73578  1.0000
  H   H1808     1.0  0.63032  0.43549  0.70600  1.0000
  H   H1809     1.0  0.61366  0.41403  0.66585  1.0000
  H   H1810     1.0  0.55287  0.39542  0.71426  1.0000
  H   H1811     1.0  0.57032  0.41576  0.75515  1.0000
  C   C1035     1.0  0.54461  0.40337  0.94327  1.0000
  C   C1036     1.0  0.56155  0.41750  0.92977  1.0000
  C   C1037     1.0  0.57732  0.43065  0.94589  1.0000
  H   H1812     1.0  0.99558  0.64419  0.95916  1.0000
  H   H1813     1.0  0.53234  0.39308  0.93108  1.0000
  H   H1814     1.0  0.59051  0.44152  0.93596  1.0000
  H   H1815     1.0  0.93045  0.47771  0.91357  1.0000
  H   H1816     1.0  0.94706  0.46293  0.95918  1.0000
  C   C1038     1.0  0.86807  0.42097  0.98407  1.0000
  C   C1039     1.0  0.53539  0.52951  0.83689  1.0000
  C   C1040     1.0  0.55352  0.54232  0.84964  1.0000
  C   C1041     1.0  0.54824  0.56544  0.85933  1.0000
  S   S246      1.0  0.58608  0.33768  0.60577  1.0000
  H   H1817     1.0  0.53930  0.51197  0.82874  1.0000
  H   H1818     1.0  0.56213  0.57559  0.86910  1.0000
  H   H1819     1.0  0.75463  0.44483  0.77746  1.0000
  H   H1820     1.0  0.69258  0.42166  0.79311  1.0000
  H   H1821     1.0  0.64916  0.39102  0.77901  1.0000
  H   H1822     1.0  0.64634  0.55327  0.89564  1.0000
  C   C1042     1.0  0.66798  0.39598  0.77537  1.0000
  H   H1823     1.0  0.75453  0.47712  0.74547  1.0000
  C   C1043     1.0  0.98670  0.49106  0.92064  1.0000
  H   H1824     1.0  0.52158  0.59365  0.86332  1.0000
  H   H1825     1.0  0.93065  0.48124  0.80274  1.0000
  N   N58       1.0  0.67387  0.38288  0.72419  1.0000
  C   C1044     1.0  0.67398  0.39357  0.69548  1.0000
  H   H1826     1.0  0.73874  0.40913  0.50454  1.0000
  C   C1045     1.0  0.67128  0.40312  0.74459  1.0000
  H   H1827     1.0  0.63572  0.37852  0.72267  1.0000
  C   C1046     1.0  0.70945  0.35636  0.70649  1.0000
  C   C1047     1.0  0.69199  0.41390  0.69103  1.0000
  H   H1828     1.0  0.97066  0.49475  0.93334  1.0000
  H   H1829     1.0  0.91852  0.46284  0.67970  1.0000
  H   H1830     1.0  0.91086  0.43725  0.70057  1.0000
  H   H1831     1.0  0.90369  0.46095  0.91974  1.0000
  C   C1048     1.0  0.69786  0.41749  0.66059  1.0000
  H   H1832     1.0  0.69281  0.35505  0.74687  1.0000
  H   H1833     1.0  0.65605  0.40109  0.69011  1.0000
  H   H1834     1.0  0.67710  0.37981  0.67946  1.0000
  C   C1049     1.0  0.54341  0.40239  0.97244  1.0000
  H   H1835     1.0  0.52532  0.60276  0.74243  1.0000
  H   H1836     1.0  0.65593  0.41494  0.73882  1.0000
  H   H1837     1.0  0.68716  0.41460  0.74388  1.0000
  H   H1838     1.0  0.70999  0.38059  0.74054  1.0000
  H   H1839     1.0  0.61329  0.34645  0.70047  1.0000
  C   C1050     1.0  0.86496  0.53381  0.76951  1.0000
  C   C1051     1.0  0.91345  0.47771  0.73420  1.0000
  H   H1840     1.0  0.68413  0.43089  0.69884  1.0000
  H   H1841     1.0  0.70889  0.41026  0.70230  1.0000
  H   H1842     1.0  0.92310  0.50075  0.95658  1.0000
  H   H1843     1.0  0.50668  0.51473  0.89949  1.0000
  C   C1052     1.0  0.52522  0.57573  0.85615  1.0000
  H   H1844     1.0  0.94379  0.42647  0.79931  1.0000
  H   H1845     1.0  0.90172  0.49251  0.91312  1.0000
  H   H1846     1.0  0.50301  0.47584  0.82144  1.0000
  H   H1847     1.0  0.53182  0.48864  0.94232  1.0000
  H   H1848     1.0  0.95810  0.55381  0.75468  1.0000
  C   C1053     1.0  0.50716  0.56297  0.84317  1.0000
  H   H1849     1.0  0.64844  0.53054  0.81270  1.0000
  H   H1850     1.0  0.70891  0.43355  0.65800  1.0000
  H   H1851     1.0  0.70816  0.40188  0.65284  1.0000
  H   H1852     1.0  0.68131  0.41989  0.64813  1.0000
  H   H1853     1.0  0.67011  0.41134  0.81647  1.0000
  C   C1054     1.0  0.57367  0.50579  0.92764  1.0000
  C   C1055     1.0  0.88470  0.52060  0.75387  1.0000
  H   H1854     1.0  0.92992  0.44215  0.82784  1.0000
  N   N59       1.0  0.67987  0.53387  0.89177  1.0000
  C   C1056     1.0  0.67573  0.51479  0.91323  1.0000
  C   C1057     1.0  0.70602  0.53958  0.89165  1.0000
  C   C1058     1.0  0.72306  0.51883  0.88322  1.0000
  C   C1059     1.0  0.67031  0.56738  0.92699  1.0000
  C   C1060     1.0  0.64932  0.50997  0.92027  1.0000
  C   C1061     1.0  0.64721  0.48879  0.94003  1.0000
  C   C1062     1.0  0.74888  0.52698  0.88220  1.0000
  H   H1855     1.0  0.67852  0.50624  0.86055  1.0000
  H   H1856     1.0  0.68366  0.49751  0.90634  1.0000
  H   H1857     1.0  0.68524  0.51881  0.93284  1.0000
  H   H1858     1.0  0.70944  0.55521  0.87808  1.0000
  H   H1859     1.0  0.71191  0.54507  0.91261  1.0000
  H   H1860     1.0  0.71853  0.51187  0.86256  1.0000
  H   H1861     1.0  0.72223  0.50395  0.89834  1.0000
  H   H1862     1.0  0.68857  0.57457  0.92821  1.0000
  H   H1863     1.0  0.66825  0.55421  0.94389  1.0000
  H   H1864     1.0  0.64077  0.52560  0.93035  1.0000
  H   H1865     1.0  0.63908  0.50599  0.90135  1.0000
  H   H1866     1.0  0.65446  0.47227  0.93040  1.0000
  H   H1867     1.0  0.65699  0.49214  0.95959  1.0000
  H   H1868     1.0  0.75464  0.53374  0.90265  1.0000
  H   H1869     1.0  0.76070  0.51168  0.87663  1.0000
  H   H1870     1.0  0.75099  0.54114  0.86633  1.0000
  H   H1871     1.0  0.89755  0.53412  0.74697  1.0000
  H   H1872     1.0  0.54666  0.46535  0.92393  1.0000
  H   H1873     1.0  0.95438  0.59094  0.93679  1.0000
  C   C1063     1.0  0.51965  0.47160  0.87577  1.0000
  H   H1874     1.0  0.58832  0.44007  0.98718  1.0000
  H   H1875     1.0  0.94886  0.47423  0.71524  1.0000
  H   H1876     1.0  0.97965  0.53276  0.76922  1.0000
  C   C1064     1.0  0.64202  0.42008  0.52560  1.0000
  H   H1877     1.0  0.94025  0.43944  0.68616  1.0000
  H   H1878     1.0  0.52158  0.48850  0.86403  1.0000
  H   H1879     1.0  0.80952  0.42750  0.50395  1.0000
  H   H1880     1.0  0.95521  0.49961  0.75079  1.0000
  C   C1065     1.0  0.91396  0.44982  0.78747  1.0000
  H   H1881     1.0  0.67750  0.35319  0.62577  1.0000
  H   H1882     1.0  0.76907  0.41428  0.66665  1.0000
  N   N60       1.0  0.91921  0.48985  0.76107  1.0000
  C   C1066     1.0  0.71471  0.34560  0.63247  1.0000
  H   H1883     1.0  0.80111  0.42900  0.80510  1.0000
  H   H1884     1.0  0.96901  0.43439  0.97710  1.0000
  H   H1885     1.0  0.67968  0.38065  0.78129  1.0000
  H   H1886     1.0  0.77947  0.43037  0.51627  1.0000
  C   C1067     1.0  0.92528  0.44983  0.69536  1.0000
  H   H1887     1.0  0.54392  0.51784  0.90357  1.0000
  C   C1068     1.0  0.90106  0.39270  0.98974  1.0000
  H   H1888     1.0  0.74807  0.39787  0.53787  1.0000
  H   H1889     1.0  0.78401  0.37723  0.80977  1.0000
  H   H1890     1.0  0.67395  0.54083  0.79401  1.0000
  C   C1069     1.0  0.67358  0.41667  0.79474  1.0000
  H   H1891     1.0  0.53034  0.39141  0.98246  1.0000
  H   H1892     1.0  0.66987  0.57056  0.88293  1.0000
  H   H1893     1.0  0.74338  0.35138  0.72813  1.0000
  C   C1070     1.0  0.96280  0.54281  0.77311  1.0000
  H   H1894     1.0  0.87270  0.54450  0.78649  1.0000
  H   H1895     1.0  0.59385  0.38819  0.50767  1.0000
  H   H1896     1.0  0.52396  0.45091  0.82236  1.0000
  H   H1897     1.0  0.63423  0.58161  0.93238  1.0000
  H   H1898     1.0  0.56041  0.49366  0.88853  1.0000
  H   H1899     1.0  0.87655  0.51241  0.73532  1.0000
  C   C1071     1.0  0.69647  0.36887  0.73091  1.0000
  H   H1900     1.0  0.88291  0.48723  0.77532  1.0000
  H   H1901     1.0  0.94806  0.51590  0.79899  1.0000
  C   C1072     1.0  0.71944  0.46326  0.74248  1.0000
  H   H1902     1.0  0.94737  0.46653  0.77693  1.0000
  C   C1073     1.0  0.66822  0.52996  0.81194  1.0000
  H   H1903     1.0  0.69832  0.54036  0.83594  1.0000
  C   C1074     1.0  0.92659  0.43300  0.80793  1.0000
  H   H1904     1.0  0.77054  0.42019  0.80712  1.0000
  C   C1075     1.0  0.90474  0.39372  0.96102  1.0000
  C   C1076     1.0  0.91457  0.48319  0.95426  1.0000
  H   H1905     1.0  0.65020  0.36096  0.74851  1.0000
  H   H1906     1.0  0.65465  0.60215  0.91644  1.0000
  H   H1907     1.0  0.86126  0.38183  0.51938  1.0000
  H   H1908     1.0  0.85209  0.52114  0.77846  1.0000
  C   C1077     1.0  0.50589  0.45710  0.82838  1.0000
  H   H1909     1.0  0.75099  0.40686  0.71287  1.0000
  H   H1910     1.0  0.96578  0.55495  0.79085  1.0000
  C   C1078     1.0  0.79593  0.39215  0.81502  1.0000
  H   H1911     1.0  0.63839  0.43829  0.51733  1.0000
  H   H1912     1.0  0.62473  0.41124  0.52888  1.0000
  H   H1913     1.0  0.91525  0.41735  0.81201  1.0000
  H   H1914     1.0  0.99688  0.55567  0.98120  1.0000
  H   H1915     1.0  0.66776  0.38053  0.53719  1.0000
  H   H1916     1.0  0.67445  0.51130  0.80874  1.0000
  H   H1917     1.0  0.93661  0.50359  0.99907  1.0000
  S   S247      1.0  0.59314  0.33775  0.52333  1.0000
  C   C1079     1.0  0.80491  0.46972  0.73377  1.0000
  C   C1080     1.0  0.81931  0.49044  0.74498  1.0000
  H   H1918     1.0  0.90802  0.49115  0.71829  1.0000
  H   H1919     1.0  0.82290  0.50332  0.72808  1.0000
  H   H1920     1.0  0.80933  0.49989  0.76154  1.0000
  H   H1921     1.0  0.83663  0.48383  0.75334  1.0000
  C   C1081     1.0  0.77023  0.40308  0.70997  1.0000
  H   H1922     1.0  0.80455  0.41900  0.71684  1.0000
  H   H1923     1.0  0.71291  0.47965  0.73171  1.0000
  H   H1924     1.0  0.97290  0.55100  0.93986  1.0000
  H   H1925     1.0  0.55930  0.56174  0.79092  1.0000
  H   H1926     1.0  0.65664  0.59589  0.95295  1.0000
  C   C1082     1.0  0.53599  0.48210  0.92118  1.0000
  C   C1083     1.0  0.92931  0.46321  0.96922  1.0000
  C   C1084     1.0  0.78810  0.41048  0.76783  1.0000
  H   H1927     1.0  0.67201  0.55861  0.84041  1.0000
  H   H1928     1.0  0.62819  0.48587  0.94496  1.0000
  C   C1085     1.0  0.55914  0.41564  0.98855  1.0000
  H   H1929     1.0  0.81585  0.46085  0.71763  1.0000
  H   H1930     1.0  0.85520  0.54614  0.75527  1.0000
  H   H1931     1.0  0.71494  0.46474  0.76471  1.0000
  H   H1932     1.0  0.79323  0.39375  0.67538  1.0000
  C   C1086     1.0  0.93390  0.46265  0.72127  1.0000
  H   H1933     1.0  0.78202  0.43909  0.70552  1.0000
  C   C1087     1.0  0.71475  0.38341  0.52304  1.0000
  H   H1934     1.0  0.74938  0.45806  0.71600  1.0000
  H   H1935     1.0  0.89767  0.46619  0.73656  1.0000
  H   H1936     1.0  0.91094  0.43961  0.76826  1.0000
  N   N61       1.0  0.78195  0.43177  0.74975  1.0000
  H   H1937     1.0  0.89637  0.45469  0.79631  1.0000
  C   C1088     1.0  0.78549  0.42415  0.72011  1.0000
  C   C1089     1.0  0.51235  0.53969  0.83392  1.0000
  H   H1938     1.0  0.51311  0.43916  0.91359  1.0000
  H   H1939     1.0  0.78882  0.47727  0.72357  1.0000
  H   H1940     1.0  0.77517  0.38634  0.72103  1.0000
  H   H1941     1.0  0.92670  0.53688  0.78474  1.0000
  H   H1942     1.0  0.81630  0.44413  0.76403  1.0000
  H   H1943     1.0  0.71699  0.36972  0.69214  1.0000
  C   C1090     1.0  0.73969  0.39299  0.51789  1.0000
  H   H1944     1.0  0.77518  0.39596  0.76455  1.0000
  C   C1091     1.0  0.78843  0.41487  0.79948  1.0000
  C   C1092     1.0  0.67176  0.52474  0.86401  1.0000
  C   C1093     1.0  0.66580  0.55632  0.89814  1.0000
  H   H1945     1.0  0.79193  0.46188  0.77498  1.0000
  H   H1946     1.0  0.56712  0.51500  0.94646  1.0000
  C   C1094     1.0  0.66168  0.37996  0.51537  1.0000
  C   C1095     1.0  0.91259  0.47822  0.92331  1.0000
  H   H1947     1.0  0.76318  0.38324  0.67251  1.0000
  H   H1948     1.0  0.58654  0.51754  0.91707  1.0000
  H   H1949     1.0  0.74447  0.42374  0.75347  1.0000
  H   H1950     1.0  0.71665  0.36784  0.53714  1.0000
  C   C1096     1.0  0.77421  0.39840  0.67926  1.0000
  H   H1951     1.0  0.51086  0.60528  0.77465  1.0000
  H   H1952     1.0  0.54525  0.58934  0.80122  1.0000
  C   C1097     1.0  0.65285  0.58802  0.93242  1.0000
  C   C1098     1.0  0.93786  0.50841  0.75581  1.0000
  H   H1953     1.0  0.81461  0.38706  0.80989  1.0000
  C   C1099     1.0  0.96914  0.58742  0.95173  1.0000
  C   C1100     1.0  0.55294  0.50058  0.90811  1.0000
  H   H1954     1.0  0.58308  0.48903  0.93387  1.0000
  H   H1955     1.0  0.75125  0.37923  0.50802  1.0000
  C   C1101     1.0  0.65740  0.40600  0.50525  1.0000
  C   C1102     1.0  0.67872  0.54001  0.83853  1.0000
  H   H1956     1.0  0.66215  0.43248  0.78979  1.0000
  H   H1957     1.0  0.71010  0.44784  0.73365  1.0000
  H   H1958     1.0  0.80596  0.40301  0.76210  1.0000
  H   H1959     1.0  0.79482  0.39522  0.83762  1.0000
  C   C1103     1.0  0.89664  0.50099  0.77221  1.0000
  C   C1104     1.0  0.68193  0.34109  0.51271  1.0000
  H   H1960     1.0  0.92096  0.44588  0.96400  1.0000
  C   C1105     1.0  0.92894  0.47240  0.78230  1.0000
  H   H1961     1.0  0.51755  0.45429  0.96050  1.0000
  C   C1106     1.0  0.74630  0.46034  0.73841  1.0000
  H   H1962     1.0  0.89983  0.50834  0.79310  1.0000
  H   H1963     1.0  0.68525  0.34377  0.53521  1.0000
  H   H1964     1.0  0.56188  0.58779  0.76927  1.0000
  C   C1107     1.0  0.54977  0.57798  0.78319  1.0000
  C   C1108     1.0  0.73016  0.34062  0.71674  1.0000
  S   S248      1.0  0.76207  0.33685  0.64189  1.0000
  S   S249      1.0  0.63905  0.34048  0.57877  1.0000
  C   C1109     1.0  0.62683  0.33382  0.70927  1.0000
  H   H1965     1.0  0.97979  0.60384  0.95342  1.0000
  H   H1966     1.0  0.69736  0.34500  0.69444  1.0000
  H   H1967     1.0  0.52507  0.55216  0.66481  1.0000
  S   S250      1.0  0.98912  0.56346  0.86073  1.0000
  H   H1968     1.0  0.79527  0.45660  0.50584  1.0000
  H   H1969     1.0  0.50370  0.58642  0.68502  1.0000
  C   C1110     1.0  0.65151  0.34491  0.70890  1.0000
  H   H1970     1.0  0.96307  0.48685  0.99424  1.0000
  H   H1971     1.0  0.85372  0.43138  0.99310  1.0000
  H   H1972     1.0  0.89382  0.45871  0.99904  1.0000
  C   C1111     1.0  0.96932  0.43764  0.99967  1.0000
  N   N62       1.0  0.93176  0.46545  0.00023  1.0000
  H   H1973     1.0  0.53270  0.55887  0.75073  1.0000
  C   C1112     1.0  0.52718  0.57084  0.76779  1.0000
  H   H1974     1.0  0.52756  0.57616  0.70714  1.0000
  C   C1113     1.0  0.88260  0.40637  0.00118  1.0000
  H   H1975     1.0  0.51620  0.56047  0.78225  1.0000
  H   H1976     1.0  0.51901  0.53407  0.69473  1.0000
  C   C1114     1.0  0.50218  0.45537  0.91859  1.0000
  H   H1977     1.0  0.99671  0.47550  0.92937  1.0000
  H   H1978     1.0  0.99801  0.51652  0.96405  1.0000
  C   C1115     1.0  0.51331  0.59311  0.75672  1.0000
  C   C1116     1.0  0.51222  0.54917  0.68181  1.0000
  C   C1117     1.0  0.50967  0.57179  0.69909  1.0000
  C   C1118     1.0  0.49970  0.45548  0.95050  1.0000
  C   C1119     1.0  0.99858  0.66367  0.95984  1.0000
  S   S251      1.0  0.81255  0.33373  0.58907  1.0000
  C   C1120     1.0  0.98071  0.94086  0.01512  1.0000
  H   H1979     1.0  0.99708  0.79428  0.28784  1.0000
  H   H1980     1.0  0.97342  0.95904  0.01929  1.0000
  H   H1981     1.0  0.98509  0.93460  0.05921  1.0000
  H   H1982     1.0  0.99684  0.71914  0.25293  1.0000
  H   H1983     1.0  0.96555  0.92861  0.01369  1.0000
  C   C1121     1.0  0.99587  0.93331  0.04009  1.0000
  C   C1122     1.0  0.96402  0.95836  0.79554  1.0000
  H   H1984     1.0  0.77388  0.98945  0.77099  1.0000
  S   S252      1.0  0.95077  0.88931  0.86828  1.0000
  H   H1985     1.0  0.94245  0.91529  0.97041  1.0000
  H   H1986     1.0  0.94261  0.88847  0.92967  1.0000
  C   C1123     1.0  0.92362  0.96751  0.86660  1.0000
  C   C1124     1.0  0.90770  0.94867  0.86836  1.0000
  C   C1125     1.0  0.91632  0.92488  0.86908  1.0000
  C   C1126     1.0  0.94091  0.91962  0.86849  1.0000
  C   C1127     1.0  0.95686  0.93848  0.86740  1.0000
  C   C1128     1.0  0.94824  0.96223  0.86613  1.0000
  H   H1987     1.0  0.88874  0.95241  0.86873  1.0000
  H   H1988     1.0  0.90381  0.91043  0.86999  1.0000
  H   H1989     1.0  0.97580  0.93476  0.86710  1.0000
  C   C1129     1.0  0.92403  0.98029  0.94417  1.0000
  H   H1990     1.0  0.97521  0.73674  0.90116  1.0000
  H   H1991     1.0  0.50490  0.98818  0.83775  1.0000
  C   C1130     1.0  0.51816  0.93345  0.85368  1.0000
  Fe  Fe128     1.0  0.98929  0.87593  0.87205  1.0000
  C   C1131     1.0  0.53879  0.95300  0.81569  1.0000
  C   C1132     1.0  0.55373  0.96519  0.83420  1.0000
  C   C1133     1.0  0.55076  0.96133  0.86252  1.0000
  H   H1992     1.0  0.58664  0.98364  0.73349  1.0000
  H   H1993     1.0  0.91363  0.98345  0.92488  1.0000
  H   H1994     1.0  0.93027  0.96586  0.77448  1.0000
  H   H1995     1.0  0.87160  0.99840  0.54679  1.0000
  H   H1996     1.0  0.99103  0.77718  0.89180  1.0000
  H   H1997     1.0  0.97475  0.90288  0.75211  1.0000
  H   H1998     1.0  0.56231  0.97014  0.87707  1.0000
  H   H1999     1.0  0.94340  0.86809  0.80664  1.0000
  C   C1134     1.0  0.96495  0.89793  0.79411  1.0000
  H   H2000     1.0  0.53224  0.94167  0.89398  1.0000
  C   C1135     1.0  0.95167  0.88317  0.94927  1.0000
  H   H2001     1.0  0.94851  0.95253  0.97964  1.0000
  S   S253      1.0  0.91400  0.99786  0.86430  1.0000
  C   C1136     1.0  0.99587  0.94128  0.98838  1.0000
  C   C1137     1.0  0.51317  0.98910  0.92443  1.0000
  H   H2002     1.0  0.54111  0.95537  0.79371  1.0000
  C   C1138     1.0  0.96102  0.96006  0.96441  1.0000
  H   H2003     1.0  0.99527  0.73017  0.63617  1.0000
  C   C1139     1.0  0.94377  0.97538  0.78688  1.0000
  H   H2004     1.0  0.94891  0.90952  0.79152  1.0000
  H   H2005     1.0  0.80218  0.99107  0.81029  1.0000
  H   H2006     1.0  0.94848  0.86982  0.76992  1.0000
  C   C1140     1.0  0.97760  0.94839  0.77004  1.0000
  H   H2007     1.0  0.91241  0.97102  0.95913  1.0000
  H   H2008     1.0  0.98714  0.67238  0.94383  1.0000
  H   H2009     1.0  0.52477  0.98076  0.94056  1.0000
  N   N63       1.0  0.99552  0.92836  0.77519  1.0000
  C   C1141     1.0  0.95898  0.90515  0.96553  1.0000
  H   H2010     1.0  0.96629  0.97758  0.97310  1.0000
  H   H2011     1.0  0.96756  0.89862  0.98488  1.0000
  H   H2012     1.0  0.97001  0.92230  0.92743  1.0000
  C   C1142     1.0  0.95679  0.87226  0.79055  1.0000
  C   C1143     1.0  0.99116  0.73860  0.88893  1.0000
  H   H2013     1.0  0.95625  0.94414  0.80829  1.0000
  S   S254      1.0  0.57637  0.98412  0.82079  1.0000
  H   H2014     1.0  0.96753  0.87187  0.94454  1.0000
  C   C1144     1.0  0.53348  0.94524  0.87209  1.0000
  H   H2015     1.0  0.92908  0.99786  0.95259  1.0000
  C   C1145     1.0  0.94621  0.96515  0.93783  1.0000
  N   N64       1.0  0.98285  0.94424  0.96105  1.0000
  H   H2016     1.0  0.96071  0.97668  0.86479  1.0000
  C   C1146     1.0  0.97676  0.92031  0.94899  1.0000
  H   H2017     1.0  0.93916  0.87243  0.96168  1.0000
  H   H2018     1.0  0.75024  0.99098  0.83013  1.0000
  S   S255      1.0  0.99123  0.68944  0.88641  1.0000
  C   C1147     1.0  0.76806  0.98261  0.82668  1.0000
  H   H2019     1.0  0.99363  0.81730  0.79507  1.0000
  H   H2020     1.0  0.97622  0.96849  0.80904  1.0000
  C   C1148     1.0  0.52087  0.93760  0.82533  1.0000
  H   H2021     1.0  0.52352  0.99012  0.90499  1.0000
  H   H2022     1.0  0.77585  0.97772  0.84711  1.0000
  H   H2023     1.0  0.95677  0.97515  0.92249  1.0000
  H   H2024     1.0  0.96415  0.94284  0.75447  1.0000
  H   H2025     1.0  0.50897  0.75484  0.89976  1.0000
  H   H2026     1.0  0.95072  0.99055  0.77470  1.0000
  H   H2027     1.0  0.99302  0.90896  0.94693  1.0000
  C   C1149     1.0  0.98395  0.90435  0.77240  1.0000
  C   C1150     1.0  0.50679  0.73590  0.90591  1.0000
  H   H2028     1.0  0.99416  0.93030  0.82004  1.0000
  H   H2029     1.0  0.99325  0.67031  0.98052  1.0000
  H   H2030     1.0  0.97202  0.85955  0.79300  1.0000
  H   H2031     1.0  0.89113  0.99783  0.57642  1.0000
  H   H2032     1.0  0.94007  0.94837  0.92832  1.0000
  H   H2033     1.0  0.76599  0.96604  0.81452  1.0000
  H   H2034     1.0  0.93488  0.98264  0.80559  1.0000
  H   H2035     1.0  0.55549  0.99078  0.76754  1.0000
  H   H2036     1.0  0.98635  0.96409  0.76053  1.0000
  H   H2037     1.0  0.99113  0.93446  0.71752  1.0000
  H   H2038     1.0  0.97195  0.89948  0.81540  1.0000
  H   H2039     1.0  0.81533  0.99735  0.76159  1.0000
  H   H2040     1.0  0.50576  0.72503  0.88683  1.0000
  H   H2041     1.0  0.52267  0.73007  0.91809  1.0000
  H   H2042     1.0  0.74171  0.99387  0.90316  1.0000
  H   H2043     1.0  0.99176  0.95618  0.91970  1.0000
  H   H2044     1.0  0.50957  0.92848  0.81079  1.0000
  H   H2045     1.0  0.99827  0.80308  0.76222  1.0000
  H   H2046     1.0  0.99787  0.72811  0.68768  1.0000
  H   H2047     1.0  0.99934  0.69462  0.77342  1.0000
  H   H2048     1.0  0.99789  0.88999  0.77284  1.0000
  C   C1151     1.0  0.78442  0.99996  0.81184  1.0000
  C   C1152     1.0  0.99930  0.95651  0.94103  1.0000
  S   S256      1.0  0.99930  0.84843  0.90439  1.0000
