data_image0
_chemical_formula_structural       FeS2FeS2FeSFeS3HFeHSH4CHSFeSCHFeS2FeS2FeSFeS3CHC6H5C7H8CH2C7H4C2HC2H3CHCHC2HC4NHCH3CHC2H3CH3CH2C2H4C4HCH2CH2CH3C5HCHCHC3H3NH3NH12SH3CH5CHCHC2H3C3NH4C2H2C3H6C3H10C7HCH5CH6NC7HNC3H25CSH3CHCH16CH5FeS2FeS2FeSFeS3HSHSH2FeCSCH5FeS2FeS2FeSFeS3C2HC6H10SHC6H4C6H4C2H2C2HCHCH2CNCHCNC12H17CHC2H8FeCHSC2HCH6FeH4C2H4C2H3CH2CH5CH10CH2CH3NC12H8CH5CHCH3CH3CH2C2H5CHCHCHSH8CHNH2C2H2CHCH2CH4CH5CH7FeS2FeS2FeSFeS3HFeHSH2CH2CHS2CH2FeS2FeS2FeSFeS3H6C6H4CH3C6H4CHFeC2H3NC6H7C4HCH4C3H10NC2HC2H2C3H2CH12CH8CSCHSHC2HCH3CHCHC2H7C3H2CH2CH4CH2CH3CHC2H2C2HCH4C2HC2HCH11CH5NC10H23C2HC2H3CHC3HC2H9C2NH2NC3HC2H3CHCNCH2CH6CH4CHCH2C3H4CHCH4SCFeS2FeS2FeSFeS3HFeCSH8FeS2HCHSH2FeS2FeS2FeSFeS3CHCSC6H5C2H4C7H4CH6CHC6H4C2H2CH2CH3C2HCHNHC4HC4FeCHCH7CH11CH4C3H3CH3C2H16SCH6CH2C3HCH8CH2CH4CH6CH2CHC4H2C2H4NCHCH2CH2CHNHC2H2NC3HNC4H2CH6CHC2H10CH2CH3NC3HC4H12CHCHCH2CHC2H2NCH3C2HS2CH5CH2C2HCH2CFeS2FeS2FeSFeS3FeS2FeS2FeSFeS6FeSH2CSC3H5C6H4CHCH2C6H4C2H2CH2CH3C2HC3H3C2H2NCH2CH3SHFeH8NCHCH3C3HC3HC2HCH2C2HCH10CHCH3C2NC12H29CHC2H6CH2C3H5CHCH3CHFeC2HCH2CHNCNCHCH2C2H2C2H2NH3C2HCFeHCH4SH3CH2C2H9FeH3C2H4C3H2CH3C3H2CH8C2H4CHC2H7C4HCH4CNH5S2CH2CSH4NH2FeSH2CH2C2FeS2FeS2FeSFeS3FeS2FeS2FeSFeS3FeSH2S2FeS2H2CH3C6H4C2SHC2H4C2H3C6H4CHSH2C2H2C4HCHCH4CHCH2CH3NCHC3H4C3H2CH15CHCH2CHCHFeNHC2H3SH2CHCH3CH7CHC2H2NC10HCH19C6H4C3H3CH3NHCHC2H2FeC3H10CH7NCHC5FeHC3HCH11C3SCH8NCHC5HSC3H3C2H2CH5CHCH4CNH4CH10CHCHCHCHCH5CH2CHCFeS2FeS2FeSFeS3FeS2FeS2FeSFeS5FeS2H2SHCH2C2HCH2C6H4C3HC2H4CHCH2C6H6C2H5C2H4CH3CH5CH2CH2CH3CH2SH2CFeCH3CH2CHCHC5HCH2CH4FeCH2CHCFeCH7CH3CH4C2H4CHCHSH4CHFeCH3C2HCHNC8HCH18CH5C2H3FeH2C2H4CH2SNC8HCNCH11CH5CSH4CH2SH2C2H2CHCHCH4C4H4FeS2FeS2FeSFeS3FeS2FeS2FeSFeS3HS2H2FeC6H5NC4FeNH2CNCHC2HCH5C6H5SHCHC2HCHC2H3C2H5C2H2CHC5NHCH7CH2CHSCHCH6CHCFeCHCHCHC3HNCH4C3H9CH4CHCHC3H3CHC2H5SHC2H3CH2C2H5C2H2SCH4CH3CH3FeCHFeHC2H6C4H3C2H3CH3CH3CSC2H3CHCHNC5HC2HCHCHSH9CH3CH7CH2CH3CH3CH3C2H5CH2CH2CFeS2FeS2FeSFeS3FeS2FeS2FeSFeS3H2SH2CH2S2FeSH3C2HFeH3C9H4CH10C6H4CH2C2HC3H3C4H2NC3H4CH2CH5C3H2C2HCH3CH3CHNC10FeCH22C5H2C2SH2CH6NH7CHNH2C2H2C2H2C2H2C2H5CH2C2H2C2H4FeH8CSH2CH4CHCHSH2C3HCH4C2H5C2H2FeCHC3SC3FeH3NC5HNC2H9CH2CH9CH3C2HSHCH2CHCH4CHCH4C2H3CHCFeS2FeS2FeSFeS3FeS2FeS2FeSFeS3CSHSFeSH2CH3SFeS2HCHC4H4C8H4CH7C2H2C6H4CFeH3FeH2CH2CH2CH2CNC7H2C2H16C2H3CH2NCHC6HC3H3FeH9CH5C2H7CH5CH6CH2C3H2CHNH6NC7HC2H16C3H7CHSHFeH3CH4NCHCHCHCSHC2H2CH2C5NHCH3C3H2C2H6CHCHSH4CH7C2HC2H2CH2CH5CH5C2HSFeS2FeS2FeSFeS3FeS2FeS2FeSFeS3CSH2FeSH2FeS2H6SHCH2FeH5CSCH4C7H4CHC3H4C2H2C7H8SC2H3CHCH10C2HC3NH2CH5C3H4C3H4SHCH12NC12H8CH2CH6CH10SH2NC3HC3H3CH2CHCHC2HCH2NC2HC3HCHC2H3C2H3CH5CH12CH2C2H3CH2CH4CNHCHCH2C3HC3HCHCH5CH2CHCH4CH2CNH5CHCHCH3FeC2HCH4C2H5CHC3HCH6C2H2C2FeS2FeS2FeSFeS3FeS2FeS2FeSFeS3FeS2H2FeS2FeSH2SHCN2H3C3HCH4C7H4C2H3CHCH3C3NH4C3H3C6H6CH8CH2CHCNH2CH2CHCHCHC3H2CH2FeC2H2C2HC2H2CH3CNHC2HC3H12C4HCH3CH5CHCH3CH2C4H6C2H16C2H2C4HCHCH3C2H2CHCH5CHSH2CHCH6CH4CH3CNC12H26C2H2CH3CH2CHC3H3CH4CH3CH4C3HFeS2FeS2FeSFeS3CFeSC2FeCSH2SFeS2FeS2FeSFeS3CH3CHCHC6H5C6H4C2H4C6H4C3H3CHC2H5C2H3SNCHCH2C2H2C3HSHC4HCHCH11NC9HC2H18CH2CH6NC7HC2H12CH10C2NC5H12NCHCSHCH3CH16CH4NC6HC4H5CH8CH15CHCHCH2C2H6CHCH2CHCHCH4SHC2HCH4C2H3CFeS2FeS2FeSFeS3FeS2FeS2FeSFeS3HSH2CFeSH2C6H4C6H4C2H5C6H5C2H4C5H4C4H2NC12H33CH10CH4CH4CH2CH4CH2C4H4CH5NC12H17CH12NHCH2CH2C2HC2H2CH4CHCH3C3H2CNC4HC2HC4H14C3H4FeH2NC2HC2H3SCHCH8SC2SC2NC2HCHSH6CH6C5NH3C2H5CH3CH5C2HFeS2FeS2FeSFeS3CSFeHFeS2FeS2FeSFeS4CH2SC6H4CH5C8H4C8H5CH2FeH2C3H8CH2CH3CH2NH6CH6CH5CH2CH2C2H2FeCNC12H28CH2CH6NH6C2HSHFeCHC2HCNHC10H10CHCH5NSCHCH4CHC4H2CHCHCH2C2SH7C2H6CHCH2C2H2C2HCHCNCH6C3H4C2H3CSHCFeS2FeS2FeSFeS3FeS2FeS2FeSFeS3FeS2C2H4SCHCH5C6H4C6H4C2H3CHC6H4C3H6CNHCH2CH2CHCH4SCHC2NH4SH2CHNCH8C3HCHCH5CH2CHC3H3C3H7CH4NC11H13CH15NC3HFeC6H28C4H7FeHC2H4NC5HCHSCHCHCHSH2C3H11CHCHC3HC2H3CHCH2SHSFeH
_chemical_formula_sum              "Fe192 S384 H3072 C1728 N96"
_cell_length_a       63.4346
_cell_length_b       62.7088
_cell_length_c       62.0185
_cell_angle_alpha    85.7188
_cell_angle_beta     85.0699
_cell_angle_gamma    86.3945

_space_group_name_H-M_alt    "P 1"
_space_group_IT_number       1

loop_
  _space_group_symop_operation_xyz
  'x, y, z'

loop_
  _atom_site_type_symbol
  _atom_site_label
  _atom_site_symmetry_multiplicity
  _atom_site_fract_x
  _atom_site_fract_y
  _atom_site_fract_z
  _atom_site_occupancy
  Fe  Fe1       1.0  0.09293  0.39770  0.43914  1.0000
  S   S1        1.0  0.06227  0.41745  0.43947  1.0000
  S   S2        1.0  0.11182  0.39718  0.46857  1.0000
  Fe  Fe2       1.0  0.08965  0.38396  0.39300  1.0000
  S   S3        1.0  0.05857  0.40266  0.39049  1.0000
  S   S4        1.0  0.10200  0.37024  0.36091  1.0000
  Fe  Fe3       1.0  0.07311  0.42884  0.40572  1.0000
  S   S5        1.0  0.06454  0.46281  0.39362  1.0000
  Fe  Fe4       1.0  0.05039  0.38966  0.42454  1.0000
  S   S6        1.0  0.01884  0.37760  0.43760  1.0000
  S   S7        1.0  0.10503  0.41138  0.40607  1.0000
  S   S8        1.0  0.08034  0.36873  0.42627  1.0000
  H   H1        1.0  0.07231  0.17434  0.29234  1.0000
  Fe  Fe5       1.0  0.22309  0.24940  0.13133  1.0000
  H   H2        1.0  0.01597  0.40395  0.39749  1.0000
  S   S9        1.0  0.18781  0.24848  0.14244  1.0000
  H   H3        1.0  0.16842  0.15103  0.22620  1.0000
  H   H4        1.0  0.20483  0.31173  0.11663  1.0000
  H   H5        1.0  0.05745  0.29839  0.39552  1.0000
  H   H6        1.0  0.00375  0.42188  0.46648  1.0000
  C   C1        1.0  0.00756  0.31847  0.38291  1.0000
  H   H7        1.0  0.19067  0.22585  0.22997  1.0000
  S   S10       1.0  0.22396  0.09083  0.25538  1.0000
  Fe  Fe6       1.0  0.22987  0.11542  0.27862  1.0000
  S   S11       1.0  0.20922  0.14103  0.29611  1.0000
  C   C2        1.0  0.01308  0.45982  0.37330  1.0000
  H   H8        1.0  0.09663  0.46335  0.42425  1.0000
  Fe  Fe7       1.0  0.09643  0.26223  0.30040  1.0000
  S   S12       1.0  0.07816  0.23346  0.29488  1.0000
  S   S13       1.0  0.09335  0.27474  0.33436  1.0000
  Fe  Fe8       1.0  0.11750  0.26429  0.25397  1.0000
  S   S14       1.0  0.10006  0.23678  0.24510  1.0000
  S   S15       1.0  0.14342  0.28007  0.23138  1.0000
  Fe  Fe9       1.0  0.07095  0.25118  0.26332  1.0000
  S   S16       1.0  0.03884  0.25414  0.24817  1.0000
  Fe  Fe10      1.0  0.10850  0.22081  0.27714  1.0000
  S   S17       1.0  0.11911  0.18540  0.27477  1.0000
  S   S18       1.0  0.08779  0.28067  0.26957  1.0000
  S   S19       1.0  0.12722  0.24785  0.28548  1.0000
  C   C3        1.0  0.01354  0.24338  0.25532  1.0000
  H   H9        1.0  0.05265  0.19651  0.29330  1.0000
  C   C4        1.0  0.18458  0.15354  0.28902  1.0000
  C   C5        1.0  0.17769  0.17323  0.29749  1.0000
  C   C6        1.0  0.15789  0.18335  0.29299  1.0000
  C   C7        1.0  0.14461  0.17376  0.28014  1.0000
  C   C8        1.0  0.15146  0.15404  0.27173  1.0000
  C   C9        1.0  0.17139  0.14405  0.27600  1.0000
  H   H10       1.0  0.18764  0.18062  0.30778  1.0000
  H   H11       1.0  0.15272  0.19836  0.29984  1.0000
  H   H12       1.0  0.14120  0.14631  0.26205  1.0000
  H   H13       1.0  0.17623  0.12867  0.26985  1.0000
  H   H14       1.0  0.13759  0.45115  0.31825  1.0000
  C   C10       1.0  0.09943  0.49680  0.42926  1.0000
  C   C11       1.0  0.17580  0.25441  0.16844  1.0000
  C   C12       1.0  0.18782  0.25831  0.18544  1.0000
  C   C13       1.0  0.17780  0.26573  0.20489  1.0000
  C   C14       1.0  0.15555  0.26789  0.20811  1.0000
  C   C15       1.0  0.14350  0.26235  0.19171  1.0000
  C   C16       1.0  0.15359  0.25588  0.17190  1.0000
  H   H15       1.0  0.20483  0.25581  0.18337  1.0000
  H   H16       1.0  0.18726  0.26973  0.21756  1.0000
  H   H17       1.0  0.12639  0.26416  0.19386  1.0000
  H   H18       1.0  0.14410  0.25264  0.15896  1.0000
  H   H19       1.0  0.21758  0.19858  0.24005  1.0000
  H   H20       1.0  0.02353  0.22087  0.28076  1.0000
  H   H21       1.0  0.02178  0.46435  0.35747  1.0000
  H   H22       1.0  0.21184  0.03790  0.21576  1.0000
  C   C17       1.0  0.04193  0.33059  0.39017  1.0000
  H   H23       1.0  0.15189  0.47723  0.38216  1.0000
  H   H24       1.0  0.01533  0.47218  0.38471  1.0000
  C   C18       1.0  0.24354  0.00913  0.27378  1.0000
  C   C19       1.0  0.09988  0.34354  0.35377  1.0000
  C   C20       1.0  0.10054  0.33936  0.33173  1.0000
  C   C21       1.0  0.09896  0.31837  0.32545  1.0000
  C   C22       1.0  0.09681  0.30128  0.34118  1.0000
  C   C23       1.0  0.09642  0.30544  0.36320  1.0000
  C   C24       1.0  0.09803  0.32641  0.36946  1.0000
  H   H25       1.0  0.10223  0.35243  0.31942  1.0000
  H   H26       1.0  0.09933  0.31543  0.30845  1.0000
  H   H27       1.0  0.09500  0.29232  0.37550  1.0000
  H   H28       1.0  0.09816  0.32930  0.38640  1.0000
  C   C25       1.0  0.07482  0.48369  0.40614  1.0000
  C   C26       1.0  0.17615  0.21676  0.23127  1.0000
  H   H29       1.0  0.20912  0.25361  0.00603  1.0000
  C   C27       1.0  0.18814  0.12347  0.21804  1.0000
  C   C28       1.0  0.09078  0.47965  0.42035  1.0000
  H   H30       1.0  0.07782  0.43650  0.32103  1.0000
  H   H31       1.0  0.04526  0.16989  0.30225  1.0000
  H   H32       1.0  0.22060  0.10527  0.34003  1.0000
  C   C29       1.0  0.09638  0.39898  0.49355  1.0000
  H   H33       1.0  0.22026  0.21071  0.21323  1.0000
  C   C30       1.0  0.16272  0.22370  0.25126  1.0000
  H   H34       1.0  0.02226  0.25782  0.30924  1.0000
  C   C31       1.0  0.20045  0.30462  0.15168  1.0000
  C   C32       1.0  0.16802  0.34297  0.20723  1.0000
  H   H35       1.0  0.01712  0.47912  0.46652  1.0000
  C   C33       1.0  0.24037  0.18225  0.21920  1.0000
  C   C34       1.0  0.19172  0.31018  0.12962  1.0000
  C   C35       1.0  0.00688  0.25388  0.31813  1.0000
  C   C36       1.0  0.02293  0.34975  0.36152  1.0000
  N   N1        1.0  0.04735  0.47746  0.48065  1.0000
  H   H36       1.0  0.09407  0.48435  0.47634  1.0000
  C   C37       1.0  0.03156  0.46824  0.46754  1.0000
  H   H37       1.0  0.09343  0.46284  0.35630  1.0000
  H   H38       1.0  0.22769  0.29558  0.22087  1.0000
  H   H39       1.0  0.20803  0.32519  0.21241  1.0000
  C   C38       1.0  0.23490  0.17366  0.34378  1.0000
  H   H40       1.0  0.18534  0.17925  0.15354  1.0000
  C   C39       1.0  0.02323  0.44630  0.47616  1.0000
  C   C40       1.0  0.06750  0.46326  0.47971  1.0000
  H   H41       1.0  0.22732  0.20070  0.36388  1.0000
  H   H42       1.0  0.06498  0.44731  0.48823  1.0000
  H   H43       1.0  0.15915  0.32843  0.20586  1.0000
  C   C41       1.0  0.03195  0.20555  0.20213  1.0000
  H   H44       1.0  0.04799  0.28145  0.32679  1.0000
  H   H45       1.0  0.22035  0.28602  0.18431  1.0000
  H   H46       1.0  0.14801  0.43464  0.40984  1.0000
  C   C42       1.0  0.24318  0.11742  0.36014  1.0000
  H   H47       1.0  0.21990  0.05383  0.19117  1.0000
  H   H48       1.0  0.11443  0.49400  0.38017  1.0000
  C   C43       1.0  0.22912  0.00865  0.25801  1.0000
  C   C44       1.0  0.23405  0.25013  0.02793  1.0000
  H   H49       1.0  0.21594  0.15363  0.21193  1.0000
  H   H50       1.0  0.07467  0.32225  0.41796  1.0000
  H   H51       1.0  0.17925  0.15141  0.19837  1.0000
  H   H52       1.0  0.01346  0.44804  0.49171  1.0000
  C   C45       1.0  0.03501  0.38295  0.33906  1.0000
  C   C46       1.0  0.08678  0.47269  0.48870  1.0000
  C   C47       1.0  0.07433  0.39934  0.49416  1.0000
  C   C48       1.0  0.20162  0.16033  0.22121  1.0000
  H   H53       1.0  0.07824  0.41154  0.33749  1.0000
  C   C49       1.0  0.18290  0.14758  0.21543  1.0000
  H   H54       1.0  0.19763  0.20466  0.15044  1.0000
  H   H55       1.0  0.18172  0.29723  0.12585  1.0000
  C   C50       1.0  0.05935  0.31542  0.42390  1.0000
  H   H56       1.0  0.20433  0.15599  0.23859  1.0000
  H   H57       1.0  0.16252  0.47811  0.31868  1.0000
  C   C51       1.0  0.14942  0.45226  0.40749  1.0000
  H   H58       1.0  0.22895  0.19728  0.03659  1.0000
  H   H59       1.0  0.18408  0.18669  0.24965  1.0000
  H   H60       1.0  0.03848  0.46682  0.45048  1.0000
  C   C52       1.0  0.01041  0.22700  0.27166  1.0000
  C   C53       1.0  0.00797  0.20890  0.20109  1.0000
  C   C54       1.0  0.24373  0.04940  0.21468  1.0000
  C   C55       1.0  0.23124  0.09920  0.35275  1.0000
  C   C56       1.0  0.21878  0.19494  0.22262  1.0000
  H   H61       1.0  0.03471  0.34311  0.40090  1.0000
  C   C57       1.0  0.22600  0.25099  0.00729  1.0000
  H   H62       1.0  0.18180  0.32541  0.12982  1.0000
  C   C58       1.0  0.21615  0.32122  0.15675  1.0000
  H   H63       1.0  0.12561  0.49226  0.33062  1.0000
  C   C59       1.0  0.23746  0.35757  0.16766  1.0000
  C   C60       1.0  0.20297  0.32362  0.19589  1.0000
  C   C61       1.0  0.18769  0.34327  0.19111  1.0000
  H   H64       1.0  0.03818  0.19606  0.18842  1.0000
  H   H65       1.0  0.07249  0.45964  0.46262  1.0000
  H   H66       1.0  0.03631  0.43404  0.47863  1.0000
  N   N2        1.0  0.22205  0.32033  0.17990  1.0000
  H   H67       1.0  0.21231  0.17734  0.37202  1.0000
  H   H68       1.0  0.04982  0.32705  0.43398  1.0000
  H   H69       1.0  0.02843  0.39380  0.35164  1.0000
  N   N3        1.0  0.12764  0.46229  0.35011  1.0000
  H   H70       1.0  0.20928  0.33730  0.15161  1.0000
  H   H71       1.0  0.17746  0.18687  0.19191  1.0000
  H   H72       1.0  0.21200  0.18104  0.14116  1.0000
  H   H73       1.0  0.16723  0.22161  0.21687  1.0000
  H   H74       1.0  0.24372  0.04874  0.23259  1.0000
  H   H75       1.0  0.24108  0.16809  0.23104  1.0000
  H   H76       1.0  0.10246  0.46476  0.32837  1.0000
  H   H77       1.0  0.18203  0.34350  0.17468  1.0000
  H   H78       1.0  0.19555  0.35825  0.19287  1.0000
  H   H79       1.0  0.15733  0.35729  0.20374  1.0000
  H   H80       1.0  0.16418  0.45625  0.41436  1.0000
  H   H81       1.0  0.24280  0.17669  0.20266  1.0000
  S   S20       1.0  0.23701  0.27486  0.10738  1.0000
  H   H82       1.0  0.16591  0.18516  0.22972  1.0000
  H   H83       1.0  0.03284  0.30225  0.41185  1.0000
  H   H84       1.0  0.13578  0.46043  0.41658  1.0000
  C   C62       1.0  0.99619  0.25106  0.24363  1.0000
  H   H85       1.0  0.22586  0.16095  0.33802  1.0000
  H   H86       1.0  0.22441  0.19073  0.17557  1.0000
  H   H87       1.0  0.19316  0.20903  0.19167  1.0000
  H   H88       1.0  0.23072  0.31880  0.14557  1.0000
  H   H89       1.0  0.00981  0.30071  0.38529  1.0000
  C   C63       1.0  0.00013  0.37999  0.41832  1.0000
  H   H90       1.0  0.21233  0.16514  0.17839  1.0000
  C   C64       1.0  0.00295  0.39365  0.39958  1.0000
  H   H91       1.0  0.20622  0.19412  0.34826  1.0000
  C   C65       1.0  0.19376  0.19125  0.19445  1.0000
  C   C66       1.0  0.04729  0.31011  0.40487  1.0000
  H   H92       1.0  0.21291  0.06655  0.21606  1.0000
  H   H93       1.0  0.05737  0.33655  0.38339  1.0000
  H   H94       1.0  0.20874  0.28853  0.15112  1.0000
  C   C67       1.0  0.10602  0.45673  0.34441  1.0000
  C   C68       1.0  0.03919  0.31288  0.35671  1.0000
  C   C69       1.0  0.23196  0.29825  0.18513  1.0000
  N   N4        1.0  0.02769  0.32781  0.37233  1.0000
  H   H95       1.0  0.06276  0.30060  0.43426  1.0000
  H   H96       1.0  0.00759  0.25659  0.33554  1.0000
  H   H97       1.0  0.01752  0.43646  0.44412  1.0000
  H   H98       1.0  0.22340  0.25209  0.04231  1.0000
  C   C70       1.0  0.18099  0.19216  0.23262  1.0000
  C   C71       1.0  0.23855  0.33632  0.18217  1.0000
  H   H99       1.0  0.17447  0.11472  0.21404  1.0000
  H   H100      1.0  0.22034  0.02322  0.25292  1.0000
  C   C72       1.0  0.20928  0.18267  0.17613  1.0000
  C   C73       1.0  0.12833  0.48640  0.34763  1.0000
  C   C74       1.0  0.20044  0.18720  0.15401  1.0000
  H   H101      1.0  0.04226  0.29672  0.36486  1.0000
  H   H102      1.0  0.16023  0.24134  0.25012  1.0000
  H   H103      1.0  0.11611  0.45792  0.38397  1.0000
  H   H104      1.0  0.20215  0.11885  0.20701  1.0000
  H   H105      1.0  0.04885  0.39035  0.32994  1.0000
  H   H106      1.0  0.02226  0.32452  0.32788  1.0000
  C   C75       1.0  0.02788  0.30927  0.33624  1.0000
  C   C76       1.0  0.04210  0.36118  0.34961  1.0000
  C   C77       1.0  0.04268  0.29749  0.31974  1.0000
  H   H107      1.0  0.19147  0.11860  0.23501  1.0000
  H   H108      1.0  0.05521  0.31851  0.35145  1.0000
  H   H109      1.0  0.03878  0.22155  0.19964  1.0000
  H   H110      1.0  0.05398  0.36416  0.36095  1.0000
  H   H111      1.0  0.04995  0.35158  0.33656  1.0000
  H   H112      1.0  0.05679  0.30680  0.31454  1.0000
  H   H113      1.0  0.06673  0.39683  0.47975  1.0000
  H   H114      1.0  0.03431  0.29535  0.30511  1.0000
  H   H115      1.0  0.09576  0.49686  0.35963  1.0000
  H   H116      1.0  0.01539  0.36040  0.37381  1.0000
  C   C78       1.0  0.00891  0.43799  0.46035  1.0000
  C   C79       1.0  0.14406  0.45194  0.33433  1.0000
  C   C80       1.0  0.13036  0.45348  0.37308  1.0000
  C   C81       1.0  0.15027  0.45969  0.38339  1.0000
  C   C82       1.0  0.10258  0.43247  0.34361  1.0000
  C   C83       1.0  0.16527  0.46305  0.32896  1.0000
  C   C84       1.0  0.18157  0.44878  0.31629  1.0000
  H   H117      1.0  0.22146  0.36565  0.16875  1.0000
  C   C85       1.0  0.08029  0.42900  0.33748  1.0000
  H   H118      1.0  0.14782  0.43494  0.34003  1.0000
  H   H119      1.0  0.13131  0.43569  0.37397  1.0000
  H   H120      1.0  0.16463  0.45160  0.37551  1.0000
  H   H121      1.0  0.10432  0.42380  0.35962  1.0000
  H   H122      1.0  0.11400  0.42486  0.33153  1.0000
  C   C86       1.0  0.24068  0.29416  0.20779  1.0000
  H   H123      1.0  0.17540  0.44466  0.30097  1.0000
  H   H124      1.0  0.19634  0.45734  0.31215  1.0000
  H   H125      1.0  0.18552  0.43378  0.32620  1.0000
  H   H126      1.0  0.01429  0.29912  0.34080  1.0000
  H   H127      1.0  0.18673  0.30373  0.16399  1.0000
  H   H128      1.0  0.06815  0.43584  0.34945  1.0000
  N   N5        1.0  0.06020  0.18609  0.22649  1.0000
  C   C87       1.0  0.07552  0.19975  0.21243  1.0000
  C   C88       1.0  0.03755  0.19478  0.22444  1.0000
  C   C89       1.0  0.06499  0.18746  0.24980  1.0000
  C   C90       1.0  0.06275  0.16287  0.22142  1.0000
  C   C91       1.0  0.06086  0.15810  0.19757  1.0000
  C   C92       1.0  0.09940  0.19247  0.21265  1.0000
  C   C93       1.0  0.04999  0.17563  0.26726  1.0000
  H   H129      1.0  0.17089  0.21905  0.26617  1.0000
  N   N6        1.0  0.19912  0.18442  0.21728  1.0000
  C   C94       1.0  0.06663  0.13449  0.19411  1.0000
  C   C95       1.0  0.11306  0.20648  0.19648  1.0000
  C   C96       1.0  0.05546  0.17936  0.29014  1.0000
  H   H130      1.0  0.07346  0.21661  0.21717  1.0000
  H   H131      1.0  0.07200  0.20075  0.19519  1.0000
  H   H132      1.0  0.02627  0.18203  0.22932  1.0000
  H   H133      1.0  0.03328  0.20744  0.23598  1.0000
  H   H134      1.0  0.06470  0.20457  0.25373  1.0000
  H   H135      1.0  0.08121  0.18061  0.25247  1.0000
  H   H136      1.0  0.07813  0.15556  0.22660  1.0000
  H   H137      1.0  0.05049  0.15349  0.23112  1.0000
  H   H138      1.0  0.07153  0.16767  0.18612  1.0000
  H   H139      1.0  0.04425  0.16140  0.19344  1.0000
  H   H140      1.0  0.10515  0.19360  0.22887  1.0000
  H   H141      1.0  0.10235  0.17571  0.20811  1.0000
  H   H142      1.0  0.05159  0.15808  0.26569  1.0000
  H   H143      1.0  0.03316  0.18116  0.26595  1.0000
  H   H144      1.0  0.19342  0.30917  0.19769  1.0000
  H   H145      1.0  0.22581  0.17749  0.05915  1.0000
  H   H146      1.0  0.17252  0.34314  0.22414  1.0000
  H   H147      1.0  0.14709  0.21653  0.25239  1.0000
  H   H148      1.0  0.02287  0.38118  0.32754  1.0000
  H   H149      1.0  0.08337  0.13030  0.19747  1.0000
  H   H150      1.0  0.05607  0.12405  0.20486  1.0000
  H   H151      1.0  0.06474  0.13136  0.17700  1.0000
  H   H152      1.0  0.11056  0.22363  0.19991  1.0000
  H   H153      1.0  0.13009  0.20166  0.19779  1.0000
  H   H154      1.0  0.10922  0.20462  0.17961  1.0000
  C   C97       1.0  0.21931  0.18728  0.35794  1.0000
  S   S21       1.0  0.23939  0.22192  0.11346  1.0000
  H   H155      1.0  0.23840  0.13672  0.16131  1.0000
  H   H156      1.0  0.10861  0.44592  0.47975  1.0000
  H   H157      1.0  0.99840  0.26360  0.23081  1.0000
  C   C98       1.0  0.22068  0.05197  0.20904  1.0000
  H   H158      1.0  0.17236  0.46721  0.34365  1.0000
  C   C99       1.0  0.10383  0.45536  0.49404  1.0000
  H   H159      1.0  0.01113  0.34936  0.34940  1.0000
  H   H160      1.0  0.24068  0.18432  0.32972  1.0000
  H   H161      1.0  0.00390  0.32429  0.39949  1.0000
  H   H162      1.0  0.14422  0.49160  0.35031  1.0000
  H   H163      1.0  0.22139  0.09194  0.36674  1.0000
  H   H164      1.0  0.02009  0.44415  0.37965  1.0000
  H   H165      1.0  0.23122  0.12888  0.36765  1.0000
  H   H166      1.0  0.11200  0.49366  0.44001  1.0000
  H   H167      1.0  0.06029  0.49702  0.45300  1.0000
  H   H168      1.0  0.23002  0.20510  0.06376  1.0000
  H   H169      1.0  0.00465  0.23666  0.31657  1.0000
  H   H170      1.0  0.00442  0.21766  0.18547  1.0000
  H   H171      1.0  0.24185  0.35429  0.15042  1.0000
  H   H172      1.0  0.11802  0.46274  0.49883  1.0000
  H   H173      1.0  0.23842  0.34038  0.19936  1.0000
  H   H174      1.0  0.23944  0.25937  0.20883  1.0000
  C   C100      1.0  0.23426  0.19194  0.05284  1.0000
  H   H175      1.0  0.00049  0.19326  0.20227  1.0000
  H   H176      1.0  0.00090  0.21847  0.21451  1.0000
  H   H177      1.0  0.24258  0.08654  0.34631  1.0000
  H   H178      1.0  0.24523  0.13318  0.32817  1.0000
  H   H179      1.0  0.24507  0.29441  0.17272  1.0000
  Fe  Fe11      1.0  0.08756  0.43373  0.62297  1.0000
  S   S22       1.0  0.05840  0.44279  0.60574  1.0000
  S   S23       1.0  0.11122  0.45923  0.62336  1.0000
  Fe  Fe12      1.0  0.07628  0.38726  0.63302  1.0000
  S   S24       1.0  0.04626  0.39284  0.61632  1.0000
  S   S25       1.0  0.08324  0.35260  0.64541  1.0000
  Fe  Fe13      1.0  0.06499  0.41169  0.59003  1.0000
  S   S26       1.0  0.05447  0.41008  0.55617  1.0000
  Fe  Fe14      1.0  0.04191  0.42328  0.63308  1.0000
  S   S27       1.0  0.00893  0.43288  0.64654  1.0000
  S   S28       1.0  0.09575  0.40378  0.60510  1.0000
  S   S29       1.0  0.07051  0.41660  0.65205  1.0000
  H   H180      1.0  0.04439  0.13980  0.73489  1.0000
  S   S30       1.0  0.22896  0.23369  0.90260  1.0000
  H   H181      1.0  0.21294  0.33823  0.72576  1.0000
  S   S31       1.0  0.21471  0.27915  0.85637  1.0000
  H   H182      1.0  0.07024  0.10949  0.74326  1.0000
  H   H183      1.0  0.08296  0.22126  0.70864  1.0000
  Fe  Fe15      1.0  0.22096  0.11764  0.75523  1.0000
  C   C101      1.0  0.22683  0.18390  0.78126  1.0000
  S   S32       1.0  0.18619  0.12949  0.76099  1.0000
  C   C102      1.0  0.06195  0.40262  0.51352  1.0000
  H   H184      1.0  0.07133  0.19602  0.81739  1.0000
  H   H185      1.0  0.20243  0.22385  0.78867  1.0000
  H   H186      1.0  0.12174  0.36819  0.66123  1.0000
  H   H187      1.0  0.23182  0.18620  0.82277  1.0000
  H   H188      1.0  0.02470  0.16929  0.73239  1.0000
  Fe  Fe16      1.0  0.07029  0.24503  0.77524  1.0000
  S   S33       1.0  0.08427  0.25449  0.74151  1.0000
  S   S34       1.0  0.03727  0.23284  0.78564  1.0000
  Fe  Fe17      1.0  0.11044  0.25728  0.79648  1.0000
  S   S35       1.0  0.12621  0.26872  0.76426  1.0000
  S   S36       1.0  0.12512  0.25354  0.82918  1.0000
  Fe  Fe18      1.0  0.09418  0.28349  0.75646  1.0000
  S   S37       1.0  0.08802  0.31825  0.74414  1.0000
  Fe  Fe19      1.0  0.11510  0.23857  0.75239  1.0000
  S   S38       1.0  0.13970  0.21916  0.73171  1.0000
  S   S39       1.0  0.07916  0.27460  0.78989  1.0000
  S   S40       1.0  0.10033  0.22664  0.78477  1.0000
  C   C103      1.0  0.01312  0.23521  0.77267  1.0000
  C   C104      1.0  0.01268  0.23883  0.75017  1.0000
  H   H189      1.0  0.02728  0.24143  0.74024  1.0000
  C   C105      1.0  0.17421  0.15506  0.75334  1.0000
  C   C106      1.0  0.18381  0.16917  0.73745  1.0000
  C   C107      1.0  0.17317  0.18883  0.73118  1.0000
  C   C108      1.0  0.15313  0.19491  0.74113  1.0000
  C   C109      1.0  0.14385  0.18111  0.75752  1.0000
  C   C110      1.0  0.15423  0.16123  0.76339  1.0000
  H   H190      1.0  0.19913  0.16465  0.72954  1.0000
  H   H191      1.0  0.18045  0.19931  0.71841  1.0000
  H   H192      1.0  0.12851  0.18557  0.76538  1.0000
  H   H193      1.0  0.14673  0.15050  0.77579  1.0000
  H   H194      1.0  0.22872  0.21818  0.85321  1.0000
  H   H195      1.0  0.00008  0.33112  0.63500  1.0000
  H   H196      1.0  0.15161  0.37426  0.69653  1.0000
  H   H197      1.0  0.09540  0.17967  0.81136  1.0000
  H   H198      1.0  0.06483  0.15315  0.71769  1.0000
  H   H199      1.0  0.07515  0.16994  0.83121  1.0000
  S   S41       1.0  0.23439  0.08957  0.73636  1.0000
  H   H200      1.0  0.08369  0.19664  0.69499  1.0000
  C   C111      1.0  0.19079  0.27035  0.84781  1.0000
  C   C112      1.0  0.18196  0.28107  0.82964  1.0000
  C   C113      1.0  0.16227  0.27562  0.82321  1.0000
  C   C114      1.0  0.15095  0.25961  0.83516  1.0000
  C   C115      1.0  0.15983  0.24885  0.85326  1.0000
  C   C116      1.0  0.17971  0.25399  0.85938  1.0000
  H   H201      1.0  0.19030  0.29385  0.82063  1.0000
  H   H202      1.0  0.15557  0.28420  0.80939  1.0000
  H   H203      1.0  0.15121  0.23649  0.86266  1.0000
  H   H204      1.0  0.18626  0.24556  0.87327  1.0000
  C   C117      1.0  0.08305  0.34328  0.67308  1.0000
  C   C118      1.0  0.08088  0.35735  0.68969  1.0000
  C   C119      1.0  0.08187  0.34935  0.71143  1.0000
  C   C120      1.0  0.08500  0.32726  0.71678  1.0000
  C   C121      1.0  0.08675  0.31315  0.70021  1.0000
  C   C122      1.0  0.08585  0.32115  0.67845  1.0000
  H   H205      1.0  0.07881  0.37441  0.68576  1.0000
  H   H206      1.0  0.08054  0.36038  0.72415  1.0000
  H   H207      1.0  0.08914  0.29612  0.70412  1.0000
  H   H208      1.0  0.08758  0.31017  0.66568  1.0000
  C   C123      1.0  0.07135  0.40501  0.53275  1.0000
  C   C124      1.0  0.09348  0.40387  0.53251  1.0000
  H   H209      1.0  0.08202  0.48119  0.50355  1.0000
  H   H210      1.0  0.19635  0.22066  0.83234  1.0000
  C   C125      1.0  0.11357  0.49105  0.56088  1.0000
  C   C126      1.0  0.02872  0.46589  0.54241  1.0000
  H   H211      1.0  0.10093  0.40549  0.54730  1.0000
  C   C127      1.0  0.20961  0.34629  0.70973  1.0000
  H   H212      1.0  0.12393  0.34256  0.73137  1.0000
  C   C128      1.0  0.04176  0.46175  0.52105  1.0000
  H   H213      1.0  0.02116  0.47331  0.62742  1.0000
  H   H214      1.0  0.01821  0.42897  0.60060  1.0000
  C   C129      1.0  0.10192  0.48375  0.63404  1.0000
  N   N7        1.0  0.20947  0.19035  0.79818  1.0000
  C   C130      1.0  0.00133  0.43130  0.60397  1.0000
  H   H215      1.0  0.07169  0.47284  0.64728  1.0000
  C   C131      1.0  0.10599  0.40089  0.51287  1.0000
  N   N8        1.0  0.17799  0.29224  0.92168  1.0000
  C   C132      1.0  0.18305  0.30726  0.90197  1.0000
  C   C133      1.0  0.19592  0.29078  0.93646  1.0000
  C   C134      1.0  0.17619  0.27025  0.91373  1.0000
  C   C135      1.0  0.15715  0.29858  0.93378  1.0000
  C   C136      1.0  0.15458  0.32160  0.94140  1.0000
  C   C137      1.0  0.16617  0.31012  0.88512  1.0000
  C   C138      1.0  0.17414  0.25143  0.93146  1.0000
  C   C139      1.0  0.20789  0.31139  0.93821  1.0000
  C   C140      1.0  0.22299  0.30848  0.95627  1.0000
  C   C141      1.0  0.13168  0.32703  0.94991  1.0000
  C   C142      1.0  0.17276  0.32628  0.86646  1.0000
  C   C143      1.0  0.17026  0.23056  0.92153  1.0000
  H   H216      1.0  0.19836  0.30173  0.89339  1.0000
  H   H217      1.0  0.18576  0.32354  0.90656  1.0000
  H   H218      1.0  0.19030  0.28454  0.95313  1.0000
  H   H219      1.0  0.20852  0.27881  0.93082  1.0000
  H   H220      1.0  0.19034  0.26612  0.90257  1.0000
  H   H221      1.0  0.16222  0.27002  0.90410  1.0000
  H   H222      1.0  0.14375  0.29613  0.92390  1.0000
  H   H223      1.0  0.15439  0.28791  0.94874  1.0000
  H   H224      1.0  0.15879  0.33379  0.92814  1.0000
  H   H225      1.0  0.16457  0.32290  0.95502  1.0000
  H   H226      1.0  0.16407  0.29487  0.87786  1.0000
  H   H227      1.0  0.15063  0.31606  0.89267  1.0000
  H   H228      1.0  0.16071  0.25447  0.94366  1.0000
  H   H229      1.0  0.18883  0.24872  0.94002  1.0000
  H   H230      1.0  0.21760  0.31518  0.92277  1.0000
  H   H231      1.0  0.19703  0.32547  0.94138  1.0000
  H   H232      1.0  0.12599  0.48569  0.54835  1.0000
  C   C144      1.0  0.24479  0.01877  0.74980  1.0000
  H   H233      1.0  0.21426  0.30424  0.97216  1.0000
  C   C145      1.0  0.09980  0.45422  0.55892  1.0000
  C   C146      1.0  0.18573  0.35015  0.70817  1.0000
  H   H234      1.0  0.17396  0.34236  0.87249  1.0000
  H   H235      1.0  0.16078  0.32748  0.85432  1.0000
  H   H236      1.0  0.09058  0.12283  0.72593  1.0000
  H   H237      1.0  0.18828  0.32103  0.85825  1.0000
  H   H238      1.0  0.18352  0.22616  0.90954  1.0000
  H   H239      1.0  0.16909  0.21738  0.93450  1.0000
  H   H240      1.0  0.15526  0.23212  0.91338  1.0000
  H   H241      1.0  0.16853  0.24498  0.79097  1.0000
  Fe  Fe20      1.0  0.23685  0.26247  0.88054  1.0000
  C   C147      1.0  0.14243  0.34137  0.69122  1.0000
  H   H242      1.0  0.23174  0.21691  0.76659  1.0000
  S   S42       1.0  0.23723  0.10551  0.78517  1.0000
  C   C148      1.0  0.20426  0.20475  0.83643  1.0000
  C   C149      1.0  0.09378  0.47815  0.55964  1.0000
  H   H243      1.0  0.22314  0.19067  0.86197  1.0000
  C   C150      1.0  0.16132  0.23055  0.78620  1.0000
  H   H244      1.0  0.05866  0.45985  0.52458  1.0000
  H   H245      1.0  0.02896  0.37158  0.69693  1.0000
  H   H246      1.0  0.01800  0.31251  0.69764  1.0000
  H   H247      1.0  0.21723  0.36187  0.70794  1.0000
  H   H248      1.0  0.08531  0.44535  0.55806  1.0000
  H   H249      1.0  0.12668  0.33553  0.68863  1.0000
  Fe  Fe21      1.0  0.24514  0.24876  0.92826  1.0000
  H   H250      1.0  0.24433  0.04809  0.67236  1.0000
  H   H251      1.0  0.19521  0.20590  0.76999  1.0000
  H   H252      1.0  0.03176  0.30396  0.72126  1.0000
  H   H253      1.0  0.18869  0.12742  0.80856  1.0000
  C   C151      1.0  0.14356  0.30746  0.71378  1.0000
  C   C152      1.0  0.19450  0.13339  0.82326  1.0000
  H   H254      1.0  0.10784  0.20667  0.70242  1.0000
  H   H255      1.0  0.03998  0.36700  0.66982  1.0000
  H   H256      1.0  0.04481  0.49469  0.50998  1.0000
  H   H257      1.0  0.01157  0.39321  0.52949  1.0000
  C   C153      1.0  0.02120  0.17996  0.74579  1.0000
  C   C154      1.0  0.02642  0.37474  0.67946  1.0000
  H   H258      1.0  0.14256  0.26264  0.68343  1.0000
  H   H259      1.0  0.18351  0.35873  0.69215  1.0000
  H   H260      1.0  0.03824  0.49334  0.63341  1.0000
  C   C155      1.0  0.01764  0.31339  0.71549  1.0000
  H   H261      1.0  0.18061  0.31858  0.72387  1.0000
  H   H262      1.0  0.00632  0.34853  0.67994  1.0000
  C   C156      1.0  0.13677  0.34324  0.77215  1.0000
  H   H263      1.0  0.03288  0.48109  0.54867  1.0000
  H   H264      1.0  0.08284  0.48004  0.57442  1.0000
  H   H265      1.0  0.20484  0.21204  0.86995  1.0000
  H   H266      1.0  0.21673  0.33626  0.69665  1.0000
  H   H267      1.0  0.14078  0.33509  0.78793  1.0000
  C   C157      1.0  0.17202  0.21027  0.79636  1.0000
  H   H268      1.0  0.02150  0.48100  0.65503  1.0000
  H   H269      1.0  0.12309  0.40040  0.51259  1.0000
  H   H270      1.0  0.02225  0.19671  0.73881  1.0000
  H   H271      1.0  0.19205  0.19303  0.84097  1.0000
  H   H272      1.0  0.11923  0.34426  0.77185  1.0000
  H   H273      1.0  0.02613  0.39232  0.67543  1.0000
  H   H274      1.0  0.13035  0.34340  0.95582  1.0000
  H   H275      1.0  0.08541  0.48323  0.54499  1.0000
  H   H276      1.0  0.14260  0.35965  0.77093  1.0000
  H   H277      1.0  0.14433  0.23131  0.79201  1.0000
  C   C158      1.0  0.14702  0.33042  0.75360  1.0000
  H   H278      1.0  0.99868  0.30440  0.74449  1.0000
  H   H279      1.0  0.14095  0.31416  0.75623  1.0000
  C   C159      1.0  0.14151  0.34120  0.73129  1.0000
  H   H280      1.0  0.03207  0.45266  0.55479  1.0000
  H   H281      1.0  0.11081  0.45100  0.54448  1.0000
  H   H282      1.0  0.22859  0.21267  0.81171  1.0000
  N   N9        1.0  0.06027  0.17471  0.75705  1.0000
  C   C160      1.0  0.06482  0.19034  0.73771  1.0000
  C   C161      1.0  0.03670  0.17544  0.76389  1.0000
  C   C162      1.0  0.07154  0.18186  0.77551  1.0000
  C   C163      1.0  0.06861  0.15218  0.75292  1.0000
  C   C164      1.0  0.06153  0.14263  0.73261  1.0000
  C   C165      1.0  0.08850  0.19218  0.72951  1.0000
  C   C166      1.0  0.06738  0.16925  0.79784  1.0000
  C   C167      1.0  0.21608  0.20658  0.85653  1.0000
  C   C168      1.0  0.19700  0.17083  0.80487  1.0000
  C   C169      1.0  0.07324  0.12097  0.72895  1.0000
  C   C170      1.0  0.09077  0.20499  0.70755  1.0000
  C   C171      1.0  0.07801  0.17938  0.81547  1.0000
  H   H283      1.0  0.05841  0.20672  0.74162  1.0000
  H   H284      1.0  0.05641  0.18649  0.72368  1.0000
  H   H285      1.0  0.03236  0.16033  0.77335  1.0000
  H   H286      1.0  0.03243  0.18839  0.77516  1.0000
  H   H287      1.0  0.06715  0.19903  0.77780  1.0000
  H   H288      1.0  0.08902  0.18077  0.77170  1.0000
  H   H289      1.0  0.08626  0.15099  0.75203  1.0000
  H   H290      1.0  0.06367  0.14093  0.76690  1.0000
  C   C172      1.0  0.00213  0.40772  0.52369  1.0000
  H   H291      1.0  0.09776  0.44450  0.50778  1.0000
  H   H292      1.0  0.09679  0.20064  0.74110  1.0000
  H   H293      1.0  0.09676  0.17627  0.72746  1.0000
  H   H294      1.0  0.07397  0.15247  0.79720  1.0000
  H   H295      1.0  0.05021  0.16906  0.80301  1.0000
  C   C173      1.0  0.03820  0.48056  0.50364  1.0000
  H   H296      1.0  0.00524  0.42106  0.53358  1.0000
  C   C174      1.0  0.19562  0.20803  0.78767  1.0000
  H   H297      1.0  0.01211  0.35903  0.60682  1.0000
  H   H298      1.0  0.16350  0.19649  0.79198  1.0000
  H   H299      1.0  0.23543  0.29565  0.95275  1.0000
  C   C175      1.0  0.13498  0.37570  0.66780  1.0000
  H   H300      1.0  0.02082  0.48448  0.50384  1.0000
  H   H301      1.0  0.12360  0.27125  0.70480  1.0000
  H   H302      1.0  0.11991  0.48547  0.57666  1.0000
  C   C176      1.0  0.00216  0.36937  0.65016  1.0000
  H   H303      1.0  0.13715  0.30175  0.68023  1.0000
  H   H304      1.0  0.21444  0.15686  0.83232  1.0000
  C   C177      1.0  0.13845  0.36614  0.69071  1.0000
  C   C178      1.0  0.14049  0.27152  0.69837  1.0000
  H   H305      1.0  0.18261  0.17476  0.81556  1.0000
  H   H306      1.0  0.12665  0.31553  0.96361  1.0000
  H   H307      1.0  0.17966  0.36052  0.72129  1.0000
  H   H308      1.0  0.15299  0.33727  0.67664  1.0000
  H   H309      1.0  0.14956  0.37329  0.65680  1.0000
  C   C179      1.0  0.00558  0.36579  0.67467  1.0000
  H   H310      1.0  0.16270  0.23050  0.76825  1.0000
  C   C180      1.0  0.99824  0.17735  0.75481  1.0000
  H   H311      1.0  0.01655  0.36218  0.64129  1.0000
  C   C181      1.0  0.14695  0.29455  0.69319  1.0000
  H   H312      1.0  0.16376  0.29382  0.68663  1.0000
  S   S43       1.0  0.22848  0.24983  0.96268  1.0000
  H   H313      1.0  0.01150  0.46658  0.54018  1.0000
  H   H314      1.0  0.15051  0.26311  0.71056  1.0000
  H   H315      1.0  0.01879  0.33030  0.71929  1.0000
  H   H316      1.0  0.20351  0.11998  0.83171  1.0000
  H   H317      1.0  0.10741  0.44806  0.57382  1.0000
  H   H318      1.0  0.12085  0.32663  0.93680  1.0000
  H   H319      1.0  0.12639  0.30743  0.71913  1.0000
  H   H320      1.0  0.21983  0.17673  0.76775  1.0000
  C   C182      1.0  0.20892  0.15188  0.81706  1.0000
  H   H321      1.0  0.04497  0.40313  0.51357  1.0000
  N   N10       1.0  0.15077  0.33013  0.71151  1.0000
  H   H322      1.0  0.13090  0.39317  0.66814  1.0000
  H   H323      1.0  0.19097  0.16470  0.79034  1.0000
  C   C183      1.0  0.23956  0.24851  0.98831  1.0000
  C   C184      1.0  0.24109  0.20205  0.77135  1.0000
  H   H324      1.0  0.18071  0.13859  0.83430  1.0000
  H   H325      1.0  0.00734  0.41200  0.50649  1.0000
  C   C185      1.0  0.21961  0.19825  0.81696  1.0000
  H   H326      1.0  0.18102  0.32035  0.69536  1.0000
  C   C186      1.0  0.02251  0.48686  0.63764  1.0000
  H   H327      1.0  0.00264  0.38688  0.64573  1.0000
  H   H328      1.0  0.22271  0.14550  0.80687  1.0000
  C   C187      1.0  0.08169  0.48630  0.64474  1.0000
  H   H329      1.0  0.15174  0.29776  0.72670  1.0000
  H   H330      1.0  0.03744  0.44623  0.51584  1.0000
  H   H331      1.0  0.12393  0.37022  0.70131  1.0000
  H   H332      1.0  0.16991  0.21101  0.81418  1.0000
  C   C188      1.0  0.17468  0.32873  0.70991  1.0000
  H   H333      1.0  0.06761  0.11420  0.71456  1.0000
  H   H334      1.0  0.14619  0.35795  0.73081  1.0000
  H   H335      1.0  0.16439  0.32929  0.75490  1.0000
  H   H336      1.0  0.23747  0.03329  0.74252  1.0000
  H   H337      1.0  0.99732  0.28735  0.72245  1.0000
  C   C189      1.0  0.99746  0.30417  0.72676  1.0000
  H   H338      1.0  0.23094  0.32358  0.95743  1.0000
  H   H339      1.0  0.00354  0.36422  0.56745  1.0000
  H   H340      1.0  0.00300  0.38829  0.58148  1.0000
  H   H341      1.0  0.23650  0.04445  0.70116  1.0000
  H   H342      1.0  0.23782  0.17120  0.78802  1.0000
  H   H343      1.0  0.24153  0.07077  0.68880  1.0000
  H   H344      1.0  0.24413  0.19186  0.73830  1.0000
  Fe  Fe22      1.0  0.09007  0.61699  0.44803  1.0000
  S   S44       1.0  0.11089  0.60036  0.42260  1.0000
  S   S45       1.0  0.10045  0.63655  0.47379  1.0000
  Fe  Fe23      1.0  0.04979  0.60325  0.43211  1.0000
  S   S46       1.0  0.06700  0.58513  0.40529  1.0000
  S   S47       1.0  0.01490  0.60697  0.44224  1.0000
  Fe  Fe24      1.0  0.08928  0.57317  0.43024  1.0000
  S   S48       1.0  0.10214  0.53896  0.43687  1.0000
  Fe  Fe25      1.0  0.08695  0.61380  0.39953  1.0000
  S   S49       1.0  0.09627  0.62569  0.36461  1.0000
  S   S50       1.0  0.07042  0.58899  0.45755  1.0000
  S   S51       1.0  0.06797  0.63276  0.42443  1.0000
  H   H345      1.0  0.15581  0.85830  0.34234  1.0000
  Fe  Fe26      1.0  0.22822  0.73477  0.12408  1.0000
  H   H346      1.0  0.02273  0.73806  0.33983  1.0000
  S   S52       1.0  0.19317  0.74068  0.13549  1.0000
  H   H347      1.0  0.02228  0.77663  0.32766  1.0000
  H   H348      1.0  0.07665  0.80788  0.18593  1.0000
  C   C190      1.0  0.04424  0.68017  0.29628  1.0000
  H   H349      1.0  0.14933  0.73414  0.34513  1.0000
  H   H350      1.0  0.02769  0.62086  0.48980  1.0000
  C   C191      1.0  0.16086  0.93049  0.30246  1.0000
  H   H351      1.0  0.01510  0.65984  0.49845  1.0000
  S   S53       1.0  0.22966  0.88416  0.24039  1.0000
  S   S54       1.0  0.21797  0.84346  0.29183  1.0000
  C   C192      1.0  0.23660  0.96994  0.25596  1.0000
  H   H352      1.0  0.04623  0.74740  0.29504  1.0000
  H   H353      1.0  0.23922  0.76015  0.20558  1.0000
  Fe  Fe27      1.0  0.11793  0.77755  0.26926  1.0000
  S   S55       1.0  0.13502  0.74674  0.28033  1.0000
  S   S56       1.0  0.13089  0.81104  0.26520  1.0000
  Fe  Fe28      1.0  0.07863  0.75385  0.25811  1.0000
  S   S57       1.0  0.09397  0.72148  0.26711  1.0000
  S   S58       1.0  0.04512  0.76191  0.24734  1.0000
  Fe  Fe29      1.0  0.10344  0.73680  0.29618  1.0000
  S   S59       1.0  0.09521  0.72399  0.33104  1.0000
  Fe  Fe30      1.0  0.12422  0.73430  0.25015  1.0000
  S   S60       1.0  0.14909  0.71507  0.22968  1.0000
  S   S61       1.0  0.08717  0.76892  0.28770  1.0000
  S   S62       1.0  0.10801  0.76530  0.23866  1.0000
  H   H354      1.0  0.15303  0.65785  0.43802  1.0000
  H   H355      1.0  0.03630  0.71617  0.25092  1.0000
  H   H356      1.0  0.04675  0.68733  0.34096  1.0000
  H   H357      1.0  0.06164  0.65788  0.27520  1.0000
  H   H358      1.0  0.03837  0.67433  0.38020  1.0000
  H   H359      1.0  0.05041  0.54344  0.47470  1.0000
  C   C193      1.0  0.19462  0.83371  0.28308  1.0000
  C   C194      1.0  0.18679  0.81453  0.29292  1.0000
  C   C195      1.0  0.16768  0.80696  0.28716  1.0000
  C   C196      1.0  0.15589  0.81883  0.27186  1.0000
  C   C197      1.0  0.16376  0.83800  0.26203  1.0000
  C   C198      1.0  0.18308  0.84529  0.26744  1.0000
  H   H360      1.0  0.19548  0.80553  0.30519  1.0000
  H   H361      1.0  0.16177  0.79226  0.29497  1.0000
  H   H362      1.0  0.15478  0.84731  0.25018  1.0000
  H   H363      1.0  0.18891  0.86002  0.25973  1.0000
  C   C199      1.0  0.03656  0.65900  0.46984  1.0000
  H   H364      1.0  0.05502  0.50804  0.39011  1.0000
  H   H365      1.0  0.00355  0.69373  0.30877  1.0000
  H   H366      1.0  0.04445  0.71404  0.28825  1.0000
  C   C200      1.0  0.18179  0.73427  0.16224  1.0000
  C   C201      1.0  0.19070  0.71796  0.17583  1.0000
  C   C202      1.0  0.18059  0.71247  0.19647  1.0000
  C   C203      1.0  0.16168  0.72345  0.20398  1.0000
  C   C204      1.0  0.15297  0.74009  0.19059  1.0000
  C   C205      1.0  0.16286  0.74529  0.16975  1.0000
  H   H367      1.0  0.20511  0.70918  0.17022  1.0000
  H   H368      1.0  0.18740  0.69950  0.20662  1.0000
  H   H369      1.0  0.13847  0.74870  0.19615  1.0000
  H   H370      1.0  0.15583  0.75792  0.15937  1.0000
  C   C206      1.0  0.01158  0.62955  0.35541  1.0000
  H   H371      1.0  0.05149  0.53906  0.44618  1.0000
  Fe  Fe31      1.0  0.23910  0.86645  0.27098  1.0000
  C   C207      1.0  0.22654  0.94413  0.32017  1.0000
  C   C208      1.0  0.10584  0.62187  0.49820  1.0000
  H   H372      1.0  0.02751  0.55002  0.45972  1.0000
  H   H373      1.0  0.19351  0.91729  0.32732  1.0000
  H   H374      1.0  0.10382  0.53179  0.37095  1.0000
  N   N11       1.0  0.02870  0.71027  0.32069  1.0000
  C   C209      1.0  0.09425  0.65291  0.35484  1.0000
  C   C210      1.0  0.08506  0.66879  0.36790  1.0000
  C   C211      1.0  0.08521  0.69049  0.36023  1.0000
  C   C212      1.0  0.09423  0.69647  0.33934  1.0000
  C   C213      1.0  0.10273  0.68056  0.32598  1.0000
  C   C214      1.0  0.10278  0.65887  0.33374  1.0000
  H   H375      1.0  0.07833  0.66437  0.38411  1.0000
  H   H376      1.0  0.07856  0.70273  0.37065  1.0000
  H   H377      1.0  0.10979  0.68499  0.30988  1.0000
  H   H378      1.0  0.10988  0.64666  0.32350  1.0000
  H   H379      1.0  0.14300  0.96919  0.31826  1.0000
  H   H380      1.0  0.02482  0.58326  0.40414  1.0000
  H   H381      1.0  0.00150  0.77704  0.24689  1.0000
  C   C215      1.0  0.03368  0.73234  0.32632  1.0000
  C   C216      1.0  0.19820  0.77430  0.05420  1.0000
  C   C217      1.0  0.09179  0.51798  0.42444  1.0000
  C   C218      1.0  0.17587  0.89347  0.29991  1.0000
  H   H382      1.0  0.14154  0.70977  0.33530  1.0000
  C   C219      1.0  0.10225  0.68614  0.21940  1.0000
  H   H383      1.0  0.11379  0.70605  0.19196  1.0000
  H   H384      1.0  0.11835  0.68267  0.22501  1.0000
  H   H385      1.0  0.09073  0.68679  0.23388  1.0000
  H   H386      1.0  0.09865  0.67285  0.20966  1.0000
  C   C220      1.0  0.17348  0.91371  0.25591  1.0000
  C   C221      1.0  0.17906  0.92388  0.23313  1.0000
  C   C222      1.0  0.16095  0.86318  0.32520  1.0000
  H   H387      1.0  0.20399  0.91219  0.26913  1.0000
  H   H388      1.0  0.18981  0.88312  0.29402  1.0000
  H   H389      1.0  0.16264  0.88980  0.29035  1.0000
  H   H390      1.0  0.17525  0.89607  0.25498  1.0000
  H   H391      1.0  0.15660  0.91803  0.26071  1.0000
  H   H392      1.0  0.17681  0.94161  0.23290  1.0000
  H   H393      1.0  0.19580  0.91952  0.22760  1.0000
  H   H394      1.0  0.16865  0.91805  0.22158  1.0000
  H   H395      1.0  0.14716  0.86286  0.31536  1.0000
  H   H396      1.0  0.17351  0.85134  0.31943  1.0000
  N   N12       1.0  0.21874  0.80026  0.22047  1.0000
  C   C223      1.0  0.22308  0.79173  0.19832  1.0000
  C   C224      1.0  0.21596  0.82446  0.21855  1.0000
  H   H397      1.0  0.14114  0.82557  0.06722  1.0000
  C   C225      1.0  0.19994  0.79056  0.23319  1.0000
  C   C226      1.0  0.17905  0.79171  0.22187  1.0000
  H   H398      1.0  0.00847  0.62256  0.37231  1.0000
  H   H399      1.0  0.11340  0.52928  0.34301  1.0000
  C   C227      1.0  0.20382  0.83497  0.19942  1.0000
  C   C228      1.0  0.19821  0.85873  0.20207  1.0000
  C   C229      1.0  0.16431  0.77488  0.23222  1.0000
  H   H400      1.0  0.02446  0.51188  0.45374  1.0000
  H   H401      1.0  0.18360  0.77319  0.04565  1.0000
  C   C230      1.0  0.22696  0.76049  0.17455  1.0000
  H   H402      1.0  0.21076  0.79750  0.18734  1.0000
  H   H403      1.0  0.20803  0.83034  0.23381  1.0000
  H   H404      1.0  0.23168  0.83166  0.21667  1.0000
  H   H405      1.0  0.23966  0.93394  0.31254  1.0000
  H   H406      1.0  0.19749  0.72997  0.06052  1.0000
  H   H407      1.0  0.20398  0.77354  0.23851  1.0000
  H   H408      1.0  0.19602  0.79848  0.24859  1.0000
  H   H409      1.0  0.18141  0.78885  0.20444  1.0000
  H   H410      1.0  0.17072  0.80769  0.22368  1.0000
  H   H411      1.0  0.13804  0.98227  0.29219  1.0000
  H   H412      1.0  0.21078  0.75957  0.20609  1.0000
  H   H413      1.0  0.22477  0.79718  0.26647  1.0000
  C   C231      1.0  0.02427  0.70267  0.36299  1.0000
  H   H414      1.0  0.21397  0.83378  0.18396  1.0000
  H   H415      1.0  0.18894  0.82720  0.19782  1.0000
  H   H416      1.0  0.21285  0.86752  0.20212  1.0000
  H   H417      1.0  0.18939  0.86564  0.18824  1.0000
  H   H418      1.0  0.17150  0.75850  0.23002  1.0000
  H   H419      1.0  0.16090  0.77693  0.24981  1.0000
  H   H420      1.0  0.14929  0.77667  0.22425  1.0000
  H   H421      1.0  0.02032  0.69077  0.39681  1.0000
  C   C232      1.0  0.15112  0.82525  0.08113  1.0000
  S   S63       1.0  0.23127  0.94584  0.24452  1.0000
  C   C233      1.0  0.13988  0.96644  0.30136  1.0000
  H   H422      1.0  0.11040  0.59133  0.48422  1.0000
  S   S64       1.0  0.24108  0.71736  0.09464  1.0000
  H   H423      1.0  0.08822  0.52300  0.49702  1.0000
  C   C234      1.0  0.04128  0.53839  0.46164  1.0000
  C   C235      1.0  0.11005  0.59968  0.49890  1.0000
  H   H424      1.0  0.04492  0.66814  0.31030  1.0000
  C   C236      1.0  0.23875  0.73691  0.02674  1.0000
  H   H425      1.0  0.16812  0.71139  0.34335  1.0000
  H   H426      1.0  0.15762  0.84123  0.08170  1.0000
  H   H427      1.0  0.00881  0.71190  0.36393  1.0000
  C   C237      1.0  0.22918  0.73252  0.00794  1.0000
  H   H428      1.0  0.18352  0.88440  0.33347  1.0000
  C   C238      1.0  0.06272  0.67451  0.27986  1.0000
  H   H429      1.0  0.22351  0.93853  0.33751  1.0000
  C   C239      1.0  0.19839  0.92062  0.30982  1.0000
  C   C240      1.0  0.16952  0.88553  0.32378  1.0000
  H   H430      1.0  0.01181  0.72549  0.17525  1.0000
  H   H431      1.0  0.07809  0.67553  0.28697  1.0000
  H   H432      1.0  0.06149  0.70490  0.30861  1.0000
  H   H433      1.0  0.05082  0.77205  0.32413  1.0000
  H   H434      1.0  0.15477  0.95176  0.27347  1.0000
  H   H435      1.0  0.15711  0.89646  0.33141  1.0000
  H   H436      1.0  0.21215  0.90918  0.30600  1.0000
  C   C241      1.0  0.03313  0.75026  0.30767  1.0000
  C   C242      1.0  0.00794  0.58568  0.40674  1.0000
  C   C243      1.0  0.02132  0.74789  0.24935  1.0000
  H   H437      1.0  0.03829  0.75198  0.20148  1.0000
  H   H438      1.0  0.23218  0.78907  0.07029  1.0000
  C   C244      1.0  0.01491  0.73999  0.18347  1.0000
  H   H439      1.0  0.05871  0.77609  0.17902  1.0000
  H   H440      1.0  0.17742  0.68480  0.44735  1.0000
  C   C245      1.0  0.20654  0.94350  0.30816  1.0000
  H   H441      1.0  0.21058  0.94948  0.29118  1.0000
  H   H442      1.0  0.15973  0.93253  0.32022  1.0000
  H   H443      1.0  0.03584  0.72351  0.20510  1.0000
  H   H444      1.0  0.12640  0.71172  0.13807  1.0000
  C   C246      1.0  0.21511  0.80459  0.03384  1.0000
  H   H445      1.0  0.11387  0.52216  0.48209  1.0000
  H   H446      1.0  0.17093  0.74101  0.06769  1.0000
  C   C247      1.0  0.02322  0.68425  0.38059  1.0000
  H   H447      1.0  0.02944  0.67851  0.28839  1.0000
  H   H448      1.0  0.04973  0.73171  0.33248  1.0000
  H   H449      1.0  0.08510  0.77541  0.16575  1.0000
  C   C248      1.0  0.16907  0.80789  0.07913  1.0000
  H   H450      1.0  0.02656  0.64967  0.46056  1.0000
  C   C249      1.0  0.08106  0.79236  0.19468  1.0000
  C   C250      1.0  0.19618  0.76025  0.07592  1.0000
  H   H451      1.0  0.23664  0.82089  0.25401  1.0000
  H   H452      1.0  0.17285  0.80961  0.04454  1.0000
  C   C251      1.0  0.03018  0.69430  0.34019  1.0000
  C   C252      1.0  0.00218  0.71519  0.25107  1.0000
  H   H453      1.0  0.05307  0.74657  0.16172  1.0000
  C   C253      1.0  0.99891  0.59703  0.42409  1.0000
  H   H454      1.0  0.07798  0.70812  0.14424  1.0000
  H   H455      1.0  0.12482  0.95826  0.30153  1.0000
  H   H456      1.0  0.21313  0.76705  0.16586  1.0000
  H   H457      1.0  0.00753  0.71913  0.29553  1.0000
  C   C254      1.0  0.15825  0.95310  0.29054  1.0000
  C   C255      1.0  0.04534  0.70335  0.30328  1.0000
  H   H458      1.0  0.17815  0.80806  0.09359  1.0000
  C   C256      1.0  0.18318  0.81164  0.05774  1.0000
  C   C257      1.0  0.22565  0.98917  0.24921  1.0000
  H   H459      1.0  0.00463  0.53191  0.42429  1.0000
  C   C258      1.0  0.18730  0.73869  0.07284  1.0000
  H   H460      1.0  0.02304  0.51616  0.48229  1.0000
  H   H461      1.0  0.21212  0.75688  0.08195  1.0000
  H   H462      1.0  0.18597  0.76799  0.08878  1.0000
  H   H463      1.0  0.01792  0.75129  0.30001  1.0000
  H   H464      1.0  0.07205  0.79163  0.21089  1.0000
  H   H465      1.0  0.24030  0.77642  0.23543  1.0000
  H   H466      1.0  0.17266  0.96222  0.29012  1.0000
  H   H467      1.0  0.00223  0.74226  0.19678  1.0000
  H   H468      1.0  0.16158  0.79235  0.07932  1.0000
  H   H469      1.0  0.21821  0.71989  0.00880  1.0000
  H   H470      1.0  0.03659  0.71329  0.36695  1.0000
  C   C259      1.0  0.03171  0.65431  0.49423  1.0000
  H   H471      1.0  0.19439  0.95466  0.31587  1.0000
  H   H472      1.0  0.18811  0.86100  0.21735  1.0000
  H   H473      1.0  0.00248  0.69788  0.25186  1.0000
  H   H474      1.0  0.09797  0.75162  0.19711  1.0000
  H   H475      1.0  0.17336  0.64663  0.41986  1.0000
  N   N13       1.0  0.14142  0.67414  0.39625  1.0000
  C   C260      1.0  0.13840  0.65056  0.39514  1.0000
  C   C261      1.0  0.12161  0.68473  0.40701  1.0000
  C   C262      1.0  0.14411  0.68389  0.37317  1.0000
  C   C263      1.0  0.16066  0.67834  0.40779  1.0000
  C   C264      1.0  0.15543  0.63846  0.38036  1.0000
  C   C265      1.0  0.14371  0.70870  0.37033  1.0000
  C   C266      1.0  0.11396  0.67575  0.43006  1.0000
  C   C267      1.0  0.09229  0.68614  0.43734  1.0000
  C   C268      1.0  0.15469  0.61420  0.38450  1.0000
  C   C269      1.0  0.15117  0.71638  0.34711  1.0000
  H   H476      1.0  0.12277  0.64829  0.38906  1.0000
  H   H477      1.0  0.13760  0.64201  0.41146  1.0000
  H   H478      1.0  0.12364  0.70204  0.40849  1.0000
  H   H479      1.0  0.10829  0.68409  0.39665  1.0000
  H   H480      1.0  0.13152  0.67876  0.36351  1.0000
  H   H481      1.0  0.15939  0.67789  0.36492  1.0000
  H   H482      1.0  0.17506  0.67907  0.39617  1.0000
  H   H483      1.0  0.15257  0.64242  0.36304  1.0000
  H   H484      1.0  0.17161  0.64305  0.38286  1.0000
  H   H485      1.0  0.15405  0.71520  0.38151  1.0000
  H   H486      1.0  0.12725  0.71557  0.37361  1.0000
  H   H487      1.0  0.11222  0.65824  0.43078  1.0000
  H   H488      1.0  0.12510  0.67947  0.44190  1.0000
  H   H489      1.0  0.08014  0.68219  0.42662  1.0000
  H   H490      1.0  0.08738  0.67998  0.45416  1.0000
  H   H491      1.0  0.09299  0.70381  0.43713  1.0000
  H   H492      1.0  0.15771  0.60915  0.40156  1.0000
  H   H493      1.0  0.13901  0.60892  0.38104  1.0000
  H   H494      1.0  0.16704  0.60617  0.37361  1.0000
  H   H495      1.0  0.14094  0.82190  0.09635  1.0000
  H   H496      1.0  0.06973  0.53814  0.40650  1.0000
  H   H497      1.0  0.06224  0.68552  0.26501  1.0000
  H   H498      1.0  0.15873  0.69448  0.41434  1.0000
  C   C270      1.0  0.10153  0.70745  0.20571  1.0000
  C   C271      1.0  0.11560  0.52311  0.35998  1.0000
  H   H499      1.0  0.09830  0.79179  0.19680  1.0000
  C   C272      1.0  0.18826  0.92074  0.27246  1.0000
  C   C273      1.0  0.16674  0.66182  0.42651  1.0000
  H   H500      1.0  0.19807  0.67369  0.42865  1.0000
  H   H501      1.0  0.10592  0.72008  0.21583  1.0000
  H   H502      1.0  0.07350  0.69857  0.19122  1.0000
  C   C274      1.0  0.03585  0.77216  0.31603  1.0000
  H   H503      1.0  0.09704  0.69579  0.16189  1.0000
  C   C275      1.0  0.02140  0.72551  0.25074  1.0000
  C   C276      1.0  0.07569  0.52192  0.41038  1.0000
  C   C277      1.0  0.07906  0.71293  0.19810  1.0000
  H   H504      1.0  0.06855  0.71506  0.21321  1.0000
  C   C278      1.0  0.07579  0.77389  0.18170  1.0000
  C   C279      1.0  0.18362  0.67010  0.43941  1.0000
  H   H505      1.0  0.08923  0.74437  0.15057  1.0000
  H   H506      1.0  0.18804  0.65772  0.45226  1.0000
  H   H507      1.0  0.05156  0.71872  0.16773  1.0000
  H   H508      1.0  0.19121  0.93783  0.26830  1.0000
  H   H509      1.0  0.14637  0.92220  0.29974  1.0000
  H   H510      1.0  0.03651  0.78446  0.30216  1.0000
  H   H511      1.0  0.23163  0.96082  0.31929  1.0000
  H   H512      1.0  0.10893  0.73343  0.16726  1.0000
  H   H513      1.0  0.10737  0.72406  0.12010  1.0000
  C   C280      1.0  0.00730  0.71028  0.31176  1.0000
  C   C281      1.0  0.09260  0.73104  0.16288  1.0000
  N   N14       1.0  0.07682  0.73239  0.18246  1.0000
  H   H514      1.0  0.07220  0.75172  0.21022  1.0000
  H   H515      1.0  0.18687  0.82883  0.05577  1.0000
  N   N15       1.0  0.18062  0.91686  0.29606  1.0000
  C   C282      1.0  0.08097  0.75191  0.19391  1.0000
  C   C283      1.0  0.03643  0.73740  0.19295  1.0000
  C   C284      1.0  0.05471  0.73377  0.17501  1.0000
  H   H516      1.0  0.11081  0.69530  0.12373  1.0000
  C   C285      1.0  0.09335  0.71009  0.15094  1.0000
  C   C286      1.0  0.11053  0.71040  0.13207  1.0000
  H   H517      1.0  0.22743  0.74280  0.17478  1.0000
  H   H518      1.0  0.01420  0.75425  0.17174  1.0000
  H   H519      1.0  0.18687  0.72871  0.08844  1.0000
  C   C287      1.0  0.22498  0.76702  0.19782  1.0000
  H   H520      1.0  0.13169  0.52652  0.36412  1.0000
  C   C288      1.0  0.23895  0.82252  0.09413  1.0000
  N   N16       1.0  0.20322  0.79749  0.05512  1.0000
  C   C289      1.0  0.00178  0.75972  0.24825  1.0000
  H   H521      1.0  0.02411  0.64116  0.35528  1.0000
  H   H522      1.0  0.06425  0.50665  0.47840  1.0000
  C   C290      1.0  0.03369  0.51580  0.46718  1.0000
  H   H523      1.0  0.01758  0.61656  0.34485  1.0000
  H   H524      1.0  0.21024  0.79399  0.08902  1.0000
  H   H525      1.0  0.21104  0.76574  0.04437  1.0000
  H   H526      1.0  0.21433  0.98899  0.23715  1.0000
  H   H527      1.0  0.03330  0.67631  0.46546  1.0000
  H   H528      1.0  0.01008  0.67394  0.37837  1.0000
  C   C291      1.0  0.06731  0.50483  0.40119  1.0000
  H   H529      1.0  0.05354  0.65485  0.46517  1.0000
  H   H530      1.0  0.02048  0.68042  0.33855  1.0000
  H   H531      1.0  0.05321  0.62668  0.49631  1.0000
  H   H532      1.0  0.00217  0.56844  0.37928  1.0000
  C   C292      1.0  0.23805  0.80315  0.25532  1.0000
  H   H533      1.0  0.23510  0.72772  0.04191  1.0000
  C   C293      1.0  0.10475  0.52775  0.49692  1.0000
  H   H534      1.0  0.10473  0.54550  0.49612  1.0000
  H   H535      1.0  0.23793  0.79808  0.19024  1.0000
  C   C294      1.0  0.05257  0.49904  0.46957  1.0000
  C   C295      1.0  0.23807  0.79411  0.23271  1.0000
  C   C296      1.0  0.21759  0.79968  0.07294  1.0000
  H   H536      1.0  0.21086  0.83377  0.07894  1.0000
  H   H537      1.0  0.21661  0.82224  0.03261  1.0000
  H   H538      1.0  0.24167  0.76628  0.16568  1.0000
  H   H539      1.0  0.20700  0.78157  0.01096  1.0000
  C   C297      1.0  0.20546  0.79909  0.01281  1.0000
  H   H540      1.0  0.18846  0.80430  0.01282  1.0000
  C   C298      1.0  0.22473  0.82252  0.07542  1.0000
  H   H541      1.0  0.23039  0.81693  0.10971  1.0000
  H   H542      1.0  0.23167  0.79735  0.03301  1.0000
  H   H543      1.0  0.23401  0.82870  0.06054  1.0000
  H   H544      1.0  0.24384  0.83900  0.09565  1.0000
  S   S65       1.0  0.24403  0.76517  0.11239  1.0000
  C   C299      1.0  0.11235  0.49909  0.36295  1.0000
  Fe  Fe32      1.0  0.08426  0.57894  0.63689  1.0000
  S   S66       1.0  0.11530  0.59360  0.62600  1.0000
  S   S67       1.0  0.07752  0.54893  0.65830  1.0000
  Fe  Fe33      1.0  0.05870  0.61237  0.61041  1.0000
  S   S68       1.0  0.08728  0.62942  0.59700  1.0000
  S   S69       1.0  0.02662  0.62606  0.60214  1.0000
  Fe  Fe34      1.0  0.10268  0.59673  0.59291  1.0000
  S   S70       1.0  0.11899  0.58420  0.56219  1.0000
  Fe  Fe35      1.0  0.09707  0.62532  0.63122  1.0000
  S   S71       1.0  0.10680  0.65670  0.64250  1.0000
  S   S72       1.0  0.07316  0.57994  0.60362  1.0000
  S   S73       1.0  0.06713  0.61037  0.64479  1.0000
  H   H545      1.0  0.14349  0.51703  0.54786  1.0000
  Fe  Fe36      1.0  0.23156  0.87542  0.74797  1.0000
  C   C300      1.0  0.21692  0.80999  0.99264  1.0000
  S   S74       1.0  0.19900  0.86086  0.75293  1.0000
  H   H546      1.0  0.03116  0.65632  0.63381  1.0000
  H   H547      1.0  0.07425  0.57285  0.50975  1.0000
  H   H548      1.0  0.18764  0.74758  0.74365  1.0000
  H   H549      1.0  0.00491  0.79461  0.80848  1.0000
  H   H550      1.0  0.03783  0.67952  0.64655  1.0000
  H   H551      1.0  0.06698  0.53965  0.56740  1.0000
  H   H552      1.0  0.21389  0.73529  0.74572  1.0000
  H   H553      1.0  0.06023  0.79221  0.85775  1.0000
  Fe  Fe37      1.0  0.22935  0.73897  0.88136  1.0000
  S   S75       1.0  0.21788  0.76564  0.90242  1.0000
  S   S76       1.0  0.21261  0.72508  0.85482  1.0000
  H   H554      1.0  0.02727  0.57480  0.52645  1.0000
  C   C301      1.0  0.02176  0.67100  0.74371  1.0000
  H   H555      1.0  0.11869  0.74484  0.67448  1.0000
  S   S77       1.0  0.22059  0.73887  0.96498  1.0000
  H   H556      1.0  0.17355  0.88044  0.70801  1.0000
  H   H557      1.0  0.12631  0.73069  0.65038  1.0000
  Fe  Fe38      1.0  0.08261  0.75754  0.75047  1.0000
  S   S78       1.0  0.08927  0.72895  0.77325  1.0000
  S   S79       1.0  0.04907  0.77062  0.74359  1.0000
  Fe  Fe39      1.0  0.13055  0.76315  0.73817  1.0000
  S   S80       1.0  0.13987  0.73381  0.75922  1.0000
  S   S81       1.0  0.15785  0.78023  0.71912  1.0000
  Fe  Fe40      1.0  0.11278  0.71860  0.74624  1.0000
  S   S82       1.0  0.11408  0.68390  0.73784  1.0000
  Fe  Fe41      1.0  0.11576  0.74697  0.78397  1.0000
  S   S83       1.0  0.12197  0.75030  0.81921  1.0000
  S   S84       1.0  0.10539  0.74660  0.72301  1.0000
  S   S85       1.0  0.10715  0.77694  0.76333  1.0000
  C   C302      1.0  0.02427  0.75826  0.74705  1.0000
  H   H558      1.0  0.03500  0.73043  0.76635  1.0000
  C   C303      1.0  0.02162  0.73868  0.75908  1.0000
  S   S86       1.0  0.24541  0.95471  0.74093  1.0000
  C   C304      1.0  0.18731  0.73260  0.84542  1.0000
  C   C305      1.0  0.18131  0.72307  0.82723  1.0000
  C   C306      1.0  0.16141  0.72832  0.81914  1.0000
  C   C307      1.0  0.14722  0.74330  0.82906  1.0000
  C   C308      1.0  0.15311  0.75273  0.84739  1.0000
  C   C309      1.0  0.17309  0.74751  0.85548  1.0000
  H   H559      1.0  0.19211  0.71143  0.81941  1.0000
  H   H560      1.0  0.15703  0.72067  0.80525  1.0000
  H   H561      1.0  0.14221  0.76420  0.85533  1.0000
  H   H562      1.0  0.17742  0.75486  0.86958  1.0000
  H   H563      1.0  0.18936  0.70907  0.73675  1.0000
  C   C310      1.0  0.04461  0.60330  0.53007  1.0000
  C   C311      1.0  0.03268  0.78370  0.87819  1.0000
  H   H564      1.0  0.17662  0.90859  0.70108  1.0000
  H   H565      1.0  0.06467  0.56412  0.53706  1.0000
  H   H566      1.0  0.01857  0.81007  0.76125  1.0000
  H   H567      1.0  0.13065  0.54182  0.55483  1.0000
  C   C312      1.0  0.00649  0.76886  0.73802  1.0000
  C   C313      1.0  0.18826  0.83786  0.74392  1.0000
  C   C314      1.0  0.16689  0.83400  0.74994  1.0000
  C   C315      1.0  0.15749  0.81629  0.74276  1.0000
  C   C316      1.0  0.16929  0.80239  0.72909  1.0000
  C   C317      1.0  0.19073  0.80615  0.72316  1.0000
  C   C318      1.0  0.20023  0.82358  0.73085  1.0000
  H   H568      1.0  0.15748  0.84486  0.76018  1.0000
  H   H569      1.0  0.14101  0.81362  0.74752  1.0000
  H   H570      1.0  0.20007  0.79536  0.71283  1.0000
  H   H571      1.0  0.21675  0.82609  0.72671  1.0000
  C   C319      1.0  0.01017  0.60746  0.59376  1.0000
  H   H572      1.0  0.21507  0.73128  0.68129  1.0000
  H   H573      1.0  0.02018  0.77717  0.83964  1.0000
  H   H574      1.0  0.13088  0.49904  0.62395  1.0000
  H   H575      1.0  0.20810  0.75238  0.72198  1.0000
  H   H576      1.0  0.20959  0.71329  0.71494  1.0000
  H   H577      1.0  0.06449  0.62166  0.69295  1.0000
  C   C320      1.0  0.04566  0.71673  0.81837  1.0000
  H   H578      1.0  0.01946  0.68205  0.75701  1.0000
  C   C321      1.0  0.10578  0.66358  0.66967  1.0000
  C   C322      1.0  0.10827  0.64815  0.68688  1.0000
  C   C323      1.0  0.11018  0.65458  0.70788  1.0000
  C   C324      1.0  0.10931  0.67641  0.71185  1.0000
  C   C325      1.0  0.10550  0.69174  0.69490  1.0000
  C   C326      1.0  0.10412  0.68536  0.67384  1.0000
  H   H579      1.0  0.10969  0.63133  0.68381  1.0000
  H   H580      1.0  0.11298  0.64258  0.72095  1.0000
  H   H581      1.0  0.10416  0.70853  0.69783  1.0000
  H   H582      1.0  0.10203  0.69736  0.66062  1.0000
  C   C327      1.0  0.11378  0.59894  0.53775  1.0000
  C   C328      1.0  0.11444  0.58833  0.51857  1.0000
  H   H583      1.0  0.00414  0.69535  0.72417  1.0000
  H   H584      1.0  0.16959  0.83421  0.63374  1.0000
  C   C329      1.0  0.10950  0.62111  0.53704  1.0000
  H   H585      1.0  0.11834  0.57130  0.51893  1.0000
  H   H586      1.0  0.10946  0.62949  0.55166  1.0000
  C   C330      1.0  0.20549  0.72738  0.66811  1.0000
  H   H587      1.0  0.03480  0.58306  0.58727  1.0000
  H   H588      1.0  0.24421  0.85607  0.86365  1.0000
  H   H589      1.0  0.18549  0.68373  0.71333  1.0000
  C   C331      1.0  0.08710  0.52401  0.64871  1.0000
  C   C332      1.0  0.19254  0.70747  0.67538  1.0000
  H   H590      1.0  0.08557  0.51801  0.53660  1.0000
  C   C333      1.0  0.00445  0.57285  0.58083  1.0000
  H   H591      1.0  0.19966  0.84970  0.82795  1.0000
  N   N17       1.0  0.20948  0.79819  0.81243  1.0000
  H   H592      1.0  0.02390  0.65456  0.53585  1.0000
  C   C334      1.0  0.19558  0.80230  0.83295  1.0000
  C   C335      1.0  0.19846  0.78288  0.80001  1.0000
  C   C336      1.0  0.21215  0.81851  0.79796  1.0000
  C   C337      1.0  0.22517  0.83602  0.80602  1.0000
  H   H593      1.0  0.01853  0.65491  0.75170  1.0000
  C   C338      1.0  0.17469  0.78866  0.79683  1.0000
  C   C339      1.0  0.20651  0.80860  0.85280  1.0000
  C   C340      1.0  0.19022  0.81459  0.87127  1.0000
  C   C341      1.0  0.23367  0.74433  0.98804  1.0000
  Fe  Fe42      1.0  0.23358  0.74667  0.92980  1.0000
  C   C342      1.0  0.16669  0.77431  0.78089  1.0000
  H   H594      1.0  0.99842  0.56302  0.63141  1.0000
  C   C343      1.0  0.24354  0.89040  0.64886  1.0000
  H   H595      1.0  0.18274  0.81469  0.82944  1.0000
  H   H596      1.0  0.18747  0.78753  0.83909  1.0000
  H   H597      1.0  0.19930  0.76643  0.80824  1.0000
  H   H598      1.0  0.20658  0.78146  0.78352  1.0000
  H   H599      1.0  0.21971  0.81467  0.78172  1.0000
  H   H600      1.0  0.19655  0.82618  0.79410  1.0000
  H   H601      1.0  0.06622  0.51127  0.56687  1.0000
  C   C344      1.0  0.05908  0.52280  0.59819  1.0000
  H   H602      1.0  0.02806  0.63022  0.72793  1.0000
  H   H603      1.0  0.03060  0.65580  0.66300  1.0000
  H   H604      1.0  0.17188  0.80542  0.79034  1.0000
  H   H605      1.0  0.16479  0.78638  0.81239  1.0000
  H   H606      1.0  0.21661  0.79483  0.85916  1.0000
  H   H607      1.0  0.21653  0.82231  0.84874  1.0000
  H   H608      1.0  0.19861  0.81853  0.88535  1.0000
  H   H609      1.0  0.18006  0.82882  0.86613  1.0000
  H   H610      1.0  0.18016  0.80095  0.87650  1.0000
  H   H611      1.0  0.01058  0.55725  0.57610  1.0000
  H   H612      1.0  0.06155  0.60706  0.52637  1.0000
  C   C345      1.0  0.18368  0.84407  0.63148  1.0000
  H   H613      1.0  0.05513  0.76451  0.85907  1.0000
  H   H614      1.0  0.17539  0.77688  0.76478  1.0000
  H   H615      1.0  0.16911  0.75723  0.78641  1.0000
  H   H616      1.0  0.14956  0.77813  0.77938  1.0000
  C   C346      1.0  0.21430  0.85668  0.65011  1.0000
  C   C347      1.0  0.07068  0.78109  0.81516  1.0000
  C   C348      1.0  0.07450  0.50627  0.65245  1.0000
  H   H617      1.0  0.22519  0.85051  0.63661  1.0000
  H   H618      1.0  0.21088  0.80448  0.97783  1.0000
  H   H619      1.0  0.19470  0.83766  0.61830  1.0000
  C   C349      1.0  0.07824  0.80419  0.81513  1.0000
  H   H620      1.0  0.03652  0.62513  0.68877  1.0000
  H   H621      1.0  0.20242  0.86317  0.80122  1.0000
  H   H622      1.0  0.15471  0.65076  0.72126  1.0000
  C   C350      1.0  0.05614  0.64473  0.54224  1.0000
  C   C351      1.0  0.10130  0.80423  0.82051  1.0000
  H   H623      1.0  0.00967  0.82704  0.78305  1.0000
  H   H624      1.0  0.07859  0.77399  0.80046  1.0000
  H   H625      1.0  0.07748  0.77127  0.82877  1.0000
  H   H626      1.0  0.22044  0.82480  0.68332  1.0000
  H   H627      1.0  0.16394  0.73754  0.65343  1.0000
  H   H628      1.0  0.04206  0.66420  0.50244  1.0000
  H   H629      1.0  0.02016  0.77195  0.87955  1.0000
  H   H630      1.0  0.02619  0.63402  0.55648  1.0000
  H   H631      1.0  0.04977  0.67891  0.54604  1.0000
  H   H632      1.0  0.06207  0.50668  0.60636  1.0000
  H   H633      1.0  0.00627  0.50819  0.61546  1.0000
  H   H634      1.0  0.06825  0.81368  0.82694  1.0000
  H   H635      1.0  0.07721  0.81252  0.79875  1.0000
  H   H636      1.0  0.10321  0.64981  0.51667  1.0000
  H   H637      1.0  0.16077  0.63628  0.69727  1.0000
  H   H638      1.0  0.06390  0.53498  0.60860  1.0000
  S   S87       1.0  0.24181  0.71859  0.90948  1.0000
  C   C352      1.0  0.00151  0.72987  0.76191  1.0000
  H   H639      1.0  0.23189  0.70920  0.65185  1.0000
  H   H640      1.0  0.23601  0.82979  0.81818  1.0000
  H   H641      1.0  0.99961  0.71486  0.77143  1.0000
  H   H642      1.0  0.07394  0.66759  0.55665  1.0000
  H   H643      1.0  0.10597  0.82098  0.82074  1.0000
  H   H644      1.0  0.10348  0.79587  0.83667  1.0000
  C   C353      1.0  0.02728  0.66591  0.64809  1.0000
  H   H645      1.0  0.04888  0.75404  0.79372  1.0000
  H   H646      1.0  0.04883  0.66224  0.57127  1.0000
  C   C354      1.0  0.10600  0.63259  0.51721  1.0000
  C   C355      1.0  0.23044  0.78720  0.81791  1.0000
  C   C356      1.0  0.23391  0.83436  0.67633  1.0000
  H   H647      1.0  0.11195  0.79622  0.80802  1.0000
  C   C357      1.0  0.10152  0.52364  0.53810  1.0000
  H   H648      1.0  0.06451  0.63129  0.55134  1.0000
  H   H649      1.0  0.16070  0.54970  0.57576  1.0000
  H   H650      1.0  0.04186  0.78101  0.89273  1.0000
  H   H651      1.0  0.02977  0.69847  0.69802  1.0000
  H   H652      1.0  0.06475  0.64749  0.52607  1.0000
  H   H653      1.0  0.00912  0.51876  0.64090  1.0000
  H   H654      1.0  0.16983  0.53012  0.59615  1.0000
  H   H655      1.0  0.19876  0.82604  0.65709  1.0000
  C   C358      1.0  0.03297  0.63935  0.53997  1.0000
  H   H656      1.0  0.13149  0.52949  0.59470  1.0000
  H   H657      1.0  0.04338  0.73938  0.84245  1.0000
  C   C359      1.0  0.03902  0.79454  0.79760  1.0000
  H   H658      1.0  0.03064  0.80273  0.83638  1.0000
  H   H659      1.0  0.18205  0.64489  0.71147  1.0000
  H   H660      1.0  0.13106  0.52417  0.51630  1.0000
  H   H661      1.0  0.05669  0.55120  0.51421  1.0000
  C   C360      1.0  0.04752  0.78084  0.85773  1.0000
  H   H662      1.0  0.17430  0.52481  0.56789  1.0000
  H   H663      1.0  0.11663  0.50031  0.51594  1.0000
  H   H664      1.0  0.03662  0.73481  0.70818  1.0000
  H   H665      1.0  0.09951  0.53925  0.58173  1.0000
  H   H666      1.0  0.05257  0.71460  0.80158  1.0000
  H   H667      1.0  0.04635  0.60248  0.70528  1.0000
  C   C361      1.0  0.20112  0.88780  0.68557  1.0000
  H   H668      1.0  0.18261  0.84920  0.66530  1.0000
  H   H669      1.0  0.22119  0.86556  0.70353  1.0000
  C   C362      1.0  0.14174  0.52172  0.58181  1.0000
  H   H670      1.0  0.04873  0.79197  0.78207  1.0000
  C   C363      1.0  0.10737  0.52141  0.63812  1.0000
  C   C364      1.0  0.05712  0.66463  0.55481  1.0000
  C   C365      1.0  0.01815  0.58738  0.58738  1.0000
  C   C366      1.0  0.13163  0.52439  0.55977  1.0000
  H   H671      1.0  0.04096  0.81146  0.80093  1.0000
  H   H672      1.0  0.09906  0.51247  0.59309  1.0000
  C   C367      1.0  0.16296  0.53224  0.58019  1.0000
  C   C368      1.0  0.09586  0.52273  0.57819  1.0000
  H   H673      1.0  0.19962  0.85380  0.69433  1.0000
  H   H674      1.0  0.22897  0.90061  0.65216  1.0000
  H   H675      1.0  0.21304  0.90011  0.68435  1.0000
  H   H676      1.0  0.00172  0.68438  0.63396  1.0000
  N   N18       1.0  0.22620  0.85717  0.67011  1.0000
  C   C369      1.0  0.18528  0.89297  0.70471  1.0000
  H   H677      1.0  0.09932  0.54144  0.53785  1.0000
  C   C370      1.0  0.04139  0.58275  0.51852  1.0000
  H   H678      1.0  0.20431  0.69490  0.68127  1.0000
  H   H679      1.0  0.02821  0.71555  0.81894  1.0000
  C   C371      1.0  0.20161  0.74024  0.73433  1.0000
  H   H680      1.0  0.05228  0.70357  0.82924  1.0000
  H   H681      1.0  0.23892  0.79663  0.82847  1.0000
  C   C372      1.0  0.19526  0.72073  0.72356  1.0000
  H   H682      1.0  0.19225  0.88932  0.67086  1.0000
  N   N19       1.0  0.11023  0.51515  0.55918  1.0000
  H   H683      1.0  0.21194  0.72016  0.63423  1.0000
  C   C373      1.0  0.11503  0.51792  0.51704  1.0000
  C   C374      1.0  0.21210  0.86520  0.68905  1.0000
  H   H684      1.0  0.19369  0.89429  0.71948  1.0000
  H   H685      1.0  0.17830  0.86081  0.62662  1.0000
  N   N20       1.0  0.04424  0.67119  0.73354  1.0000
  C   C375      1.0  0.04805  0.65661  0.71511  1.0000
  C   C376      1.0  0.05000  0.69372  0.72579  1.0000
  C   C377      1.0  0.05872  0.66294  0.75085  1.0000
  H   H686      1.0  0.23424  0.80588  0.99209  1.0000
  N   N21       1.0  0.03021  0.62266  0.52425  1.0000
  C   C378      1.0  0.04449  0.63253  0.72086  1.0000
  C   C379      1.0  0.05991  0.67750  0.76988  1.0000
  C   C380      1.0  0.04588  0.70158  0.70207  1.0000
  C   C381      1.0  0.04871  0.72561  0.69801  1.0000
  H   H687      1.0  0.13037  0.75889  0.65047  1.0000
  H   H688      1.0  0.00825  0.78407  0.72880  1.0000
  C   C382      1.0  0.07526  0.66751  0.78601  1.0000
  H   H689      1.0  0.06467  0.65774  0.70780  1.0000
  H   H690      1.0  0.03800  0.66182  0.70173  1.0000
  H   H691      1.0  0.04186  0.70545  0.73675  1.0000
  H   H692      1.0  0.06728  0.69550  0.72667  1.0000
  H   H693      1.0  0.07519  0.66001  0.74342  1.0000
  H   H694      1.0  0.05380  0.64723  0.75850  1.0000
  C   C383      1.0  0.23077  0.61027  0.93616  1.0000
  H   H695      1.0  0.24344  0.88511  0.63216  1.0000
  C   C384      1.0  0.19446  0.84313  0.65267  1.0000
  C   C385      1.0  0.04818  0.61977  0.70068  1.0000
  H   H696      1.0  0.05580  0.62544  0.73246  1.0000
  H   H697      1.0  0.00443  0.60896  0.54456  1.0000
  H   H698      1.0  0.04425  0.67992  0.77902  1.0000
  H   H699      1.0  0.06554  0.69338  0.76390  1.0000
  H   H700      1.0  0.05742  0.69323  0.69057  1.0000
  H   H701      1.0  0.05901  0.50808  0.66109  1.0000
  H   H702      1.0  0.04677  0.73062  0.68071  1.0000
  H   H703      1.0  0.14469  0.50455  0.58692  1.0000
  H   H704      1.0  0.06476  0.72956  0.70179  1.0000
  H   H705      1.0  0.21415  0.82766  0.99251  1.0000
  C   C386      1.0  0.06044  0.56673  0.52004  1.0000
  H   H706      1.0  0.04281  0.59901  0.54788  1.0000
  H   H707      1.0  0.20885  0.87302  0.64408  1.0000
  C   C387      1.0  0.03541  0.78529  0.83694  1.0000
  H   H708      1.0  0.09140  0.66490  0.77785  1.0000
  H   H709      1.0  0.07626  0.67843  0.79914  1.0000
  H   H710      1.0  0.06974  0.65195  0.79342  1.0000
  N   N22       1.0  0.17413  0.71039  0.69228  1.0000
  C   C388      1.0  0.17763  0.72687  0.70797  1.0000
  C   C389      1.0  0.15380  0.71670  0.68183  1.0000
  C   C390      1.0  0.17094  0.68928  0.70527  1.0000
  H   H711      1.0  0.24076  0.82630  0.66168  1.0000
  C   C391      1.0  0.16555  0.67032  0.69233  1.0000
  C   C392      1.0  0.15281  0.73835  0.66817  1.0000
  C   C393      1.0  0.13067  0.74342  0.66044  1.0000
  C   C394      1.0  0.16584  0.64931  0.70652  1.0000
  H   H712      1.0  0.16275  0.73029  0.71826  1.0000
  H   H713      1.0  0.18107  0.74256  0.69938  1.0000
  H   H714      1.0  0.15028  0.70461  0.67061  1.0000
  H   H715      1.0  0.14034  0.71711  0.69461  1.0000
  H   H716      1.0  0.15812  0.69127  0.71860  1.0000
  H   H717      1.0  0.18693  0.70125  0.66062  1.0000
  H   H718      1.0  0.19528  0.74180  0.66401  1.0000
  H   H719      1.0  0.17702  0.66823  0.67801  1.0000
  H   H720      1.0  0.14945  0.67288  0.68665  1.0000
  H   H721      1.0  0.15647  0.75183  0.67756  1.0000
  H   H722      1.0  0.01274  0.77789  0.78644  1.0000
  H   H723      1.0  0.02512  0.75515  0.81121  1.0000
  C   C395      1.0  0.00764  0.61590  0.52759  1.0000
  H   H724      1.0  0.22859  0.59413  0.94442  1.0000
  C   C396      1.0  0.04248  0.75700  0.81063  1.0000
  H   H725      1.0  0.22759  0.77183  0.82774  1.0000
  C   C397      1.0  0.00524  0.50426  0.63317  1.0000
  H   H726      1.0  0.24290  0.63547  0.89973  1.0000
  H   H727      1.0  0.23972  0.77264  0.78679  1.0000
  C   C398      1.0  0.05102  0.73833  0.82581  1.0000
  H   H728      1.0  0.06850  0.73820  0.82606  1.0000
  C   C399      1.0  0.00389  0.67790  0.72878  1.0000
  C   C400      1.0  0.21121  0.85494  0.81449  1.0000
  H   H729      1.0  0.23562  0.84258  0.79208  1.0000
  H   H730      1.0  0.04185  0.52546  0.59630  1.0000
  N   N23       1.0  0.04700  0.77940  0.81566  1.0000
  C   C401      1.0  0.22081  0.72320  0.64829  1.0000
  H   H731      1.0  0.24102  0.69303  0.95296  1.0000
  H   H732      1.0  0.02516  0.80020  0.87796  1.0000
  H   H733      1.0  0.11741  0.53484  0.63570  1.0000
  C   C402      1.0  0.01538  0.79324  0.79331  1.0000
  C   C403      1.0  0.07155  0.52411  0.57601  1.0000
  H   H734      1.0  0.21773  0.61411  0.92537  1.0000
  S   S88       1.0  0.24023  0.89541  0.77439  1.0000
  S   S89       1.0  0.24262  0.89971  0.72141  1.0000
  C   C404      1.0  0.00411  0.67436  0.64910  1.0000
  H   H735      1.0  0.00524  0.66887  0.71400  1.0000
  H   H736      1.0  0.22129  0.86672  0.82044  1.0000
  H   H737      1.0  0.23024  0.73744  0.64381  1.0000
  H   H738      1.0  0.22981  0.62212  0.94872  1.0000
  H   H739      1.0  0.00169  0.68493  0.66276  1.0000
  C   C405      1.0  0.00851  0.81106  0.77677  1.0000
  H   H740      1.0  0.24081  0.80089  0.70818  1.0000
  H   H741      1.0  0.00511  0.60297  0.51693  1.0000
  C   C406      1.0  0.11494  0.50118  0.63140  1.0000
  C   C407      1.0  0.24117  0.99868  0.74229  1.0000
  H   H742      1.0  0.23114  0.99799  0.72913  1.0000
  C   C408      1.0  0.24536  0.87051  0.66524  1.0000
  H   H743      1.0  0.24577  0.66922  0.88350  1.0000
  H   H744      1.0  0.03901  0.58647  0.50109  1.0000
  C   C409      1.0  0.03598  0.63014  0.50082  1.0000
  Fe  Fe43      1.0  0.40071  0.41438  0.07838  1.0000
  S   S90       1.0  0.40619  0.37893  0.08252  1.0000
  S   S91       1.0  0.40798  0.43120  0.04556  1.0000
  Fe  Fe44      1.0  0.38592  0.41783  0.12512  1.0000
  S   S92       1.0  0.38974  0.38216  0.13335  1.0000
  S   S93       1.0  0.37308  0.43984  0.15089  1.0000
  Fe  Fe45      1.0  0.42060  0.38466  0.11299  1.0000
  S   S94       1.0  0.44969  0.36311  0.11879  1.0000
  Fe  Fe46      1.0  0.37476  0.37878  0.10230  1.0000
  S   S95       1.0  0.35496  0.35218  0.09287  1.0000
  S   S96       1.0  0.41803  0.42047  0.10713  1.0000
  S   S97       1.0  0.36822  0.41430  0.09574  1.0000
  Fe  Fe47      1.0  0.41166  0.09890  0.40110  1.0000
  S   S98       1.0  0.38124  0.11965  0.40123  1.0000
  S   S99       1.0  0.44258  0.10376  0.38068  1.0000
  Fe  Fe48      1.0  0.39263  0.06499  0.43243  1.0000
  S   S100      1.0  0.36079  0.08259  0.43605  1.0000
  S   S101      1.0  0.40039  0.03285  0.44939  1.0000
  Fe  Fe49      1.0  0.36460  0.08913  0.39966  1.0000
  S   S102      1.0  0.33600  0.08106  0.38236  1.0000
  Fe  Fe50      1.0  0.37942  0.11156  0.43744  1.0000
  S   S103      1.0  0.37083  0.13827  0.45958  1.0000
  S   S104      1.0  0.39512  0.06923  0.39617  1.0000
  S   S105      1.0  0.41095  0.09332  0.43724  1.0000
  S   S106      1.0  0.28271  0.24801  0.11219  1.0000
  S   S107      1.0  0.27688  0.30361  0.14105  1.0000
  S   S108      1.0  0.28481  0.19760  0.15239  1.0000
  Fe  Fe51      1.0  0.27780  0.10429  0.27569  1.0000
  S   S109      1.0  0.30860  0.11299  0.28824  1.0000
  H   H745      1.0  0.33129  0.19031  0.07118  1.0000
  H   H746      1.0  0.31072  0.16006  0.35217  1.0000
  C   C410      1.0  0.38215  0.49207  0.05810  1.0000
  S   S110      1.0  0.27594  0.08002  0.25111  1.0000
  C   C411      1.0  0.27456  0.17392  0.16549  1.0000
  C   C412      1.0  0.28420  0.16411  0.18355  1.0000
  C   C413      1.0  0.27661  0.14518  0.19434  1.0000
  H   H747      1.0  0.24915  0.37760  0.19085  1.0000
  H   H748      1.0  0.29738  0.17142  0.18950  1.0000
  H   H749      1.0  0.28388  0.13810  0.20854  1.0000
  H   H750      1.0  0.29543  0.20788  0.05573  1.0000
  H   H751      1.0  0.30712  0.01864  0.31181  1.0000
  C   C414      1.0  0.32914  0.08990  0.35593  1.0000
  C   C415      1.0  0.34128  0.10399  0.34226  1.0000
  C   C416      1.0  0.33485  0.11085  0.32153  1.0000
  C   C417      1.0  0.31639  0.10354  0.31420  1.0000
  C   C418      1.0  0.30440  0.08925  0.32781  1.0000
  C   C419      1.0  0.31063  0.08268  0.34864  1.0000
  H   H752      1.0  0.35554  0.10970  0.34769  1.0000
  H   H753      1.0  0.34427  0.12187  0.31110  1.0000
  H   H754      1.0  0.29028  0.08333  0.32235  1.0000
  H   H755      1.0  0.30102  0.07196  0.35920  1.0000
  C   C420      1.0  0.46586  0.10732  0.39341  1.0000
  H   H756      1.0  0.30396  0.14677  0.01730  1.0000
  C   C421      1.0  0.46503  0.11266  0.41497  1.0000
  H   H757      1.0  0.27599  0.13387  0.37781  1.0000
  H   H758      1.0  0.44986  0.11482  0.42406  1.0000
  C   C422      1.0  0.33318  0.33913  0.10668  1.0000
  C   C423      1.0  0.32356  0.34540  0.12653  1.0000
  C   C424      1.0  0.30635  0.33436  0.13688  1.0000
  C   C425      1.0  0.29853  0.31705  0.12743  1.0000
  C   C426      1.0  0.30810  0.31085  0.10754  1.0000
  C   C427      1.0  0.32539  0.32177  0.09731  1.0000
  H   H759      1.0  0.32919  0.35892  0.13373  1.0000
  H   H760      1.0  0.29900  0.33934  0.15221  1.0000
  H   H761      1.0  0.30222  0.29759  0.10006  1.0000
  H   H762      1.0  0.33273  0.31678  0.08198  1.0000
  C   C428      1.0  0.37905  0.46711  0.14956  1.0000
  C   C429      1.0  0.48383  0.11555  0.42463  1.0000
  H   H763      1.0  0.25348  0.11029  0.37266  1.0000
  H   H764      1.0  0.38792  0.02121  0.37048  1.0000
  C   C430      1.0  0.39306  0.47622  0.13323  1.0000
  H   H765      1.0  0.26820  0.14863  0.10990  1.0000
  H   H766      1.0  0.40156  0.46607  0.12170  1.0000
  C   C431      1.0  0.47183  0.37518  0.12679  1.0000
  H   H767      1.0  0.44952  0.14591  0.44490  1.0000
  H   H768      1.0  0.33316  0.04412  0.41858  1.0000
  H   H769      1.0  0.33298  0.01628  0.42879  1.0000
  C   C432      1.0  0.47029  0.39616  0.13326  1.0000
  C   C433      1.0  0.43455  0.15345  0.45216  1.0000
  H   H770      1.0  0.45513  0.40509  0.13411  1.0000
  C   C434      1.0  0.38609  0.39875  0.03268  1.0000
  C   C435      1.0  0.39920  0.41556  0.02628  1.0000
  C   C436      1.0  0.32808  0.22482  0.06870  1.0000
  H   H771      1.0  0.38025  0.39597  0.04946  1.0000
  H   H772      1.0  0.34779  0.43317  0.02583  1.0000
  H   H773      1.0  0.45143  0.05987  0.46181  1.0000
  C   C437      1.0  0.29840  0.02275  0.32738  1.0000
  C   C438      1.0  0.26940  0.24419  0.01088  1.0000
  H   H774      1.0  0.32145  0.18502  0.03688  1.0000
  H   H775      1.0  0.39243  0.48588  0.09057  1.0000
  N   N24       1.0  0.26830  0.14747  0.34596  1.0000
  C   C439      1.0  0.41901  0.02187  0.40983  1.0000
  H   H776      1.0  0.49058  0.36428  0.08296  1.0000
  H   H777      1.0  0.29172  0.08685  0.17977  1.0000
  C   C440      1.0  0.31670  0.15745  0.01992  1.0000
  H   H778      1.0  0.43107  0.01371  0.37770  1.0000
  H   H779      1.0  0.44733  0.39664  0.03695  1.0000
  H   H780      1.0  0.28811  0.00954  0.33350  1.0000
  S   S111      1.0  0.25722  0.12907  0.25789  1.0000
  H   H781      1.0  0.42509  0.03765  0.40797  1.0000
  Fe  Fe52      1.0  0.26537  0.22453  0.13537  1.0000
  H   H782      1.0  0.44298  0.09523  0.48506  1.0000
  H   H783      1.0  0.34743  0.49249  0.12681  1.0000
  H   H784      1.0  0.45428  0.03466  0.43338  1.0000
  H   H785      1.0  0.29140  0.15013  0.05584  1.0000
  H   H786      1.0  0.46149  0.36379  0.06026  1.0000
  H   H787      1.0  0.40864  0.07845  0.49059  1.0000
  H   H788      1.0  0.29430  0.07961  0.15209  1.0000
  H   H789      1.0  0.35770  0.47347  0.09374  1.0000
  N   N25       1.0  0.28993  0.17790  0.07474  1.0000
  C   C441      1.0  0.30844  0.17425  0.03568  1.0000
  H   H790      1.0  0.47355  0.05501  0.40443  1.0000
  C   C442      1.0  0.25385  0.16448  0.35643  1.0000
  H   H791      1.0  0.26003  0.20924  0.20974  1.0000
  H   H792      1.0  0.26179  0.17459  0.03912  1.0000
  H   H793      1.0  0.39253  0.00781  0.34597  1.0000
  C   C443      1.0  0.34310  0.02907  0.42121  1.0000
  C   C444      1.0  0.39599  0.49850  0.13187  1.0000
  C   C445      1.0  0.33810  0.01828  0.38344  1.0000
  H   H794      1.0  0.26289  0.17852  0.35915  1.0000
  C   C446      1.0  0.36125  0.02510  0.34943  1.0000
  C   C447      1.0  0.33831  0.43333  0.04176  1.0000
  C   C448      1.0  0.31388  0.02676  0.34405  1.0000
  H   H795      1.0  0.43709  0.17033  0.45503  1.0000
  C   C449      1.0  0.32026  0.20311  0.07776  1.0000
  C   C450      1.0  0.46246  0.06291  0.44720  1.0000
  H   H796      1.0  0.48304  0.11987  0.44124  1.0000
  C   C451      1.0  0.30496  0.01762  0.23763  1.0000
  H   H797      1.0  0.36408  0.03580  0.39319  1.0000
  H   H798      1.0  0.32943  0.03406  0.38047  1.0000
  C   C452      1.0  0.25637  0.12863  0.34079  1.0000
  C   C453      1.0  0.29414  0.16879  0.09734  1.0000
  H   H799      1.0  0.26768  0.11634  0.33350  1.0000
  C   C454      1.0  0.38519  0.02250  0.35310  1.0000
  H   H800      1.0  0.35564  0.04188  0.35263  1.0000
  H   H801      1.0  0.34594  0.42171  0.05352  1.0000
  H   H802      1.0  0.28847  0.12074  0.12955  1.0000
  H   H803      1.0  0.32343  0.04029  0.33733  1.0000
  H   H804      1.0  0.30743  0.04178  0.19917  1.0000
  H   H805      1.0  0.35227  0.34010  0.02381  1.0000
  H   H806      1.0  0.41279  0.15013  0.48031  1.0000
  H   H807      1.0  0.32675  0.45509  0.06572  1.0000
  H   H808      1.0  0.32869  0.22609  0.05069  1.0000
  H   H809      1.0  0.29592  0.14724  0.32274  1.0000
  C   C455      1.0  0.28234  0.17016  0.28595  1.0000
  H   H810      1.0  0.28746  0.18004  0.10964  1.0000
  C   C456      1.0  0.29000  0.04515  0.19917  1.0000
  H   H811      1.0  0.45769  0.12757  0.48201  1.0000
  H   H812      1.0  0.31480  0.07089  0.16974  1.0000
  H   H813      1.0  0.46548  0.39507  0.07859  1.0000
  C   C457      1.0  0.25108  0.27156  0.21051  1.0000
  C   C458      1.0  0.36888  0.48011  0.16513  1.0000
  N   N26       1.0  0.39129  0.30591  0.14134  1.0000
  C   C459      1.0  0.40098  0.29297  0.15993  1.0000
  C   C460      1.0  0.37489  0.29341  0.13204  1.0000
  C   C461      1.0  0.40898  0.30993  0.12381  1.0000
  C   C462      1.0  0.38175  0.32732  0.14794  1.0000
  C   C463      1.0  0.36416  0.32685  0.16684  1.0000
  C   C464      1.0  0.41809  0.30387  0.17106  1.0000
  C   C465      1.0  0.40227  0.32124  0.10214  1.0000
  C   C466      1.0  0.36196  0.27788  0.14797  1.0000
  C   C467      1.0  0.34380  0.26921  0.13717  1.0000
  C   C468      1.0  0.35861  0.34926  0.17454  1.0000
  C   C469      1.0  0.42585  0.28954  0.19016  1.0000
  C   C470      1.0  0.42093  0.32181  0.08482  1.0000
  H   H814      1.0  0.40826  0.27752  0.15421  1.0000
  H   H815      1.0  0.38877  0.28836  0.17302  1.0000
  H   H816      1.0  0.36342  0.30457  0.12351  1.0000
  H   H817      1.0  0.38255  0.28312  0.11933  1.0000
  H   H818      1.0  0.41780  0.29453  0.12003  1.0000
  H   H819      1.0  0.42075  0.32033  0.12935  1.0000
  H   H820      1.0  0.39436  0.33759  0.15191  1.0000
  H   H821      1.0  0.37438  0.33627  0.13407  1.0000
  H   H822      1.0  0.36896  0.31657  0.18108  1.0000
  H   H823      1.0  0.34952  0.32101  0.16126  1.0000
  H   H824      1.0  0.43217  0.30703  0.15966  1.0000
  H   H825      1.0  0.41166  0.31921  0.17750  1.0000
  H   H826      1.0  0.39678  0.33802  0.10471  1.0000
  H   H827      1.0  0.38938  0.31323  0.09553  1.0000
  H   H828      1.0  0.37239  0.26391  0.15329  1.0000
  H   H829      1.0  0.35504  0.28566  0.16259  1.0000
  H   H830      1.0  0.33207  0.28240  0.13299  1.0000
  H   H831      1.0  0.34981  0.26131  0.12222  1.0000
  H   H832      1.0  0.33557  0.25730  0.14853  1.0000
  H   H833      1.0  0.35343  0.36041  0.16101  1.0000
  H   H834      1.0  0.34547  0.34860  0.18757  1.0000
  H   H835      1.0  0.37253  0.35565  0.18110  1.0000
  H   H836      1.0  0.41257  0.28643  0.20266  1.0000
  H   H837      1.0  0.29889  0.16335  0.28335  1.0000
  H   H838      1.0  0.43815  0.29763  0.19772  1.0000
  H   H839      1.0  0.42686  0.30532  0.08120  1.0000
  H   H840      1.0  0.41569  0.33030  0.06966  1.0000
  H   H841      1.0  0.43401  0.33053  0.09028  1.0000
  H   H842      1.0  0.30423  0.03161  0.35886  1.0000
  C   C471      1.0  0.33654  0.45581  0.05001  1.0000
  H   H843      1.0  0.28481  0.17327  0.32798  1.0000
  C   C472      1.0  0.28168  0.02179  0.23188  1.0000
  C   C473      1.0  0.35879  0.46367  0.05280  1.0000
  H   H844      1.0  0.36607  0.45185  0.06458  1.0000
  H   H845      1.0  0.31149  0.16721  0.09913  1.0000
  H   H846      1.0  0.29147  0.04136  0.16405  1.0000
  H   H847      1.0  0.44139  0.49185  0.01250  1.0000
  H   H848      1.0  0.29336  0.12474  0.35595  1.0000
  H   H849      1.0  0.37100  0.37185  0.02248  1.0000
  C   C474      1.0  0.28054  0.15667  0.32572  1.0000
  H   H850      1.0  0.27379  0.18603  0.22199  1.0000
  H   H851      1.0  0.25343  0.16332  0.30507  1.0000
  C   C475      1.0  0.46902  0.04182  0.43708  1.0000
  C   C476      1.0  0.34991  0.48634  0.08327  1.0000
  C   C477      1.0  0.25993  0.13530  0.18650  1.0000
  H   H852      1.0  0.47651  0.07064  0.45191  1.0000
  H   H853      1.0  0.42841  0.36318  0.04049  1.0000
  H   H854      1.0  0.31146  0.32116  0.01226  1.0000
  H   H855      1.0  0.42983  0.05870  0.49543  1.0000
  H   H856      1.0  0.48638  0.10113  0.36480  1.0000
  C   C478      1.0  0.25823  0.18704  0.05096  1.0000
  H   H857      1.0  0.32436  0.13064  0.37733  1.0000
  C   C479      1.0  0.47111  0.37075  0.04579  1.0000
  H   H858      1.0  0.48569  0.17379  0.47585  1.0000
  H   H859      1.0  0.47842  0.35697  0.03703  1.0000
  H   H860      1.0  0.28641  0.05857  0.20993  1.0000
  C   C480      1.0  0.48844  0.40555  0.13890  1.0000
  H   H861      1.0  0.36036  0.02415  0.33166  1.0000
  Fe  Fe53      1.0  0.25261  0.10372  0.23558  1.0000
  C   C481      1.0  0.42707  0.14117  0.47337  1.0000
  C   C482      1.0  0.35431  0.02240  0.39975  1.0000
  H   H862      1.0  0.26957  0.36590  0.17231  1.0000
  C   C483      1.0  0.25585  0.24681  0.02985  1.0000
  H   H863      1.0  0.41406  0.03929  0.34540  1.0000
  H   H864      1.0  0.35823  0.47319  0.17796  1.0000
  C   C484      1.0  0.26625  0.17879  0.07314  1.0000
  H   H865      1.0  0.29676  0.14604  0.13670  1.0000
  N   N27       1.0  0.27845  0.02567  0.20809  1.0000
  C   C485      1.0  0.32802  0.32570  0.00782  1.0000
  N   N28       1.0  0.35938  0.48606  0.06010  1.0000
  C   C486      1.0  0.29669  0.13534  0.12325  1.0000
  H   H866      1.0  0.36880  0.46183  0.03732  1.0000
  C   C487      1.0  0.28582  0.05353  0.17565  1.0000
  H   H867      1.0  0.44593  0.35240  0.01881  1.0000
  H   H868      1.0  0.48718  0.42173  0.14405  1.0000
  C   C488      1.0  0.39703  0.04151  0.34238  1.0000
  C   C489      1.0  0.48563  0.10494  0.38158  1.0000
  H   H869      1.0  0.25993  0.16265  0.07655  1.0000
  H   H870      1.0  0.32688  0.15660  0.38702  1.0000
  C   C490      1.0  0.29743  0.07394  0.16897  1.0000
  C   C491      1.0  0.28708  0.00672  0.19574  1.0000
  H   H871      1.0  0.46800  0.41326  0.05563  1.0000
  H   H872      1.0  0.35510  0.03195  0.43253  1.0000
  N   N29       1.0  0.34689  0.00949  0.36226  1.0000
  H   H873      1.0  0.32583  0.35231  0.02893  1.0000
  H   H874      1.0  0.45192  0.15414  0.48926  1.0000
  H   H875      1.0  0.28701  0.13576  0.09092  1.0000
  C   C492      1.0  0.40762  0.01504  0.42917  1.0000
  C   C493      1.0  0.41997  0.48385  0.06838  1.0000
  H   H876      1.0  0.31391  0.03225  0.23357  1.0000
  C   C494      1.0  0.27007  0.15692  0.30398  1.0000
  Fe  Fe54      1.0  0.25528  0.24750  0.09127  1.0000
  H   H877      1.0  0.35265  0.48654  0.01520  1.0000
  C   C495      1.0  0.29719  0.20048  0.07231  1.0000
  H   H878      1.0  0.47658  0.03099  0.44940  1.0000
  H   H879      1.0  0.46429  0.01228  0.40264  1.0000
  H   H880      1.0  0.32227  0.42803  0.03974  1.0000
  H   H881      1.0  0.31333  0.13057  0.11777  1.0000
  S   S112      1.0  0.26717  0.24543  0.05535  1.0000
  H   H882      1.0  0.39569  0.04280  0.32459  1.0000
  H   H883      1.0  0.33297  0.48252  0.08430  1.0000
  H   H884      1.0  0.39054  0.05666  0.34925  1.0000
  C   C496      1.0  0.25801  0.16393  0.15751  1.0000
  H   H885      1.0  0.31608  0.15578  0.06475  1.0000
  H   H886      1.0  0.46426  0.38675  0.01433  1.0000
  C   C497      1.0  0.43863  0.36733  0.02550  1.0000
  C   C498      1.0  0.33520  0.33694  0.02673  1.0000
  H   H887      1.0  0.47697  0.44617  0.07152  1.0000
  H   H888      1.0  0.27465  0.16991  0.27056  1.0000
  H   H889      1.0  0.25237  0.38797  0.16293  1.0000
  H   H890      1.0  0.28251  0.18707  0.29009  1.0000
  H   H891      1.0  0.30617  0.14006  0.39909  1.0000
  H   H892      1.0  0.49269  0.34727  0.12157  1.0000
  H   H893      1.0  0.39481  0.46251  0.07572  1.0000
  H   H894      1.0  0.32802  0.46643  0.03813  1.0000
  H   H895      1.0  0.37212  0.00832  0.48538  1.0000
  Fe  Fe55      1.0  0.26365  0.27382  0.12931  1.0000
  H   H896      1.0  0.29264  0.16967  0.37379  1.0000
  H   H897      1.0  0.47952  0.41603  0.01967  1.0000
  H   H898      1.0  0.42225  0.15341  0.44042  1.0000
  C   C499      1.0  0.44482  0.13836  0.48928  1.0000
  C   C500      1.0  0.25311  0.37316  0.17391  1.0000
  H   H899      1.0  0.42519  0.47760  0.05238  1.0000
  H   H900      1.0  0.30472  0.00592  0.19409  1.0000
  H   H901      1.0  0.31736  0.23805  0.07500  1.0000
  H   H902      1.0  0.24761  0.15848  0.37295  1.0000
  C   C501      1.0  0.30138  0.16358  0.05838  1.0000
  C   C502      1.0  0.28417  0.13917  0.36192  1.0000
  C   C503      1.0  0.25870  0.19601  0.22266  1.0000
  H   H903      1.0  0.32095  0.20227  0.09567  1.0000
  H   H904      1.0  0.28678  0.21089  0.08308  1.0000
  C   C504      1.0  0.30060  0.15513  0.36697  1.0000
  H   H905      1.0  0.25821  0.18881  0.08585  1.0000
  H   H906      1.0  0.48168  0.03444  0.37467  1.0000
  H   H907      1.0  0.42228  0.12531  0.46934  1.0000
  C   C505      1.0  0.49149  0.36363  0.12617  1.0000
  C   C506      1.0  0.31533  0.14493  0.38362  1.0000
  C   C507      1.0  0.36714  0.13477  0.48811  1.0000
  H   H908      1.0  0.27243  0.00824  0.23918  1.0000
  H   H909      1.0  0.26875  0.05753  0.17394  1.0000
  C   C508      1.0  0.25103  0.14448  0.16773  1.0000
  H   H910      1.0  0.25481  0.32911  0.17799  1.0000
  H   H911      1.0  0.35890  0.16835  0.49063  1.0000
  H   H912      1.0  0.34423  0.22667  0.07366  1.0000
  H   H913      1.0  0.33815  0.31079  0.00620  1.0000
  H   H914      1.0  0.43296  0.27406  0.18457  1.0000
  H   H915      1.0  0.27524  0.03573  0.24087  1.0000
  H   H916      1.0  0.42968  0.47533  0.08078  1.0000
  H   H917      1.0  0.29541  0.18392  0.02830  1.0000
  C   C509      1.0  0.49243  0.41451  0.07787  1.0000
  C   C510      1.0  0.28531  0.14655  0.10440  1.0000
  H   H918      1.0  0.45412  0.07388  0.43548  1.0000
  H   H919      1.0  0.32628  0.00742  0.39188  1.0000
  H   H920      1.0  0.37435  0.10070  0.49100  1.0000
  H   H921      1.0  0.28627  0.24150  0.01212  1.0000
  C   C511      1.0  0.45561  0.38223  0.03016  1.0000
  H   H922      1.0  0.46696  0.43181  0.09636  1.0000
  C   C512      1.0  0.42264  0.00823  0.39281  1.0000
  C   C513      1.0  0.48373  0.04553  0.41596  1.0000
  H   H923      1.0  0.48901  0.48938  0.20201  1.0000
  H   H924      1.0  0.24648  0.01519  0.21395  1.0000
  H   H925      1.0  0.31311  0.00430  0.22883  1.0000
  H   H926      1.0  0.33300  0.32654  0.04194  1.0000
  H   H927      1.0  0.29776  0.02460  0.27152  1.0000
  H   H928      1.0  0.28811  0.03747  0.32420  1.0000
  H   H929      1.0  0.33036  0.14768  0.02623  1.0000
  C   C514      1.0  0.30598  0.01181  0.26190  1.0000
  C   C515      1.0  0.47975  0.00742  0.40931  1.0000
  C   C516      1.0  0.47738  0.40171  0.06592  1.0000
  C   C517      1.0  0.39660  0.47998  0.07441  1.0000
  H   H930      1.0  0.25089  0.17100  0.14324  1.0000
  C   C518      1.0  0.48142  0.43529  0.08556  1.0000
  H   H931      1.0  0.27017  0.14031  0.29896  1.0000
  H   H932      1.0  0.40521  0.49539  0.00207  1.0000
  H   H933      1.0  0.25639  0.20277  0.23881  1.0000
  H   H934      1.0  0.26468  0.26945  0.19815  1.0000
  C   C519      1.0  0.25497  0.02883  0.20559  1.0000
  N   N30       1.0  0.48800  0.38392  0.05305  1.0000
  H   H935      1.0  0.49230  0.44348  0.09490  1.0000
  H   H936      1.0  0.26551  0.20189  0.04425  1.0000
  H   H937      1.0  0.25173  0.02858  0.18826  1.0000
  H   H938      1.0  0.32278  0.00997  0.26585  1.0000
  H   H939      1.0  0.36474  0.00802  0.40353  1.0000
  S   S113      1.0  0.24884  0.03324  0.28523  1.0000
  S   S114      1.0  0.25088  0.09209  0.29770  1.0000
  C   C520      1.0  0.32826  0.00640  0.34937  1.0000
  H   H940      1.0  0.28239  0.00870  0.17879  1.0000
  H   H941      1.0  0.42846  0.37545  0.01333  1.0000
  C   C521      1.0  0.38062  0.38520  0.01734  1.0000
  S   S115      1.0  0.25020  0.11128  0.19937  1.0000
  H   H942      1.0  0.25706  0.26886  0.22686  1.0000
  H   H943      1.0  0.47579  0.00334  0.42682  1.0000
  H   H944      1.0  0.25149  0.06405  0.20796  1.0000
  H   H945      1.0  0.32204  0.16554  0.00401  1.0000
  N   N31       1.0  0.49416  0.02585  0.40574  1.0000
  H   H946      1.0  0.33385  0.00001  0.33350  1.0000
  H   H947      1.0  0.48751  0.17228  0.44683  1.0000
  Fe  Fe56      1.0  0.24773  0.06860  0.27244  1.0000
  S   S116      1.0  0.24828  0.25041  0.15439  1.0000
  H   H948      1.0  0.25277  0.30564  0.21014  1.0000
  H   H949      1.0  0.38954  0.48947  0.04153  1.0000
  C   C522      1.0  0.36155  0.15301  0.49947  1.0000
  H   H950      1.0  0.49339  0.06278  0.34720  1.0000
  H   H951      1.0  0.34754  0.00272  0.50020  1.0000
  C   C523      1.0  0.40601  0.41941  0.00442  1.0000
  C   C524      1.0  0.37028  0.11490  0.49971  1.0000
  Fe  Fe57      1.0  0.40049  0.42020  0.91032  1.0000
  S   S117      1.0  0.42232  0.39977  0.93087  1.0000
  S   S118      1.0  0.41024  0.45457  0.90673  1.0000
  Fe  Fe58      1.0  0.37762  0.38074  0.89893  1.0000
  S   S119      1.0  0.39891  0.35772  0.91762  1.0000
  S   S120      1.0  0.34817  0.37091  0.88429  1.0000
  Fe  Fe59      1.0  0.39365  0.38181  0.94277  1.0000
  S   S121      1.0  0.38261  0.37062  0.97679  1.0000
  Fe  Fe60      1.0  0.42567  0.37804  0.90370  1.0000
  S   S122      1.0  0.45880  0.36789  0.88987  1.0000
  S   S123      1.0  0.37138  0.40424  0.92487  1.0000
  S   S124      1.0  0.40482  0.39911  0.88234  1.0000
  Fe  Fe61      1.0  0.38852  0.06077  0.59677  1.0000
  S   S125      1.0  0.41078  0.06751  0.62127  1.0000
  S   S126      1.0  0.37774  0.02824  0.59327  1.0000
  Fe  Fe62      1.0  0.37991  0.10723  0.58227  1.0000
  S   S127      1.0  0.40129  0.11824  0.60576  1.0000
  S   S128      1.0  0.36092  0.13178  0.56242  1.0000
  Fe  Fe63      1.0  0.42370  0.09109  0.59504  1.0000
  S   S129      1.0  0.45768  0.09543  0.58165  1.0000
  Fe  Fe64      1.0  0.38621  0.09380  0.62986  1.0000
  S   S130      1.0  0.37504  0.10068  0.66468  1.0000
  S   S131      1.0  0.40315  0.08192  0.56972  1.0000
  S   S132      1.0  0.36325  0.08509  0.60705  1.0000
  Fe  Fe65      1.0  0.28173  0.26273  0.89594  1.0000
  S   S133      1.0  0.31445  0.27628  0.89625  1.0000
  H   H952      1.0  0.48599  0.00013  0.66661  1.0000
  H   H953      1.0  0.29625  0.31794  0.97728  1.0000
  S   S134      1.0  0.26872  0.24857  0.86764  1.0000
  S   S135      1.0  0.27682  0.23290  0.91831  1.0000
  Fe  Fe66      1.0  0.26171  0.11028  0.72575  1.0000
  S   S136      1.0  0.28066  0.09921  0.75362  1.0000
  S   S137      1.0  0.27602  0.10882  0.69102  1.0000
  H   H954      1.0  0.39611  0.44839  0.81430  1.0000
  H   H955      1.0  0.42024  0.00362  0.52278  1.0000
  C   C525      1.0  0.27619  0.18921  0.83822  1.0000
  H   H956      1.0  0.29898  0.05855  0.82916  1.0000
  H   H957      1.0  0.24790  0.16206  0.63604  1.0000
  H   H958      1.0  0.32944  0.05759  0.81010  1.0000
  C   C526      1.0  0.34767  0.10073  0.67333  1.0000
  C   C527      1.0  0.33324  0.09268  0.66067  1.0000
  C   C528      1.0  0.31137  0.09475  0.66662  1.0000
  C   C529      1.0  0.30369  0.10441  0.68562  1.0000
  C   C530      1.0  0.31813  0.11141  0.69903  1.0000
  C   C531      1.0  0.34006  0.10965  0.69283  1.0000
  H   H959      1.0  0.33892  0.08517  0.64610  1.0000
  H   H960      1.0  0.30031  0.08907  0.65631  1.0000
  H   H961      1.0  0.31237  0.11893  0.71371  1.0000
  H   H962      1.0  0.35111  0.11577  0.70287  1.0000
  C   C532      1.0  0.36331  0.13209  0.53387  1.0000
  C   C533      1.0  0.35933  0.15162  0.52215  1.0000
  S   S138      1.0  0.28010  0.15059  0.78796  1.0000
  H   H963      1.0  0.46820  0.11292  0.51546  1.0000
  C   C534      1.0  0.30714  0.02748  0.71735  1.0000
  C   C535      1.0  0.36878  0.11363  0.52267  1.0000
  H   H964      1.0  0.35487  0.16588  0.53065  1.0000
  H   H965      1.0  0.38763  0.49574  0.79865  1.0000
  H   H966      1.0  0.49092  0.07611  0.64980  1.0000
  H   H967      1.0  0.37165  0.09846  0.53168  1.0000
  C   C536      1.0  0.47913  0.08980  0.59788  1.0000
  C   C537      1.0  0.47596  0.08424  0.62012  1.0000
  H   H968      1.0  0.29919  0.38938  0.94263  1.0000
  H   H969      1.0  0.46002  0.08337  0.62777  1.0000
  H   H970      1.0  0.38354  0.49764  0.94947  1.0000
  C   C538      1.0  0.33873  0.34464  0.88828  1.0000
  C   C539      1.0  0.35208  0.32688  0.89395  1.0000
  C   C540      1.0  0.34433  0.30616  0.89617  1.0000
  C   C541      1.0  0.32308  0.30290  0.89310  1.0000
  C   C542      1.0  0.30959  0.32070  0.88777  1.0000
  C   C543      1.0  0.31745  0.34141  0.88518  1.0000
  H   H971      1.0  0.36851  0.32901  0.89618  1.0000
  H   H972      1.0  0.35492  0.29253  0.90022  1.0000
  H   H973      1.0  0.29323  0.31845  0.88527  1.0000
  H   H974      1.0  0.30701  0.35500  0.88063  1.0000
  C   C544      1.0  0.26674  0.00080  0.77627  1.0000
  H   H975      1.0  0.30420  0.06293  0.71159  1.0000
  S   S139      1.0  0.24660  0.13912  0.74190  1.0000
  H   H976      1.0  0.48862  0.12757  0.64724  1.0000
  H   H977      1.0  0.40565  0.40914  0.97219  1.0000
  C   C545      1.0  0.48025  0.37587  0.90318  1.0000
  C   C546      1.0  0.47797  0.37914  0.92533  1.0000
  H   H978      1.0  0.31770  0.05671  0.63662  1.0000
  H   H979      1.0  0.46303  0.37643  0.93458  1.0000
  C   C547      1.0  0.43910  0.46954  0.97772  1.0000
  C   C548      1.0  0.37071  0.47613  0.90888  1.0000
  C   C549      1.0  0.39270  0.47745  0.90604  1.0000
  C   C550      1.0  0.42127  0.07331  0.50153  1.0000
  H   H980      1.0  0.36394  0.46065  0.91172  1.0000
  C   C551      1.0  0.26992  0.05040  0.69332  1.0000
  H   H981      1.0  0.49246  0.32530  0.90225  1.0000
  C   C552      1.0  0.41105  0.47217  0.84601  1.0000
  H   H982      1.0  0.34401  0.34889  0.98539  1.0000
  H   H983      1.0  0.45314  0.11632  0.54025  1.0000
  H   H984      1.0  0.32275  0.03395  0.62055  1.0000
  H   H985      1.0  0.38640  0.01528  0.53988  1.0000
  C   C553      1.0  0.42668  0.45226  0.84393  1.0000
  H   H986      1.0  0.36869  0.48906  0.86216  1.0000
  C   C554      1.0  0.26134  0.24498  0.99027  1.0000
  H   H987      1.0  0.34742  0.02182  0.54454  1.0000
  H   H988      1.0  0.38811  0.43577  0.84987  1.0000
  C   C555      1.0  0.44884  0.45734  0.84926  1.0000
  H   H989      1.0  0.46291  0.42882  0.88950  1.0000
  H   H990      1.0  0.41058  0.47662  0.86307  1.0000
  H   H991      1.0  0.31678  0.00911  0.65189  1.0000
  N   N32       1.0  0.42191  0.48617  0.97179  1.0000
  C   C556      1.0  0.25707  0.15949  0.65058  1.0000
  H   H992      1.0  0.48443  0.46152  0.88479  1.0000
  C   C557      1.0  0.46321  0.43699  0.96841  1.0000
  C   C558      1.0  0.25447  0.19536  0.75103  1.0000
  C   C559      1.0  0.48896  0.44775  0.89600  1.0000
  H   H993      1.0  0.47926  0.14938  0.51162  1.0000
  H   H994      1.0  0.32813  0.11483  0.75232  1.0000
  H   H995      1.0  0.42160  0.43889  0.85555  1.0000
  H   H996      1.0  0.42797  0.44682  0.82724  1.0000
  C   C560      1.0  0.29669  0.18360  0.56864  1.0000
  C   C561      1.0  0.37763  0.01589  0.52509  1.0000
  C   C562      1.0  0.26617  0.17692  0.85540  1.0000
  H   H997      1.0  0.34103  0.03892  0.63998  1.0000
  H   H998      1.0  0.25213  0.20591  0.78330  1.0000
  C   C563      1.0  0.37989  0.45121  0.85436  1.0000
  H   H999      1.0  0.32358  0.07153  0.74170  1.0000
  H   H1000     1.0  0.26809  0.01857  0.70751  1.0000
  H   H1001     1.0  0.31806  0.29953  0.98129  1.0000
  H   H1002     1.0  0.44827  0.46278  0.86596  1.0000
  H   H1003     1.0  0.34593  0.04275  0.84350  1.0000
  H   H1004     1.0  0.45536  0.47000  0.83753  1.0000
  H   H1005     1.0  0.37033  0.06051  0.52239  1.0000
  H   H1006     1.0  0.33029  0.04358  0.74858  1.0000
  H   H1007     1.0  0.45960  0.44270  0.84835  1.0000
  H   H1008     1.0  0.44833  0.45861  0.94508  1.0000
  H   H1009     1.0  0.25114  0.14734  0.86455  1.0000
  H   H1010     1.0  0.48587  0.03745  0.61587  1.0000
  H   H1011     1.0  0.42170  0.03079  0.57627  1.0000
  H   H1012     1.0  0.41595  0.17811  0.55442  1.0000
  H   H1013     1.0  0.46631  0.42411  0.95698  1.0000
  C   C564      1.0  0.48190  0.02578  0.60449  1.0000
  H   H1014     1.0  0.36210  0.03687  0.81912  1.0000
  C   C565      1.0  0.32398  0.03979  0.63684  1.0000
  H   H1015     1.0  0.34700  0.03185  0.51650  1.0000
  H   H1016     1.0  0.29368  0.02552  0.73005  1.0000
  C   C566      1.0  0.45749  0.12472  0.52421  1.0000
  H   H1017     1.0  0.46173  0.15736  0.53427  1.0000
  C   C567      1.0  0.26199  0.14916  0.83050  1.0000
  H   H1018     1.0  0.43319  0.14178  0.55663  1.0000
  Fe  Fe67      1.0  0.25294  0.07932  0.76497  1.0000
  N   N33       1.0  0.30091  0.02137  0.69565  1.0000
  H   H1019     1.0  0.45063  0.00219  0.57226  1.0000
  C   C568      1.0  0.25899  0.15692  0.85138  1.0000
  C   C569      1.0  0.41910  0.01455  0.58264  1.0000
  H   H1020     1.0  0.30836  0.13453  0.81933  1.0000
  H   H1021     1.0  0.27907  0.06028  0.68074  1.0000
  H   H1022     1.0  0.35181  0.44509  0.83742  1.0000
  S   S140      1.0  0.25052  0.27909  0.90698  1.0000
  H   H1023     1.0  0.41854  0.48561  0.83627  1.0000
  H   H1024     1.0  0.39831  0.46433  0.98530  1.0000
  C   C570      1.0  0.42540  0.11079  0.51263  1.0000
  H   H1025     1.0  0.28273  0.10580  0.82193  1.0000
  C   C571      1.0  0.31821  0.05504  0.74159  1.0000
  H   H1026     1.0  0.40397  0.46369  0.95669  1.0000
  H   H1027     1.0  0.36919  0.05768  0.83526  1.0000
  H   H1028     1.0  0.30303  0.05399  0.75184  1.0000
  C   C572      1.0  0.31449  0.03214  0.67728  1.0000
  H   H1029     1.0  0.48735  0.02246  0.56961  1.0000
  H   H1030     1.0  0.27111  0.05653  0.70947  1.0000
  H   H1031     1.0  0.35838  0.17338  0.64451  1.0000
  H   H1032     1.0  0.26490  0.18096  0.75487  1.0000
  H   H1033     1.0  0.33150  0.37535  0.96024  1.0000
  H   H1034     1.0  0.40927  0.45716  0.77611  1.0000
  H   H1035     1.0  0.31227  0.04981  0.67716  1.0000
  C   C573      1.0  0.40194  0.47462  0.97015  1.0000
  H   H1036     1.0  0.40165  0.16062  0.57411  1.0000
  C   C574      1.0  0.31372  0.12493  0.85262  1.0000
  C   C575      1.0  0.29481  0.09358  0.82788  1.0000
  H   H1037     1.0  0.48077  0.13339  0.55964  1.0000
  H   H1038     1.0  0.41051  0.11482  0.50479  1.0000
  N   N34       1.0  0.31063  0.14389  0.61802  1.0000
  C   C576      1.0  0.28876  0.14183  0.62943  1.0000
  C   C577      1.0  0.31770  0.12294  0.60839  1.0000
  C   C578      1.0  0.32552  0.14754  0.63501  1.0000
  C   C579      1.0  0.31187  0.16227  0.60078  1.0000
  C   C580      1.0  0.29170  0.16841  0.58862  1.0000
  C   C581      1.0  0.28083  0.16014  0.64413  1.0000
  C   C582      1.0  0.34952  0.14646  0.62752  1.0000
  C   C583      1.0  0.30465  0.11592  0.59045  1.0000
  C   C584      1.0  0.31239  0.09366  0.58357  1.0000
  C   C585      1.0  0.36238  0.47562  0.96640  1.0000
  H   H1039     1.0  0.36571  0.31111  0.98199  1.0000
  C   C586      1.0  0.36242  0.15595  0.64381  1.0000
  H   H1040     1.0  0.28825  0.12669  0.64006  1.0000
  H   H1041     1.0  0.27675  0.14028  0.61778  1.0000
  H   H1042     1.0  0.33413  0.12354  0.60077  1.0000
  H   H1043     1.0  0.31807  0.10980  0.62145  1.0000
  H   H1044     1.0  0.32322  0.13578  0.64924  1.0000
  H   H1045     1.0  0.32178  0.16353  0.64153  1.0000
  H   H1046     1.0  0.31584  0.17725  0.60776  1.0000
  H   H1047     1.0  0.32530  0.15896  0.58843  1.0000
  H   H1048     1.0  0.27194  0.24273  0.97591  1.0000
  H   H1049     1.0  0.28453  0.15435  0.58316  1.0000
  H   H1050     1.0  0.28900  0.15832  0.65938  1.0000
  H   H1051     1.0  0.28409  0.17608  0.63597  1.0000
  H   H1052     1.0  0.35274  0.15522  0.61147  1.0000
  H   H1053     1.0  0.35537  0.12949  0.62633  1.0000
  H   H1054     1.0  0.28761  0.11528  0.59597  1.0000
  H   H1055     1.0  0.30668  0.12706  0.57575  1.0000
  H   H1056     1.0  0.32898  0.09388  0.57618  1.0000
  H   H1057     1.0  0.31154  0.08164  0.59767  1.0000
  H   H1058     1.0  0.30232  0.08874  0.57122  1.0000
  C   C587      1.0  0.47124  0.14367  0.52742  1.0000
  C   C588      1.0  0.40018  0.40618  0.98899  1.0000
  C   C589      1.0  0.31520  0.05027  0.71830  1.0000
  C   C590      1.0  0.38823  0.46447  0.81684  1.0000
  C   C591      1.0  0.48825  0.13683  0.54297  1.0000
  C   C592      1.0  0.46879  0.43624  0.90338  1.0000
  H   H1059     1.0  0.42628  0.48709  0.93681  1.0000
  H   H1060     1.0  0.37959  0.15355  0.63880  1.0000
  H   H1061     1.0  0.29638  0.12457  0.85692  1.0000
  H   H1062     1.0  0.29042  0.07050  0.80359  1.0000
  C   C593      1.0  0.34909  0.42903  0.86909  1.0000
  C   C594      1.0  0.27757  0.02648  0.69362  1.0000
  C   C595      1.0  0.27987  0.18111  0.81753  1.0000
  H   H1063     1.0  0.48242  0.04955  0.57722  1.0000
  H   H1064     1.0  0.28843  0.19038  0.80461  1.0000
  H   H1065     1.0  0.36082  0.49079  0.83527  1.0000
  C   C596      1.0  0.35683  0.02951  0.53049  1.0000
  H   H1066     1.0  0.33191  0.42688  0.86844  1.0000
  H   H1067     1.0  0.30335  0.19839  0.57334  1.0000
  H   H1068     1.0  0.31536  0.14834  0.87645  1.0000
  N   N35       1.0  0.38875  0.46974  0.84012  1.0000
  H   H1069     1.0  0.46440  0.02591  0.60452  1.0000
  C   C597      1.0  0.27288  0.16104  0.81357  1.0000
  H   H1070     1.0  0.35929  0.46725  0.98268  1.0000
  C   C598      1.0  0.41876  0.14435  0.54768  1.0000
  C   C599      1.0  0.44435  0.45164  0.96174  1.0000
  H   H1071     1.0  0.36488  0.46344  0.95417  1.0000
  H   H1072     1.0  0.27241  0.01957  0.67907  1.0000
  Fe  Fe68      1.0  0.26328  0.12616  0.77113  1.0000
  C   C600      1.0  0.32891  0.34055  0.98658  1.0000
  C   C601      1.0  0.49144  0.00293  0.61056  1.0000
  C   C602      1.0  0.42403  0.14778  0.52277  1.0000
  H   H1073     1.0  0.43096  0.16366  0.51927  1.0000
  H   H1074     1.0  0.37639  0.29233  0.93769  1.0000
  H   H1075     1.0  0.35798  0.41412  0.86412  1.0000
  H   H1076     1.0  0.45974  0.42932  0.98497  1.0000
  H   H1077     1.0  0.43083  0.44130  0.96145  1.0000
  H   H1078     1.0  0.32026  0.01640  0.72310  1.0000
  H   H1079     1.0  0.40523  0.48412  0.76438  1.0000
  H   H1080     1.0  0.45416  0.47710  0.97942  1.0000
  H   H1081     1.0  0.32194  0.11194  0.86242  1.0000
  H   H1082     1.0  0.34692  0.09279  0.75898  1.0000
  C   C603      1.0  0.39781  0.48069  0.79925  1.0000
  H   H1083     1.0  0.38744  0.02519  0.51232  1.0000
  H   H1084     1.0  0.28189  0.20457  0.84109  1.0000
  H   H1085     1.0  0.26464  0.20852  0.74455  1.0000
  H   H1086     1.0  0.33083  0.05161  0.70886  1.0000
  H   H1087     1.0  0.35933  0.14785  0.66024  1.0000
  H   H1088     1.0  0.29434  0.02825  0.65059  1.0000
  H   H1089     1.0  0.31277  0.15986  0.84932  1.0000
  N   N36       1.0  0.32641  0.33041  0.96556  1.0000
  C   C604      1.0  0.31186  0.31207  0.96956  1.0000
  H   H1090     1.0  0.38267  0.46850  0.77270  1.0000
  C   C605      1.0  0.31607  0.34709  0.95036  1.0000
  C   C606      1.0  0.34773  0.32360  0.95481  1.0000
  C   C607      1.0  0.36054  0.30540  0.96688  1.0000
  C   C608      1.0  0.30746  0.30027  0.94942  1.0000
  C   C609      1.0  0.32765  0.36823  0.94532  1.0000
  Fe  Fe69      1.0  0.26128  0.22026  0.89075  1.0000
  H   H1091     1.0  0.35570  0.11956  0.75359  1.0000
  C   C610      1.0  0.38057  0.29858  0.95299  1.0000
  C   C611      1.0  0.29332  0.28160  0.95594  1.0000
  C   C612      1.0  0.31400  0.38492  0.93271  1.0000
  H   H1092     1.0  0.40845  0.14967  0.51561  1.0000
  C   C613      1.0  0.49045  0.03381  0.58174  1.0000
  H   H1093     1.0  0.29246  0.09265  0.84588  1.0000
  H   H1094     1.0  0.25202  0.17231  0.66167  1.0000
  H   H1095     1.0  0.29951  0.35124  0.95689  1.0000
  H   H1096     1.0  0.31487  0.34074  0.93426  1.0000
  H   H1097     1.0  0.34603  0.31890  0.93818  1.0000
  H   H1098     1.0  0.35819  0.33733  0.95252  1.0000
  H   H1099     1.0  0.35125  0.29103  0.97080  1.0000
  H   H1100     1.0  0.41634  0.43211  0.99954  1.0000
  H   H1101     1.0  0.29909  0.31104  0.93754  1.0000
  H   H1102     1.0  0.32243  0.29359  0.94130  1.0000
  H   H1103     1.0  0.34265  0.36525  0.93511  1.0000
  C   C614      1.0  0.40622  0.16388  0.55654  1.0000
  C   C615      1.0  0.39876  0.47200  0.77678  1.0000
  C   C616      1.0  0.48940  0.00813  0.65016  1.0000
  S   S141      1.0  0.26230  0.04488  0.77744  1.0000
  C   C617      1.0  0.31122  0.02602  0.65404  1.0000
  H   H1104     1.0  0.39076  0.31236  0.94898  1.0000
  H   H1105     1.0  0.38975  0.28573  0.96204  1.0000
  H   H1106     1.0  0.45622  0.44776  0.90972  1.0000
  H   H1107     1.0  0.30122  0.26961  0.96714  1.0000
  H   H1108     1.0  0.27784  0.28736  0.96388  1.0000
  H   H1109     1.0  0.29022  0.27357  0.94126  1.0000
  H   H1110     1.0  0.32290  0.39954  0.92845  1.0000
  H   H1111     1.0  0.30992  0.37863  0.91740  1.0000
  N   N37       1.0  0.31676  0.10045  0.82020  1.0000
  C   C618      1.0  0.31876  0.10246  0.79570  1.0000
  H   H1112     1.0  0.38292  0.45276  0.87156  1.0000
  C   C619      1.0  0.31881  0.12249  0.82796  1.0000
  C   C620      1.0  0.33358  0.08523  0.82968  1.0000
  C   C621      1.0  0.34220  0.06621  0.81611  1.0000
  C   C622      1.0  0.33842  0.11394  0.78507  1.0000
  C   C623      1.0  0.38174  0.48907  0.96576  1.0000
  H   H1113     1.0  0.49318  0.38795  0.95285  1.0000
  S   S142      1.0  0.26345  0.18526  0.88228  1.0000
  C   C624      1.0  0.35568  0.04994  0.82939  1.0000
  C   C625      1.0  0.34247  0.10997  0.76101  1.0000
  C   C626      1.0  0.37501  0.48978  0.84480  1.0000
  H   H1114     1.0  0.30465  0.11166  0.78963  1.0000
  H   H1115     1.0  0.31848  0.08668  0.78880  1.0000
  H   H1116     1.0  0.41385  0.06911  0.51807  1.0000
  C   C627      1.0  0.32042  0.14642  0.85906  1.0000
  C   C628      1.0  0.35743  0.49498  0.90807  1.0000
  H   H1117     1.0  0.33518  0.12779  0.82385  1.0000
  H   H1118     1.0  0.34779  0.09392  0.83249  1.0000
  C   C629      1.0  0.38794  0.38871  0.99552  1.0000
  H   H1119     1.0  0.35239  0.07208  0.80172  1.0000
  H   H1120     1.0  0.25340  0.14381  0.65923  1.0000
  H   H1121     1.0  0.33571  0.13153  0.78624  1.0000
  H   H1122     1.0  0.35289  0.10862  0.79330  1.0000
  H   H1123     1.0  0.48737  0.46273  0.92668  1.0000
  C   C630      1.0  0.25751  0.01998  0.76696  1.0000
  H   H1124     1.0  0.40900  0.13030  0.55161  1.0000
  C   C631      1.0  0.36166  0.05185  0.53637  1.0000
  H   H1125     1.0  0.39151  0.16745  0.54814  1.0000
  H   H1126     1.0  0.45235  0.00611  0.63295  1.0000
  H   H1127     1.0  0.35201  0.43154  0.88610  1.0000
  H   H1128     1.0  0.37135  0.05081  0.55053  1.0000
  C   C632      1.0  0.40130  0.49757  0.90217  1.0000
  N   N38       1.0  0.43800  0.13040  0.51223  1.0000
  H   H1129     1.0  0.42038  0.10523  0.52960  1.0000
  H   H1130     1.0  0.27946  0.17670  0.59941  1.0000
  H   H1131     1.0  0.34607  0.46242  0.85931  1.0000
  H   H1132     1.0  0.37162  0.46311  0.81294  1.0000
  C   C633      1.0  0.35580  0.44817  0.85392  1.0000
  H   H1133     1.0  0.33158  0.02847  0.67982  1.0000
  H   H1134     1.0  0.43477  0.46167  0.99405  1.0000
  H   H1135     1.0  0.30825  0.17563  0.55686  1.0000
  H   H1136     1.0  0.33790  0.14732  0.85663  1.0000
  H   H1137     1.0  0.47765  0.44617  0.96800  1.0000
  H   H1138     1.0  0.47851  0.02277  0.64968  1.0000
  H   H1139     1.0  0.47180  0.42335  0.91615  1.0000
  H   H1140     1.0  0.32768  0.07859  0.84611  1.0000
  H   H1141     1.0  0.34663  0.06123  0.54064  1.0000
  H   H1142     1.0  0.41417  0.48426  0.80218  1.0000
  C   C634      1.0  0.39915  0.00936  0.59242  1.0000
  H   H1143     1.0  0.34040  0.49399  0.91026  1.0000
  C   C635      1.0  0.43667  0.09108  0.50198  1.0000
  H   H1144     1.0  0.31619  0.35334  0.98956  1.0000
  C   C636      1.0  0.49349  0.08003  0.63254  1.0000
  H   H1145     1.0  0.28196  0.18816  0.56054  1.0000
  C   C637      1.0  0.28889  0.07150  0.82143  1.0000
  H   H1146     1.0  0.34823  0.48615  0.96266  1.0000
  C   C638      1.0  0.42730  0.49790  0.95007  1.0000
  H   H1147     1.0  0.25639  0.13376  0.82771  1.0000
  H   H1148     1.0  0.27658  0.00147  0.78959  1.0000
  H   H1149     1.0  0.44994  0.08443  0.51146  1.0000
  H   H1150     1.0  0.46234  0.49526  0.94838  1.0000
  H   H1151     1.0  0.41826  0.49867  0.89938  1.0000
  C   C639      1.0  0.26599  0.06720  0.82953  1.0000
  H   H1152     1.0  0.25483  0.07932  0.82205  1.0000
  H   H1153     1.0  0.26364  0.06747  0.84747  1.0000
  C   C640      1.0  0.49513  0.38552  0.93569  1.0000
  H   H1154     1.0  0.26216  0.05115  0.82502  1.0000
  C   C641      1.0  0.24663  0.05350  0.68860  1.0000
  Fe  Fe70      1.0  0.39641  0.55939  0.11543  1.0000
  S   S143      1.0  0.41537  0.58873  0.11521  1.0000
  S   S144      1.0  0.38792  0.53950  0.14649  1.0000
  Fe  Fe71      1.0  0.39254  0.56459  0.06724  1.0000
  S   S145      1.0  0.41140  0.59377  0.06279  1.0000
  S   S146      1.0  0.38097  0.54958  0.03907  1.0000
  Fe  Fe72      1.0  0.43317  0.57599  0.08549  1.0000
  S   S147      1.0  0.46841  0.57142  0.07561  1.0000
  Fe  Fe73      1.0  0.39168  0.60415  0.09262  1.0000
  S   S148      1.0  0.37958  0.63934  0.09178  1.0000
  S   S149      1.0  0.41572  0.54575  0.08738  1.0000
  S   S150      1.0  0.37134  0.57583  0.09541  1.0000
  Fe  Fe74      1.0  0.40757  0.93856  0.38536  1.0000
  S   S151      1.0  0.40894  0.90977  0.36566  1.0000
  S   S152      1.0  0.41876  0.97093  0.37364  1.0000
  Fe  Fe75      1.0  0.39022  0.91490  0.42706  1.0000
  S   S153      1.0  0.39001  0.88395  0.41111  1.0000
  S   S154      1.0  0.37957  0.92307  0.46141  1.0000
  Fe  Fe76      1.0  0.42209  0.89261  0.39534  1.0000
  S   S155      1.0  0.45130  0.86991  0.39631  1.0000
  Fe  Fe77      1.0  0.37674  0.90376  0.38279  1.0000
  S   S156      1.0  0.34539  0.89623  0.37012  1.0000
  S   S157      1.0  0.42301  0.92194  0.41344  1.0000
  S   S158      1.0  0.37464  0.93409  0.40019  1.0000
  S   S159      1.0  0.28778  0.73597  0.10206  1.0000
  S   S160      1.0  0.28356  0.67280  0.11433  1.0000
  Fe  Fe78      1.0  0.28366  0.88319  0.26509  1.0000
  S   S161      1.0  0.27735  0.90128  0.23319  1.0000
  S   S162      1.0  0.31696  0.88357  0.27642  1.0000
  H   H1155     1.0  0.25261  0.79938  0.22293  1.0000
  H   H1156     1.0  0.37331  0.85322  0.29890  1.0000
  S   S163      1.0  0.27015  0.85297  0.25576  1.0000
  H   H1157     1.0  0.40320  0.98734  0.49610  1.0000
  C   C642      1.0  0.35007  0.98030  0.46507  1.0000
  H   H1158     1.0  0.42357  0.53869  0.01042  1.0000
  H   H1159     1.0  0.43914  0.93977  0.48621  1.0000
  C   C643      1.0  0.36562  0.97500  0.34685  1.0000
  C   C644      1.0  0.26756  0.83423  0.18221  1.0000
  H   H1160     1.0  0.35858  0.94774  0.32954  1.0000
  C   C645      1.0  0.26591  0.80845  0.15457  1.0000
  H   H1161     1.0  0.49302  0.85260  0.40577  1.0000
  H   H1162     1.0  0.28623  0.98020  0.22138  1.0000
  C   C646      1.0  0.33768  0.89671  0.34322  1.0000
  C   C647      1.0  0.31604  0.89563  0.34020  1.0000
  C   C648      1.0  0.30926  0.89306  0.31953  1.0000
  C   C649      1.0  0.32412  0.89124  0.30167  1.0000
  C   C650      1.0  0.34568  0.89331  0.30450  1.0000
  C   C651      1.0  0.35245  0.89605  0.32516  1.0000
  H   H1163     1.0  0.30450  0.89617  0.35407  1.0000
  H   H1164     1.0  0.29265  0.89161  0.31759  1.0000
  H   H1165     1.0  0.35729  0.89199  0.29076  1.0000
  H   H1166     1.0  0.36915  0.89679  0.32724  1.0000
  C   C652      1.0  0.41507  0.98766  0.39521  1.0000
  C   C653      1.0  0.28685  0.79941  0.18506  1.0000
  C   C654      1.0  0.29777  0.70360  0.03433  1.0000
  H   H1167     1.0  0.47659  0.64873  0.06279  1.0000
  C   C655      1.0  0.28814  0.96675  0.19059  1.0000
  C   C656      1.0  0.40459  0.98052  0.41493  1.0000
  H   H1168     1.0  0.43801  0.91262  0.46085  1.0000
  H   H1169     1.0  0.31740  0.62453  0.15855  1.0000
  H   H1170     1.0  0.34232  0.52110  0.12526  1.0000
  H   H1171     1.0  0.39905  0.96454  0.41718  1.0000
  C   C657      1.0  0.47608  0.88165  0.39448  1.0000
  H   H1172     1.0  0.43989  0.64044  0.05740  1.0000
  C   C658      1.0  0.47799  0.90305  0.38690  1.0000
  H   H1173     1.0  0.25940  0.95571  0.27729  1.0000
  H   H1174     1.0  0.46415  0.91268  0.38219  1.0000
  C   C659      1.0  0.35245  0.64810  0.09639  1.0000
  C   C660      1.0  0.33683  0.63390  0.10380  1.0000
  C   C661      1.0  0.31568  0.64164  0.10839  1.0000
  C   C662      1.0  0.30986  0.66364  0.10576  1.0000
  C   C663      1.0  0.32529  0.67772  0.09749  1.0000
  C   C664      1.0  0.34649  0.67003  0.09305  1.0000
  H   H1175     1.0  0.34111  0.61698  0.10637  1.0000
  H   H1176     1.0  0.30384  0.63052  0.11450  1.0000
  H   H1177     1.0  0.32096  0.69458  0.09488  1.0000
  H   H1178     1.0  0.35839  0.68113  0.08712  1.0000
  H   H1179     1.0  0.45449  0.61777  0.06936  1.0000
  H   H1180     1.0  0.36903  0.81802  0.33631  1.0000
  C   C665      1.0  0.46073  0.84973  0.45392  1.0000
  C   C666      1.0  0.37754  0.83729  0.30697  1.0000
  H   H1181     1.0  0.32290  0.50408  0.11720  1.0000
  H   H1182     1.0  0.32951  0.49973  0.04933  1.0000
  H   H1183     1.0  0.26018  0.80443  0.13954  1.0000
  H   H1184     1.0  0.46719  0.60167  0.10954  1.0000
  H   H1185     1.0  0.25004  0.83998  0.15386  1.0000
  C   C667      1.0  0.37309  0.59082  0.02272  1.0000
  C   C668      1.0  0.37478  0.56911  0.01867  1.0000
  H   H1186     1.0  0.36396  0.51194  0.17614  1.0000
  H   H1187     1.0  0.34223  0.83218  0.40793  1.0000
  H   H1188     1.0  0.37454  0.59566  0.03886  1.0000
  H   H1189     1.0  0.28623  0.67887  0.01637  1.0000
  C   C669      1.0  0.36933  0.60637  0.00585  1.0000
  H   H1190     1.0  0.42407  0.61513  0.00449  1.0000
  H   H1191     1.0  0.39464  0.83659  0.30979  1.0000
  H   H1192     1.0  0.44971  0.61878  0.04095  1.0000
  C   C670      1.0  0.40087  0.88868  0.48225  1.0000
  H   H1193     1.0  0.40222  0.88128  0.46695  1.0000
  H   H1194     1.0  0.42268  0.50121  0.06789  1.0000
  H   H1195     1.0  0.47193  0.88612  0.49835  1.0000
  H   H1196     1.0  0.28684  0.82363  0.20826  1.0000
  H   H1197     1.0  0.27210  0.70430  0.01422  1.0000
  C   C671      1.0  0.25243  0.75365  0.02599  1.0000
  H   H1198     1.0  0.29497  0.64269  0.15348  1.0000
  H   H1199     1.0  0.31793  0.99419  0.35803  1.0000
  C   C672      1.0  0.30820  0.63908  0.16404  1.0000
  H   H1200     1.0  0.45660  0.92451  0.44165  1.0000
  H   H1201     1.0  0.34871  0.51862  0.05076  1.0000
  C   C673      1.0  0.45431  0.87215  0.46111  1.0000
  H   H1202     1.0  0.26112  0.83559  0.33221  1.0000
  H   H1203     1.0  0.26761  0.77831  0.00526  1.0000
  H   H1204     1.0  0.32948  0.85847  0.40275  1.0000
  C   C674      1.0  0.33762  0.51768  0.00910  1.0000
  H   H1205     1.0  0.38178  0.96778  0.34922  1.0000
  H   H1206     1.0  0.33731  0.53409  0.01484  1.0000
  S   S164      1.0  0.25333  0.89519  0.28294  1.0000
  H   H1207     1.0  0.29714  0.72134  0.03424  1.0000
  H   H1208     1.0  0.41588  0.94816  0.45674  1.0000
  C   C675      1.0  0.48135  0.52917  0.12499  1.0000
  Fe  Fe79      1.0  0.25883  0.74674  0.08442  1.0000
  C   C676      1.0  0.27940  0.79377  0.16563  1.0000
  H   H1209     1.0  0.36699  0.51261  0.09475  1.0000
  H   H1210     1.0  0.39415  0.67696  0.17714  1.0000
  H   H1211     1.0  0.49106  0.54480  0.15228  1.0000
  C   C677      1.0  0.45289  0.92132  0.45937  1.0000
  H   H1212     1.0  0.43724  0.95999  0.43980  1.0000
  H   H1213     1.0  0.31590  0.83840  0.42000  1.0000
  C   C678      1.0  0.45912  0.53935  0.13008  1.0000
  H   H1214     1.0  0.37350  0.66943  0.19753  1.0000
  C   C679      1.0  0.27217  0.83998  0.31791  1.0000
  H   H1215     1.0  0.38161  0.69680  0.19439  1.0000
  C   C680      1.0  0.36285  0.97572  0.48490  1.0000
  C   C681      1.0  0.25858  0.79633  0.26579  1.0000
  C   C682      1.0  0.46470  0.90215  0.49313  1.0000
  C   C683      1.0  0.37208  0.50210  0.16406  1.0000
  C   C684      1.0  0.28830  0.69645  0.01389  1.0000
  H   H1216     1.0  0.35087  0.96582  0.45566  1.0000
  C   C685      1.0  0.38524  0.51153  0.14721  1.0000
  H   H1217     1.0  0.36725  0.98551  0.33169  1.0000
  H   H1218     1.0  0.28293  0.95106  0.19802  1.0000
  C   C686      1.0  0.25092  0.97037  0.27184  1.0000
  H   H1219     1.0  0.26560  0.83480  0.30325  1.0000
  H   H1220     1.0  0.32322  0.67729  0.00507  1.0000
  H   H1221     1.0  0.37489  0.82462  0.29606  1.0000
  H   H1222     1.0  0.40668  0.50554  0.11920  1.0000
  Fe  Fe80      1.0  0.24646  0.91201  0.25067  1.0000
  C   C687      1.0  0.26020  0.82862  0.16273  1.0000
  H   H1223     1.0  0.48118  0.51182  0.12998  1.0000
  H   H1224     1.0  0.25816  0.80321  0.28182  1.0000
  C   C688      1.0  0.34679  0.50207  0.04623  1.0000
  H   H1225     1.0  0.33534  0.96227  0.34070  1.0000
  C   C689      1.0  0.45327  0.62845  0.05435  1.0000
  Fe  Fe81      1.0  0.26129  0.87196  0.22543  1.0000
  C   C690      1.0  0.47382  0.63979  0.04862  1.0000
  H   H1226     1.0  0.47348  0.96483  0.42474  1.0000
  H   H1227     1.0  0.27279  0.73980  0.19459  1.0000
  H   H1228     1.0  0.49009  0.93408  0.47292  1.0000
  H   H1229     1.0  0.48853  0.61611  0.02807  1.0000
  H   H1230     1.0  0.26243  0.98407  0.20744  1.0000
  H   H1231     1.0  0.27759  0.73144  0.22227  1.0000
  H   H1232     1.0  0.48765  0.87747  0.46310  1.0000
  C   C691      1.0  0.40786  0.65260  0.02168  1.0000
  H   H1233     1.0  0.39282  0.98858  0.44700  1.0000
  H   H1234     1.0  0.44755  0.53154  0.12125  1.0000
  H   H1235     1.0  0.33320  0.98445  0.47019  1.0000
  C   C692      1.0  0.34013  0.50622  0.11723  1.0000
  H   H1236     1.0  0.26513  0.98991  0.29327  1.0000
  H   H1237     1.0  0.30155  0.63564  0.18101  1.0000
  H   H1238     1.0  0.28612  0.67763  0.05680  1.0000
  H   H1239     1.0  0.32136  0.51183  0.01137  1.0000
  C   C693      1.0  0.35295  0.50256  0.02149  1.0000
  C   C694      1.0  0.48352  0.59668  0.10506  1.0000
  H   H1240     1.0  0.34712  0.97751  0.37819  1.0000
  H   H1241     1.0  0.35133  0.94496  0.35818  1.0000
  H   H1242     1.0  0.47604  0.89025  0.44000  1.0000
  H   H1243     1.0  0.48496  0.53090  0.10709  1.0000
  C   C695      1.0  0.47326  0.88693  0.45788  1.0000
  H   H1244     1.0  0.44808  0.87013  0.47827  1.0000
  C   C696      1.0  0.39060  0.90896  0.48381  1.0000
  H   H1245     1.0  0.37886  0.96916  0.47925  1.0000
  S   S165      1.0  0.26329  0.76142  0.04953  1.0000
  H   H1246     1.0  0.44664  0.83989  0.45562  1.0000
  H   H1247     1.0  0.45714  0.97243  0.40253  1.0000
  H   H1248     1.0  0.47924  0.95339  0.39896  1.0000
  H   H1249     1.0  0.46705  0.85047  0.43669  1.0000
  C   C697      1.0  0.35768  0.98765  0.36698  1.0000
  H   H1250     1.0  0.29745  0.78829  0.19364  1.0000
  Fe  Fe82      1.0  0.27108  0.75162  0.13098  1.0000
  C   C698      1.0  0.27995  0.98443  0.20535  1.0000
  H   H1251     1.0  0.35482  0.96304  0.49530  1.0000
  H   H1252     1.0  0.31445  0.69745  0.03546  1.0000
  H   H1253     1.0  0.26818  0.70124  0.05483  1.0000
  C   C699      1.0  0.37888  0.68251  0.18564  1.0000
  C   C700      1.0  0.28086  0.81945  0.19340  1.0000
  H   H1254     1.0  0.37172  0.98876  0.37624  1.0000
  C   C701      1.0  0.47356  0.96817  0.40691  1.0000
  H   H1255     1.0  0.45427  0.53725  0.14772  1.0000
  N   N39       1.0  0.32217  0.69884  0.16681  1.0000
  C   C702      1.0  0.32813  0.70417  0.14302  1.0000
  C   C703      1.0  0.31020  0.67860  0.16922  1.0000
  C   C704      1.0  0.30716  0.71684  0.17472  1.0000
  C   C705      1.0  0.34107  0.69670  0.18029  1.0000
  C   C706      1.0  0.36250  0.68805  0.16912  1.0000
  C   C707      1.0  0.33723  0.72652  0.13732  1.0000
  C   C708      1.0  0.29667  0.71355  0.19818  1.0000
  C   C709      1.0  0.32271  0.65780  0.16259  1.0000
  H   H1256     1.0  0.45852  0.55671  0.12491  1.0000
  C   C710      1.0  0.34915  0.72794  0.11482  1.0000
  H   H1257     1.0  0.36834  0.62317  0.00893  1.0000
  H   H1258     1.0  0.31395  0.70371  0.13364  1.0000
  H   H1259     1.0  0.33957  0.69187  0.13618  1.0000
  H   H1260     1.0  0.30435  0.67492  0.18639  1.0000
  H   H1261     1.0  0.29586  0.68085  0.15984  1.0000
  H   H1262     1.0  0.29417  0.72010  0.16375  1.0000
  H   H1263     1.0  0.31550  0.73201  0.17401  1.0000
  H   H1264     1.0  0.34432  0.71249  0.18608  1.0000
  H   H1265     1.0  0.33740  0.68634  0.19536  1.0000
  H   H1266     1.0  0.36914  0.70033  0.15706  1.0000
  H   H1267     1.0  0.36092  0.67358  0.16037  1.0000
  H   H1268     1.0  0.32406  0.73909  0.13730  1.0000
  H   H1269     1.0  0.34811  0.73044  0.14933  1.0000
  H   H1270     1.0  0.30863  0.70821  0.20978  1.0000
  H   H1271     1.0  0.28450  0.70148  0.19898  1.0000
  H   H1272     1.0  0.33011  0.65951  0.14579  1.0000
  H   H1273     1.0  0.33517  0.65328  0.17386  1.0000
  H   H1274     1.0  0.41645  0.51775  0.03069  1.0000
  C   C711      1.0  0.25703  0.76534  0.00608  1.0000
  H   H1275     1.0  0.46069  0.95258  0.47009  1.0000
  H   H1276     1.0  0.36256  0.71568  0.11386  1.0000
  H   H1277     1.0  0.33831  0.72561  0.10218  1.0000
  H   H1278     1.0  0.35556  0.74403  0.11149  1.0000
  H   H1279     1.0  0.44068  0.64803  0.01055  1.0000
  C   C712      1.0  0.35177  0.95649  0.34368  1.0000
  C   C713      1.0  0.48807  0.98624  0.39926  1.0000
  H   H1280     1.0  0.27247  0.80231  0.25547  1.0000
  H   H1281     1.0  0.42702  0.97190  0.46438  1.0000
  H   H1282     1.0  0.27304  0.85767  0.31607  1.0000
  Fe  Fe83      1.0  0.26949  0.70723  0.11340  1.0000
  H   H1283     1.0  0.34173  0.52109  0.08519  1.0000
  H   H1284     1.0  0.29153  0.70141  0.06934  1.0000
  C   C714      1.0  0.40102  0.99415  0.43191  1.0000
  C   C715      1.0  0.43078  0.95649  0.45679  1.0000
  H   H1285     1.0  0.44725  0.90069  0.49619  1.0000
  H   H1286     1.0  0.41086  0.66687  0.03030  1.0000
  H   H1287     1.0  0.47126  0.65150  0.03464  1.0000
  H   H1288     1.0  0.44127  0.87887  0.45131  1.0000
  C   C716      1.0  0.28507  0.69542  0.05501  1.0000
  H   H1289     1.0  0.39208  0.65522  0.01509  1.0000
  H   H1290     1.0  0.47292  0.84176  0.46409  1.0000
  S   S166      1.0  0.28776  0.76848  0.15562  1.0000
  N   N40       1.0  0.32595  0.82761  0.34459  1.0000
  C   C717      1.0  0.34025  0.83610  0.32559  1.0000
  C   C718      1.0  0.30330  0.83517  0.34118  1.0000
  C   C719      1.0  0.33188  0.83752  0.36457  1.0000
  C   C720      1.0  0.32813  0.80349  0.34836  1.0000
  C   C721      1.0  0.33363  0.79045  0.32808  1.0000
  C   C722      1.0  0.36434  0.83395  0.32862  1.0000
  C   C723      1.0  0.31726  0.83330  0.38562  1.0000
  C   C724      1.0  0.29420  0.82910  0.32022  1.0000
  H   H1291     1.0  0.36909  0.50843  0.01778  1.0000
  C   C725      1.0  0.33157  0.76649  0.33374  1.0000
  N   N41       1.0  0.47046  0.90758  0.46921  1.0000
  C   C726      1.0  0.32687  0.84105  0.40523  1.0000
  H   H1292     1.0  0.33620  0.85338  0.32203  1.0000
  H   H1293     1.0  0.33759  0.82869  0.31046  1.0000
  H   H1294     1.0  0.29231  0.82877  0.35472  1.0000
  H   H1295     1.0  0.30152  0.85295  0.34147  1.0000
  H   H1296     1.0  0.33232  0.85519  0.36148  1.0000
  H   H1297     1.0  0.34819  0.83183  0.36847  1.0000
  H   H1298     1.0  0.34082  0.79863  0.35941  1.0000
  H   H1299     1.0  0.31337  0.79742  0.35708  1.0000
  H   H1300     1.0  0.35025  0.79270  0.32154  1.0000
  H   H1301     1.0  0.32335  0.79539  0.31486  1.0000
  H   H1302     1.0  0.36843  0.84640  0.33919  1.0000
  C   C727      1.0  0.28525  0.73427  0.20561  1.0000
  H   H1303     1.0  0.31466  0.81598  0.38882  1.0000
  H   H1304     1.0  0.30169  0.84225  0.38435  1.0000
  H   H1305     1.0  0.30423  0.83415  0.30542  1.0000
  H   H1306     1.0  0.29237  0.81160  0.32090  1.0000
  H   H1307     1.0  0.30573  0.96591  0.18851  1.0000
  C   C728      1.0  0.35053  0.50788  0.09407  1.0000
  S   S167      1.0  0.25992  0.85993  0.19163  1.0000
  H   H1308     1.0  0.34219  0.76061  0.34652  1.0000
  H   H1309     1.0  0.31494  0.76319  0.33949  1.0000
  H   H1310     1.0  0.33612  0.75754  0.31909  1.0000
  H   H1311     1.0  0.38311  0.50941  0.06014  1.0000
  C   C729      1.0  0.44680  0.94286  0.46958  1.0000
  H   H1312     1.0  0.28169  0.96958  0.17446  1.0000
  H   H1313     1.0  0.40751  0.63847  0.03363  1.0000
  S   S168      1.0  0.25486  0.72175  0.14376  1.0000
  H   H1314     1.0  0.29660  0.74705  0.20568  1.0000
  H   H1315     1.0  0.48840  0.98805  0.38129  1.0000
  C   C730      1.0  0.25414  0.98980  0.28088  1.0000
  C   C731      1.0  0.36417  0.99634  0.49707  1.0000
  H   H1316     1.0  0.48952  0.92796  0.43094  1.0000
  H   H1317     1.0  0.25348  0.81195  0.09109  1.0000
  C   C732      1.0  0.42932  0.52347  0.01884  1.0000
  H   H1318     1.0  0.26040  0.77861  0.26827  1.0000
  C   C733      1.0  0.48822  0.58161  0.08957  1.0000
  H   H1319     1.0  0.29848  0.99644  0.26661  1.0000
  C   C734      1.0  0.49132  0.91826  0.46596  1.0000
  H   H1320     1.0  0.48852  0.89187  0.33435  1.0000
  H   H1321     1.0  0.44294  0.52679  0.02796  1.0000
  H   H1322     1.0  0.48374  0.50866  0.16692  1.0000
  H   H1323     1.0  0.35648  0.99372  0.45433  1.0000
  C   C735      1.0  0.42521  0.64925  0.00334  1.0000
  C   C736      1.0  0.49429  0.86926  0.40018  1.0000
  C   C737      1.0  0.43606  0.50649  0.00277  1.0000
  C   C738      1.0  0.49258  0.62349  0.04282  1.0000
  H   H1324     1.0  0.49245  0.61036  0.05586  1.0000
  H   H1325     1.0  0.41593  0.86161  0.49973  1.0000
  H   H1326     1.0  0.33291  0.70338  0.00100  1.0000
  H   H1327     1.0  0.30830  0.73275  0.00118  1.0000
  Fe  Fe84      1.0  0.40968  0.58892  0.90000  1.0000
  S   S169      1.0  0.38978  0.57265  0.92717  1.0000
  S   S170      1.0  0.44391  0.57588  0.90024  1.0000
  Fe  Fe85      1.0  0.37102  0.61500  0.88370  1.0000
  S   S171      1.0  0.34848  0.60022  0.90948  1.0000
  S   S172      1.0  0.35694  0.64092  0.86094  1.0000
  Fe  Fe86      1.0  0.37359  0.60499  0.93149  1.0000
  S   S173      1.0  0.36523  0.61958  0.96340  1.0000
  Fe  Fe87      1.0  0.36659  0.56919  0.90275  1.0000
  S   S174      1.0  0.34946  0.53858  0.90332  1.0000
  S   S175      1.0  0.39530  0.62178  0.90623  1.0000
  S   S176      1.0  0.38730  0.58332  0.87479  1.0000
  Fe  Fe88      1.0  0.39226  0.90974  0.61432  1.0000
  S   S177      1.0  0.40285  0.92243  0.58037  1.0000
  S   S178      1.0  0.36249  0.92371  0.63261  1.0000
  Fe  Fe89      1.0  0.43384  0.88356  0.61937  1.0000
  S   S179      1.0  0.44805  0.89405  0.58634  1.0000
  S   S180      1.0  0.44979  0.86068  0.64341  1.0000
  Fe  Fe90      1.0  0.43397  0.92652  0.59369  1.0000
  S   S181      1.0  0.45109  0.95652  0.58429  1.0000
  Fe  Fe91      1.0  0.41607  0.88905  0.57518  1.0000
  S   S182      1.0  0.41725  0.87289  0.54358  1.0000
  S   S183      1.0  0.42270  0.91662  0.62793  1.0000
  S   S184      1.0  0.40268  0.87564  0.60800  1.0000
  H   H1328     1.0  0.44751  0.62224  0.89645  1.0000
  S   S185      1.0  0.29367  0.87065  0.69113  1.0000
  S   S186      1.0  0.30190  0.71320  0.91034  1.0000
  H   H1329     1.0  0.29723  0.98792  0.72951  1.0000
  H   H1330     1.0  0.33799  0.97484  0.57469  1.0000
  Fe  Fe92      1.0  0.27457  0.88203  0.72142  1.0000
  C   C739      1.0  0.34379  0.90857  0.64906  1.0000
  C   C740      1.0  0.34056  0.88737  0.64527  1.0000
  C   C741      1.0  0.32508  0.87602  0.65825  1.0000
  C   C742      1.0  0.31295  0.88562  0.67536  1.0000
  C   C743      1.0  0.31632  0.90675  0.67931  1.0000
  C   C744      1.0  0.33152  0.91824  0.66605  1.0000
  H   H1331     1.0  0.34969  0.87991  0.63203  1.0000
  H   H1332     1.0  0.32247  0.85972  0.65503  1.0000
  H   H1333     1.0  0.30707  0.91426  0.69244  1.0000
  H   H1334     1.0  0.33387  0.93466  0.66904  1.0000
  H   H1335     1.0  0.36753  0.81355  0.64522  1.0000
  N   N42       1.0  0.39501  0.85946  0.69237  1.0000
  C   C745      1.0  0.42997  0.60488  0.96250  1.0000
  C   C746      1.0  0.43168  0.97731  0.58808  1.0000
  C   C747      1.0  0.41207  0.97258  0.59876  1.0000
  C   C748      1.0  0.37183  0.56290  0.99802  1.0000
  Fe  Fe93      1.0  0.27199  0.87726  0.77076  1.0000
  N   N43       1.0  0.30065  0.70155  0.99234  1.0000
  H   H1336     1.0  0.40923  0.95661  0.60552  1.0000
  H   H1337     1.0  0.38056  0.98456  0.60877  1.0000
  C   C749      1.0  0.40677  0.88697  0.52080  1.0000
  N   N44       1.0  0.37522  0.99372  0.51788  1.0000
  C   C750      1.0  0.25229  0.61043  0.92304  1.0000
  H   H1338     1.0  0.29329  0.94983  0.72522  1.0000
  C   C751      1.0  0.47572  0.61683  0.95877  1.0000
  C   C752      1.0  0.39674  0.90737  0.52220  1.0000
  H   H1339     1.0  0.26138  0.79868  0.68622  1.0000
  C   C753      1.0  0.35310  0.96497  0.57275  1.0000
  H   H1340     1.0  0.27037  0.96616  0.77609  1.0000
  H   H1341     1.0  0.39487  0.91464  0.53751  1.0000
  H   H1342     1.0  0.42764  0.58331  0.99246  1.0000
  H   H1343     1.0  0.47677  0.63053  0.94639  1.0000
  H   H1344     1.0  0.25379  0.69443  0.85280  1.0000
  C   C754      1.0  0.34282  0.66207  0.87421  1.0000
  C   C755      1.0  0.34241  0.66267  0.89673  1.0000
  C   C756      1.0  0.33014  0.67877  0.90735  1.0000
  C   C757      1.0  0.31804  0.69438  0.89565  1.0000
  C   C758      1.0  0.31901  0.69433  0.87302  1.0000
  C   C759      1.0  0.33134  0.67814  0.86233  1.0000
  H   H1345     1.0  0.35142  0.65060  0.90602  1.0000
  H   H1346     1.0  0.32979  0.67892  0.92478  1.0000
  H   H1347     1.0  0.31021  0.70665  0.86381  1.0000
  H   H1348     1.0  0.33180  0.67793  0.84487  1.0000
  H   H1349     1.0  0.42542  0.84490  0.68106  1.0000
  S   S187      1.0  0.25017  0.81391  0.88414  1.0000
  H   H1350     1.0  0.36492  0.57354  0.96554  1.0000
  C   C760      1.0  0.30160  0.95964  0.71183  1.0000
  H   H1351     1.0  0.41296  0.92355  0.67810  1.0000
  C   C761      1.0  0.38811  0.51634  0.90165  1.0000
  C   C762      1.0  0.38731  0.85514  0.67081  1.0000
  H   H1352     1.0  0.41720  0.84563  0.73095  1.0000
  C   C763      1.0  0.46519  0.59226  0.90241  1.0000
  H   H1353     1.0  0.29972  0.99197  0.67945  1.0000
  C   C764      1.0  0.46278  0.61459  0.89975  1.0000
  C   C765      1.0  0.27536  0.81412  0.84524  1.0000
  H   H1354     1.0  0.32551  0.86904  0.72689  1.0000
  H   H1355     1.0  0.44205  0.81601  0.71774  1.0000
  H   H1356     1.0  0.29785  0.95383  0.69619  1.0000
  C   C766      1.0  0.37861  0.85513  0.71105  1.0000
  C   C767      1.0  0.39582  0.98849  0.60079  1.0000
  H   H1357     1.0  0.39494  0.53179  0.89865  1.0000
  H   H1358     1.0  0.37571  0.83774  0.71313  1.0000
  H   H1359     1.0  0.40290  0.63794  0.94581  1.0000
  H   H1360     1.0  0.28019  0.79770  0.84993  1.0000
  H   H1361     1.0  0.25959  0.65515  0.86179  1.0000
  C   C768      1.0  0.28414  0.82421  0.82573  1.0000
  C   C769      1.0  0.46054  0.91297  0.53202  1.0000
  H   H1362     1.0  0.39298  0.81997  0.67113  1.0000
  H   H1363     1.0  0.29685  0.61218  0.91699  1.0000
  C   C770      1.0  0.38923  0.89975  0.67849  1.0000
  H   H1364     1.0  0.35931  0.96176  0.58897  1.0000
  C   C771      1.0  0.35846  0.67816  0.97590  1.0000
  C   C772      1.0  0.41416  0.84436  0.69588  1.0000
  C   C773      1.0  0.42695  0.84828  0.71537  1.0000
  C   C774      1.0  0.42206  0.62860  0.99200  1.0000
  C   C775      1.0  0.31151  0.63282  0.94855  1.0000
  N   N45       1.0  0.43645  0.62486  0.97182  1.0000
  H   H1365     1.0  0.40516  0.62864  0.98841  1.0000
  C   C776      1.0  0.36174  0.98037  0.53428  1.0000
  H   H1366     1.0  0.44292  0.63900  0.93921  1.0000
  H   H1367     1.0  0.25052  0.87580  0.68060  1.0000
  H   H1368     1.0  0.44313  0.91625  0.53183  1.0000
  H   H1369     1.0  0.46363  0.89595  0.53774  1.0000
  H   H1370     1.0  0.46643  0.92338  0.54367  1.0000
  H   H1371     1.0  0.43952  0.53065  0.92048  1.0000
  H   H1372     1.0  0.48709  0.56526  0.90866  1.0000
  C   C777      1.0  0.37992  0.83230  0.66882  1.0000
  H   H1373     1.0  0.40952  0.82750  0.69854  1.0000
  H   H1374     1.0  0.33735  0.84238  0.72487  1.0000
  C   C778      1.0  0.44661  0.83291  0.71605  1.0000
  H   H1375     1.0  0.28998  0.67367  0.97908  1.0000
  S   S188      1.0  0.26477  0.76128  0.92179  1.0000
  C   C779      1.0  0.30731  0.75868  0.96345  1.0000
  H   H1376     1.0  0.36643  0.82878  0.68089  1.0000
  C   C780      1.0  0.30512  0.99745  0.69461  1.0000
  H   H1377     1.0  0.48668  0.99259  0.59819  1.0000
  H   H1378     1.0  0.25628  0.69831  0.98660  1.0000
  H   H1379     1.0  0.37385  0.86633  0.66661  1.0000
  H   H1380     1.0  0.49492  0.86960  0.58544  1.0000
  H   H1381     1.0  0.45729  0.83546  0.70101  1.0000
  H   H1382     1.0  0.41860  0.88297  0.68408  1.0000
  C   C781      1.0  0.48776  0.84018  0.65136  1.0000
  H   H1383     1.0  0.43391  0.56427  0.94794  1.0000
  C   C782      1.0  0.43460  0.64339  0.95496  1.0000
  Fe  Fe94      1.0  0.27279  0.73368  0.90070  1.0000
  C   C783      1.0  0.39683  0.98263  0.51300  1.0000
  H   H1384     1.0  0.41533  0.51131  0.94700  1.0000
  C   C784      1.0  0.26250  0.90427  0.64912  1.0000
  H   H1385     1.0  0.45044  0.52009  0.95792  1.0000
  C   C785      1.0  0.33535  0.68485  0.97253  1.0000
  H   H1386     1.0  0.36069  0.96405  0.52877  1.0000
  C   C786      1.0  0.31117  0.73439  0.96658  1.0000
  C   C787      1.0  0.45208  0.97904  0.65613  1.0000
  C   C788      1.0  0.47031  0.83467  0.58766  1.0000
  H   H1387     1.0  0.35006  0.94933  0.56664  1.0000
  N   N46       1.0  0.48493  0.99349  0.63308  1.0000
  C   C789      1.0  0.36776  0.57842  0.98127  1.0000
  H   H1388     1.0  0.27831  0.63704  0.94505  1.0000
  H   H1389     1.0  0.37293  0.54613  0.99487  1.0000
  H   H1390     1.0  0.27671  0.98416  0.71205  1.0000
  H   H1391     1.0  0.29888  0.69339  0.95901  1.0000
  C   C790      1.0  0.41738  0.50166  0.98954  1.0000
  C   C791      1.0  0.43383  0.97138  0.52427  1.0000
  C   C792      1.0  0.32311  0.69203  0.99380  1.0000
  H   H1392     1.0  0.25126  0.77000  0.97207  1.0000
  H   H1393     1.0  0.28138  0.68545  0.85082  1.0000
  H   H1394     1.0  0.29013  0.76305  0.96294  1.0000
  H   H1395     1.0  0.30502  0.72742  0.95269  1.0000
  H   H1396     1.0  0.32855  0.73103  0.96628  1.0000
  H   H1397     1.0  0.28376  0.73245  0.98986  1.0000
  H   H1398     1.0  0.25909  0.86069  0.65806  1.0000
  H   H1399     1.0  0.46664  0.84501  0.60138  1.0000
  H   H1400     1.0  0.47836  0.82775  0.65958  1.0000
  C   C793      1.0  0.45260  0.51845  0.92363  1.0000
  H   H1401     1.0  0.33510  0.69754  0.95916  1.0000
  H   H1402     1.0  0.49409  0.95838  0.60578  1.0000
  H   H1403     1.0  0.27760  0.76658  0.79168  1.0000
  H   H1404     1.0  0.35950  0.66473  0.98858  1.0000
  C   C794      1.0  0.47773  0.85847  0.64164  1.0000
  H   H1405     1.0  0.24638  0.84047  0.70745  1.0000
  C   C795      1.0  0.49289  0.83752  0.57756  1.0000
  H   H1406     1.0  0.29367  0.65833  0.93220  1.0000
  C   C796      1.0  0.25568  0.63270  0.91103  1.0000
  C   C797      1.0  0.40202  0.88217  0.69168  1.0000
  C   C798      1.0  0.25538  0.80795  0.70027  1.0000
  H   H1407     1.0  0.31491  0.60912  0.83586  1.0000
  H   H1408     1.0  0.26660  0.71668  0.96505  1.0000
  H   H1409     1.0  0.29574  0.81546  0.81545  1.0000
  C   C799      1.0  0.43531  0.58344  0.97569  1.0000
  H   H1410     1.0  0.46861  0.81775  0.59392  1.0000
  C   C800      1.0  0.35695  0.86781  0.71003  1.0000
  C   C801      1.0  0.26320  0.98070  0.76869  1.0000
  H   H1411     1.0  0.40008  0.85828  0.65761  1.0000
  H   H1412     1.0  0.45545  0.83586  0.73015  1.0000
  H   H1413     1.0  0.35891  0.84147  0.64319  1.0000
  H   H1414     1.0  0.34624  0.85974  0.74397  1.0000
  H   H1415     1.0  0.35864  0.88481  0.71305  1.0000
  S   S189      1.0  0.28638  0.90179  0.74604  1.0000
  H   H1416     1.0  0.35034  0.86690  0.69423  1.0000
  C   C802      1.0  0.37258  0.83005  0.64631  1.0000
  C   C803      1.0  0.36914  0.53038  0.84214  1.0000
  H   H1417     1.0  0.39550  0.96498  0.51358  1.0000
  H   H1418     1.0  0.48891  0.91547  0.51066  1.0000
  H   H1419     1.0  0.25164  0.79756  0.78967  1.0000
  C   C804      1.0  0.29314  0.64070  0.93507  1.0000
  H   H1420     1.0  0.45332  0.50642  0.91128  1.0000
  H   H1421     1.0  0.44282  0.65738  0.95948  1.0000
  C   C805      1.0  0.27825  0.84565  0.81962  1.0000
  C   C806      1.0  0.26095  0.82556  0.85903  1.0000
  H   H1422     1.0  0.27023  0.69967  0.87386  1.0000
  H   H1423     1.0  0.31550  0.76461  0.94779  1.0000
  H   H1424     1.0  0.31233  0.61508  0.95121  1.0000
  H   H1425     1.0  0.37199  0.89929  0.68251  1.0000
  H   H1426     1.0  0.40232  0.88732  0.70845  1.0000
  C   C807      1.0  0.42770  0.56441  0.96523  1.0000
  C   C808      1.0  0.39570  0.92214  0.68231  1.0000
  H   H1427     1.0  0.32679  0.63792  0.94026  1.0000
  H   H1428     1.0  0.42475  0.66370  0.99194  1.0000
  S   S190      1.0  0.26255  0.85632  0.74590  1.0000
  C   C809      1.0  0.25108  0.83153  0.69293  1.0000
  H   H1429     1.0  0.27757  0.89490  0.64494  1.0000
  H   H1430     1.0  0.45863  0.83883  0.57542  1.0000
  H   H1431     1.0  0.39234  0.89748  0.66090  1.0000
  H   H1432     1.0  0.38568  0.83307  0.63357  1.0000
  C   C810      1.0  0.28998  0.69131  0.97517  1.0000
  H   H1433     1.0  0.38463  0.85886  0.72657  1.0000
  H   H1434     1.0  0.25944  0.87368  0.82906  1.0000
  H   H1435     1.0  0.37719  0.54569  0.84124  1.0000
  C   C811      1.0  0.25754  0.68679  0.95513  1.0000
  H   H1436     1.0  0.28671  0.60595  0.83886  1.0000
  H   H1437     1.0  0.30932  0.63958  0.96467  1.0000
  H   H1438     1.0  0.48229  0.86764  0.56122  1.0000
  Fe  Fe95      1.0  0.25369  0.91857  0.74764  1.0000
  C   C812      1.0  0.38566  0.51158  0.84136  1.0000
  H   H1439     1.0  0.42224  0.96697  0.67030  1.0000
  Fe  Fe96      1.0  0.25021  0.77806  0.89276  1.0000
  H   H1440     1.0  0.41025  0.51722  0.98290  1.0000
  C   C813      1.0  0.34063  0.85913  0.72755  1.0000
  C   C814      1.0  0.29409  0.98317  0.71326  1.0000
  H   H1441     1.0  0.36689  0.69188  0.98060  1.0000
  H   H1442     1.0  0.39525  0.67346  0.92790  1.0000
  H   H1443     1.0  0.47532  0.94949  0.62744  1.0000
  H   H1444     1.0  0.46770  0.52672  0.92185  1.0000
  H   H1445     1.0  0.31349  0.76671  0.97679  1.0000
  H   H1446     1.0  0.38697  0.93421  0.67186  1.0000
  C   C815      1.0  0.36722  0.60016  0.98498  1.0000
  C   C816      1.0  0.43541  0.99843  0.58037  1.0000
  C   C817      1.0  0.40863  0.87759  0.50081  1.0000
  C   C818      1.0  0.41178  0.65133  0.95015  1.0000
  H   H1447     1.0  0.26112  0.91819  0.63706  1.0000
  H   H1448     1.0  0.41015  0.56493  0.96652  1.0000
  H   H1449     1.0  0.38422  0.96649  0.55704  1.0000
  C   C819      1.0  0.38845  0.91815  0.50386  1.0000
  C   C820      1.0  0.41183  0.66849  0.93130  1.0000
  H   H1450     1.0  0.25270  0.59791  0.91124  1.0000
  H   H1451     1.0  0.48234  0.88867  0.62352  1.0000
  H   H1452     1.0  0.43710  0.60356  0.94555  1.0000
  C   C821      1.0  0.26693  0.69968  0.97153  1.0000
  H   H1453     1.0  0.41256  0.60575  0.96099  1.0000
  H   H1454     1.0  0.32252  0.99331  0.69413  1.0000
  H   H1455     1.0  0.41979  0.68277  0.93535  1.0000
  C   C822      1.0  0.24783  0.76063  0.98719  1.0000
  H   H1456     1.0  0.47172  0.60261  0.95069  1.0000
  H   H1457     1.0  0.43343  0.54941  0.97390  1.0000
  H   H1458     1.0  0.40310  0.65836  0.96446  1.0000
  C   C823      1.0  0.44925  0.50765  0.94649  1.0000
  S   S191      1.0  0.29092  0.85846  0.79603  1.0000
  C   C824      1.0  0.26371  0.85702  0.83334  1.0000
  C   C825      1.0  0.49193  0.95391  0.62343  1.0000
  H   H1459     1.0  0.26460  0.60587  0.93444  1.0000
  H   H1460     1.0  0.42006  0.66213  0.91636  1.0000
  H   H1461     1.0  0.31892  0.95738  0.71338  1.0000
  C   C826      1.0  0.45910  0.62240  0.97768  1.0000
  H   H1462     1.0  0.26498  0.62082  0.87182  1.0000
  C   C827      1.0  0.26138  0.66653  0.87423  1.0000
  H   H1463     1.0  0.32817  0.67070  0.96710  1.0000
  N   N47       1.0  0.27704  0.63524  0.89879  1.0000
  C   C828      1.0  0.48036  0.62703  0.90063  1.0000
  C   C829      1.0  0.27831  0.65822  0.88998  1.0000
  C   C830      1.0  0.27953  0.62017  0.88072  1.0000
  C   C831      1.0  0.29486  0.62981  0.91328  1.0000
  C   C832      1.0  0.48514  0.58252  0.90653  1.0000
  H   H1464     1.0  0.26636  0.83738  0.68557  1.0000
  C   C833      1.0  0.29874  0.62360  0.86379  1.0000
  C   C834      1.0  0.30034  0.72558  0.98841  1.0000
  H   H1465     1.0  0.45264  0.58055  0.97656  1.0000
  C   C835      1.0  0.25521  0.84705  0.85300  1.0000
  H   H1466     1.0  0.30410  0.59012  0.85642  1.0000
  C   C836      1.0  0.30114  0.60606  0.84778  1.0000
  H   H1467     1.0  0.46079  0.61029  0.99159  1.0000
  S   S192      1.0  0.26127  0.75199  0.87074  1.0000
  H   H1468     1.0  0.27667  0.66921  0.90337  1.0000
  H   H1469     1.0  0.35912  0.53067  0.82828  1.0000
  H   H1470     1.0  0.39538  0.51340  0.82575  1.0000
  H   H1471     1.0  0.28129  0.60329  0.88757  1.0000
  H   H1472     1.0  0.39173  0.92569  0.69951  1.0000
  H   H1473     1.0  0.31022  0.63426  0.90467  1.0000
  H   H1474     1.0  0.29427  0.66080  0.88184  1.0000
  H   H1475     1.0  0.26694  0.68834  0.93920  1.0000
  H   H1476     1.0  0.25717  0.66964  0.96098  1.0000
  C   C837      1.0  0.36614  0.51512  0.90457  1.0000
  H   H1477     1.0  0.31374  0.62331  0.87175  1.0000
  H   H1478     1.0  0.29676  0.63918  0.85421  1.0000
  H   H1479     1.0  0.43253  0.86476  0.71427  1.0000
  C   C838      1.0  0.49005  0.87446  0.63095  1.0000
  H   H1480     1.0  0.34277  0.51857  0.99150  1.0000
  H   H1481     1.0  0.44051  0.97241  0.50711  1.0000
  H   H1482     1.0  0.46392  0.63756  0.98356  1.0000
  H   H1483     1.0  0.26199  0.75415  0.81433  1.0000
  H   H1484     1.0  0.46792  0.93464  0.50453  1.0000
  H   H1485     1.0  0.49540  0.82692  0.56398  1.0000
  H   H1486     1.0  0.25232  0.64531  0.92281  1.0000
  C   C839      1.0  0.26711  0.68782  0.86225  1.0000
  H   H1487     1.0  0.42917  0.95481  0.52909  1.0000
  H   H1488     1.0  0.39624  0.51303  0.85450  1.0000
  C   C840      1.0  0.47154  0.91759  0.50941  1.0000
  H   H1489     1.0  0.27427  0.77894  0.81710  1.0000
  H   H1490     1.0  0.36639  0.67258  0.96049  1.0000
  H   H1491     1.0  0.35883  0.52923  0.85754  1.0000
  C   C841      1.0  0.36932  0.97675  0.55733  1.0000
  H   H1492     1.0  0.47851  0.64429  0.89813  1.0000
  H   H1493     1.0  0.40954  0.98658  0.54483  1.0000
  H   H1494     1.0  0.26760  0.80660  0.71218  1.0000
  C   C842      1.0  0.41475  0.98728  0.52735  1.0000
  H   H1495     1.0  0.37836  0.50117  0.97790  1.0000
  H   H1496     1.0  0.44981  0.51216  0.99224  1.0000
  H   H1497     1.0  0.37168  0.99213  0.56417  1.0000
  C   C843      1.0  0.42893  0.97431  0.65455  1.0000
  C   C844      1.0  0.46144  0.99041  0.63468  1.0000
  H   H1498     1.0  0.44629  0.97516  0.53472  1.0000
  H   H1499     1.0  0.34513  0.98731  0.53567  1.0000
  H   H1500     1.0  0.45260  0.98943  0.66979  1.0000
  H   H1501     1.0  0.38007  0.93354  0.50528  1.0000
  H   H1502     1.0  0.42775  0.96291  0.64190  1.0000
  C   C845      1.0  0.26627  0.76974  0.80590  1.0000
  H   H1503     1.0  0.41931  0.98927  0.65045  1.0000
  H   H1504     1.0  0.46082  0.96360  0.66015  1.0000
  C   C846      1.0  0.25026  0.97947  0.75169  1.0000
  H   H1505     1.0  0.45734  0.98152  0.62094  1.0000
  H   H1506     1.0  0.26311  0.91038  0.66542  1.0000
  C   C847      1.0  0.24652  0.78238  0.79836  1.0000
  Fe  Fe97      1.0  0.60218  0.36863  0.11724  1.0000
  S   S193      1.0  0.61169  0.38655  0.08572  1.0000
  S   S194      1.0  0.62068  0.33918  0.13105  1.0000
  Fe  Fe98      1.0  0.56115  0.39651  0.12441  1.0000
  S   S195      1.0  0.56762  0.41653  0.09348  1.0000
  S   S196      1.0  0.53095  0.40648  0.14386  1.0000
  Fe  Fe99      1.0  0.57752  0.38552  0.07907  1.0000
  S   S197      1.0  0.56425  0.38063  0.04743  1.0000
  Fe  Fe100     1.0  0.60088  0.41616  0.10274  1.0000
  S   S198      1.0  0.61950  0.44551  0.09438  1.0000
  S   S199      1.0  0.56856  0.36523  0.10932  1.0000
  S   S200      1.0  0.59393  0.39855  0.13517  1.0000
  Fe  Fe101     1.0  0.59945  0.08318  0.43079  1.0000
  S   S201      1.0  0.58977  0.11422  0.41262  1.0000
  S   S202      1.0  0.62152  0.08087  0.45788  1.0000
  Fe  Fe102     1.0  0.57684  0.05691  0.40182  1.0000
  S   S203      1.0  0.56509  0.08553  0.38177  1.0000
  S   S204      1.0  0.56722  0.02536  0.39267  1.0000
  Fe  Fe103     1.0  0.59814  0.09657  0.38232  1.0000
  S   S205      1.0  0.61383  0.10809  0.34945  1.0000
  Fe  Fe104     1.0  0.55777  0.10016  0.41355  1.0000
  S   S206      1.0  0.52684  0.11719  0.42530  1.0000
  S   S207      1.0  0.61022  0.06670  0.40038  1.0000
  S   S208      1.0  0.56704  0.07040  0.43381  1.0000
  H   H1507     1.0  0.73602  0.31638  0.05519  1.0000
  H   H1508     1.0  0.64825  0.38860  0.20292  1.0000
  S   S209      1.0  0.71726  0.31160  0.10585  1.0000
  H   H1509     1.0  0.51894  0.39330  0.03904  1.0000
  H   H1510     1.0  0.50463  0.37983  0.02156  1.0000
  C   C848      1.0  0.57574  0.38979  0.00451  1.0000
  H   H1511     1.0  0.69506  0.31047  0.06475  1.0000
  H   H1512     1.0  0.72810  0.14216  0.16310  1.0000
  S   S210      1.0  0.71468  0.24875  0.11319  1.0000
  S   S211      1.0  0.71345  0.08015  0.25822  1.0000
  Fe  Fe105     1.0  0.72806  0.09271  0.28602  1.0000
  S   S212      1.0  0.71216  0.09729  0.31985  1.0000
  H   H1513     1.0  0.61391  0.43740  0.05042  1.0000
  H   H1514     1.0  0.57965  0.08125  0.48105  1.0000
  H   H1515     1.0  0.58926  0.01551  0.46104  1.0000
  C   C849      1.0  0.72523  0.14837  0.19696  1.0000
  C   C850      1.0  0.72395  0.16430  0.21171  1.0000
  H   H1516     1.0  0.71751  0.21027  0.01924  1.0000
  Fe  Fe106     1.0  0.73247  0.27839  0.11360  1.0000
  H   H1517     1.0  0.73549  0.30972  0.02724  1.0000
  H   H1518     1.0  0.68175  0.27869  0.08575  1.0000
  H   H1519     1.0  0.50208  0.19174  0.45844  1.0000
  C   C851      1.0  0.59455  0.48387  0.14113  1.0000
  C   C852      1.0  0.66115  0.40505  0.11218  1.0000
  C   C853      1.0  0.61000  0.34289  0.19167  1.0000
  C   C854      1.0  0.64109  0.10322  0.34166  1.0000
  C   C855      1.0  0.64774  0.10097  0.31968  1.0000
  C   C856      1.0  0.66946  0.09852  0.31276  1.0000
  C   C857      1.0  0.68468  0.09870  0.32775  1.0000
  C   C858      1.0  0.67801  0.10080  0.34973  1.0000
  C   C859      1.0  0.65632  0.10298  0.35667  1.0000
  H   H1520     1.0  0.63603  0.10130  0.30794  1.0000
  H   H1521     1.0  0.67441  0.09688  0.29580  1.0000
  H   H1522     1.0  0.68970  0.10103  0.36142  1.0000
  H   H1523     1.0  0.65138  0.10506  0.37356  1.0000
  C   C860      1.0  0.61214  0.08728  0.48438  1.0000
  H   H1524     1.0  0.65997  0.00732  0.40179  1.0000
  H   H1525     1.0  0.66851  0.41956  0.10426  1.0000
  H   H1526     1.0  0.62306  0.48582  0.04204  1.0000
  H   H1527     1.0  0.64722  0.43987  0.19084  1.0000
  H   H1528     1.0  0.64027  0.01354  0.34220  1.0000
  H   H1529     1.0  0.51959  0.10575  0.38199  1.0000
  H   H1530     1.0  0.65631  0.24870  0.06144  1.0000
  H   H1531     1.0  0.56968  0.48930  0.09281  1.0000
  H   H1532     1.0  0.60432  0.02206  0.41720  1.0000
  H   H1533     1.0  0.54191  0.43555  0.05130  1.0000
  C   C861      1.0  0.64683  0.33052  0.12194  1.0000
  C   C862      1.0  0.65896  0.34249  0.10607  1.0000
  C   C863      1.0  0.68045  0.33631  0.10104  1.0000
  C   C864      1.0  0.68982  0.31782  0.11138  1.0000
  C   C865      1.0  0.67742  0.30530  0.12648  1.0000
  C   C866      1.0  0.65607  0.31176  0.13187  1.0000
  H   H1534     1.0  0.65196  0.35685  0.09819  1.0000
  H   H1535     1.0  0.68993  0.34607  0.08931  1.0000
  H   H1536     1.0  0.68446  0.29104  0.13456  1.0000
  H   H1537     1.0  0.64677  0.30237  0.14412  1.0000
  C   C867      1.0  0.52558  0.11483  0.49802  1.0000
  H   H1538     1.0  0.52484  0.36427  0.13033  1.0000
  H   H1539     1.0  0.50887  0.14274  0.46313  1.0000
  C   C868      1.0  0.61206  0.46787  0.10939  1.0000
  C   C869      1.0  0.59941  0.46591  0.12897  1.0000
  H   H1540     1.0  0.66170  0.26979  0.02902  1.0000
  C   C870      1.0  0.62649  0.09334  0.49848  1.0000
  C   C871      1.0  0.64460  0.44644  0.03727  1.0000
  C   C872      1.0  0.62105  0.44310  0.03419  1.0000
  H   H1541     1.0  0.59372  0.45049  0.13496  1.0000
  H   H1542     1.0  0.51516  0.04371  0.34015  1.0000
  H   H1543     1.0  0.66823  0.39084  0.10397  1.0000
  C   C873      1.0  0.50826  0.39424  0.13746  1.0000
  C   C874      1.0  0.60437  0.38509  0.02803  1.0000
  C   C875      1.0  0.58273  0.38537  0.02522  1.0000
  C   C876      1.0  0.66055  0.25591  0.07618  1.0000
  H   H1544     1.0  0.60997  0.38077  0.04368  1.0000
  H   H1545     1.0  0.74047  0.17266  0.25878  1.0000
  N   N48       1.0  0.67824  0.28621  0.05143  1.0000
  C   C877      1.0  0.65267  0.38441  0.14826  1.0000
  C   C878      1.0  0.64530  0.35863  0.17908  1.0000
  C   C879      1.0  0.67813  0.27399  0.03127  1.0000
  H   H1546     1.0  0.65161  0.22749  0.09617  1.0000
  H   H1547     1.0  0.64391  0.40670  0.11010  1.0000
  H   H1548     1.0  0.67253  0.42834  0.04805  1.0000
  H   H1549     1.0  0.72283  0.19829  0.21564  1.0000
  C   C880      1.0  0.65954  0.43099  0.20025  1.0000
  H   H1550     1.0  0.51072  0.02449  0.44881  1.0000
  H   H1551     1.0  0.58528  0.12488  0.46215  1.0000
  C   C881      1.0  0.50447  0.10749  0.39133  1.0000
  H   H1552     1.0  0.71846  0.33342  0.14845  1.0000
  H   H1553     1.0  0.68193  0.40400  0.19789  1.0000
  H   H1554     1.0  0.63748  0.40454  0.18115  1.0000
  H   H1555     1.0  0.50652  0.06441  0.38367  1.0000
  H   H1556     1.0  0.53225  0.17887  0.48060  1.0000
  C   C882      1.0  0.71308  0.34655  0.15907  1.0000
  C   C883      1.0  0.72811  0.17609  0.16703  1.0000
  C   C884      1.0  0.73669  0.30307  0.04423  1.0000
  H   H1557     1.0  0.65923  0.41828  0.14308  1.0000
  H   H1558     1.0  0.67941  0.22747  0.08728  1.0000
  C   C885      1.0  0.69153  0.04051  0.30250  1.0000
  C   C886      1.0  0.65220  0.39542  0.18602  1.0000
  H   H1559     1.0  0.65234  0.42573  0.21660  1.0000
  C   C887      1.0  0.65799  0.29991  0.05525  1.0000
  H   H1560     1.0  0.63035  0.17709  0.35930  1.0000
  H   H1561     1.0  0.59600  0.03619  0.35275  1.0000
  H   H1562     1.0  0.50697  0.41839  0.06748  1.0000
  C   C888      1.0  0.68126  0.37040  0.17183  1.0000
  H   H1563     1.0  0.56650  0.17125  0.46599  1.0000
  H   H1564     1.0  0.57173  0.45796  0.05502  1.0000
  H   H1565     1.0  0.63624  0.05231  0.32705  1.0000
  C   C889      1.0  0.63413  0.33254  0.04550  1.0000
  H   H1566     1.0  0.69396  0.25915  0.06858  1.0000
  N   N49       1.0  0.68547  0.16405  0.30392  1.0000
  C   C890      1.0  0.66394  0.15996  0.31537  1.0000
  C   C891      1.0  0.68989  0.15014  0.28488  1.0000
  C   C892      1.0  0.70178  0.15772  0.32001  1.0000
  C   C893      1.0  0.68767  0.18736  0.29668  1.0000
  C   C894      1.0  0.67148  0.19761  0.28115  1.0000
  C   C895      1.0  0.65725  0.17276  0.33555  1.0000
  C   C896      1.0  0.72537  0.15836  0.31101  1.0000
  C   C897      1.0  0.67075  0.14544  0.27222  1.0000
  C   C898      1.0  0.67806  0.13531  0.25100  1.0000
  C   C899      1.0  0.67349  0.22182  0.27770  1.0000
  Fe  Fe107     1.0  0.73266  0.10395  0.23707  1.0000
  C   C900      1.0  0.74022  0.14951  0.32809  1.0000
  H   H1567     1.0  0.66324  0.14265  0.32068  1.0000
  H   H1568     1.0  0.65113  0.16326  0.30431  1.0000
  H   H1569     1.0  0.70227  0.15703  0.27300  1.0000
  H   H1570     1.0  0.69669  0.13400  0.29038  1.0000
  H   H1571     1.0  0.69923  0.14127  0.32748  1.0000
  H   H1572     1.0  0.70006  0.16838  0.33365  1.0000
  H   H1573     1.0  0.68725  0.19715  0.31098  1.0000
  H   H1574     1.0  0.70349  0.18968  0.28792  1.0000
  H   H1575     1.0  0.65493  0.19489  0.28748  1.0000
  H   H1576     1.0  0.67469  0.19105  0.26499  1.0000
  H   H1577     1.0  0.66795  0.16857  0.34864  1.0000
  H   H1578     1.0  0.65717  0.19026  0.33127  1.0000
  H   H1579     1.0  0.72952  0.17506  0.30622  1.0000
  H   H1580     1.0  0.72876  0.14868  0.29679  1.0000
  H   H1581     1.0  0.66058  0.13402  0.28217  1.0000
  H   H1582     1.0  0.66066  0.15994  0.26820  1.0000
  H   H1583     1.0  0.68678  0.14683  0.23963  1.0000
  H   H1584     1.0  0.68848  0.12073  0.25404  1.0000
  H   H1585     1.0  0.66411  0.13070  0.24311  1.0000
  H   H1586     1.0  0.66981  0.22955  0.29324  1.0000
  H   H1587     1.0  0.68975  0.22552  0.27093  1.0000
  H   H1588     1.0  0.66211  0.22870  0.26603  1.0000
  C   C901      1.0  0.72735  0.15438  0.17462  1.0000
  C   C902      1.0  0.49651  0.41403  0.02252  1.0000
  C   C903      1.0  0.57324  0.44674  0.04190  1.0000
  C   C904      1.0  0.72932  0.22173  0.01410  1.0000
  C   C905      1.0  0.60085  0.00625  0.41320  1.0000
  H   H1589     1.0  0.61991  0.32297  0.04892  1.0000
  H   H1590     1.0  0.63438  0.15037  0.35042  1.0000
  C   C906      1.0  0.60552  0.04133  0.33759  1.0000
  C   C907      1.0  0.61928  0.48793  0.10172  1.0000
  S   S213      1.0  0.73347  0.02375  0.24789  1.0000
  H   H1591     1.0  0.69169  0.38381  0.16731  1.0000
  H   H1592     1.0  0.61405  0.36860  0.16738  1.0000
  C   C908      1.0  0.59797  0.02475  0.47165  1.0000
  H   H1593     1.0  0.68448  0.36494  0.18881  1.0000
  H   H1594     1.0  0.72106  0.28143  0.06790  1.0000
  H   H1595     1.0  0.53989  0.34840  0.07706  1.0000
  H   H1596     1.0  0.72259  0.36059  0.15388  1.0000
  H   H1597     1.0  0.68230  0.40044  0.13730  1.0000
  H   H1598     1.0  0.51693  0.16017  0.49672  1.0000
  N   N50       1.0  0.65814  0.37761  0.17103  1.0000
  H   H1599     1.0  0.68764  0.35728  0.13975  1.0000
  H   H1600     1.0  0.60592  0.16822  0.45673  1.0000
  H   H1601     1.0  0.64791  0.41921  0.06104  1.0000
  H   H1602     1.0  0.68109  0.33738  0.16141  1.0000
  H   H1603     1.0  0.67657  0.41790  0.17248  1.0000
  H   H1604     1.0  0.72207  0.15988  0.22891  1.0000
  H   H1605     1.0  0.68039  0.30127  0.00628  1.0000
  C   C909      1.0  0.66498  0.40289  0.13625  1.0000
  H   H1606     1.0  0.65330  0.45214  0.02187  1.0000
  N   N51       1.0  0.54768  0.14721  0.48413  1.0000
  H   H1607     1.0  0.54197  0.48464  0.09327  1.0000
  H   H1608     1.0  0.51372  0.37829  0.07408  1.0000
  C   C910      1.0  0.56428  0.15376  0.46636  1.0000
  C   C911      1.0  0.54318  0.12424  0.48187  1.0000
  H   H1609     1.0  0.62911  0.48954  0.08661  1.0000
  H   H1610     1.0  0.52542  0.16082  0.44661  1.0000
  C   C912      1.0  0.58628  0.14143  0.46707  1.0000
  C   C913      1.0  0.50990  0.05721  0.35033  1.0000
  H   H1611     1.0  0.50523  0.01739  0.37315  1.0000
  H   H1612     1.0  0.51377  0.49348  0.14478  1.0000
  C   C914      1.0  0.60292  0.15224  0.45140  1.0000
  C   C915      1.0  0.72434  0.18604  0.20414  1.0000
  H   H1613     1.0  0.63704  0.34042  0.06036  1.0000
  H   H1614     1.0  0.70735  0.04292  0.30807  1.0000
  C   C916      1.0  0.65588  0.42548  0.04539  1.0000
  C   C917      1.0  0.50973  0.37326  0.13103  1.0000
  H   H1615     1.0  0.55888  0.15128  0.45016  1.0000
  H   H1616     1.0  0.53946  0.12193  0.46512  1.0000
  H   H1617     1.0  0.55759  0.11379  0.48401  1.0000
  H   H1618     1.0  0.60299  0.47253  0.05814  1.0000
  H   H1619     1.0  0.51054  0.12475  0.49759  1.0000
  C   C918      1.0  0.60716  0.47945  0.04136  1.0000
  H   H1620     1.0  0.61323  0.33004  0.18021  1.0000
  H   H1621     1.0  0.57793  0.01581  0.50007  1.0000
  C   C919      1.0  0.58343  0.00349  0.40149  1.0000
  C   C920      1.0  0.51592  0.01153  0.43801  1.0000
  H   H1622     1.0  0.62319  0.17165  0.33283  1.0000
  H   H1623     1.0  0.53446  0.32296  0.06778  1.0000
  C   C921      1.0  0.50361  0.11286  0.41287  1.0000
  C   C922      1.0  0.51183  0.34892  0.05895  1.0000
  H   H1624     1.0  0.67210  0.44210  0.20223  1.0000
  H   H1625     1.0  0.64698  0.03946  0.39100  1.0000
  H   H1626     1.0  0.52656  0.41518  0.00253  1.0000
  H   H1627     1.0  0.59767  0.15414  0.43471  1.0000
  Fe  Fe108     1.0  0.74233  0.05727  0.25566  1.0000
  H   H1628     1.0  0.61801  0.14220  0.45110  1.0000
  H   H1629     1.0  0.63571  0.38984  0.14822  1.0000
  H   H1630     1.0  0.64755  0.34586  0.16743  1.0000
  H   H1631     1.0  0.61671  0.37552  0.19456  1.0000
  H   H1632     1.0  0.65090  0.35128  0.19466  1.0000
  H   H1633     1.0  0.54241  0.45727  0.03048  1.0000
  H   H1634     1.0  0.58062  0.43126  0.04818  1.0000
  H   H1635     1.0  0.63081  0.34518  0.03254  1.0000
  C   C923      1.0  0.66915  0.41176  0.18832  1.0000
  S   S214      1.0  0.74473  0.11875  0.26514  1.0000
  H   H1636     1.0  0.68377  0.05637  0.29792  1.0000
  H   H1637     1.0  0.66844  0.24419  0.10863  1.0000
  C   C924      1.0  0.51130  0.05034  0.37434  1.0000
  H   H1638     1.0  0.69392  0.03125  0.28780  1.0000
  H   H1639     1.0  0.68890  0.01047  0.36929  1.0000
  H   H1640     1.0  0.60635  0.02846  0.32613  1.0000
  H   H1641     1.0  0.52522  0.03460  0.41244  1.0000
  C   C925      1.0  0.67967  0.27027  0.07089  1.0000
  H   H1642     1.0  0.63330  0.47948  0.00651  1.0000
  C   C926      1.0  0.53836  0.00377  0.44332  1.0000
  H   H1643     1.0  0.51850  0.33342  0.09054  1.0000
  S   S215      1.0  0.72257  0.12104  0.20562  1.0000
  H   H1644     1.0  0.64991  0.31175  0.02272  1.0000
  H   H1645     1.0  0.63572  0.38953  0.01264  1.0000
  C   C927      1.0  0.50931  0.41742  0.00061  1.0000
  C   C928      1.0  0.66540  0.23767  0.09309  1.0000
  C   C929      1.0  0.58662  0.45570  0.02150  1.0000
  H   H1646     1.0  0.52817  0.04583  0.37674  1.0000
  C   C930      1.0  0.63493  0.16764  0.34502  1.0000
  H   H1647     1.0  0.62034  0.42943  0.02396  1.0000
  H   H1648     1.0  0.50081  0.47378  0.18037  1.0000
  H   H1649     1.0  0.52033  0.07066  0.34565  1.0000
  H   H1650     1.0  0.59258  0.34642  0.19367  1.0000
  C   C931      1.0  0.71883  0.28814  0.05115  1.0000
  C   C932      1.0  0.62091  0.36315  0.18280  1.0000
  H   H1651     1.0  0.64579  0.45825  0.04951  1.0000
  H   H1652     1.0  0.72028  0.27465  0.04046  1.0000
  H   H1653     1.0  0.53563  0.08146  0.49335  1.0000
  H   H1654     1.0  0.52106  0.35270  0.04325  1.0000
  H   H1655     1.0  0.55166  0.49708  0.12816  1.0000
  C   C933      1.0  0.69680  0.30023  0.05070  1.0000
  C   C934      1.0  0.52706  0.33778  0.07460  1.0000
  H   H1656     1.0  0.49746  0.40485  0.09246  1.0000
  H   H1657     1.0  0.74176  0.01706  0.17654  1.0000
  Fe  Fe109     1.0  0.74134  0.23831  0.08907  1.0000
  C   C935      1.0  0.49736  0.03117  0.38155  1.0000
  H   H1658     1.0  0.66223  0.02659  0.31375  1.0000
  C   C936      1.0  0.50263  0.39190  0.03400  1.0000
  C   C937      1.0  0.65350  0.31839  0.03799  1.0000
  C   C938      1.0  0.68952  0.35224  0.15703  1.0000
  S   S216      1.0  0.72571  0.21963  0.17316  1.0000
  C   C939      1.0  0.52803  0.16183  0.48187  1.0000
  C   C940      1.0  0.72631  0.19204  0.18177  1.0000
  C   C941      1.0  0.51534  0.15884  0.46206  1.0000
  Fe  Fe110     1.0  0.73514  0.23461  0.13936  1.0000
  H   H1659     1.0  0.64654  0.26541  0.08305  1.0000
  H   H1660     1.0  0.65431  0.37051  0.13809  1.0000
  H   H1661     1.0  0.51737  0.48809  0.19608  1.0000
  N   N52       1.0  0.66146  0.03025  0.35993  1.0000
  C   C942      1.0  0.67512  0.04044  0.34134  1.0000
  C   C943      1.0  0.65910  0.04506  0.37816  1.0000
  C   C944      1.0  0.50194  0.48868  0.18877  1.0000
  C   C945      1.0  0.63964  0.02672  0.35335  1.0000
  C   C946      1.0  0.62772  0.04657  0.34254  1.0000
  H   H1662     1.0  0.62917  0.02121  0.36779  1.0000
  N   N53       1.0  0.60836  0.46240  0.02525  1.0000
  C   C947      1.0  0.67954  0.04865  0.38913  1.0000
  C   C948      1.0  0.67462  0.06317  0.40790  1.0000
  H   H1663     1.0  0.58510  0.48224  0.15648  1.0000
  H   H1664     1.0  0.68734  0.25829  0.03320  1.0000
  H   H1665     1.0  0.69142  0.04200  0.34614  1.0000
  H   H1666     1.0  0.66906  0.05714  0.33724  1.0000
  H   H1667     1.0  0.65291  0.06120  0.37227  1.0000
  H   H1668     1.0  0.65762  0.30693  0.07134  1.0000
  H   H1669     1.0  0.66691  0.32896  0.03468  1.0000
  H   H1670     1.0  0.73727  0.13249  0.33306  1.0000
  H   H1671     1.0  0.72945  0.18051  0.14979  1.0000
  C   C949      1.0  0.73895  0.23194  0.02984  1.0000
  H   H1672     1.0  0.71594  0.34097  0.17605  1.0000
  H   H1673     1.0  0.62578  0.05993  0.35336  1.0000
  C   C950      1.0  0.51562  0.02022  0.41403  1.0000
  H   H1674     1.0  0.69724  0.31171  0.03622  1.0000
  H   H1675     1.0  0.57488  0.49434  0.04057  1.0000
  H   H1676     1.0  0.64396  0.29004  0.05609  1.0000
  H   H1677     1.0  0.68689  0.03336  0.39586  1.0000
  H   H1678     1.0  0.69132  0.05655  0.37741  1.0000
  H   H1679     1.0  0.66781  0.07907  0.40198  1.0000
  H   H1680     1.0  0.66319  0.05583  0.42047  1.0000
  H   H1681     1.0  0.68942  0.06562  0.41552  1.0000
  H   H1682     1.0  0.73802  0.15902  0.34260  1.0000
  C   C951      1.0  0.55096  0.44230  0.03648  1.0000
  H   H1683     1.0  0.61556  0.33710  0.20769  1.0000
  H   H1684     1.0  0.54930  0.01705  0.44028  1.0000
  H   H1685     1.0  0.59226  0.14040  0.48341  1.0000
  C   C952      1.0  0.67774  0.02842  0.32019  1.0000
  C   C953      1.0  0.67186  0.00887  0.36699  1.0000
  H   H1686     1.0  0.55182  0.43036  0.02403  1.0000
  S   S217      1.0  0.73223  0.22488  0.05792  1.0000
  H   H1687     1.0  0.49998  0.33721  0.05658  1.0000
  C   C954      1.0  0.61898  0.38981  0.01037  1.0000
  H   H1688     1.0  0.68558  0.01229  0.32307  1.0000
  H   H1689     1.0  0.59732  0.05588  0.33012  1.0000
  C   C955      1.0  0.68745  0.28489  0.00947  1.0000
  H   H1690     1.0  0.57728  0.46919  0.01346  1.0000
  C   C956      1.0  0.52109  0.09225  0.49262  1.0000
  H   H1691     1.0  0.52481  0.00853  0.40370  1.0000
  H   H1692     1.0  0.65597  0.41329  0.03329  1.0000
  H   H1693     1.0  0.70482  0.28607  0.00955  1.0000
  H   H1694     1.0  0.64314  0.09384  0.49305  1.0000
  C   C957      1.0  0.49652  0.17521  0.46083  1.0000
  H   H1695     1.0  0.61499  0.02410  0.46562  1.0000
  C   C958      1.0  0.50083  0.36947  0.06829  1.0000
  H   H1696     1.0  0.73832  0.00249  0.20258  1.0000
  H   H1697     1.0  0.51545  0.09255  0.47610  1.0000
  H   H1698     1.0  0.58789  0.44273  0.01007  1.0000
  H   H1699     1.0  0.59163  0.04168  0.47044  1.0000
  C   C959      1.0  0.59071  0.08642  0.49165  1.0000
  C   C960      1.0  0.59510  0.01525  0.49509  1.0000
  H   H1700     1.0  0.49991  0.42709  0.03261  1.0000
  H   H1701     1.0  0.57849  0.17386  0.49898  1.0000
  H   H1702     1.0  0.55906  0.38966  0.00214  1.0000
  C   C961      1.0  0.61868  0.47139  0.00392  1.0000
  H   H1703     1.0  0.49592  0.05665  0.41931  1.0000
  C   C962      1.0  0.55349  0.49724  0.09351  1.0000
  Fe  Fe111     1.0  0.56926  0.39950  0.92278  1.0000
  S   S218      1.0  0.58118  0.40563  0.88790  1.0000
  S   S219      1.0  0.53562  0.39686  0.93791  1.0000
  Fe  Fe112     1.0  0.61289  0.40397  0.93813  1.0000
  S   S220      1.0  0.62831  0.41098  0.90476  1.0000
  S   S221      1.0  0.63015  0.40208  0.96807  1.0000
  Fe  Fe113     1.0  0.59882  0.43205  0.89972  1.0000
  S   S222      1.0  0.59787  0.46575  0.88355  1.0000
  Fe  Fe114     1.0  0.60962  0.38386  0.89630  1.0000
  S   S223      1.0  0.62466  0.35804  0.87498  1.0000
  S   S224      1.0  0.58519  0.42711  0.93392  1.0000
  S   S225      1.0  0.59608  0.37567  0.93023  1.0000
  Fe  Fe115     1.0  0.61040  0.05728  0.60793  1.0000
  S   S226      1.0  0.62690  0.08726  0.59683  1.0000
  S   S227      1.0  0.62715  0.02489  0.60682  1.0000
  Fe  Fe116     1.0  0.56888  0.08070  0.62277  1.0000
  S   S228      1.0  0.58213  0.11267  0.61341  1.0000
  S   S229      1.0  0.53586  0.07635  0.63889  1.0000
  Fe  Fe117     1.0  0.59577  0.09760  0.58294  1.0000
  S   S230      1.0  0.58783  0.11225  0.54986  1.0000
  Fe  Fe118     1.0  0.61193  0.09919  0.62838  1.0000
  S   S231      1.0  0.62569  0.11550  0.65538  1.0000
  S   S232      1.0  0.58066  0.06654  0.59173  1.0000
  S   S233      1.0  0.59732  0.06834  0.63999  1.0000
  C   C963      1.0  0.59243  0.48470  0.92258  1.0000
  S   S234      1.0  0.71263  0.22480  0.92204  1.0000
  H   H1704     1.0  0.51041  0.11831  0.74517  1.0000
  S   S235      1.0  0.71717  0.24387  0.87059  1.0000
  Fe  Fe119     1.0  0.70397  0.25580  0.90285  1.0000
  S   S236      1.0  0.67300  0.27368  0.91453  1.0000
  H   H1705     1.0  0.55717  0.99893  0.63004  1.0000
  H   H1706     1.0  0.71517  0.04475  0.81330  1.0000
  C   C964      1.0  0.55360  0.33891  0.94307  1.0000
  H   H1707     1.0  0.56407  0.04255  0.51896  1.0000
  H   H1708     1.0  0.50361  0.15120  0.64211  1.0000
  H   H1709     1.0  0.51865  0.46049  0.86641  1.0000
  S   S237      1.0  0.70903  0.14645  0.78831  1.0000
  Fe  Fe120     1.0  0.73112  0.10858  0.71951  1.0000
  S   S238      1.0  0.71988  0.10779  0.68553  1.0000
  S   S239      1.0  0.71174  0.09684  0.74941  1.0000
  H   H1710     1.0  0.58180  0.02692  0.61693  1.0000
  C   C965      1.0  0.57083  0.17088  0.53325  1.0000
  H   H1711     1.0  0.71513  0.03559  0.67072  1.0000
  C   C966      1.0  0.72492  0.17112  0.85323  1.0000
  C   C967      1.0  0.71219  0.18361  0.83924  1.0000
  C   C968      1.0  0.70759  0.17586  0.81944  1.0000
  C   C969      1.0  0.71577  0.15563  0.81324  1.0000
  H   H1712     1.0  0.54117  0.48248  0.92875  1.0000
  H   H1713     1.0  0.54649  0.04389  0.56666  1.0000
  H   H1714     1.0  0.70562  0.19912  0.84380  1.0000
  H   H1715     1.0  0.69755  0.18560  0.80888  1.0000
  C   C970      1.0  0.53107  0.11862  0.71538  1.0000
  C   C971      1.0  0.54892  0.44475  0.85952  1.0000
  C   C972      1.0  0.65179  0.11172  0.66397  1.0000
  C   C973      1.0  0.66909  0.10523  0.64996  1.0000
  C   C974      1.0  0.68975  0.10399  0.65691  1.0000
  C   C975      1.0  0.69338  0.10881  0.67804  1.0000
  C   C976      1.0  0.67602  0.11465  0.69228  1.0000
  C   C977      1.0  0.65538  0.11635  0.68517  1.0000
  H   H1716     1.0  0.66662  0.10178  0.63356  1.0000
  H   H1717     1.0  0.70307  0.09951  0.64574  1.0000
  H   H1718     1.0  0.67856  0.11850  0.70855  1.0000
  H   H1719     1.0  0.64216  0.12151  0.69611  1.0000
  C   C978      1.0  0.59776  0.09977  0.52619  1.0000
  H   H1720     1.0  0.69104  0.00960  0.68341  1.0000
  H   H1721     1.0  0.72773  0.21757  0.97988  1.0000
  H   H1722     1.0  0.70331  0.04461  0.72824  1.0000
  H   H1723     1.0  0.65016  0.47268  0.96903  1.0000
  H   H1724     1.0  0.63038  0.10538  0.52958  1.0000
  H   H1725     1.0  0.58391  0.15860  0.53599  1.0000
  H   H1726     1.0  0.65733  0.04273  0.69294  1.0000
  C   C979      1.0  0.51424  0.08124  0.62279  1.0000
  C   C980      1.0  0.51739  0.08669  0.60053  1.0000
  H   H1727     1.0  0.66035  0.06490  0.54674  1.0000
  H   H1728     1.0  0.53331  0.08774  0.59289  1.0000
  C   C981      1.0  0.63806  0.33466  0.88618  1.0000
  C   C982      1.0  0.63880  0.33058  0.90860  1.0000
  C   C983      1.0  0.64927  0.31167  0.91696  1.0000
  C   C984      1.0  0.65979  0.29701  0.90305  1.0000
  C   C985      1.0  0.65883  0.30095  0.88064  1.0000
  C   C986      1.0  0.64791  0.31963  0.87228  1.0000
  H   H1729     1.0  0.63122  0.34191  0.91953  1.0000
  H   H1730     1.0  0.64957  0.30856  0.93433  1.0000
  H   H1731     1.0  0.66610  0.28936  0.86982  1.0000
  H   H1732     1.0  0.64711  0.32246  0.85494  1.0000
  C   C987      1.0  0.56409  0.03618  0.53614  1.0000
  Fe  Fe121     1.0  0.74049  0.07499  0.75586  1.0000
  H   H1733     1.0  0.62227  0.06046  0.54808  1.0000
  H   H1734     1.0  0.49621  0.49671  0.91017  1.0000
  H   H1735     1.0  0.58474  0.39814  0.97098  1.0000
  Fe  Fe122     1.0  0.74316  0.23969  0.92656  1.0000
  H   H1736     1.0  0.67800  0.02911  0.65724  1.0000
  H   H1737     1.0  0.56744  0.13606  0.51011  1.0000
  C   C988      1.0  0.53478  0.46134  0.87157  1.0000
  H   H1738     1.0  0.59679  0.46922  0.93014  1.0000
  H   H1739     1.0  0.69047  0.06780  0.71630  1.0000
  C   C989      1.0  0.61195  0.39495  0.98982  1.0000
  H   H1740     1.0  0.51801  0.44598  0.95458  1.0000
  H   H1741     1.0  0.50450  0.48852  0.88420  1.0000
  C   C990      1.0  0.73288  0.15076  0.84716  1.0000
  H   H1742     1.0  0.53229  0.38766  0.89281  1.0000
  H   H1743     1.0  0.54801  0.44793  0.84176  1.0000
  C   C991      1.0  0.49971  0.45478  0.91561  1.0000
  N   N54       1.0  0.56704  0.31920  0.90855  1.0000
  C   C992      1.0  0.56934  0.33988  0.89466  1.0000
  C   C993      1.0  0.56994  0.32309  0.93186  1.0000
  C   C994      1.0  0.58499  0.30378  0.90092  1.0000
  C   C995      1.0  0.54611  0.30939  0.90676  1.0000
  C   C996      1.0  0.52662  0.32516  0.90270  1.0000
  C   C997      1.0  0.57056  0.33764  0.86978  1.0000
  C   C998      1.0  0.58778  0.28236  0.91486  1.0000
  H   H1744     1.0  0.68464  0.05641  0.65141  1.0000
  H   H1745     1.0  0.73426  0.12727  0.82306  1.0000
  C   C999      1.0  0.56624  0.35911  0.85719  1.0000
  C   C1000     1.0  0.60377  0.26679  0.90344  1.0000
  H   H1746     1.0  0.58405  0.34742  0.89796  1.0000
  H   H1747     1.0  0.55641  0.35195  0.89889  1.0000
  H   H1748     1.0  0.56687  0.09271  0.51778  1.0000
  H   H1749     1.0  0.54769  0.35471  0.97315  1.0000
  H   H1750     1.0  0.60040  0.31159  0.89992  1.0000
  H   H1751     1.0  0.58301  0.29943  0.88417  1.0000
  H   H1752     1.0  0.54737  0.29853  0.89323  1.0000
  H   H1753     1.0  0.54199  0.29884  0.92159  1.0000
  H   H1754     1.0  0.52792  0.33245  0.88582  1.0000
  H   H1755     1.0  0.63571  0.44209  0.99198  1.0000
  H   H1756     1.0  0.58674  0.33145  0.86404  1.0000
  H   H1757     1.0  0.55915  0.32627  0.86549  1.0000
  H   H1758     1.0  0.57249  0.27457  0.91820  1.0000
  H   H1759     1.0  0.59410  0.28515  0.93051  1.0000
  H   H1760     1.0  0.67007  0.06713  0.68670  1.0000
  H   H1761     1.0  0.54030  0.47739  0.86580  1.0000
  C   C1001     1.0  0.55524  0.14901  0.50632  1.0000
  C   C1002     1.0  0.50591  0.31371  0.90588  1.0000
  H   H1762     1.0  0.56707  0.35674  0.83956  1.0000
  H   H1763     1.0  0.55023  0.36614  0.86221  1.0000
  H   H1764     1.0  0.57841  0.37037  0.85987  1.0000
  C   C1003     1.0  0.59856  0.99907  0.53951  1.0000
  H   H1765     1.0  0.60596  0.25185  0.91401  1.0000
  H   H1766     1.0  0.57532  0.34890  0.96556  1.0000
  N   N55       1.0  0.71571  0.33607  0.87319  1.0000
  C   C1004     1.0  0.71103  0.36003  0.87113  1.0000
  H   H1767     1.0  0.55877  0.32757  0.97648  1.0000
  C   C1005     1.0  0.70687  0.32651  0.85448  1.0000
  C   C1006     1.0  0.70543  0.32636  0.89414  1.0000
  C   C1007     1.0  0.71248  0.33461  0.91521  1.0000
  C   C1008     1.0  0.68742  0.36787  0.87566  1.0000
  C   C1009     1.0  0.71186  0.30214  0.85252  1.0000
  C   C1010     1.0  0.51477  0.38860  0.92405  1.0000
  H   H1768     1.0  0.50245  0.09513  0.57093  1.0000
  C   C1011     1.0  0.51722  0.38521  0.90192  1.0000
  C   C1012     1.0  0.68437  0.39209  0.87100  1.0000
  C   C1013     1.0  0.70351  0.29482  0.83205  1.0000
  H   H1769     1.0  0.71614  0.36660  0.85447  1.0000
  H   H1770     1.0  0.72049  0.36822  0.88201  1.0000
  H   H1771     1.0  0.70815  0.00980  0.72832  1.0000
  Fe  Fe123     1.0  0.72671  0.12191  0.76667  1.0000
  H   H1772     1.0  0.71234  0.33504  0.83879  1.0000
  H   H1773     1.0  0.68934  0.32890  0.85557  1.0000
  H   H1774     1.0  0.68793  0.32854  0.89435  1.0000
  H   H1775     1.0  0.50902  0.00312  0.60790  1.0000
  H   H1776     1.0  0.71102  0.35232  0.91497  1.0000
  H   H1777     1.0  0.58607  0.06127  0.70771  1.0000
  H   H1778     1.0  0.67700  0.36025  0.86539  1.0000
  H   H1779     1.0  0.68179  0.36426  0.89292  1.0000
  H   H1780     1.0  0.70431  0.29268  0.86657  1.0000
  C   C1014     1.0  0.68959  0.05004  0.71888  1.0000
  H   H1781     1.0  0.55875  0.01961  0.53779  1.0000
  H   H1782     1.0  0.53639  0.44021  0.90107  1.0000
  H   H1783     1.0  0.59809  0.26256  0.88794  1.0000
  H   H1784     1.0  0.54366  0.42835  0.86424  1.0000
  H   H1785     1.0  0.67397  0.01191  0.70710  1.0000
  C   C1015     1.0  0.65156  0.05111  0.65174  1.0000
  C   C1016     1.0  0.49988  0.09096  0.58814  1.0000
  H   H1786     1.0  0.50193  0.37605  0.87444  1.0000
  H   H1787     1.0  0.66736  0.39712  0.87424  1.0000
  H   H1788     1.0  0.69373  0.40065  0.88162  1.0000
  H   H1789     1.0  0.68919  0.39671  0.85372  1.0000
  H   H1790     1.0  0.70700  0.27730  0.83121  1.0000
  H   H1791     1.0  0.68608  0.29812  0.83226  1.0000
  H   H1792     1.0  0.53770  0.33228  0.94496  1.0000
  C   C1017     1.0  0.69904  0.32581  0.93515  1.0000
  H   H1793     1.0  0.65575  0.05214  0.76643  1.0000
  H   H1794     1.0  0.50314  0.30707  0.92293  1.0000
  H   H1795     1.0  0.49984  0.43622  0.88708  1.0000
  H   H1796     1.0  0.58523  0.03505  0.56196  1.0000
  H   H1797     1.0  0.50501  0.40594  0.98911  1.0000
  C   C1018     1.0  0.51033  0.49021  0.90028  1.0000
  H   H1798     1.0  0.58133  0.00125  0.57199  1.0000
  H   H1799     1.0  0.55763  0.06580  0.70887  1.0000
  H   H1800     1.0  0.68431  0.05031  0.76387  1.0000
  H   H1801     1.0  0.61015  0.44788  0.98172  1.0000
  H   H1802     1.0  0.53197  0.04962  0.54296  1.0000
  H   H1803     1.0  0.56034  0.46618  0.95860  1.0000
  C   C1019     1.0  0.58643  0.03732  0.54399  1.0000
  H   H1804     1.0  0.55280  0.35461  0.93376  1.0000
  H   H1805     1.0  0.54915  0.44459  0.97570  1.0000
  C   C1020     1.0  0.67314  0.04586  0.66069  1.0000
  C   C1021     1.0  0.63298  0.04800  0.54042  1.0000
  C   C1022     1.0  0.58798  0.01082  0.62079  1.0000
  H   H1806     1.0  0.65316  0.05048  0.63382  1.0000
  H   H1807     1.0  0.52511  0.33849  0.91351  1.0000
  C   C1023     1.0  0.66954  0.04540  0.73421  1.0000
  H   H1808     1.0  0.65266  0.04489  0.56779  1.0000
  N   N56       1.0  0.51821  0.46891  0.91055  1.0000
  H   H1809     1.0  0.66612  0.03693  0.54243  1.0000
  H   H1810     1.0  0.59058  0.05422  0.54028  1.0000
  H   H1811     1.0  0.50774  0.03587  0.58132  1.0000
  H   H1812     1.0  0.58611  0.32873  0.93307  1.0000
  H   H1813     1.0  0.72893  0.06295  0.70578  1.0000
  H   H1814     1.0  0.54204  0.44138  0.93759  1.0000
  N   N57       1.0  0.55438  0.12656  0.67915  1.0000
  C   C1024     1.0  0.55805  0.10256  0.67902  1.0000
  C   C1025     1.0  0.53978  0.13421  0.66179  1.0000
  C   C1026     1.0  0.57550  0.13616  0.67281  1.0000
  C   C1027     1.0  0.54582  0.13384  0.70106  1.0000
  C   C1028     1.0  0.57536  0.09232  0.69345  1.0000
  C   C1029     1.0  0.57539  0.16099  0.67038  1.0000
  C   C1030     1.0  0.51686  0.12670  0.66486  1.0000
  H   H1815     1.0  0.51258  0.01920  0.68388  1.0000
  C   C1031     1.0  0.57265  0.06839  0.69869  1.0000
  C   C1032     1.0  0.59798  0.16857  0.66805  1.0000
  H   H1816     1.0  0.56302  0.09806  0.66224  1.0000
  H   H1817     1.0  0.54319  0.09433  0.68354  1.0000
  H   H1818     1.0  0.53785  0.15196  0.66042  1.0000
  H   H1819     1.0  0.54692  0.12940  0.64568  1.0000
  H   H1820     1.0  0.58250  0.13021  0.65715  1.0000
  H   H1821     1.0  0.58704  0.13087  0.68495  1.0000
  H   H1822     1.0  0.53720  0.14981  0.69903  1.0000
  H   H1823     1.0  0.54032  0.10427  0.72174  1.0000
  H   H1824     1.0  0.51850  0.11288  0.70637  1.0000
  H   H1825     1.0  0.59127  0.09410  0.68470  1.0000
  H   H1826     1.0  0.57524  0.10015  0.70891  1.0000
  H   H1827     1.0  0.56682  0.16824  0.68463  1.0000
  H   H1828     1.0  0.56784  0.16730  0.65553  1.0000
  H   H1829     1.0  0.51646  0.10907  0.66750  1.0000
  H   H1830     1.0  0.50804  0.13428  0.67880  1.0000
  H   H1831     1.0  0.63546  0.05246  0.52279  1.0000
  C   C1033     1.0  0.67223  0.04947  0.68533  1.0000
  C   C1034     1.0  0.56422  0.17073  0.51014  1.0000
  C   C1035     1.0  0.58355  0.09271  0.51248  1.0000
  H   H1832     1.0  0.57243  0.06002  0.68353  1.0000
  H   H1833     1.0  0.69156  0.25549  0.99243  1.0000
  H   H1834     1.0  0.59755  0.18634  0.66618  1.0000
  H   H1835     1.0  0.60646  0.16312  0.68261  1.0000
  H   H1836     1.0  0.60698  0.16221  0.65350  1.0000
  H   H1837     1.0  0.64527  0.06741  0.65563  1.0000
  H   H1838     1.0  0.55906  0.13645  0.71113  1.0000
  C   C1036     1.0  0.65194  0.48130  0.90561  1.0000
  H   H1839     1.0  0.73200  0.19127  0.74467  1.0000
  S   S240      1.0  0.73104  0.17992  0.87855  1.0000
  H   H1840     1.0  0.70850  0.06290  0.67547  1.0000
  Fe  Fe124     1.0  0.72813  0.21402  0.88997  1.0000
  H   H1841     1.0  0.71990  0.04605  0.84157  1.0000
  H   H1842     1.0  0.56892  0.30796  0.94232  1.0000
  H   H1843     1.0  0.51485  0.48361  0.94139  1.0000
  C   C1037     1.0  0.53571  0.45780  0.89661  1.0000
  H   H1844     1.0  0.53594  0.47097  0.97541  1.0000
  H   H1845     1.0  0.57656  0.18680  0.53582  1.0000
  H   H1846     1.0  0.61941  0.27396  0.90008  1.0000
  H   H1847     1.0  0.50623  0.30057  0.89476  1.0000
  N   N58       1.0  0.60364  0.02225  0.53454  1.0000
  C   C1038     1.0  0.72409  0.05273  0.82477  1.0000
  H   H1848     1.0  0.74246  0.14080  0.85798  1.0000
  C   C1039     1.0  0.52038  0.12971  0.73492  1.0000
  H   H1849     1.0  0.50478  0.43941  0.92435  1.0000
  C   C1040     1.0  0.51555  0.02865  0.66816  1.0000
  H   H1850     1.0  0.66858  0.02794  0.73827  1.0000
  C   C1041     1.0  0.52658  0.47330  0.93183  1.0000
  S   S241      1.0  0.73304  0.03987  0.76577  1.0000
  H   H1851     1.0  0.65491  0.05171  0.72678  1.0000
  C   C1042     1.0  0.66998  0.05608  0.75552  1.0000
  C   C1043     1.0  0.65435  0.04860  0.54994  1.0000
  H   H1852     1.0  0.72249  0.00382  0.70273  1.0000
  H   H1853     1.0  0.53213  0.03368  0.66690  1.0000
  C   C1044     1.0  0.53250  0.45341  0.94693  1.0000
  H   H1854     1.0  0.71135  0.30309  0.81733  1.0000
  H   H1855     1.0  0.53245  0.13515  0.74493  1.0000
  C   C1045     1.0  0.59034  0.39463  0.98684  1.0000
  C   C1046     1.0  0.71108  0.04670  0.68385  1.0000
  C   C1047     1.0  0.62447  0.45515  0.98631  1.0000
  C   C1048     1.0  0.55928  0.34267  0.96593  1.0000
  C   C1049     1.0  0.60976  0.00562  0.61786  1.0000
  N   N59       1.0  0.69104  0.04035  0.69719  1.0000
  H   H1856     1.0  0.64002  0.03929  0.65860  1.0000
  C   C1050     1.0  0.54776  0.05002  0.54934  1.0000
  H   H1857     1.0  0.72922  0.32917  0.91735  1.0000
  H   H1858     1.0  0.51003  0.14369  0.72950  1.0000
  H   H1859     1.0  0.68236  0.33225  0.93468  1.0000
  C   C1051     1.0  0.70691  0.00348  0.71232  1.0000
  C   C1052     1.0  0.59193  0.48747  0.90005  1.0000
  C   C1053     1.0  0.54524  0.45926  0.96527  1.0000
  H   H1860     1.0  0.50593  0.43395  0.99359  1.0000
  H   H1861     1.0  0.56567  0.44565  0.86306  1.0000
  C   C1054     1.0  0.73508  0.22586  0.99171  1.0000
  C   C1055     1.0  0.62375  0.02557  0.54500  1.0000
  H   H1862     1.0  0.55229  0.06693  0.54829  1.0000
  H   H1863     1.0  0.69101  0.27978  0.97503  1.0000
  H   H1864     1.0  0.66994  0.07376  0.75245  1.0000
  H   H1865     1.0  0.55156  0.46290  0.89996  1.0000
  H   H1866     1.0  0.53060  0.11375  0.51479  1.0000
  H   H1867     1.0  0.73790  0.21814  0.82729  1.0000
  C   C1056     1.0  0.50487  0.13347  0.64486  1.0000
  H   H1868     1.0  0.62116  0.02333  0.56291  1.0000
  C   C1057     1.0  0.51249  0.01521  0.64923  1.0000
  H   H1869     1.0  0.69947  0.30802  0.93589  1.0000
  S   S242      1.0  0.73399  0.27083  0.90855  1.0000
  H   H1870     1.0  0.63665  0.48009  0.91561  1.0000
  H   H1871     1.0  0.49755  0.12222  0.53785  1.0000
  H   H1872     1.0  0.55725  0.16760  0.54534  1.0000
  H   H1873     1.0  0.51668  0.02500  0.63398  1.0000
  C   C1058     1.0  0.61932  0.09970  0.51926  1.0000
  H   H1874     1.0  0.64933  0.47891  0.88847  1.0000
  H   H1875     1.0  0.74322  0.31434  0.87766  1.0000
  H   H1876     1.0  0.66670  0.27070  0.98880  1.0000
  H   H1877     1.0  0.54207  0.14635  0.51911  1.0000
  H   H1878     1.0  0.51304  0.12651  0.63021  1.0000
  H   H1879     1.0  0.63638  0.01329  0.54006  1.0000
  H   H1880     1.0  0.55219  0.18410  0.50768  1.0000
  C   C1059     1.0  0.68390  0.27187  0.99034  1.0000
  C   C1060     1.0  0.63502  0.46610  0.96567  1.0000
  H   H1881     1.0  0.63850  0.45418  0.95325  1.0000
  C   C1061     1.0  0.60779  0.02724  0.51030  1.0000
  C   C1062     1.0  0.73112  0.04862  0.69616  1.0000
  H   H1882     1.0  0.73436  0.03466  0.70755  1.0000
  H   H1883     1.0  0.66312  0.46827  0.91154  1.0000
  C   C1063     1.0  0.50002  0.37870  0.89155  1.0000
  H   H1884     1.0  0.50473  0.04325  0.66781  1.0000
  H   H1885     1.0  0.52389  0.00113  0.65038  1.0000
  C   C1064     1.0  0.72838  0.14308  0.82730  1.0000
  H   H1886     1.0  0.70524  0.33076  0.95011  1.0000
  H   H1887     1.0  0.72908  0.29798  0.85165  1.0000
  H   H1888     1.0  0.62476  0.02336  0.50496  1.0000
  H   H1889     1.0  0.49920  0.14989  0.54342  1.0000
  H   H1890     1.0  0.70871  0.30876  0.89552  1.0000
  C   C1065     1.0  0.68981  0.01630  0.69957  1.0000
  H   H1891     1.0  0.60523  0.04475  0.50623  1.0000
  H   H1892     1.0  0.71919  0.07009  0.82369  1.0000
  H   H1893     1.0  0.60809  0.48414  0.99645  1.0000
  H   H1894     1.0  0.74212  0.19175  0.78210  1.0000
  H   H1895     1.0  0.62438  0.47923  0.95898  1.0000
  C   C1066     1.0  0.73938  0.33155  0.87292  1.0000
  C   C1067     1.0  0.74241  0.01424  0.75682  1.0000
  H   H1896     1.0  0.50862  0.08572  0.50453  1.0000
  S   S243      1.0  0.74381  0.13564  0.73582  1.0000
  Fe  Fe125     1.0  0.62222  0.60149  0.12473  1.0000
  S   S244      1.0  0.60336  0.61275  0.09665  1.0000
  S   S245      1.0  0.65004  0.61832  0.13568  1.0000
  Fe  Fe126     1.0  0.60126  0.55793  0.13040  1.0000
  S   S246      1.0  0.58185  0.56563  0.10214  1.0000
  S   S247      1.0  0.59571  0.52622  0.14900  1.0000
  Fe  Fe127     1.0  0.61110  0.57961  0.08569  1.0000
  S   S248      1.0  0.62329  0.57248  0.05178  1.0000
  Fe  Fe128     1.0  0.57553  0.59766  0.11575  1.0000
  S   S249      1.0  0.54179  0.61205  0.11954  1.0000
  S   S250      1.0  0.63131  0.56883  0.11271  1.0000
  S   S251      1.0  0.59361  0.58940  0.14524  1.0000
  Fe  Fe129     1.0  0.57110  0.89756  0.40005  1.0000
  S   S252      1.0  0.58317  0.86352  0.40782  1.0000
  S   S253      1.0  0.54091  0.91111  0.38580  1.0000
  Fe  Fe130     1.0  0.60934  0.91604  0.41637  1.0000
  S   S254      1.0  0.62425  0.88393  0.42591  1.0000
  S   S255      1.0  0.62550  0.94560  0.42243  1.0000
  Fe  Fe131     1.0  0.61510  0.87462  0.39385  1.0000
  S   S256      1.0  0.64078  0.85480  0.37520  1.0000
  Fe  Fe132     1.0  0.59155  0.87582  0.43913  1.0000
  S   S257      1.0  0.58673  0.85760  0.47198  1.0000
  S   S258      1.0  0.60234  0.90758  0.38332  1.0000
  S   S259      1.0  0.57724  0.90897  0.43220  1.0000
  C   C1068     1.0  0.52852  0.60113  0.01592  1.0000
  S   S260      1.0  0.72661  0.74740  0.08767  1.0000
  H   H1897     1.0  0.73621  0.98158  0.33733  1.0000
  H   H1898     1.0  0.68160  0.72780  0.06086  1.0000
  Fe  Fe133     1.0  0.71751  0.72242  0.11422  1.0000
  S   S261      1.0  0.68373  0.71196  0.11277  1.0000
  H   H1899     1.0  0.50418  0.98108  0.40394  1.0000
  H   H1900     1.0  0.57981  0.63532  0.02734  1.0000
  Fe  Fe134     1.0  0.71281  0.86957  0.26582  1.0000
  S   S262      1.0  0.72408  0.89456  0.24028  1.0000
  S   S263      1.0  0.67838  0.87595  0.27816  1.0000
  H   H1901     1.0  0.59820  0.81626  0.34719  1.0000
  H   H1902     1.0  0.64636  0.75534  0.23855  1.0000
  H   H1903     1.0  0.54797  0.84724  0.26408  1.0000
  H   H1904     1.0  0.69724  0.92744  0.21551  1.0000
  H   H1905     1.0  0.70558  0.78119  0.14810  1.0000
  H   H1906     1.0  0.50983  0.63482  0.07438  1.0000
  S   S264      1.0  0.74034  0.87144  0.28580  1.0000
  H   H1907     1.0  0.72666  0.72633  0.19783  1.0000
  C   C1069     1.0  0.58102  0.84516  0.33513  1.0000
  H   H1908     1.0  0.66842  0.75134  0.04807  1.0000
  H   H1909     1.0  0.60062  0.90830  0.32942  1.0000
  Fe  Fe135     1.0  0.74146  0.76426  0.11295  1.0000
  H   H1910     1.0  0.68315  0.75893  0.12876  1.0000
  H   H1911     1.0  0.69797  0.64551  0.04099  1.0000
  H   H1912     1.0  0.71484  0.89728  0.36412  1.0000
  H   H1913     1.0  0.67785  0.95211  0.27130  1.0000
  H   H1914     1.0  0.59701  0.83788  0.36488  1.0000
  C   C1070     1.0  0.50946  0.57542  0.08376  1.0000
  S   S265      1.0  0.72950  0.74125  0.13967  1.0000
  C   C1071     1.0  0.68908  0.93049  0.34998  1.0000
  H   H1915     1.0  0.69347  0.75328  0.05886  1.0000
  H   H1916     1.0  0.64441  0.63774  0.01665  1.0000
  H   H1917     1.0  0.61957  0.52142  0.10754  1.0000
  H   H1918     1.0  0.51082  0.65989  0.05911  1.0000
  C   C1072     1.0  0.51933  0.93662  0.44046  1.0000
  C   C1073     1.0  0.66904  0.87090  0.30565  1.0000
  C   C1074     1.0  0.65019  0.88166  0.31362  1.0000
  C   C1075     1.0  0.64190  0.87748  0.33521  1.0000
  C   C1076     1.0  0.65196  0.86202  0.34877  1.0000
  C   C1077     1.0  0.67092  0.85142  0.34088  1.0000
  C   C1078     1.0  0.67960  0.85602  0.31949  1.0000
  H   H1919     1.0  0.64199  0.89326  0.30305  1.0000
  H   H1920     1.0  0.62762  0.88593  0.34143  1.0000
  H   H1921     1.0  0.67880  0.83940  0.35131  1.0000
  H   H1922     1.0  0.69408  0.84759  0.31352  1.0000
  C   C1079     1.0  0.60913  0.96787  0.41483  1.0000
  H   H1923     1.0  0.61085  0.52344  0.04729  1.0000
  C   C1080     1.0  0.60184  0.50394  0.13348  1.0000
  C   C1081     1.0  0.57871  0.98298  0.39674  1.0000
  C   C1082     1.0  0.59149  0.96517  0.40348  1.0000
  H   H1924     1.0  0.53098  0.53781  0.18083  1.0000
  H   H1925     1.0  0.58771  0.94937  0.39976  1.0000
  H   H1926     1.0  0.52921  0.60222  0.05066  1.0000
  H   H1927     1.0  0.56189  0.52083  0.11402  1.0000
  C   C1083     1.0  0.51424  0.87823  0.39837  1.0000
  C   C1084     1.0  0.51614  0.89949  0.39024  1.0000
  H   H1928     1.0  0.55456  0.84721  0.30261  1.0000
  H   H1929     1.0  0.52817  0.86855  0.40268  1.0000
  C   C1085     1.0  0.51432  0.64835  0.02000  1.0000
  C   C1086     1.0  0.65947  0.64409  0.12769  1.0000
  C   C1087     1.0  0.64666  0.66061  0.11832  1.0000
  C   C1088     1.0  0.65440  0.68122  0.11363  1.0000
  C   C1089     1.0  0.67508  0.68549  0.11803  1.0000
  C   C1090     1.0  0.68809  0.66880  0.12679  1.0000
  C   C1091     1.0  0.68025  0.64830  0.13174  1.0000
  H   H1930     1.0  0.63056  0.65768  0.11546  1.0000
  H   H1931     1.0  0.64416  0.69403  0.10695  1.0000
  H   H1932     1.0  0.70402  0.67181  0.13027  1.0000
  H   H1933     1.0  0.69027  0.63566  0.13907  1.0000
  H   H1934     1.0  0.54251  0.57301  0.18827  1.0000
  H   H1935     1.0  0.69931  0.93103  0.36362  1.0000
  H   H1936     1.0  0.64576  0.91245  0.47726  1.0000
  H   H1937     1.0  0.70599  0.91244  0.28510  1.0000
  S   S266      1.0  0.74294  0.86794  0.18656  1.0000
  C   C1092     1.0  0.59819  0.60720  0.03828  1.0000
  C   C1093     1.0  0.61325  0.59103  0.03227  1.0000
  H   H1938     1.0  0.70141  0.89296  0.32704  1.0000
  H   H1939     1.0  0.59202  0.60790  0.05496  1.0000
  H   H1940     1.0  0.68259  0.93578  0.19247  1.0000
  C   C1094     1.0  0.53001  0.55094  0.16788  1.0000
  H   H1941     1.0  0.55454  0.87486  0.25947  1.0000
  C   C1095     1.0  0.69941  0.92898  0.28755  1.0000
  H   H1942     1.0  0.63152  0.89256  0.49404  1.0000
  H   H1943     1.0  0.71765  0.98394  0.23884  1.0000
  H   H1944     1.0  0.72073  0.66356  0.06409  1.0000
  H   H1945     1.0  0.51589  0.87044  0.49117  1.0000
  H   H1946     1.0  0.74366  0.86989  0.36177  1.0000
  H   H1947     1.0  0.67329  0.91615  0.39148  1.0000
  H   H1948     1.0  0.62624  0.74634  0.22312  1.0000
  H   H1949     1.0  0.49638  0.61755  0.12620  1.0000
  H   H1950     1.0  0.71329  0.95789  0.19424  1.0000
  H   H1951     1.0  0.56459  0.90840  0.34718  1.0000
  C   C1096     1.0  0.70934  0.67768  0.06251  1.0000
  C   C1097     1.0  0.71937  0.94336  0.32642  1.0000
  H   H1952     1.0  0.54324  0.87676  0.35506  1.0000
  C   C1098     1.0  0.73570  0.87519  0.34687  1.0000
  C   C1099     1.0  0.68394  0.93518  0.27027  1.0000
  C   C1100     1.0  0.63625  0.75990  0.22498  1.0000
  N   N60       1.0  0.56341  0.88301  0.32559  1.0000
  H   H1953     1.0  0.51322  0.56397  0.07158  1.0000
  H   H1954     1.0  0.72286  0.71397  0.00251  1.0000
  C   C1101     1.0  0.58694  0.93965  0.32257  1.0000
  H   H1955     1.0  0.68662  0.66923  0.02837  1.0000
  H   H1956     1.0  0.69890  0.74642  0.17923  1.0000
  H   H1957     1.0  0.50350  0.66254  0.02353  1.0000
  H   H1958     1.0  0.54670  0.61895  0.03508  1.0000
  H   H1959     1.0  0.57446  0.94812  0.31309  1.0000
  C   C1102     1.0  0.67408  0.97670  0.39434  1.0000
  C   C1103     1.0  0.69576  0.73774  0.02860  1.0000
  C   C1104     1.0  0.51801  0.64322  0.05978  1.0000
  H   H1960     1.0  0.73998  0.93178  0.12005  1.0000
  H   H1961     1.0  0.59675  0.87402  0.32765  1.0000
  H   H1962     1.0  0.56243  0.55906  0.17125  1.0000
  H   H1963     1.0  0.59358  0.51140  0.06882  1.0000
  C   C1105     1.0  0.72545  0.89773  0.34894  1.0000
  C   C1106     1.0  0.65872  0.64680  0.01813  1.0000
  C   C1107     1.0  0.55768  0.85970  0.26944  1.0000
  H   H1964     1.0  0.55190  0.64979  0.05171  1.0000
  H   H1965     1.0  0.69219  0.93346  0.25395  1.0000
  H   H1966     1.0  0.58608  0.90321  0.47603  1.0000
  H   H1967     1.0  0.68016  0.94630  0.34906  1.0000
  S   S267      1.0  0.72784  0.84226  0.24711  1.0000
  H   H1968     1.0  0.73181  0.93920  0.31333  1.0000
  C   C1108     1.0  0.52135  0.59957  0.10849  1.0000
  H   H1969     1.0  0.52398  0.89730  0.31392  1.0000
  H   H1970     1.0  0.71051  0.72819  0.03222  1.0000
  H   H1971     1.0  0.67745  0.71046  0.02479  1.0000
  H   H1972     1.0  0.59095  0.91262  0.30286  1.0000
  H   H1973     1.0  0.51418  0.55946  0.16937  1.0000
  H   H1974     1.0  0.61450  0.83862  0.34021  1.0000
  H   H1975     1.0  0.56592  0.83888  0.34251  1.0000
  H   H1976     1.0  0.54083  0.66832  0.02319  1.0000
  H   H1977     1.0  0.67646  0.91757  0.31222  1.0000
  H   H1978     1.0  0.73814  0.91416  0.19193  1.0000
  H   H1979     1.0  0.74208  0.77811  0.23645  1.0000
  H   H1980     1.0  0.54828  0.64436  0.00919  1.0000
  N   N61       1.0  0.68070  0.78848  0.18733  1.0000
  C   C1109     1.0  0.67400  0.78190  0.16609  1.0000
  C   C1110     1.0  0.66358  0.78415  0.20547  1.0000
  C   C1111     1.0  0.68338  0.81236  0.18481  1.0000
  C   C1112     1.0  0.70159  0.77757  0.19298  1.0000
  C   C1113     1.0  0.70309  0.75280  0.19438  1.0000
  C   C1114     1.0  0.68912  0.78708  0.14561  1.0000
  C   C1115     1.0  0.68880  0.82291  0.20540  1.0000
  C   C1116     1.0  0.64995  0.76464  0.20388  1.0000
  C   C1117     1.0  0.50227  0.88025  0.33646  1.0000
  C   C1118     1.0  0.49827  0.54017  0.13627  1.0000
  C   C1119     1.0  0.74270  0.81060  0.15779  1.0000
  C   C1120     1.0  0.68722  0.84734  0.20190  1.0000
  H   H1981     1.0  0.65823  0.78983  0.16293  1.0000
  H   H1982     1.0  0.67170  0.76447  0.16677  1.0000
  H   H1983     1.0  0.67054  0.78232  0.22146  1.0000
  H   H1984     1.0  0.65186  0.79813  0.20659  1.0000
  H   H1985     1.0  0.66875  0.82083  0.17891  1.0000
  H   H1986     1.0  0.69644  0.81630  0.17225  1.0000
  H   H1987     1.0  0.71458  0.78321  0.18130  1.0000
  H   H1988     1.0  0.70574  0.78225  0.20898  1.0000
  C   C1121     1.0  0.59876  0.83388  0.34763  1.0000
  H   H1989     1.0  0.69256  0.74645  0.20824  1.0000
  H   H1990     1.0  0.68894  0.80460  0.14137  1.0000
  C   C1122     1.0  0.50007  0.60568  0.11442  1.0000
  H   H1991     1.0  0.70529  0.81805  0.20918  1.0000
  H   H1992     1.0  0.67798  0.81844  0.21981  1.0000
  H   H1993     1.0  0.63912  0.76814  0.19073  1.0000
  H   H1994     1.0  0.65970  0.74990  0.20024  1.0000
  H   H1995     1.0  0.64519  0.99274  0.38482  1.0000
  H   H1996     1.0  0.71393  0.68764  0.04749  1.0000
  C   C1123     1.0  0.74143  0.84770  0.16816  1.0000
  H   H1997     1.0  0.72984  0.74809  0.21442  1.0000
  H   H1998     1.0  0.50772  0.64130  0.00628  1.0000
  H   H1999     1.0  0.72801  0.94269  0.34136  1.0000
  H   H2000     1.0  0.73484  0.84560  0.11438  1.0000
  H   H2001     1.0  0.51339  0.95283  0.44505  1.0000
  H   H2002     1.0  0.67067  0.85321  0.19938  1.0000
  H   H2003     1.0  0.69211  0.85457  0.21638  1.0000
  H   H2004     1.0  0.69778  0.85278  0.18759  1.0000
  H   H2005     1.0  0.58143  0.87345  0.35314  1.0000
  H   H2006     1.0  0.72958  0.94586  0.24670  1.0000
  S   S268      1.0  0.73750  0.80050  0.11506  1.0000
  H   H2007     1.0  0.62568  0.77409  0.22904  1.0000
  H   H2008     1.0  0.67958  0.61526  0.04231  1.0000
  N   N62       1.0  0.51908  0.52740  0.13834  1.0000
  C   C1124     1.0  0.66146  0.91710  0.37918  1.0000
  C   C1125     1.0  0.69790  0.92834  0.19754  1.0000
  C   C1126     1.0  0.53027  0.61379  0.03618  1.0000
  H   H2009     1.0  0.53916  0.86019  0.33440  1.0000
  C   C1127     1.0  0.72994  0.98192  0.32112  1.0000
  C   C1128     1.0  0.52291  0.89162  0.33132  1.0000
  C   C1129     1.0  0.72561  0.74405  0.19829  1.0000
  H   H2010     1.0  0.73732  0.75065  0.18556  1.0000
  H   H2011     1.0  0.53912  0.67587  0.07806  1.0000
  H   H2012     1.0  0.52644  0.93807  0.42344  1.0000
  C   C1130     1.0  0.54259  0.65894  0.08389  1.0000
  H   H2013     1.0  0.55875  0.65735  0.08963  1.0000
  H   H2014     1.0  0.65493  0.66351  0.01156  1.0000
  C   C1131     1.0  0.58742  0.91551  0.32026  1.0000
  H   H2015     1.0  0.54576  0.58074  0.15968  1.0000
  C   C1132     1.0  0.52593  0.58431  0.09319  1.0000
  H   H2016     1.0  0.53736  0.55559  0.13307  1.0000
  C   C1133     1.0  0.55184  0.86282  0.29348  1.0000
  C   C1134     1.0  0.71164  0.96710  0.32166  1.0000
  H   H2017     1.0  0.71502  0.94328  0.16997  1.0000
  C   C1135     1.0  0.73731  0.83982  0.13091  1.0000
  H   H2018     1.0  0.70667  0.69184  0.00702  1.0000
  H   H2019     1.0  0.54252  0.87906  0.48741  1.0000
  N   N63       1.0  0.66355  0.64673  0.04162  1.0000
  C   C1136     1.0  0.64564  0.65926  0.05347  1.0000
  C   C1137     1.0  0.68423  0.65745  0.04249  1.0000
  H   H2020     1.0  0.72464  0.90399  0.31447  1.0000
  C   C1138     1.0  0.66550  0.62367  0.05048  1.0000
  C   C1139     1.0  0.66778  0.61973  0.07508  1.0000
  C   C1140     1.0  0.62313  0.65157  0.05206  1.0000
  H   H2021     1.0  0.65239  0.93284  0.37943  1.0000
  C   C1141     1.0  0.68673  0.67055  0.06242  1.0000
  H   H2022     1.0  0.54735  0.62782  0.07140  1.0000
  C   C1142     1.0  0.67139  0.59583  0.08128  1.0000
  C   C1143     1.0  0.60667  0.66403  0.06638  1.0000
  H   H2023     1.0  0.53259  0.50303  0.16057  1.0000
  H   H2024     1.0  0.64535  0.67636  0.04710  1.0000
  H   H2025     1.0  0.64807  0.65933  0.07099  1.0000
  C   C1144     1.0  0.58116  0.86978  0.33582  1.0000
  C   C1145     1.0  0.54657  0.58390  0.01356  1.0000
  H   H2026     1.0  0.70494  0.96949  0.30565  1.0000
  H   H2027     1.0  0.65969  0.88837  0.48754  1.0000
  H   H2028     1.0  0.65174  0.61479  0.04666  1.0000
  C   C1146     1.0  0.74336  0.82554  0.17386  1.0000
  H   H2029     1.0  0.65324  0.62560  0.08460  1.0000
  H   H2030     1.0  0.68168  0.62747  0.07983  1.0000
  H   H2031     1.0  0.61830  0.65414  0.03524  1.0000
  H   H2032     1.0  0.62254  0.63438  0.05737  1.0000
  H   H2033     1.0  0.65965  0.91538  0.34511  1.0000
  C   C1147     1.0  0.53501  0.54184  0.14538  1.0000
  H   H2034     1.0  0.67602  0.68527  0.06199  1.0000
  H   H2035     1.0  0.68286  0.66139  0.07802  1.0000
  H   H2036     1.0  0.55078  0.53319  0.14621  1.0000
  H   H2037     1.0  0.58382  0.94317  0.33991  1.0000
  H   H2038     1.0  0.66606  0.96870  0.40913  1.0000
  H   H2039     1.0  0.67203  0.59321  0.09913  1.0000
  H   H2040     1.0  0.65832  0.58681  0.07632  1.0000
  H   H2041     1.0  0.68663  0.58947  0.07337  1.0000
  H   H2042     1.0  0.61000  0.66142  0.08370  1.0000
  H   H2043     1.0  0.60655  0.68144  0.06148  1.0000
  H   H2044     1.0  0.59073  0.65832  0.06464  1.0000
  H   H2045     1.0  0.55222  0.50867  0.07905  1.0000
  C   C1148     1.0  0.52712  0.52067  0.11605  1.0000
  H   H2046     1.0  0.53118  0.65464  0.09793  1.0000
  H   H2047     1.0  0.73690  0.87153  0.14193  1.0000
  C   C1149     1.0  0.73169  0.98010  0.24743  1.0000
  C   C1150     1.0  0.54123  0.64408  0.06565  1.0000
  H   H2048     1.0  0.58138  0.87833  0.29486  1.0000
  H   H2049     1.0  0.50798  0.90580  0.43660  1.0000
  H   H2050     1.0  0.56516  0.98082  0.38782  1.0000
  C   C1151     1.0  0.73950  0.81777  0.13623  1.0000
  H   H2051     1.0  0.55862  0.89588  0.29276  1.0000
  H   H2052     1.0  0.70005  0.75321  0.02000  1.0000
  C   C1152     1.0  0.67632  0.63657  0.00246  1.0000
  H   H2053     1.0  0.59340  0.50568  0.01999  1.0000
  H   H2054     1.0  0.65026  0.90431  0.38377  1.0000
  H   H2055     1.0  0.54217  0.57986  0.08805  1.0000
  H   H2056     1.0  0.74465  0.79361  0.16191  1.0000
  C   C1153     1.0  0.49974  0.50840  0.17291  1.0000
  N   N64       1.0  0.70240  0.92728  0.32899  1.0000
  H   H2057     1.0  0.49947  0.92809  0.37774  1.0000
  C   C1154     1.0  0.54621  0.56690  0.17194  1.0000
  H   H2058     1.0  0.52745  0.53485  0.10407  1.0000
  C   C1155     1.0  0.56454  0.88074  0.30140  1.0000
  H   H2059     1.0  0.50035  0.52276  0.18209  1.0000
  H   H2060     1.0  0.53193  0.93036  0.45104  1.0000
  C   C1156     1.0  0.58733  0.89519  0.49189  1.0000
  C   C1157     1.0  0.53588  0.65731  0.01163  1.0000
  C   C1158     1.0  0.71605  0.94184  0.18776  1.0000
  H   H2061     1.0  0.69329  0.78094  0.11149  1.0000
  C   C1159     1.0  0.68400  0.74276  0.05038  1.0000
  C   C1160     1.0  0.59492  0.51710  0.05141  1.0000
  C   C1161     1.0  0.67222  0.91379  0.35658  1.0000
  H   H2062     1.0  0.74554  0.82002  0.19046  1.0000
  C   C1162     1.0  0.68239  0.77667  0.12595  1.0000
  H   H2063     1.0  0.60250  0.94586  0.31639  1.0000
  C   C1163     1.0  0.68815  0.93020  0.31064  1.0000
  H   H2064     1.0  0.67845  0.94559  0.31139  1.0000
  H   H2065     1.0  0.69991  0.91186  0.19189  1.0000
  H   H2066     1.0  0.67922  0.89714  0.35686  1.0000
  H   H2067     1.0  0.67043  0.92455  0.27224  1.0000
  H   H2068     1.0  0.71256  0.93985  0.28476  1.0000
  C   C1164     1.0  0.56615  0.90616  0.32950  1.0000
  H   H2069     1.0  0.67518  0.96547  0.38127  1.0000
  H   H2070     1.0  0.67868  0.61914  0.00680  1.0000
  C   C1165     1.0  0.71306  0.90510  0.32892  1.0000
  H   H2071     1.0  0.66659  0.73538  0.01431  1.0000
  C   C1166     1.0  0.68164  0.72549  0.01506  1.0000
  H   H2072     1.0  0.66603  0.78239  0.12245  1.0000
  H   H2073     1.0  0.52196  0.90597  0.34094  1.0000
  H   H2074     1.0  0.51609  0.50968  0.11021  1.0000
  H   H2075     1.0  0.54439  0.99040  0.43325  1.0000
  C   C1167     1.0  0.54251  0.87685  0.33715  1.0000
  H   H2076     1.0  0.58394  0.84061  0.31816  1.0000
  H   H2077     1.0  0.50097  0.55574  0.12691  1.0000
  C   C1168     1.0  0.61373  0.98838  0.41987  1.0000
  N   N65       1.0  0.51429  0.63243  0.03947  1.0000
  H   H2078     1.0  0.55340  0.91678  0.32246  1.0000
  H   H2079     1.0  0.63253  0.57751  0.00586  1.0000
  H   H2080     1.0  0.74444  0.95210  0.15186  1.0000
  H   H2081     1.0  0.50109  0.87331  0.35347  1.0000
  H   H2082     1.0  0.58286  0.53048  0.04886  1.0000
  C   C1169     1.0  0.73846  0.95846  0.25178  1.0000
  H   H2083     1.0  0.74295  0.97699  0.30908  1.0000
  C   C1170     1.0  0.59099  0.62252  0.02259  1.0000
  H   H2084     1.0  0.73823  0.90863  0.35060  1.0000
  C   C1171     1.0  0.49799  0.91179  0.38446  1.0000
  H   H2085     1.0  0.50144  0.86722  0.32544  1.0000
  H   H2086     1.0  0.69168  0.64400  0.00285  1.0000
  H   H2087     1.0  0.54649  0.57259  0.02824  1.0000
  Fe  Fe136     1.0  0.74166  0.86732  0.22339  1.0000
  C   C1172     1.0  0.62076  0.58993  0.01051  1.0000
  C   C1173     1.0  0.54951  0.50902  0.11430  1.0000
  H   H2088     1.0  0.53459  0.86713  0.29542  1.0000
  C   C1174     1.0  0.51712  0.50754  0.15369  1.0000
  H   H2089     1.0  0.51347  0.59286  0.01719  1.0000
  H   H2090     1.0  0.69937  0.97235  0.33426  1.0000
  H   H2091     1.0  0.57467  0.85437  0.26668  1.0000
  H   H2092     1.0  0.72354  0.86365  0.34477  1.0000
  C   C1175     1.0  0.61393  0.50600  0.11357  1.0000
  C   C1176     1.0  0.64673  0.90057  0.49141  1.0000
  H   H2093     1.0  0.73227  0.97994  0.17266  1.0000
  H   H2094     1.0  0.71040  0.68742  0.07660  1.0000
  H   H2095     1.0  0.69026  0.98032  0.39800  1.0000
  H   H2096     1.0  0.50340  0.90857  0.47504  1.0000
  H   H2097     1.0  0.56213  0.59130  0.01102  1.0000
  C   C1177     1.0  0.58849  0.87284  0.49443  1.0000
  H   H2098     1.0  0.73766  0.93277  0.21182  1.0000
  C   C1178     1.0  0.50125  0.92141  0.44223  1.0000
  C   C1179     1.0  0.74287  0.99683  0.25413  1.0000
  C   C1180     1.0  0.73772  0.93165  0.19404  1.0000
  H   H2099     1.0  0.60091  0.99814  0.49522  1.0000
  C   C1181     1.0  0.73845  0.85457  0.14660  1.0000
  H   H2100     1.0  0.74039  0.91180  0.15612  1.0000
  H   H2101     1.0  0.62722  0.99042  0.42892  1.0000
  H   H2102     1.0  0.52948  0.61187  0.00087  1.0000
  H   H2103     1.0  0.50574  0.99780  0.44181  1.0000
  H   H2104     1.0  0.64655  0.70783  0.00388  1.0000
  H   H2105     1.0  0.72441  0.99863  0.31633  1.0000
  C   C1182     1.0  0.52870  0.87688  0.49948  1.0000
  C   C1183     1.0  0.66128  0.99724  0.38775  1.0000
  H   H2106     1.0  0.67184  0.99757  0.35402  1.0000
  H   H2107     1.0  0.53830  0.99793  0.46067  1.0000
  C   C1184     1.0  0.59782  0.62091  0.00073  1.0000
  C   C1185     1.0  0.59148  0.49902  0.03704  1.0000
  Fe  Fe137     1.0  0.55385  0.61898  0.91507  1.0000
  S   S269      1.0  0.57617  0.59533  0.89757  1.0000
  S   S270      1.0  0.52206  0.63349  0.90548  1.0000
  Fe  Fe138     1.0  0.58300  0.62192  0.95098  1.0000
  S   S271      1.0  0.60702  0.59796  0.93723  1.0000
  S   S272      1.0  0.58676  0.63867  0.98111  1.0000
  Fe  Fe139     1.0  0.60222  0.61600  0.90543  1.0000
  S   S273      1.0  0.63245  0.62391  0.88471  1.0000
  Fe  Fe140     1.0  0.57938  0.57930  0.93091  1.0000
  S   S274      1.0  0.57899  0.54419  0.94274  1.0000
  S   S275      1.0  0.57954  0.64116  0.91955  1.0000
  S   S276      1.0  0.55564  0.60179  0.94790  1.0000
  Fe  Fe141     1.0  0.57122  0.87639  0.62734  1.0000
  S   S277      1.0  0.60042  0.87036  0.60481  1.0000
  S   S278      1.0  0.55023  0.84960  0.63927  1.0000
  Fe  Fe142     1.0  0.57895  0.92287  0.62967  1.0000
  S   S279      1.0  0.60863  0.92090  0.60743  1.0000
  S   S280      1.0  0.56423  0.95390  0.64114  1.0000
  Fe  Fe143     1.0  0.59031  0.90154  0.58750  1.0000
  S   S281      1.0  0.59077  0.91346  0.55229  1.0000
  Fe  Fe144     1.0  0.61645  0.89027  0.62678  1.0000
  S   S282      1.0  0.65065  0.88123  0.63374  1.0000
  S   S283      1.0  0.55998  0.90591  0.60826  1.0000
  S   S284      1.0  0.58798  0.89366  0.65079  1.0000
  Fe  Fe145     1.0  0.71865  0.88567  0.73624  1.0000
  S   S285      1.0  0.72599  0.90260  0.76552  1.0000
  S   S286      1.0  0.68475  0.89023  0.72607  1.0000
  H   H2108     1.0  0.63906  0.54118  0.97854  1.0000
  H   H2109     1.0  0.67688  0.79044  0.96071  1.0000
  Fe  Fe146     1.0  0.71816  0.70772  0.90754  1.0000
  S   S287      1.0  0.71332  0.74283  0.91245  1.0000
  S   S288      1.0  0.69016  0.68928  0.92306  1.0000
  Fe  Fe147     1.0  0.72878  0.74871  0.87876  1.0000
  S   S289      1.0  0.71370  0.76902  0.85153  1.0000
  H   H2110     1.0  0.64452  0.85155  0.59808  1.0000
  H   H2111     1.0  0.59906  0.57047  0.85415  1.0000
  S   S290      1.0  0.73141  0.71364  0.87308  1.0000
  H   H2112     1.0  0.59140  0.84534  0.51722  1.0000
  C   C1186     1.0  0.51955  0.52668  0.88224  1.0000
  N   N66       1.0  0.65137  0.54431  0.90166  1.0000
  N   N67       1.0  0.64992  0.72001  0.86719  1.0000
  H   H2113     1.0  0.73093  0.89885  0.57180  1.0000
  H   H2114     1.0  0.61273  0.70192  0.89367  1.0000
  H   H2115     1.0  0.67655  0.93863  0.57119  1.0000
  C   C1187     1.0  0.72503  0.79243  0.83886  1.0000
  C   C1188     1.0  0.71746  0.80169  0.81941  1.0000
  C   C1189     1.0  0.72551  0.82079  0.80939  1.0000
  H   H2116     1.0  0.67686  0.50289  0.89837  1.0000
  C   C1190     1.0  0.63776  0.70294  0.97212  1.0000
  H   H2117     1.0  0.70515  0.79419  0.81219  1.0000
  H   H2118     1.0  0.71937  0.82792  0.79461  1.0000
  H   H2119     1.0  0.68312  0.54096  0.88632  1.0000
  H   H2120     1.0  0.51798  0.58731  0.91074  1.0000
  C   C1191     1.0  0.51386  0.90389  0.57168  1.0000
  C   C1192     1.0  0.66096  0.88578  0.65860  1.0000
  C   C1193     1.0  0.68109  0.87673  0.66312  1.0000
  C   C1194     1.0  0.68916  0.87895  0.68329  1.0000
  C   C1195     1.0  0.67699  0.89000  0.69926  1.0000
  C   C1196     1.0  0.65713  0.89956  0.69446  1.0000
  C   C1197     1.0  0.64924  0.89764  0.67416  1.0000
  H   H2121     1.0  0.69036  0.86766  0.65112  1.0000
  H   H2122     1.0  0.70447  0.87151  0.68676  1.0000
  H   H2123     1.0  0.64769  0.90829  0.70662  1.0000
  H   H2124     1.0  0.63402  0.90513  0.67058  1.0000
  C   C1198     1.0  0.58183  0.97403  0.63339  1.0000
  C   C1199     1.0  0.60368  0.96905  0.63132  1.0000
  H   H2125     1.0  0.67982  0.70304  0.87342  1.0000
  H   H2126     1.0  0.72383  0.80630  0.74950  1.0000
  H   H2127     1.0  0.50890  0.60752  0.95276  1.0000
  C   C1200     1.0  0.64646  0.52160  0.89784  1.0000
  H   H2128     1.0  0.60989  0.95316  0.63617  1.0000
  C   C1201     1.0  0.65063  0.92528  0.55632  1.0000
  H   H2129     1.0  0.63876  0.92526  0.51332  1.0000
  H   H2130     1.0  0.72716  0.89364  0.54423  1.0000
  H   H2131     1.0  0.68775  0.91894  0.53773  1.0000
  C   C1202     1.0  0.59093  0.87483  0.53333  1.0000
  C   C1203     1.0  0.58952  0.89721  0.53062  1.0000
  C   C1204     1.0  0.58344  0.52274  0.92581  1.0000
  N   N68       1.0  0.69085  0.72027  0.99266  1.0000
  H   H2132     1.0  0.59249  0.86694  0.54927  1.0000
  H   H2133     1.0  0.67848  0.71076  0.96344  1.0000
  H   H2134     1.0  0.63644  0.88971  0.57533  1.0000
  H   H2135     1.0  0.59357  0.91105  0.72499  1.0000
  C   C1205     1.0  0.51238  0.87217  0.63032  1.0000
  C   C1206     1.0  0.52237  0.85370  0.63994  1.0000
  C   C1207     1.0  0.50993  0.83770  0.65031  1.0000
  H   H2136     1.0  0.67306  0.82612  0.73574  1.0000
  H   H2137     1.0  0.52183  0.88465  0.62249  1.0000
  H   H2138     1.0  0.51747  0.82338  0.65775  1.0000
  C   C1208     1.0  0.64899  0.64153  0.89549  1.0000
  C   C1209     1.0  0.64294  0.65050  0.91520  1.0000
  C   C1210     1.0  0.65590  0.66487  0.92335  1.0000
  C   C1211     1.0  0.67504  0.67056  0.91194  1.0000
  C   C1212     1.0  0.68129  0.66145  0.89228  1.0000
  C   C1213     1.0  0.66828  0.64698  0.88409  1.0000
  H   H2139     1.0  0.62819  0.64642  0.92419  1.0000
  H   H2140     1.0  0.65093  0.67170  0.93855  1.0000
  H   H2141     1.0  0.69610  0.66551  0.88341  1.0000
  H   H2142     1.0  0.67311  0.64008  0.86884  1.0000
  H   H2143     1.0  0.58436  0.99526  0.53162  1.0000
  H   H2144     1.0  0.64528  0.57608  0.88610  1.0000
  C   C1214     1.0  0.61579  0.57198  0.85758  1.0000
  H   H2145     1.0  0.60967  0.56172  0.89108  1.0000
  H   H2146     1.0  0.61885  0.60390  0.97800  1.0000
  H   H2147     1.0  0.62072  0.70735  0.97617  1.0000
  H   H2148     1.0  0.67277  0.85442  0.59713  1.0000
  H   H2149     1.0  0.60999  0.66736  0.87748  1.0000
  H   H2150     1.0  0.57831  0.54121  0.89588  1.0000
  H   H2151     1.0  0.65752  0.92581  0.59065  1.0000
  H   H2152     1.0  0.71006  0.69076  0.96388  1.0000
  C   C1215     1.0  0.50266  0.59497  0.90769  1.0000
  H   H2153     1.0  0.64545  0.68645  0.87630  1.0000
  H   H2154     1.0  0.54842  0.86761  0.52569  1.0000
  C   C1216     1.0  0.65866  0.86364  0.56670  1.0000
  H   H2155     1.0  0.63451  0.98090  0.62176  1.0000
  C   C1217     1.0  0.53517  0.86125  0.51820  1.0000
  N   N69       1.0  0.65985  0.90315  0.55158  1.0000
  H   H2156     1.0  0.65385  0.71282  0.90125  1.0000
  H   H2157     1.0  0.66834  0.75252  0.96501  1.0000
  C   C1218     1.0  0.58252  0.52555  0.90333  1.0000
  H   H2158     1.0  0.49613  0.96673  0.65426  1.0000
  H   H2159     1.0  0.68253  0.63084  0.96829  1.0000
  C   C1219     1.0  0.61763  0.98479  0.62337  1.0000
  H   H2160     1.0  0.71125  0.58483  0.90782  1.0000
  C   C1220     1.0  0.50622  0.93386  0.62805  1.0000
  H   H2161     1.0  0.64760  0.51927  0.88010  1.0000
  C   C1221     1.0  0.74097  0.80227  0.84800  1.0000
  H   H2162     1.0  0.66504  0.76128  0.85337  1.0000
  C   C1222     1.0  0.64354  0.77321  0.82995  1.0000
  C   C1223     1.0  0.72095  0.90312  0.55807  1.0000
  C   C1224     1.0  0.74092  0.83103  0.81899  1.0000
  H   H2163     1.0  0.69770  0.77395  0.94756  1.0000
  H   H2164     1.0  0.66889  0.65620  0.97317  1.0000
  C   C1225     1.0  0.63520  0.55060  0.96336  1.0000
  H   H2165     1.0  0.63135  0.95619  0.58396  1.0000
  H   H2166     1.0  0.53105  0.53943  0.88152  1.0000
  Fe  Fe148     1.0  0.74503  0.87199  0.77465  1.0000
  C   C1226     1.0  0.61405  0.70174  0.87571  1.0000
  C   C1227     1.0  0.67018  0.63906  0.97904  1.0000
  H   H2167     1.0  0.61254  0.81520  0.64480  1.0000
  H   H2168     1.0  0.64144  0.75106  0.92609  1.0000
  C   C1228     1.0  0.67292  0.71407  0.86064  1.0000
  C   C1229     1.0  0.61291  0.60477  0.99472  1.0000
  H   H2169     1.0  0.60574  0.71644  0.86876  1.0000
  C   C1230     1.0  0.64055  0.73749  0.85211  1.0000
  C   C1231     1.0  0.65575  0.75456  0.84148  1.0000
  H   H2170     1.0  0.61793  0.54064  0.87352  1.0000
  H   H2171     1.0  0.66679  0.91856  0.50856  1.0000
  C   C1232     1.0  0.65970  0.84977  0.58793  1.0000
  H   H2172     1.0  0.63961  0.80877  0.65159  1.0000
  H   H2173     1.0  0.49772  0.59868  0.97933  1.0000
  H   H2174     1.0  0.65483  0.63182  0.97769  1.0000
  C   C1233     1.0  0.65378  0.88772  0.57065  1.0000
  N   N70       1.0  0.51649  0.86609  0.55666  1.0000
  H   H2175     1.0  0.64145  0.56674  0.96349  1.0000
  C   C1234     1.0  0.53560  0.85884  0.56895  1.0000
  C   C1235     1.0  0.54536  0.83587  0.56559  1.0000
  H   H2176     1.0  0.65660  0.88049  0.52746  1.0000
  C   C1236     1.0  0.60242  0.68241  0.87036  1.0000
  C   C1237     1.0  0.56191  0.82928  0.58167  1.0000
  C   C1238     1.0  0.68356  0.90323  0.54605  1.0000
  H   H2177     1.0  0.67198  0.76284  0.99085  1.0000
  H   H2178     1.0  0.50983  0.93446  0.55284  1.0000
  H   H2179     1.0  0.54881  0.86972  0.56464  1.0000
  H   H2180     1.0  0.53172  0.86015  0.58671  1.0000
  H   H2181     1.0  0.55347  0.83512  0.54906  1.0000
  H   H2182     1.0  0.50232  0.92109  0.61786  1.0000
  H   H2183     1.0  0.54161  0.84618  0.51105  1.0000
  H   H2184     1.0  0.58569  0.68377  0.87732  1.0000
  H   H2185     1.0  0.73013  0.70948  0.96470  1.0000
  H   H2186     1.0  0.56941  0.81329  0.57819  1.0000
  H   H2187     1.0  0.57447  0.84098  0.58037  1.0000
  H   H2188     1.0  0.55434  0.82824  0.59851  1.0000
  C   C1239     1.0  0.67498  0.54619  0.90187  1.0000
  C   C1240     1.0  0.63946  0.55150  0.92221  1.0000
  C   C1241     1.0  0.64511  0.53916  0.94369  1.0000
  C   C1242     1.0  0.68234  0.56881  0.90522  1.0000
  H   H2189     1.0  0.66260  0.83268  0.58445  1.0000
  C   C1243     1.0  0.70642  0.56845  0.90561  1.0000
  H   H2190     1.0  0.68170  0.53522  0.91469  1.0000
  H   H2191     1.0  0.64124  0.56885  0.92358  1.0000
  H   H2192     1.0  0.62216  0.55007  0.92162  1.0000
  C   C1244     1.0  0.64956  0.89632  0.53226  1.0000
  H   H2193     1.0  0.55003  0.67668  0.98439  1.0000
  H   H2194     1.0  0.67797  0.58062  0.89189  1.0000
  H   H2195     1.0  0.67532  0.57462  0.92086  1.0000
  H   H2196     1.0  0.53325  0.82379  0.56761  1.0000
  H   H2197     1.0  0.63244  0.78165  0.84176  1.0000
  C   C1245     1.0  0.58694  0.50796  0.89046  1.0000
  H   H2198     1.0  0.52341  0.89276  0.50532  1.0000
  C   C1246     1.0  0.59449  0.99153  0.56390  1.0000
  H   H2199     1.0  0.71436  0.56318  0.89007  1.0000
  H   H2200     1.0  0.52394  0.89713  0.58450  1.0000
  H   H2201     1.0  0.67389  0.86103  0.55680  1.0000
  C   C1247     1.0  0.64795  0.72641  0.89030  1.0000
  H   H2202     1.0  0.53142  0.89452  0.54237  1.0000
  H   H2203     1.0  0.63247  0.89385  0.53665  1.0000
  C   C1248     1.0  0.67705  0.70304  0.83892  1.0000
  C   C1249     1.0  0.51997  0.92686  0.56534  1.0000
  C   C1250     1.0  0.65908  0.74667  0.89475  1.0000
  C   C1251     1.0  0.65814  0.74948  0.91910  1.0000
  H   H2204     1.0  0.65576  0.96530  0.59163  1.0000
  H   H2205     1.0  0.51652  0.83841  0.53752  1.0000
  H   H2206     1.0  0.71789  0.99786  0.77649  1.0000
  H   H2207     1.0  0.72217  0.92046  0.55330  1.0000
  H   H2208     1.0  0.63109  0.72986  0.89599  1.0000
  H   H2209     1.0  0.51775  0.93642  0.57980  1.0000
  C   C1252     1.0  0.70179  0.97992  0.71631  1.0000
  C   C1253     1.0  0.64408  0.55897  0.88290  1.0000
  H   H2210     1.0  0.70002  0.97275  0.70076  1.0000
  H   H2211     1.0  0.63385  0.73050  0.83836  1.0000
  H   H2212     1.0  0.66123  0.89136  0.58538  1.0000
  H   H2213     1.0  0.63868  0.52301  0.94476  1.0000
  H   H2214     1.0  0.65489  0.78484  0.82218  1.0000
  H   H2215     1.0  0.64591  0.85784  0.55777  1.0000
  H   H2216     1.0  0.69279  0.90746  0.57934  1.0000
  H   H2217     1.0  0.66609  0.76420  0.92188  1.0000
  H   H2218     1.0  0.70404  0.73563  0.96253  1.0000
  H   H2219     1.0  0.66642  0.73557  0.92759  1.0000
  H   H2220     1.0  0.66318  0.50459  0.92478  1.0000
  H   H2221     1.0  0.50369  0.53357  0.88804  1.0000
  H   H2222     1.0  0.68888  0.89128  0.53401  1.0000
  H   H2223     1.0  0.72890  0.66412  0.98737  1.0000
  H   H2224     1.0  0.58704  0.92460  0.50767  1.0000
  H   H2225     1.0  0.68697  0.97828  0.72708  1.0000
  C   C1254     1.0  0.73729  0.67800  0.97939  1.0000
  C   C1255     1.0  0.58844  0.96824  0.56665  1.0000
  H   H2226     1.0  0.73375  0.81137  0.72159  1.0000
  H   H2227     1.0  0.53691  0.92709  0.55905  1.0000
  C   C1256     1.0  0.68010  0.75792  0.97532  1.0000
  C   C1257     1.0  0.66098  0.50306  0.90749  1.0000
  C   C1258     1.0  0.63770  0.70008  0.86682  1.0000
  C   C1259     1.0  0.51638  0.85610  0.53524  1.0000
  H   H2228     1.0  0.64720  0.73119  0.98527  1.0000
  C   C1260     1.0  0.58784  0.90730  0.50989  1.0000
  H   H2229     1.0  0.60249  0.68152  0.85254  1.0000
  C   C1261     1.0  0.64837  0.95777  0.57872  1.0000
  H   H2230     1.0  0.53049  0.65951  0.97723  1.0000
  H   H2231     1.0  0.60649  0.90787  0.69841  1.0000
  H   H2232     1.0  0.70235  0.69618  0.81416  1.0000
  C   C1262     1.0  0.62090  0.55712  0.87734  1.0000
  C   C1263     1.0  0.50038  0.61728  0.90452  1.0000
  H   H2233     1.0  0.66736  0.71105  0.82628  1.0000
  H   H2234     1.0  0.64984  0.96852  0.56367  1.0000
  C   C1264     1.0  0.69749  0.73995  0.97897  1.0000
  H   H2235     1.0  0.67281  0.68605  0.84142  1.0000
  C   C1265     1.0  0.68961  0.77782  0.96351  1.0000
  H   H2236     1.0  0.65456  0.55621  0.86787  1.0000
  H   H2237     1.0  0.64012  0.68525  0.97439  1.0000
  H   H2238     1.0  0.65338  0.93675  0.54196  1.0000
  H   H2239     1.0  0.63790  0.69504  0.84997  1.0000
  H   H2240     1.0  0.66727  0.74744  0.82917  1.0000
  C   C1266     1.0  0.73448  0.79984  0.73605  1.0000
  H   H2241     1.0  0.58585  0.96321  0.58420  1.0000
  S   S291      1.0  0.73519  0.85435  0.74736  1.0000
  H   H2242     1.0  0.63394  0.83004  0.63143  1.0000
  H   H2243     1.0  0.51474  0.97458  0.63282  1.0000
  C   C1267     1.0  0.51642  0.89007  0.55179  1.0000
  H   H2244     1.0  0.50345  0.89560  0.54137  1.0000
  C   C1268     1.0  0.52661  0.50792  0.89761  1.0000
  H   H2245     1.0  0.69785  0.88103  0.57072  1.0000
  H   H2246     1.0  0.68275  0.72819  0.85966  1.0000
  H   H2247     1.0  0.61777  0.58893  0.86067  1.0000
  H   H2248     1.0  0.63309  0.92504  0.55966  1.0000
  H   H2249     1.0  0.73112  0.96133  0.76681  1.0000
  H   H2250     1.0  0.57983  0.89940  0.70487  1.0000
  C   C1269     1.0  0.59044  0.86265  0.51519  1.0000
  H   H2251     1.0  0.70592  0.71956  0.82840  1.0000
  H   H2252     1.0  0.63453  0.76741  0.81718  1.0000
  H   H2253     1.0  0.66242  0.53757  0.94510  1.0000
  H   H2254     1.0  0.71179  0.55754  0.91926  1.0000
  C   C1270     1.0  0.65953  0.93582  0.57517  1.0000
  H   H2255     1.0  0.51892  0.52142  0.86560  1.0000
  H   H2256     1.0  0.62625  0.56770  0.84307  1.0000
  H   H2257     1.0  0.65087  0.76112  0.88718  1.0000
  C   C1271     1.0  0.69797  0.89824  0.56511  1.0000
  N   N71       1.0  0.61740  0.84087  0.70584  1.0000
  C   C1272     1.0  0.61604  0.82784  0.68654  1.0000
  C   C1273     1.0  0.60481  0.83064  0.72524  1.0000
  C   C1274     1.0  0.60679  0.86274  0.70066  1.0000
  C   C1275     1.0  0.63996  0.84361  0.71085  1.0000
  C   C1276     1.0  0.65651  0.82474  0.70645  1.0000
  C   C1277     1.0  0.62506  0.83815  0.66442  1.0000
  C   C1278     1.0  0.60434  0.87825  0.71923  1.0000
  C   C1279     1.0  0.61200  0.80752  0.73307  1.0000
  C   C1280     1.0  0.59624  0.79840  0.75092  1.0000
  C   C1281     1.0  0.67663  0.82695  0.71785  1.0000
  C   C1282     1.0  0.62793  0.82193  0.64707  1.0000
  C   C1283     1.0  0.59553  0.90045  0.71130  1.0000
  H   H2258     1.0  0.59917  0.82472  0.68471  1.0000
  H   H2259     1.0  0.62415  0.81178  0.68887  1.0000
  H   H2260     1.0  0.60539  0.84004  0.73966  1.0000
  H   H2261     1.0  0.58777  0.83077  0.72194  1.0000
  H   H2262     1.0  0.59070  0.86112  0.69517  1.0000
  H   H2263     1.0  0.61586  0.87130  0.68688  1.0000
  H   H2264     1.0  0.64648  0.85766  0.70113  1.0000
  H   H2265     1.0  0.64033  0.84760  0.72803  1.0000
  H   H2266     1.0  0.66117  0.82458  0.68879  1.0000
  H   H2267     1.0  0.65046  0.80893  0.71181  1.0000
  H   H2268     1.0  0.61395  0.85128  0.65854  1.0000
  H   H2269     1.0  0.64054  0.84495  0.66582  1.0000
  H   H2270     1.0  0.61983  0.88009  0.72578  1.0000
  H   H2271     1.0  0.59296  0.87240  0.73261  1.0000
  H   H2272     1.0  0.61328  0.79649  0.71983  1.0000
  H   H2273     1.0  0.62747  0.80753  0.74019  1.0000
  H   H2274     1.0  0.60194  0.78199  0.75657  1.0000
  H   H2275     1.0  0.59464  0.80853  0.76500  1.0000
  H   H2276     1.0  0.58044  0.79747  0.74467  1.0000
  H   H2277     1.0  0.68849  0.81380  0.71372  1.0000
  H   H2278     1.0  0.68371  0.84242  0.71262  1.0000
  H   H2279     1.0  0.67594  0.74594  0.88845  1.0000
  H   H2280     1.0  0.71079  0.74700  0.98589  1.0000
  H   H2281     1.0  0.71488  0.97076  0.72429  1.0000
  H   H2282     1.0  0.62679  0.74605  0.86074  1.0000
  H   H2283     1.0  0.60134  0.95762  0.55932  1.0000
  C   C1284     1.0  0.73187  0.99596  0.76536  1.0000
  C   C1285     1.0  0.72143  0.69669  0.97428  1.0000
  H   H2284     1.0  0.50347  0.62663  0.97293  1.0000
  H   H2285     1.0  0.70131  0.78424  0.97334  1.0000
  C   C1286     1.0  0.70033  0.70301  0.83027  1.0000
  H   H2286     1.0  0.72881  0.78435  0.73196  1.0000
  H   H2287     1.0  0.71023  0.69290  0.84140  1.0000
  H   H2288     1.0  0.61768  0.55232  0.96320  1.0000
  C   C1287     1.0  0.67528  0.70841  0.98139  1.0000
  H   H2289     1.0  0.64188  0.70816  0.95483  1.0000
  H   H2290     1.0  0.57359  0.96623  0.55893  1.0000
  C   C1288     1.0  0.49775  0.61214  0.96664  1.0000
  H   H2291     1.0  0.52315  0.93726  0.62413  1.0000
  C   C1289     1.0  0.71044  0.70563  0.99536  1.0000
  C   C1290     1.0  0.49615  0.86130  0.57014  1.0000
  C   C1291     1.0  0.53444  0.67006  0.98976  1.0000
  H   H2292     1.0  0.60889  0.99241  0.57268  1.0000
  H   H2293     1.0  0.52827  0.51441  0.91355  1.0000
  H   H2294     1.0  0.50113  0.86053  0.52786  1.0000
  C   C1292     1.0  0.73934  0.97516  0.75989  1.0000
  H   H2295     1.0  0.62974  0.51861  0.90379  1.0000
  H   H2296     1.0  0.58638  0.51022  0.87305  1.0000
  H   H2297     1.0  0.50382  0.92792  0.64537  1.0000
  H   H2298     1.0  0.67750  0.69081  0.98521  1.0000
  C   C1293     1.0  0.65126  0.71376  0.98691  1.0000
  H   H2299     1.0  0.54471  0.57474  0.99925  1.0000
  H   H2300     1.0  0.74065  0.77241  0.99805  1.0000
  H   H2301     1.0  0.52230  0.68356  0.99103  1.0000
  C   C1294     1.0  0.58815  0.50223  0.93538  1.0000
  H   H2302     1.0  0.58881  0.49996  0.95278  1.0000
  H   H2303     1.0  0.54247  0.50154  0.89136  1.0000
  H   H2304     1.0  0.50390  0.83205  0.59012  1.0000
  H   H2305     1.0  0.61175  0.98847  0.53245  1.0000
  C   C1295     1.0  0.57401  0.99500  0.62842  1.0000
  C   C1296     1.0  0.65096  0.91183  0.51153  1.0000
  C   C1297     1.0  0.49750  0.97245  0.63679  1.0000
  H   H2306     1.0  0.49710  0.90471  0.57859  1.0000
  Fe  Fe149     1.0  0.87915  0.39703  0.39079  1.0000
  S   S292      1.0  0.86525  0.36783  0.40862  1.0000
  S   S293      1.0  0.86268  0.42911  0.38226  1.0000
  Fe  Fe150     1.0  0.92168  0.37489  0.38200  1.0000
  S   S294      1.0  0.91229  0.34394  0.39910  1.0000
  S   S295      1.0  0.95375  0.38185  0.36629  1.0000
  Fe  Fe151     1.0  0.88252  0.34940  0.38190  1.0000
  S   S296      1.0  0.87029  0.31879  0.37134  1.0000
  Fe  Fe152     1.0  0.89586  0.36406  0.42471  1.0000
  S   S297      1.0  0.90057  0.35087  0.45922  1.0000
  S   S298      1.0  0.89347  0.37894  0.36258  1.0000
  S   S299      1.0  0.90827  0.39462  0.40903  1.0000
  C   C1298     1.0  0.76270  0.17254  0.05055  1.0000
  Fe  Fe153     1.0  0.77506  0.25224  0.11735  1.0000
  S   S300      1.0  0.81067  0.25403  0.11800  1.0000
  C   C1299     1.0  0.97710  0.45120  0.39203  1.0000
  C   C1300     1.0  0.94334  0.47276  0.39968  1.0000
  Fe  Fe154     1.0  0.77178  0.09413  0.26173  1.0000
  C   C1301     1.0  0.83640  0.32053  0.46183  1.0000
  S   S301      1.0  0.80614  0.10372  0.25849  1.0000
  H   H2307     1.0  0.92402  0.42334  0.34430  1.0000
  H   H2308     1.0  0.92115  0.40451  0.49237  1.0000
  S   S302      1.0  0.76041  0.08031  0.23253  1.0000
  Fe  Fe155     1.0  0.86743  0.21066  0.26910  1.0000
  S   S303      1.0  0.89363  0.20181  0.24387  1.0000
  S   S304      1.0  0.84101  0.19057  0.28586  1.0000
  Fe  Fe156     1.0  0.87856  0.25802  0.26554  1.0000
  S   S305      1.0  0.90483  0.25224  0.23958  1.0000
  S   S306      1.0  0.87218  0.29273  0.27373  1.0000
  Fe  Fe157     1.0  0.88192  0.23212  0.22538  1.0000
  S   S307      1.0  0.87820  0.23651  0.18898  1.0000
  Fe  Fe158     1.0  0.91414  0.22308  0.26043  1.0000
  S   S308      1.0  0.94773  0.21506  0.27152  1.0000
  S   S309      1.0  0.85525  0.23998  0.24981  1.0000
  S   S310      1.0  0.88856  0.22966  0.28722  1.0000
  C   C1302     1.0  0.97289  0.22620  0.26458  1.0000
  H   H2309     1.0  0.76862  0.15698  0.05821  1.0000
  H   H2310     1.0  0.96721  0.32508  0.46293  1.0000
  H   H2311     1.0  0.76258  0.16865  0.27555  1.0000
  C   C1303     1.0  0.97604  0.24253  0.24816  1.0000
  H   H2312     1.0  0.92576  0.47241  0.40172  1.0000
  C   C1304     1.0  0.95471  0.33625  0.47009  1.0000
  H   H2313     1.0  0.96296  0.24853  0.23890  1.0000
  C   C1305     1.0  0.81570  0.12766  0.26677  1.0000
  C   C1306     1.0  0.80337  0.14110  0.28052  1.0000
  C   C1307     1.0  0.81142  0.16020  0.28625  1.0000
  C   C1308     1.0  0.83183  0.16616  0.27829  1.0000
  C   C1309     1.0  0.84426  0.15254  0.26480  1.0000
  C   C1310     1.0  0.83623  0.13343  0.25911  1.0000
  H   H2314     1.0  0.78769  0.13670  0.28682  1.0000
  H   H2315     1.0  0.80176  0.17045  0.29692  1.0000
  H   H2316     1.0  0.86016  0.15662  0.25893  1.0000
  H   H2317     1.0  0.84600  0.12303  0.24869  1.0000
  H   H2318     1.0  0.99120  0.40425  0.36872  1.0000
  C   C1311     1.0  0.82783  0.24860  0.13920  1.0000
  C   C1312     1.0  0.84949  0.25047  0.13358  1.0000
  C   C1313     1.0  0.86426  0.24658  0.14914  1.0000
  C   C1314     1.0  0.85780  0.24088  0.17082  1.0000
  C   C1315     1.0  0.83601  0.23895  0.17674  1.0000
  C   C1316     1.0  0.82102  0.24272  0.16090  1.0000
  H   H2319     1.0  0.85499  0.25495  0.11695  1.0000
  H   H2320     1.0  0.88093  0.24807  0.14427  1.0000
  H   H2321     1.0  0.83070  0.23461  0.19337  1.0000
  H   H2322     1.0  0.80430  0.24131  0.16550  1.0000
  C   C1317     1.0  0.98677  0.32369  0.37160  1.0000
  C   C1318     1.0  0.88541  0.29246  0.43160  1.0000
  H   H2323     1.0  0.82710  0.35834  0.24300  1.0000
  H   H2324     1.0  0.85484  0.27562  0.46420  1.0000
  H   H2325     1.0  0.96634  0.31513  0.40071  1.0000
  H   H2326     1.0  0.98810  0.20582  0.28890  1.0000
  C   C1319     1.0  0.87098  0.31205  0.34403  1.0000
  C   C1320     1.0  0.86894  0.29060  0.33979  1.0000
  C   C1321     1.0  0.86942  0.28450  0.31834  1.0000
  C   C1322     1.0  0.87172  0.29985  0.30090  1.0000
  C   C1323     1.0  0.87350  0.32136  0.30510  1.0000
  C   C1324     1.0  0.87322  0.32744  0.32657  1.0000
  H   H2327     1.0  0.86696  0.27862  0.35318  1.0000
  H   H2328     1.0  0.86763  0.26799  0.31529  1.0000
  H   H2329     1.0  0.87515  0.33337  0.29171  1.0000
  H   H2330     1.0  0.87456  0.34405  0.32961  1.0000
  C   C1325     1.0  0.87024  0.45182  0.39426  1.0000
  C   C1326     1.0  0.86676  0.47227  0.38388  1.0000
  C   C1327     1.0  0.87920  0.44987  0.41420  1.0000
  H   H2331     1.0  0.85981  0.47387  0.36847  1.0000
  H   H2332     1.0  0.88164  0.43423  0.42247  1.0000
  H   H2333     1.0  0.80663  0.29755  0.14100  1.0000
  C   C1328     1.0  0.78312  0.13144  0.19934  1.0000
  H   H2334     1.0  0.75222  0.29402  0.04517  1.0000
  C   C1329     1.0  0.97117  0.38152  0.38658  1.0000
  C   C1330     1.0  0.96770  0.36867  0.40582  1.0000
  H   H2335     1.0  0.97264  0.39716  0.49350  1.0000
  H   H2336     1.0  0.99079  0.28463  0.31242  1.0000
  H   H2337     1.0  0.91377  0.30980  0.43435  1.0000
  H   H2338     1.0  0.95407  0.35901  0.40833  1.0000
  H   H2339     1.0  0.97175  0.29391  0.38231  1.0000
  C   C1331     1.0  0.90856  0.29316  0.43652  1.0000
  C   C1332     1.0  0.96690  0.25984  0.31747  1.0000
  H   H2340     1.0  0.85826  0.19929  0.01176  1.0000
  H   H2341     1.0  0.87503  0.32421  0.43891  1.0000
  H   H2342     1.0  0.80659  0.33235  0.22585  1.0000
  S   S311      1.0  0.75081  0.26560  0.14177  1.0000
  N   N72       1.0  0.84727  0.30557  0.44576  1.0000
  C   C1333     1.0  0.87201  0.49069  0.39346  1.0000
  H   H2343     1.0  0.76468  0.00729  0.19039  1.0000
  C   C1334     1.0  0.78362  0.18084  0.19537  1.0000
  H   H2344     1.0  0.83049  0.24538  0.47693  1.0000
  H   H2345     1.0  0.78355  0.19281  0.24969  1.0000
  C   C1335     1.0  0.87086  0.30795  0.44555  1.0000
  C   C1336     1.0  0.82114  0.27804  0.46526  1.0000
  H   H2346     1.0  0.81771  0.33688  0.39377  1.0000
  H   H2347     1.0  0.77223  0.18675  0.15249  1.0000
  C   C1337     1.0  0.81289  0.32010  0.39673  1.0000
  C   C1338     1.0  0.94543  0.41479  0.44637  1.0000
  C   C1339     1.0  0.84103  0.31112  0.42303  1.0000
  H   H2348     1.0  0.92781  0.43604  0.41223  1.0000
  S   S312      1.0  0.75868  0.26823  0.08906  1.0000
  H   H2349     1.0  0.79519  0.20092  0.14202  1.0000
  C   C1340     1.0  0.88400  0.46829  0.42399  1.0000
  C   C1341     1.0  0.82235  0.34313  0.25192  1.0000
  C   C1342     1.0  0.74842  0.00360  0.18703  1.0000
  C   C1343     1.0  0.81716  0.31132  0.41972  1.0000
  H   H2350     1.0  0.84691  0.32691  0.41674  1.0000
  C   C1344     1.0  0.88028  0.48875  0.41373  1.0000
  H   H2351     1.0  0.98028  0.35710  0.43597  1.0000
  C   C1345     1.0  0.79253  0.11014  0.19135  1.0000
  H   H2352     1.0  0.89028  0.46671  0.43974  1.0000
  H   H2353     1.0  0.87633  0.39165  0.46453  1.0000
  H   H2354     1.0  0.75050  0.18013  0.06195  1.0000
  H   H2355     1.0  0.93182  0.35870  0.49888  1.0000
  H   H2356     1.0  0.84901  0.29958  0.41174  1.0000
  H   H2357     1.0  0.80391  0.11284  0.17691  1.0000
  H   H2358     1.0  0.76127  0.25506  0.03469  1.0000
  H   H2359     1.0  0.76881  0.17393  0.19146  1.0000
  H   H2360     1.0  0.76276  0.15822  0.22697  1.0000
  H   H2361     1.0  0.80722  0.34638  0.26184  1.0000
  H   H2362     1.0  0.91881  0.28316  0.42533  1.0000
  N   N73       1.0  0.80853  0.20856  0.06150  1.0000
  C   C1346     1.0  0.79845  0.23007  0.05427  1.0000
  C   C1347     1.0  0.79160  0.19245  0.06484  1.0000
  C   C1348     1.0  0.81687  0.21076  0.08331  1.0000
  C   C1349     1.0  0.82662  0.20108  0.04584  1.0000
  C   C1350     1.0  0.82513  0.20807  0.02137  1.0000
  C   C1351     1.0  0.81285  0.24929  0.05387  1.0000
  C   C1352     1.0  0.82594  0.18986  0.09504  1.0000
  C   C1353     1.0  0.78092  0.18728  0.04447  1.0000
  C   C1354     1.0  0.83884  0.34483  0.45628  1.0000
  H   H2363     1.0  0.96592  0.24375  0.31111  1.0000
  C   C1355     1.0  0.80455  0.26868  0.04003  1.0000
  C   C1356     1.0  0.83927  0.19476  0.11331  1.0000
  H   H2364     1.0  0.78397  0.23390  0.06511  1.0000
  H   H2365     1.0  0.79256  0.22975  0.03802  1.0000
  H   H2366     1.0  0.79816  0.17674  0.07157  1.0000
  H   H2367     1.0  0.77886  0.19788  0.07709  1.0000
  H   H2368     1.0  0.80416  0.21774  0.09465  1.0000
  H   H2369     1.0  0.82970  0.22224  0.08174  1.0000
  H   H2370     1.0  0.84191  0.20687  0.05007  1.0000
  H   H2371     1.0  0.82879  0.18328  0.04746  1.0000
  H   H2372     1.0  0.98364  0.43464  0.39578  1.0000
  H   H2373     1.0  0.98208  0.34098  0.37208  1.0000
  H   H2374     1.0  0.81336  0.25436  0.07059  1.0000
  H   H2375     1.0  0.82934  0.24497  0.04762  1.0000
  H   H2376     1.0  0.83609  0.18001  0.08368  1.0000
  H   H2377     1.0  0.81276  0.18021  0.10250  1.0000
  H   H2378     1.0  0.77429  0.20191  0.03581  1.0000
  H   H2379     1.0  0.79251  0.17868  0.03329  1.0000
  H   H2380     1.0  0.86117  0.40885  0.49775  1.0000
  H   H2381     1.0  0.99106  0.26735  0.29068  1.0000
  C   C1357     1.0  0.96858  0.31143  0.38338  1.0000
  H   H2382     1.0  0.80958  0.20516  0.01567  1.0000
  H   H2383     1.0  0.80923  0.26170  0.24972  1.0000
  C   C1358     1.0  0.75414  0.24673  0.02284  1.0000
  H   H2384     1.0  0.81554  0.28182  0.03981  1.0000
  H   H2385     1.0  0.80337  0.26454  0.02309  1.0000
  H   H2386     1.0  0.78875  0.27458  0.04701  1.0000
  H   H2387     1.0  0.84461  0.17960  0.12216  1.0000
  H   H2388     1.0  0.85349  0.20331  0.10665  1.0000
  H   H2389     1.0  0.82988  0.20488  0.12502  1.0000
  N   N74       1.0  0.83963  0.30521  0.20524  1.0000
  C   C1359     1.0  0.82471  0.31422  0.18869  1.0000
  C   C1360     1.0  0.84037  0.32107  0.22230  1.0000
  C   C1361     1.0  0.86153  0.30302  0.19357  1.0000
  C   C1362     1.0  0.83374  0.28355  0.21570  1.0000
  C   C1363     1.0  0.80982  0.27881  0.21775  1.0000
  C   C1364     1.0  0.82527  0.30163  0.16797  1.0000
  C   C1365     1.0  0.88004  0.29697  0.20804  1.0000
  H   H2390     1.0  0.77961  0.10064  0.18676  1.0000
  C   C1366     1.0  0.80533  0.25906  0.23303  1.0000
  C   C1367     1.0  0.90066  0.29181  0.19427  1.0000
  H   H2391     1.0  0.80812  0.31560  0.19587  1.0000
  H   H2392     1.0  0.85168  0.31504  0.23442  1.0000
  H   H2393     1.0  0.86216  0.29043  0.18171  1.0000
  H   H2394     1.0  0.84207  0.27032  0.20673  1.0000
  H   H2395     1.0  0.83960  0.28124  0.23219  1.0000
  H   H2396     1.0  0.80467  0.27571  0.20168  1.0000
  H   H2397     1.0  0.79957  0.29230  0.22396  1.0000
  H   H2398     1.0  0.83902  0.30619  0.15659  1.0000
  H   H2399     1.0  0.82715  0.28416  0.17193  1.0000
  H   H2400     1.0  0.87634  0.28287  0.21925  1.0000
  H   H2401     1.0  0.88306  0.31050  0.21772  1.0000
  H   H2402     1.0  0.77465  0.13985  0.18598  1.0000
  C   C1368     1.0  0.77733  0.16454  0.23212  1.0000
  H   H2403     1.0  0.78826  0.25586  0.23360  1.0000
  H   H2404     1.0  0.81471  0.24474  0.22729  1.0000
  H   H2405     1.0  0.95305  0.41365  0.46185  1.0000
  H   H2406     1.0  0.90477  0.30564  0.18277  1.0000
  H   H2407     1.0  0.91380  0.28825  0.20495  1.0000
  H   H2408     1.0  0.89918  0.27757  0.18500  1.0000
  H   H2409     1.0  0.83465  0.33739  0.26309  1.0000
  H   H2410     1.0  0.80751  0.32146  0.43118  1.0000
  H   H2411     1.0  0.81908  0.31864  0.46396  1.0000
  H   H2412     1.0  0.77145  0.12756  0.21324  1.0000
  C   C1369     1.0  0.96401  0.34937  0.48639  1.0000
  C   C1370     1.0  0.88886  0.36346  0.48217  1.0000
  N   N75       1.0  0.79375  0.16718  0.21312  1.0000
  C   C1371     1.0  0.80070  0.14504  0.20623  1.0000
  C   C1372     1.0  0.81227  0.17800  0.22059  1.0000
  C   C1373     1.0  0.79766  0.18519  0.17409  1.0000
  C   C1374     1.0  0.83461  0.17259  0.20934  1.0000
  C   C1375     1.0  0.85083  0.18749  0.21566  1.0000
  H   H2413     1.0  0.80832  0.13561  0.21974  1.0000
  H   H2414     1.0  0.81309  0.14568  0.19253  1.0000
  H   H2415     1.0  0.80928  0.19574  0.21934  1.0000
  H   H2416     1.0  0.81395  0.17360  0.23810  1.0000
  H   H2417     1.0  0.77841  0.19691  0.20095  1.0000
  H   H2418     1.0  0.81048  0.19567  0.17689  1.0000
  H   H2419     1.0  0.80076  0.10075  0.20441  1.0000
  H   H2420     1.0  0.84005  0.15594  0.21454  1.0000
  H   H2421     1.0  0.83484  0.17381  0.19145  1.0000
  H   H2422     1.0  0.84709  0.20414  0.20935  1.0000
  H   H2423     1.0  0.85095  0.18723  0.23354  1.0000
  H   H2424     1.0  0.86691  0.18239  0.20868  1.0000
  N   N76       1.0  0.95315  0.45164  0.39258  1.0000
  C   C1376     1.0  0.94629  0.44667  0.37084  1.0000
  H   H2425     1.0  0.83134  0.35015  0.44111  1.0000
  C   C1377     1.0  0.94535  0.43429  0.40906  1.0000
  S   S313      1.0  0.75620  0.06886  0.28467  1.0000
  H   H2426     1.0  0.98838  0.44632  0.35819  1.0000
  C   C1378     1.0  0.92204  0.44649  0.36905  1.0000
  H   H2427     1.0  0.95364  0.31635  0.37589  1.0000
  H   H2428     1.0  0.76159  0.19693  0.23299  1.0000
  H   H2429     1.0  0.93774  0.24368  0.34763  1.0000
  C   C1379     1.0  0.91725  0.43983  0.34686  1.0000
  H   H2430     1.0  0.95352  0.43074  0.36642  1.0000
  H   H2431     1.0  0.95219  0.45825  0.35767  1.0000
  H   H2432     1.0  0.81447  0.31165  0.24608  1.0000
  H   H2433     1.0  0.98201  0.46075  0.40501  1.0000
  H   H2434     1.0  0.94896  0.41826  0.40254  1.0000
  H   H2435     1.0  0.94653  0.49099  0.36780  1.0000
  H   H2436     1.0  0.76979  0.00425  0.27043  1.0000
  H   H2437     1.0  0.94885  0.39935  0.43871  1.0000
  H   H2438     1.0  0.91454  0.43496  0.38127  1.0000
  H   H2439     1.0  0.91429  0.46265  0.37113  1.0000
  H   H2440     1.0  0.94794  0.47570  0.41603  1.0000
  H   H2441     1.0  0.94830  0.34692  0.45679  1.0000
  H   H2442     1.0  0.81747  0.24738  0.45190  1.0000
  H   H2443     1.0  0.84501  0.27243  0.43874  1.0000
  H   H2444     1.0  0.86536  0.31821  0.18392  1.0000
  H   H2445     1.0  0.94171  0.32673  0.47821  1.0000
  C   C1380     1.0  0.77002  0.18511  0.24388  1.0000
  H   H2446     1.0  0.80463  0.17018  0.16743  1.0000
  H   H2447     1.0  0.97183  0.43058  0.43048  1.0000
  H   H2448     1.0  0.89980  0.43993  0.34607  1.0000
  H   H2449     1.0  0.92380  0.45113  0.33371  1.0000
  N   N77       1.0  0.94767  0.27418  0.31215  1.0000
  C   C1381     1.0  0.92843  0.26106  0.31711  1.0000
  C   C1382     1.0  0.95008  0.28120  0.28822  1.0000
  C   C1383     1.0  0.98956  0.45832  0.37029  1.0000
  C   C1384     1.0  0.94685  0.29311  0.32593  1.0000
  C   C1385     1.0  0.92846  0.31010  0.32278  1.0000
  C   C1386     1.0  0.92381  0.25266  0.34112  1.0000
  H   H2450     1.0  0.79572  0.31989  0.39454  1.0000
  C   C1387     1.0  0.92951  0.28685  0.27658  1.0000
  C   C1388     1.0  0.93443  0.29696  0.25367  1.0000
  C   C1389     1.0  0.92691  0.32625  0.34022  1.0000
  C   C1390     1.0  0.90580  0.23735  0.34349  1.0000
  H   H2451     1.0  0.87584  0.30628  0.46245  1.0000
  H   H2452     1.0  0.92993  0.24704  0.30687  1.0000
  H   H2453     1.0  0.91373  0.27018  0.31262  1.0000
  H   H2454     1.0  0.96049  0.29497  0.28532  1.0000
  H   H2455     1.0  0.95818  0.26808  0.27898  1.0000
  C   C1391     1.0  0.98889  0.26794  0.30858  1.0000
  H   H2456     1.0  0.91065  0.28686  0.45347  1.0000
  H   H2457     1.0  0.94645  0.28763  0.34343  1.0000
  H   H2458     1.0  0.96154  0.30194  0.32269  1.0000
  H   H2459     1.0  0.91308  0.30263  0.32361  1.0000
  H   H2460     1.0  0.93123  0.31929  0.30689  1.0000
  H   H2461     1.0  0.79113  0.30070  0.16635  1.0000
  H   H2462     1.0  0.91896  0.26622  0.35135  1.0000
  H   H2463     1.0  0.77707  0.21213  0.16270  1.0000
  C   C1392     1.0  0.75469  0.17992  0.26367  1.0000
  H   H2464     1.0  0.92121  0.27202  0.27517  1.0000
  H   H2465     1.0  0.91829  0.29799  0.28535  1.0000
  H   H2466     1.0  0.91941  0.30037  0.24572  1.0000
  H   H2467     1.0  0.94220  0.31227  0.25420  1.0000
  H   H2468     1.0  0.94489  0.28587  0.24381  1.0000
  H   H2469     1.0  0.94223  0.33377  0.34080  1.0000
  H   H2470     1.0  0.91471  0.33916  0.33649  1.0000
  H   H2471     1.0  0.92204  0.31829  0.35632  1.0000
  H   H2472     1.0  0.90254  0.23183  0.36082  1.0000
  H   H2473     1.0  0.89108  0.24544  0.33767  1.0000
  H   H2474     1.0  0.91018  0.22310  0.33407  1.0000
  H   H2475     1.0  0.80778  0.28598  0.45684  1.0000
  H   H2476     1.0  0.88107  0.27559  0.43452  1.0000
  H   H2477     1.0  0.94471  0.37834  0.48193  1.0000
  H   H2478     1.0  0.75504  0.16946  0.03573  1.0000
  C   C1393     1.0  0.87812  0.38359  0.48037  1.0000
  H   H2479     1.0  0.82746  0.22544  0.01828  1.0000
  C   C1394     1.0  0.81772  0.25404  0.46798  1.0000
  H   H2480     1.0  0.82182  0.31016  0.38450  1.0000
  C   C1395     1.0  0.84297  0.28249  0.45294  1.0000
  H   H2481     1.0  0.81100  0.35532  0.47691  1.0000
  H   H2482     1.0  0.96615  0.49596  0.38615  1.0000
  C   C1396     1.0  0.81942  0.32618  0.23609  1.0000
  C   C1397     1.0  0.78470  0.19696  0.15682  1.0000
  H   H2483     1.0  0.78326  0.15229  0.24441  1.0000
  H   H2484     1.0  0.84639  0.33644  0.21469  1.0000
  H   H2485     1.0  0.84006  0.17872  0.00884  1.0000
  H   H2486     1.0  0.88444  0.29724  0.41409  1.0000
  H   H2487     1.0  0.74954  0.19486  0.27166  1.0000
  H   H2488     1.0  0.82843  0.33099  0.18317  1.0000
  C   C1398     1.0  0.80520  0.30627  0.15606  1.0000
  H   H2489     1.0  0.85564  0.34880  0.45435  1.0000
  C   C1399     1.0  0.94929  0.49278  0.38495  1.0000
  H   H2490     1.0  0.97772  0.35762  0.47793  1.0000
  H   H2491     1.0  0.96745  0.25695  0.33533  1.0000
  C   C1400     1.0  0.95434  0.43329  0.43168  1.0000
  H   H2492     1.0  0.81178  0.29475  0.42174  1.0000
  C   C1401     1.0  0.98239  0.36768  0.42152  1.0000
  H   H2493     1.0  0.98348  0.47404  0.36334  1.0000
  C   C1402     1.0  0.98871  0.39408  0.38349  1.0000
  H   H2494     1.0  0.84226  0.31640  0.47816  1.0000
  H   H2495     1.0  0.80286  0.32368  0.15154  1.0000
  H   H2496     1.0  0.83004  0.37536  0.46979  1.0000
  H   H2497     1.0  0.95009  0.44827  0.43987  1.0000
  S   S314      1.0  0.76001  0.22102  0.11529  1.0000
  H   H2498     1.0  0.92800  0.41742  0.44982  1.0000
  C   C1403     1.0  0.94724  0.36615  0.49555  1.0000
  C   C1404     1.0  0.99027  0.21848  0.27621  1.0000
  H   H2499     1.0  0.98831  0.31983  0.35443  1.0000
  C   C1405     1.0  0.82819  0.35806  0.47434  1.0000
  H   H2500     1.0  0.99461  0.44894  0.45864  1.0000
  H   H2501     1.0  0.80228  0.25131  0.47735  1.0000
  H   H2502     1.0  0.82042  0.28400  0.48177  1.0000
  H   H2503     1.0  0.83577  0.35395  0.48974  1.0000
  C   C1406     1.0  0.86962  0.39334  0.49919  1.0000
  C   C1407     1.0  0.84222  0.19623  0.00717  1.0000
  H   H2504     1.0  0.94317  0.41899  0.49899  1.0000
  H   H2505     1.0  0.97005  0.33802  0.49928  1.0000
  H   H2506     1.0  0.75695  0.15027  0.32120  1.0000
  C   C1408     1.0  0.76035  0.25043  0.00050  1.0000
  Fe  Fe159     1.0  0.92066  0.41124  0.58618  1.0000
  S   S315      1.0  0.91249  0.40396  0.62175  1.0000
  S   S316      1.0  0.95019  0.42602  0.57128  1.0000
  Fe  Fe160     1.0  0.87988  0.39548  0.57279  1.0000
  S   S317      1.0  0.86769  0.38704  0.60743  1.0000
  S   S318      1.0  0.86121  0.39567  0.54320  1.0000
  Fe  Fe161     1.0  0.88047  0.41840  0.61429  1.0000
  S   S319      1.0  0.86198  0.44135  0.63591  1.0000
  Fe  Fe162     1.0  0.90079  0.37323  0.61218  1.0000
  S   S320      1.0  0.91142  0.34098  0.62856  1.0000
  S   S321      1.0  0.88962  0.42796  0.57953  1.0000
  S   S322      1.0  0.91196  0.37933  0.57682  1.0000
  Fe  Fe163     1.0  0.87017  0.22730  0.73967  1.0000
  S   S323      1.0  0.89071  0.21626  0.76674  1.0000
  S   S324      1.0  0.84711  0.21036  0.72109  1.0000
  Fe  Fe164     1.0  0.88233  0.27413  0.73997  1.0000
  S   S325      1.0  0.90248  0.26699  0.76812  1.0000
  S   S326      1.0  0.87651  0.30759  0.72380  1.0000
  Fe  Fe165     1.0  0.91537  0.23819  0.75049  1.0000
  S   S327      1.0  0.95075  0.23223  0.73964  1.0000
  Fe  Fe166     1.0  0.87638  0.24588  0.78250  1.0000
  S   S328      1.0  0.86243  0.24235  0.81773  1.0000
  S   S329      1.0  0.89595  0.24646  0.72179  1.0000
  S   S330      1.0  0.85522  0.25587  0.75617  1.0000
  H   H2507     1.0  0.96343  0.36766  0.61540  1.0000
  S   S331      1.0  0.76951  0.27484  0.85299  1.0000
  H   H2508     1.0  0.99582  0.16043  0.76064  1.0000
  H   H2509     1.0  0.74878  0.32683  0.83843  1.0000
  C   C1409     1.0  0.77090  0.21165  0.81589  1.0000
  Fe  Fe167     1.0  0.77046  0.11237  0.74482  1.0000
  S   S332      1.0  0.80448  0.12120  0.74814  1.0000
  H   H2510     1.0  0.92001  0.38332  0.52650  1.0000
  H   H2511     1.0  0.95679  0.36819  0.54923  1.0000
  C   C1410     1.0  0.83548  0.25001  0.82507  1.0000
  C   C1411     1.0  0.82386  0.23747  0.84110  1.0000
  C   C1412     1.0  0.80330  0.24444  0.84916  1.0000
  C   C1413     1.0  0.79434  0.26429  0.84166  1.0000
  C   C1414     1.0  0.80575  0.27657  0.82528  1.0000
  C   C1415     1.0  0.82611  0.26939  0.81687  1.0000
  H   H2512     1.0  0.83094  0.22244  0.84749  1.0000
  H   H2513     1.0  0.79456  0.23465  0.86146  1.0000
  H   H2514     1.0  0.79895  0.29189  0.81927  1.0000
  H   H2515     1.0  0.83491  0.27927  0.80464  1.0000
  C   C1416     1.0  0.83518  0.18571  0.72924  1.0000
  C   C1417     1.0  0.81649  0.18107  0.72022  1.0000
  C   C1418     1.0  0.80674  0.16156  0.72596  1.0000
  C   C1419     1.0  0.81571  0.14632  0.74068  1.0000
  C   C1420     1.0  0.83446  0.15092  0.74958  1.0000
  C   C1421     1.0  0.84406  0.17051  0.74402  1.0000
  H   H2516     1.0  0.80950  0.19262  0.70869  1.0000
  H   H2517     1.0  0.79243  0.15822  0.71883  1.0000
  H   H2518     1.0  0.84167  0.13919  0.76080  1.0000
  H   H2519     1.0  0.85860  0.17366  0.75083  1.0000
  C   C1422     1.0  0.97429  0.23427  0.75299  1.0000
  C   C1423     1.0  0.97460  0.23152  0.77555  1.0000
  H   H2520     1.0  0.81079  0.05156  0.79715  1.0000
  H   H2521     1.0  0.95975  0.32040  0.55757  1.0000
  H   H2522     1.0  0.96007  0.22856  0.78549  1.0000
  H   H2523     1.0  0.94855  0.36125  0.65103  1.0000
  H   H2524     1.0  0.86221  0.47212  0.58416  1.0000
  C   C1424     1.0  0.90155  0.33196  0.65506  1.0000
  C   C1425     1.0  0.90869  0.31172  0.66385  1.0000
  C   C1426     1.0  0.90115  0.30403  0.68486  1.0000
  C   C1427     1.0  0.88627  0.31643  0.69721  1.0000
  C   C1428     1.0  0.87917  0.33665  0.68842  1.0000
  C   C1429     1.0  0.88678  0.34442  0.66747  1.0000
  H   H2525     1.0  0.92001  0.30190  0.65432  1.0000
  H   H2526     1.0  0.90688  0.28856  0.69157  1.0000
  H   H2527     1.0  0.86773  0.34642  0.69789  1.0000
  H   H2528     1.0  0.88114  0.36002  0.66091  1.0000
  H   H2529     1.0  0.95300  0.32518  0.64974  1.0000
  C   C1430     1.0  0.88282  0.36305  0.52161  1.0000
  C   C1431     1.0  0.84792  0.47997  0.57694  1.0000
  H   H2530     1.0  0.94047  0.33213  0.52499  1.0000
  H   H2531     1.0  0.81507  0.00556  0.84201  1.0000
  H   H2532     1.0  0.74874  0.35421  0.84522  1.0000
  H   H2533     1.0  0.88441  0.35496  0.53746  1.0000
  C   C1432     1.0  0.79548  0.05120  0.78983  1.0000
  C   C1433     1.0  0.96388  0.49051  0.57537  1.0000
  C   C1434     1.0  0.80659  0.18026  0.79788  1.0000
  C   C1435     1.0  0.87019  0.46742  0.63809  1.0000
  C   C1436     1.0  0.85967  0.47946  0.65424  1.0000
  H   H2534     1.0  0.95131  0.47434  0.66193  1.0000
  H   H2535     1.0  0.84722  0.47254  0.66507  1.0000
  H   H2536     1.0  0.84228  0.43770  0.59268  1.0000
  H   H2537     1.0  0.78445  0.06331  0.79746  1.0000
  C   C1437     1.0  0.95589  0.26258  0.68799  1.0000
  C   C1438     1.0  0.96623  0.43156  0.59150  1.0000
  C   C1439     1.0  0.95740  0.43603  0.61225  1.0000
  C   C1440     1.0  0.93967  0.39657  0.67469  1.0000
  H   H2538     1.0  0.81637  0.16689  0.79041  1.0000
  H   H2539     1.0  0.94041  0.43803  0.61544  1.0000
  N   N78       1.0  0.83939  0.27028  0.67086  1.0000
  C   C1441     1.0  0.83934  0.28407  0.64982  1.0000
  C   C1442     1.0  0.82566  0.25162  0.66969  1.0000
  C   C1443     1.0  0.82924  0.28386  0.68855  1.0000
  C   C1444     1.0  0.86146  0.26243  0.67647  1.0000
  C   C1445     1.0  0.87818  0.25838  0.65709  1.0000
  C   C1446     1.0  0.84952  0.30595  0.65007  1.0000
  C   C1447     1.0  0.82383  0.27191  0.71092  1.0000
  C   C1448     1.0  0.83265  0.23574  0.65217  1.0000
  C   C1449     1.0  0.81627  0.21894  0.65164  1.0000
  C   C1450     1.0  0.89802  0.24581  0.66441  1.0000
  C   C1451     1.0  0.85521  0.31576  0.62717  1.0000
  C   C1452     1.0  0.81753  0.28763  0.72837  1.0000
  H   H2540     1.0  0.82277  0.28764  0.64534  1.0000
  H   H2541     1.0  0.84726  0.27552  0.63607  1.0000
  H   H2542     1.0  0.82513  0.24144  0.68521  1.0000
  H   H2543     1.0  0.80901  0.25763  0.66744  1.0000
  H   H2544     1.0  0.81420  0.29217  0.68348  1.0000
  H   H2545     1.0  0.83977  0.29678  0.69143  1.0000
  H   H2546     1.0  0.86839  0.27397  0.68630  1.0000
  H   H2547     1.0  0.86070  0.24744  0.68732  1.0000
  H   H2548     1.0  0.88325  0.27384  0.64903  1.0000
  H   H2549     1.0  0.87197  0.24937  0.64461  1.0000
  H   H2550     1.0  0.83824  0.31748  0.65851  1.0000
  H   H2551     1.0  0.86406  0.30428  0.65885  1.0000
  H   H2552     1.0  0.83757  0.26145  0.71581  1.0000
  H   H2553     1.0  0.81013  0.26184  0.71028  1.0000
  H   H2554     1.0  0.83463  0.24393  0.63573  1.0000
  H   H2555     1.0  0.84770  0.22688  0.65612  1.0000
  H   H2556     1.0  0.80075  0.22665  0.64747  1.0000
  H   H2557     1.0  0.82176  0.20752  0.63920  1.0000
  H   H2558     1.0  0.81418  0.20973  0.66764  1.0000
  H   H2559     1.0  0.90623  0.25523  0.67522  1.0000
  H   H2560     1.0  0.89389  0.23026  0.67304  1.0000
  H   H2561     1.0  0.90914  0.24252  0.65006  1.0000
  H   H2562     1.0  0.84099  0.31775  0.61778  1.0000
  H   H2563     1.0  0.86151  0.33178  0.62811  1.0000
  H   H2564     1.0  0.86766  0.30554  0.61858  1.0000
  H   H2565     1.0  0.83103  0.29740  0.73079  1.0000
  H   H2566     1.0  0.80384  0.29844  0.72379  1.0000
  H   H2567     1.0  0.81291  0.27864  0.74400  1.0000
  H   H2568     1.0  0.78688  0.17871  0.76146  1.0000
  H   H2569     1.0  0.80588  0.14273  0.81901  1.0000
  H   H2570     1.0  0.78746  0.14633  0.78306  1.0000
  H   H2571     1.0  0.84796  0.47374  0.56057  1.0000
  H   H2572     1.0  0.76884  0.02522  0.73573  1.0000
  C   C1453     1.0  0.74795  0.04977  0.81890  1.0000
  H   H2573     1.0  0.81369  0.47903  0.58819  1.0000
  H   H2574     1.0  0.78500  0.33813  0.83754  1.0000
  H   H2575     1.0  0.81531  0.25025  0.98341  1.0000
  H   H2576     1.0  0.95197  0.48360  0.61841  1.0000
  H   H2577     1.0  0.98144  0.38720  0.61858  1.0000
  H   H2578     1.0  0.82197  0.02149  0.81744  1.0000
  H   H2579     1.0  0.91600  0.37505  0.72351  1.0000
  H   H2580     1.0  0.93170  0.31671  0.56208  1.0000
  H   H2581     1.0  0.77475  0.17997  0.83064  1.0000
  H   H2582     1.0  0.84505  0.21732  0.78389  1.0000
  C   C1454     1.0  0.77665  0.18637  0.77450  1.0000
  H   H2583     1.0  0.97230  0.39951  0.66331  1.0000
  H   H2584     1.0  0.93132  0.49072  0.69313  1.0000
  H   H2585     1.0  0.79362  0.10735  0.83039  1.0000
  H   H2586     1.0  0.83930  0.20335  0.80991  1.0000
  C   C1455     1.0  0.88638  0.47654  0.62417  1.0000
  H   H2587     1.0  0.75557  0.21201  0.84869  1.0000
  H   H2588     1.0  0.76476  0.05305  0.68966  1.0000
  H   H2589     1.0  0.92106  0.43462  0.52941  1.0000
  H   H2590     1.0  0.78431  0.05875  0.75775  1.0000
  C   C1456     1.0  0.88459  0.49780  0.55089  1.0000
  H   H2591     1.0  0.76989  0.11278  0.81654  1.0000
  H   H2592     1.0  0.92532  0.38901  0.67048  1.0000
  C   C1457     1.0  0.76048  0.01141  0.74247  1.0000
  H   H2593     1.0  0.95866  0.29303  0.62974  1.0000
  H   H2594     1.0  0.97666  0.28106  0.75982  1.0000
  H   H2595     1.0  0.77994  0.14496  0.83314  1.0000
  H   H2596     1.0  0.94341  0.39077  0.69136  1.0000
  C   C1458     1.0  0.94383  0.32885  0.55917  1.0000
  H   H2597     1.0  0.84375  0.25203  0.97815  1.0000
  H   H2598     1.0  0.82528  0.05313  0.83889  1.0000
  C   C1459     1.0  0.76997  0.18718  0.81475  1.0000
  C   C1460     1.0  0.78680  0.11640  0.81631  1.0000
  C   C1461     1.0  0.74869  0.19372  0.74757  1.0000
  C   C1462     1.0  0.97061  0.43761  0.62901  1.0000
  H   H2599     1.0  0.84897  0.18861  0.78675  1.0000
  H   H2600     1.0  0.78084  0.34591  0.86507  1.0000
  H   H2601     1.0  0.74980  0.16665  0.77042  1.0000
  H   H2602     1.0  0.99352  0.23996  0.72294  1.0000
  C   C1463     1.0  0.81600  0.20083  0.78649  1.0000
  H   H2603     1.0  0.96937  0.41894  0.52405  1.0000
  H   H2604     1.0  0.83144  0.47232  0.60890  1.0000
  H   H2605     1.0  0.75101  0.05736  0.80234  1.0000
  H   H2606     1.0  0.81761  0.03731  0.86367  1.0000
  H   H2607     1.0  0.77461  0.02759  0.78142  1.0000
  N   N79       1.0  0.82491  0.25035  0.91500  1.0000
  C   C1464     1.0  0.84418  0.26168  0.90528  1.0000
  C   C1465     1.0  0.82595  0.24671  0.93926  1.0000
  C   C1466     1.0  0.82604  0.22859  0.90579  1.0000
  C   C1467     1.0  0.80429  0.26229  0.90966  1.0000
  C   C1468     1.0  0.80418  0.28720  0.90738  1.0000
  C   C1469     1.0  0.84718  0.26317  0.88008  1.0000
  C   C1470     1.0  0.81039  0.21229  0.91685  1.0000
  C   C1471     1.0  0.82518  0.26684  0.95233  1.0000
  C   C1472     1.0  0.82808  0.26063  0.97627  1.0000
  C   C1473     1.0  0.78167  0.29738  0.90806  1.0000
  C   C1474     1.0  0.86305  0.27966  0.87133  1.0000
  C   C1475     1.0  0.80810  0.19388  0.90253  1.0000
  H   H2608     1.0  0.85886  0.25333  0.91119  1.0000
  H   H2609     1.0  0.84424  0.27808  0.91078  1.0000
  H   H2610     1.0  0.81225  0.23768  0.94666  1.0000
  H   H2611     1.0  0.84050  0.23661  0.94285  1.0000
  H   H2612     1.0  0.84227  0.22074  0.90653  1.0000
  H   H2613     1.0  0.82326  0.23035  0.88827  1.0000
  H   H2614     1.0  0.79909  0.25755  0.89407  1.0000
  H   H2615     1.0  0.79128  0.25755  0.92194  1.0000
  H   H2616     1.0  0.81244  0.29265  0.89160  1.0000
  H   H2617     1.0  0.81223  0.29388  0.92024  1.0000
  H   H2618     1.0  0.85333  0.24744  0.87426  1.0000
  H   H2619     1.0  0.83201  0.26753  0.87280  1.0000
  H   H2620     1.0  0.79454  0.22014  0.92073  1.0000
  H   H2621     1.0  0.81632  0.20519  0.93230  1.0000
  H   H2622     1.0  0.83777  0.27773  0.94617  1.0000
  H   H2623     1.0  0.80939  0.27547  0.95176  1.0000
  H   H2624     1.0  0.84107  0.20192  0.98989  1.0000
  C   C1476     1.0  0.96016  0.28640  0.76492  1.0000
  H   H2625     1.0  0.75924  0.18597  0.73481  1.0000
  H   H2626     1.0  0.77333  0.29210  0.89458  1.0000
  H   H2627     1.0  0.77276  0.29285  0.92379  1.0000
  H   H2628     1.0  0.78214  0.31509  0.90618  1.0000
  H   H2629     1.0  0.86517  0.27966  0.85334  1.0000
  H   H2630     1.0  0.85716  0.29597  0.87567  1.0000
  H   H2631     1.0  0.87869  0.27562  0.87786  1.0000
  H   H2632     1.0  0.82364  0.18511  0.89910  1.0000
  H   H2633     1.0  0.79684  0.18253  0.91096  1.0000
  H   H2634     1.0  0.80177  0.19998  0.88693  1.0000
  H   H2635     1.0  0.75317  0.18328  0.81453  1.0000
  H   H2636     1.0  0.95445  0.39885  0.64237  1.0000
  N   N80       1.0  0.78328  0.17736  0.79632  1.0000
  H   H2637     1.0  0.81637  0.20037  0.76861  1.0000
  C   C1477     1.0  0.95875  0.28896  0.78932  1.0000
  H   H2638     1.0  0.95782  0.26212  0.67007  1.0000
  H   H2639     1.0  0.78882  0.04717  0.83163  1.0000
  C   C1478     1.0  0.83872  0.20253  0.79216  1.0000
  H   H2640     1.0  0.84200  0.03048  0.84788  1.0000
  H   H2641     1.0  0.81119  0.04720  0.75753  1.0000
  C   C1479     1.0  0.78008  0.15357  0.79795  1.0000
  C   C1480     1.0  0.78885  0.14039  0.81784  1.0000
  H   H2642     1.0  0.76299  0.15050  0.79864  1.0000
  C   C1481     1.0  0.81370  0.02197  0.83393  1.0000
  C   C1482     1.0  0.75328  0.18377  0.77005  1.0000
  H   H2643     1.0  0.76843  0.22055  0.80013  1.0000
  H   H2644     1.0  0.80540  0.07462  0.76398  1.0000
  C   C1483     1.0  0.92285  0.48644  0.67926  1.0000
  H   H2645     1.0  0.75592  0.05845  0.83052  1.0000
  H   H2646     1.0  0.78644  0.21527  0.82127  1.0000
  H   H2647     1.0  0.95478  0.47606  0.57999  1.0000
  H   H2648     1.0  0.81421  0.44057  0.59970  1.0000
  C   C1484     1.0  0.89084  0.35309  0.50282  1.0000
  H   H2649     1.0  0.97230  0.35154  0.53166  1.0000
  C   C1485     1.0  0.98819  0.43024  0.58716  1.0000
  H   H2650     1.0  0.96376  0.44032  0.64522  1.0000
  H   H2651     1.0  0.99136  0.34341  0.59951  1.0000
  H   H2652     1.0  0.93618  0.41417  0.67433  1.0000
  C   C1486     1.0  0.97742  0.31772  0.72026  1.0000
  C   C1487     1.0  0.95644  0.36011  0.53391  1.0000
  C   C1488     1.0  0.75078  0.05143  0.68041  1.0000
  H   H2653     1.0  0.81016  0.17939  0.81522  1.0000
  H   H2654     1.0  0.92353  0.35027  0.54057  1.0000
  C   C1489     1.0  0.97302  0.38791  0.50951  1.0000
  N   N81       1.0  0.95639  0.30850  0.72766  1.0000
  C   C1490     1.0  0.95454  0.28674  0.71925  1.0000
  C   C1491     1.0  0.95267  0.30739  0.75220  1.0000
  C   C1492     1.0  0.93901  0.32322  0.71856  1.0000
  C   C1493     1.0  0.95848  0.39160  0.65843  1.0000
  H   H2655     1.0  0.82436  0.44431  0.57167  1.0000
  C   C1494     1.0  0.95861  0.28527  0.69435  1.0000
  C   C1495     1.0  0.93681  0.34626  0.72641  1.0000
  H   H2656     1.0  0.96947  0.30128  0.79308  1.0000
  C   C1496     1.0  0.99346  0.23796  0.74040  1.0000
  C   C1497     1.0  0.96641  0.32476  0.63700  1.0000
  C   C1498     1.0  0.98305  0.49698  0.64238  1.0000
  C   C1499     1.0  0.91688  0.35833  0.71859  1.0000
  H   H2657     1.0  0.93852  0.28083  0.72443  1.0000
  H   H2658     1.0  0.80850  0.49714  0.55768  1.0000
  H   H2659     1.0  0.96001  0.32094  0.75881  1.0000
  H   H2660     1.0  0.93537  0.30938  0.75726  1.0000
  H   H2661     1.0  0.92341  0.31593  0.72245  1.0000
  H   H2662     1.0  0.94123  0.32534  0.70059  1.0000
  H   H2663     1.0  0.79546  0.11094  0.80117  1.0000
  H   H2664     1.0  0.96061  0.33220  0.62169  1.0000
  H   H2665     1.0  0.94222  0.29354  0.79540  1.0000
  H   H2666     1.0  0.80687  0.21564  0.79097  1.0000
  H   H2667     1.0  0.94741  0.29600  0.68533  1.0000
  H   H2668     1.0  0.93789  0.39881  0.53778  1.0000
  H   H2669     1.0  0.95060  0.35545  0.71979  1.0000
  H   H2670     1.0  0.93563  0.34623  0.74436  1.0000
  C   C1500     1.0  0.75093  0.23996  0.98475  1.0000
  C   C1501     1.0  0.77615  0.33468  0.85354  1.0000
  C   C1502     1.0  0.92900  0.41061  0.50583  1.0000
  H   H2671     1.0  0.99269  0.37402  0.68471  1.0000
  H   H2672     1.0  0.89466  0.46728  0.61170  1.0000
  H   H2673     1.0  0.97506  0.39690  0.54309  1.0000
  H   H2674     1.0  0.90929  0.49824  0.67692  1.0000
  Fe  Fe168     1.0  0.74816  0.25625  0.87815  1.0000
  H   H2675     1.0  0.91706  0.35874  0.70063  1.0000
  H   H2676     1.0  0.90246  0.35049  0.72590  1.0000
  N   N82       1.0  0.77881  0.02042  0.81547  1.0000
  C   C1503     1.0  0.82905  0.47071  0.59154  1.0000
  C   C1504     1.0  0.79933  0.05830  0.76579  1.0000
  H   H2677     1.0  0.97503  0.28941  0.68876  1.0000
  C   C1505     1.0  0.93788  0.48599  0.65864  1.0000
  C   C1506     1.0  0.97372  0.49806  0.59490  1.0000
  H   H2678     1.0  0.96366  0.27350  0.79792  1.0000
  H   H2679     1.0  0.75393  0.03732  0.67057  1.0000
  H   H2680     1.0  0.91649  0.47039  0.68323  1.0000
  S   S333      1.0  0.75951  0.22631  0.89626  1.0000
  C   C1507     1.0  0.82529  0.03667  0.84691  1.0000
  H   H2681     1.0  0.74905  0.01791  0.83509  1.0000
  C   C1508     1.0  0.93476  0.39190  0.52244  1.0000
  H   H2682     1.0  0.78072  0.31802  0.85943  1.0000
  H   H2683     1.0  0.78188  0.02495  0.84927  1.0000
  H   H2684     1.0  0.82723  0.27529  0.98537  1.0000
  H   H2685     1.0  0.92893  0.47998  0.64596  1.0000
  H   H2686     1.0  0.90904  0.44004  0.50408  1.0000
  H   H2687     1.0  0.80037  0.01747  0.78645  1.0000
  H   H2688     1.0  0.94272  0.33869  0.57346  1.0000
  H   H2689     1.0  0.77928  0.20369  0.77179  1.0000
  S   S334      1.0  0.75973  0.08632  0.72564  1.0000
  C   C1509     1.0  0.78996  0.02941  0.83302  1.0000
  C   C1510     1.0  0.78708  0.02832  0.79285  1.0000
  S   S335      1.0  0.76070  0.24375  0.95692  1.0000
  C   C1511     1.0  0.87226  0.38326  0.51987  1.0000
  C   C1512     1.0  0.82743  0.44688  0.58863  1.0000
  N   N83       1.0  0.95284  0.37653  0.51526  1.0000
  C   C1513     1.0  0.96298  0.36716  0.65715  1.0000
  C   C1514     1.0  0.93981  0.34286  0.53850  1.0000
  H   H2690     1.0  0.97876  0.32119  0.70236  1.0000
  C   C1515     1.0  0.75392  0.22028  0.83240  1.0000
  H   H2691     1.0  0.88495  0.48009  0.55360  1.0000
  S   S336      1.0  0.75355  0.09908  0.77602  1.0000
  H   H2692     1.0  0.93987  0.25732  0.69383  1.0000
  H   H2693     1.0  0.98226  0.47972  0.63955  1.0000
  H   H2694     1.0  0.96363  0.35947  0.67386  1.0000
  H   H2695     1.0  0.91603  0.49588  0.53410  1.0000
  H   H2696     1.0  0.96795  0.25116  0.69507  1.0000
  H   H2697     1.0  0.97848  0.33351  0.72704  1.0000
  C   C1516     1.0  0.97980  0.36954  0.61996  1.0000
  H   H2698     1.0  0.97837  0.37702  0.57672  1.0000
  H   H2699     1.0  0.98711  0.33018  0.66126  1.0000
  H   H2700     1.0  0.96581  0.27465  0.72649  1.0000
  H   H2701     1.0  0.94975  0.27342  0.76226  1.0000
  H   H2702     1.0  0.89898  0.41972  0.52362  1.0000
  H   H2703     1.0  0.75557  0.23765  0.83349  1.0000
  C   C1517     1.0  0.89171  0.49778  0.62644  1.0000
  C   C1518     1.0  0.91359  0.42723  0.51643  1.0000
  C   C1519     1.0  0.98513  0.33650  0.64431  1.0000
  C   C1520     1.0  0.75232  0.33736  0.85111  1.0000
  C   C1521     1.0  0.97864  0.40342  0.52623  1.0000
  N   N84       1.0  0.98245  0.36062  0.64295  1.0000
  H   H2704     1.0  0.97663  0.48629  0.56278  1.0000
  H   H2705     1.0  0.89885  0.33737  0.50430  1.0000
  H   H2706     1.0  0.98501  0.30007  0.61969  1.0000
  C   C1522     1.0  0.99394  0.23169  0.78526  1.0000
  C   C1523     1.0  0.75527  0.02573  0.81927  1.0000
  H   H2707     1.0  0.98292  0.49728  0.66034  1.0000
  H   H2708     1.0  0.99512  0.42715  0.57108  1.0000
  H   H2709     1.0  0.75100  0.21119  0.74637  1.0000
  H   H2710     1.0  0.97905  0.29308  0.64830  1.0000
  H   H2711     1.0  0.98642  0.48587  0.59926  1.0000
  C   C1524     1.0  0.97275  0.30129  0.63352  1.0000
  H   H2712     1.0  0.74657  0.01914  0.80667  1.0000
  H   H2713     1.0  0.98666  0.37597  0.50717  1.0000
  H   H2714     1.0  0.98740  0.18208  0.74190  1.0000
  C   C1525     1.0  0.99257  0.43441  0.62505  1.0000
  H   H2715     1.0  0.77250  0.26149  0.99537  1.0000
  H   H2716     1.0  0.99407  0.22879  0.80267  1.0000
  H   H2717     1.0  0.98051  0.49513  0.52393  1.0000
  H   H2718     1.0  0.74865  0.06616  0.66948  1.0000
  H   H2719     1.0  0.99401  0.18779  0.76842  1.0000
  C   C1526     1.0  0.99557  0.35987  0.60222  1.0000
  C   C1527     1.0  0.99497  0.37318  0.58063  1.0000
  H   H2720     1.0  0.74591  0.34053  0.88541  1.0000
  Fe  Fe169     1.0  0.92305  0.57159  0.39083  1.0000
  S   S337      1.0  0.90346  0.60241  0.39134  1.0000
  S   S338      1.0  0.95731  0.56882  0.37862  1.0000
  Fe  Fe170     1.0  0.88683  0.54465  0.40999  1.0000
  S   S339      1.0  0.86357  0.57351  0.41158  1.0000
  S   S340      1.0  0.88571  0.51141  0.42710  1.0000
  Fe  Fe171     1.0  0.87895  0.58394  0.37831  1.0000
  S   S341      1.0  0.86607  0.59723  0.34664  1.0000
  Fe  Fe172     1.0  0.89013  0.58986  0.42426  1.0000
  S   S342      1.0  0.89015  0.61096  0.45226  1.0000
  S   S343      1.0  0.89960  0.55351  0.37584  1.0000
  S   S344      1.0  0.91212  0.56078  0.42464  1.0000
  C   C1528     1.0  0.97684  0.59994  0.42736  1.0000
  S   S345      1.0  0.77502  0.71753  0.16667  1.0000
  Fe  Fe173     1.0  0.75221  0.89549  0.25945  1.0000
  H   H2721     1.0  0.79692  0.82914  0.22572  1.0000
  Fe  Fe174     1.0  0.88406  0.70944  0.27856  1.0000
  S   S346      1.0  0.90261  0.69558  0.24997  1.0000
  S   S347      1.0  0.87564  0.69438  0.31239  1.0000
  Fe  Fe175     1.0  0.88362  0.75459  0.25665  1.0000
  S   S348      1.0  0.90355  0.74410  0.22698  1.0000
  S   S349      1.0  0.87158  0.78919  0.26005  1.0000
  Fe  Fe176     1.0  0.88126  0.71724  0.22944  1.0000
  S   S350      1.0  0.86847  0.70724  0.19861  1.0000
  Fe  Fe177     1.0  0.92341  0.72360  0.25010  1.0000
  S   S351      1.0  0.95892  0.71304  0.25041  1.0000
  S   S352      1.0  0.86087  0.72857  0.25816  1.0000
  S   S353      1.0  0.90533  0.73662  0.27946  1.0000
  S   S354      1.0  0.77340  0.81540  0.27752  1.0000
  C   C1529     1.0  0.76365  0.72820  0.02405  1.0000
  H   H2722     1.0  0.77394  0.78222  0.18178  1.0000
  H   H2723     1.0  0.78734  0.82279  0.18867  1.0000
  S   S355      1.0  0.76529  0.92615  0.26952  1.0000
  C   C1530     1.0  0.84413  0.79655  0.26345  1.0000
  C   C1531     1.0  0.82902  0.78110  0.26663  1.0000
  C   C1532     1.0  0.80752  0.78718  0.27116  1.0000
  C   C1533     1.0  0.80068  0.80886  0.27158  1.0000
  C   C1534     1.0  0.81561  0.82447  0.26759  1.0000
  C   C1535     1.0  0.83730  0.81830  0.26377  1.0000
  H   H2724     1.0  0.83386  0.76441  0.26586  1.0000
  H   H2725     1.0  0.79603  0.77504  0.27405  1.0000
  H   H2726     1.0  0.81052  0.84125  0.26791  1.0000
  H   H2727     1.0  0.84884  0.83042  0.26121  1.0000
  C   C1536     1.0  0.98261  0.72705  0.25008  1.0000
  H   H2728     1.0  0.93825  0.51545  0.40917  1.0000
  H   H2729     1.0  0.79091  0.93321  0.17963  1.0000
  H   H2730     1.0  0.86669  0.61870  0.26500  1.0000
  H   H2731     1.0  0.85493  0.68017  0.26548  1.0000
  H   H2732     1.0  0.96770  0.75880  0.24789  1.0000
  C   C1537     1.0  0.80233  0.81476  0.19421  1.0000
  C   C1538     1.0  0.82692  0.65980  0.21395  1.0000
  C   C1539     1.0  0.80135  0.71688  0.17466  1.0000
  C   C1540     1.0  0.80441  0.71867  0.19668  1.0000
  C   C1541     1.0  0.82492  0.71691  0.20410  1.0000
  C   C1542     1.0  0.84262  0.71269  0.18965  1.0000
  C   C1543     1.0  0.83958  0.71111  0.16763  1.0000
  C   C1544     1.0  0.81912  0.71349  0.16010  1.0000
  H   H2733     1.0  0.79077  0.72109  0.20813  1.0000
  H   H2734     1.0  0.82694  0.71803  0.22110  1.0000
  H   H2735     1.0  0.85312  0.70771  0.15633  1.0000
  H   H2736     1.0  0.81705  0.71191  0.14316  1.0000
  C   C1545     1.0  0.80943  0.82798  0.21218  1.0000
  C   C1546     1.0  0.88811  0.61068  0.49666  1.0000
  C   C1547     1.0  0.87113  0.62386  0.33711  1.0000
  C   C1548     1.0  0.87240  0.63976  0.35152  1.0000
  C   C1549     1.0  0.87418  0.66123  0.34360  1.0000
  C   C1550     1.0  0.87525  0.66694  0.32122  1.0000
  C   C1551     1.0  0.87520  0.65092  0.30672  1.0000
  C   C1552     1.0  0.87281  0.62948  0.31468  1.0000
  H   H2737     1.0  0.87096  0.63564  0.36882  1.0000
  H   H2738     1.0  0.87423  0.67352  0.35494  1.0000
  H   H2739     1.0  0.87655  0.65512  0.28949  1.0000
  H   H2740     1.0  0.87210  0.61718  0.30352  1.0000
  H   H2741     1.0  0.85528  0.75342  0.20983  1.0000
  C   C1553     1.0  0.79154  0.78072  0.18143  1.0000
  H   H2742     1.0  0.97403  0.61299  0.36039  1.0000
  H   H2743     1.0  0.76864  0.92844  0.11638  1.0000
  Fe  Fe178     1.0  0.76122  0.72345  0.13346  1.0000
  H   H2744     1.0  0.86151  0.60816  0.24025  1.0000
  H   H2745     1.0  0.78725  0.79663  0.23338  1.0000
  C   C1554     1.0  0.97305  0.57971  0.39624  1.0000
  C   C1555     1.0  0.96388  0.59097  0.41364  1.0000
  C   C1556     1.0  0.98254  0.74941  0.24878  1.0000
  H   H2746     1.0  0.91183  0.65236  0.22476  1.0000
  H   H2747     1.0  0.94683  0.59304  0.41638  1.0000
  H   H2748     1.0  0.80944  0.67098  0.18630  1.0000
  H   H2749     1.0  0.84127  0.62744  0.21460  1.0000
  H   H2750     1.0  0.79917  0.85899  0.19701  1.0000
  H   H2751     1.0  0.87852  0.65169  0.24989  1.0000
  H   H2752     1.0  0.76790  0.91822  0.22350  1.0000
  H   H2753     1.0  0.85578  0.83668  0.30913  1.0000
  C   C1557     1.0  0.80171  0.91544  0.21782  1.0000
  H   H2754     1.0  0.84204  0.64591  0.27877  1.0000
  H   H2755     1.0  0.94835  0.54470  0.44321  1.0000
  C   C1558     1.0  0.75646  0.95322  0.26303  1.0000
  H   H2756     1.0  0.88685  0.62406  0.22164  1.0000
  H   H2757     1.0  0.82470  0.64613  0.18291  1.0000
  H   H2758     1.0  0.75071  0.75230  0.24854  1.0000
  C   C1559     1.0  0.96808  0.72101  0.31378  1.0000
  H   H2759     1.0  0.93741  0.65824  0.28052  1.0000
  H   H2760     1.0  0.94092  0.52672  0.38152  1.0000
  N   N85       1.0  0.84803  0.64047  0.24447  1.0000
  H   H2761     1.0  0.96255  0.66180  0.32276  1.0000
  H   H2762     1.0  0.86904  0.50639  0.38547  1.0000
  H   H2763     1.0  0.98464  0.55773  0.44619  1.0000
  H   H2764     1.0  0.79810  0.78231  0.12479  1.0000
  H   H2765     1.0  0.84075  0.66884  0.20735  1.0000
  H   H2766     1.0  0.77875  0.70148  0.00767  1.0000
  C   C1560     1.0  0.79321  0.77524  0.14128  1.0000
  H   H2767     1.0  0.82786  0.67932  0.29673  1.0000
  H   H2768     1.0  0.93517  0.62059  0.49720  1.0000
  H   H2769     1.0  0.87341  0.81738  0.29567  1.0000
  H   H2770     1.0  0.76975  0.75885  0.21267  1.0000
  H   H2771     1.0  0.96993  0.73241  0.29921  1.0000
  H   H2772     1.0  0.81883  0.63128  0.23308  1.0000
  C   C1561     1.0  0.83610  0.60492  0.26504  1.0000
  H   H2773     1.0  0.89776  0.66985  0.20562  1.0000
  H   H2774     1.0  0.75297  0.96503  0.20660  1.0000
  H   H2775     1.0  0.82563  0.70394  0.28005  1.0000
  H   H2776     1.0  0.96976  0.60896  0.44059  1.0000
  H   H2777     1.0  0.95430  0.72690  0.32444  1.0000
  C   C1562     1.0  0.92520  0.54500  0.48230  1.0000
  H   H2778     1.0  0.85377  0.57396  0.26310  1.0000
  H   H2779     1.0  0.94376  0.68237  0.29229  1.0000
  C   C1563     1.0  0.83639  0.65223  0.26286  1.0000
  H   H2780     1.0  0.83151  0.57438  0.28322  1.0000
  H   H2781     1.0  0.91106  0.64533  0.19719  1.0000
  C   C1564     1.0  0.84482  0.58368  0.27547  1.0000
  C   C1565     1.0  0.82377  0.68646  0.28055  1.0000
  H   H2782     1.0  0.80255  0.89902  0.21213  1.0000
  H   H2783     1.0  0.77576  0.77388  0.14262  1.0000
  Fe  Fe179     1.0  0.75719  0.72785  0.08365  1.0000
  C   C1566     1.0  0.78038  0.92704  0.21364  1.0000
  N   N86       1.0  0.85277  0.76295  0.33318  1.0000
  C   C1567     1.0  0.83783  0.75836  0.31668  1.0000
  C   C1568     1.0  0.86483  0.78231  0.32479  1.0000
  C   C1569     1.0  0.86864  0.74399  0.33478  1.0000
  C   C1570     1.0  0.84167  0.76605  0.35540  1.0000
  C   C1571     1.0  0.81856  0.77608  0.35626  1.0000
  C   C1572     1.0  0.82662  0.73695  0.32106  1.0000
  C   C1573     1.0  0.88718  0.74606  0.34913  1.0000
  C   C1574     1.0  0.85169  0.80381  0.32163  1.0000
  C   C1575     1.0  0.97414  0.62457  0.34585  1.0000
  C   C1576     1.0  0.81103  0.78245  0.37908  1.0000
  C   C1577     1.0  0.80668  0.73715  0.30884  1.0000
  C   C1578     1.0  0.89975  0.72461  0.35253  1.0000
  H   H2784     1.0  0.84671  0.75770  0.30043  1.0000
  H   H2785     1.0  0.82554  0.77156  0.31468  1.0000
  H   H2786     1.0  0.87673  0.78554  0.33608  1.0000
  H   H2787     1.0  0.87393  0.77915  0.30900  1.0000
  H   H2788     1.0  0.87579  0.74039  0.31832  1.0000
  H   H2789     1.0  0.86058  0.72934  0.34136  1.0000
  H   H2790     1.0  0.84076  0.75045  0.36522  1.0000
  H   H2791     1.0  0.85122  0.77594  0.36466  1.0000
  H   H2792     1.0  0.80754  0.76438  0.35182  1.0000
  H   H2793     1.0  0.81674  0.79044  0.34496  1.0000
  H   H2794     1.0  0.83749  0.72354  0.31545  1.0000
  H   H2795     1.0  0.82216  0.73339  0.33858  1.0000
  H   H2796     1.0  0.88126  0.75149  0.36528  1.0000
  H   H2797     1.0  0.89848  0.75758  0.34114  1.0000
  H   H2798     1.0  0.83889  0.80266  0.31078  1.0000
  H   H2799     1.0  0.84478  0.80902  0.33755  1.0000
  H   H2800     1.0  0.76778  0.80036  0.21446  1.0000
  H   H2801     1.0  0.87256  0.64146  0.20270  1.0000
  H   H2802     1.0  0.91901  0.51050  0.39042  1.0000
  H   H2803     1.0  0.81181  0.76831  0.39096  1.0000
  H   H2804     1.0  0.82090  0.79499  0.38401  1.0000
  H   H2805     1.0  0.79432  0.78900  0.37935  1.0000
  H   H2806     1.0  0.81074  0.73972  0.29111  1.0000
  H   H2807     1.0  0.79928  0.72152  0.31212  1.0000
  H   H2808     1.0  0.79498  0.75002  0.31421  1.0000
  H   H2809     1.0  0.91301  0.72651  0.36267  1.0000
  H   H2810     1.0  0.88943  0.71232  0.36088  1.0000
  H   H2811     1.0  0.90645  0.71890  0.33668  1.0000
  C   C1579     1.0  0.83377  0.63862  0.22652  1.0000
  H   H2812     1.0  0.81677  0.79056  0.15619  1.0000
  H   H2813     1.0  0.79560  0.76315  0.18285  1.0000
  C   C1580     1.0  0.83847  0.67677  0.26255  1.0000
  H   H2814     1.0  0.82427  0.82083  0.21857  1.0000
  H   H2815     1.0  0.82315  0.78592  0.22313  1.0000
  H   H2816     1.0  0.92839  0.57346  0.33910  1.0000
  H   H2817     1.0  0.83614  0.76919  0.17814  1.0000
  H   H2818     1.0  0.94248  0.57845  0.45786  1.0000
  H   H2819     1.0  0.86227  0.78001  0.21495  1.0000
  N   N87       1.0  0.79912  0.79132  0.20029  1.0000
  H   H2820     1.0  0.93961  0.66715  0.40085  1.0000
  H   H2821     1.0  0.84231  0.79567  0.18472  1.0000
  H   H2822     1.0  0.80696  0.68382  0.27837  1.0000
  H   H2823     1.0  0.81428  0.81689  0.18023  1.0000
  H   H2824     1.0  0.91663  0.67707  0.28984  1.0000
  H   H2825     1.0  0.79186  0.80572  0.15465  1.0000
  C   C1581     1.0  0.90177  0.65288  0.21090  1.0000
  C   C1582     1.0  0.77460  0.76737  0.22633  1.0000
  H   H2826     1.0  0.81604  0.76247  0.21236  1.0000
  S   S356      1.0  0.77323  0.74689  0.10654  1.0000
  H   H2827     1.0  0.82488  0.60112  0.25328  1.0000
  Fe  Fe180     1.0  0.75669  0.84634  0.26503  1.0000
  C   C1583     1.0  0.81368  0.85086  0.20338  1.0000
  H   H2828     1.0  0.78744  0.75750  0.23397  1.0000
  C   C1584     1.0  0.85430  0.61806  0.25339  1.0000
  C   C1585     1.0  0.76771  0.96991  0.26964  1.0000
  H   H2829     1.0  0.96475  0.63775  0.38741  1.0000
  C   C1586     1.0  0.79937  0.78948  0.15825  1.0000
  N   N88       1.0  0.95208  0.63415  0.34284  1.0000
  H   H2830     1.0  0.96927  0.50853  0.48836  1.0000
  C   C1587     1.0  0.93743  0.61610  0.34249  1.0000
  C   C1588     1.0  0.95251  0.64801  0.32191  1.0000
  C   C1589     1.0  0.94400  0.64775  0.36125  1.0000
  C   C1590     1.0  0.94775  0.63782  0.38437  1.0000
  C   C1591     1.0  0.93064  0.65779  0.31564  1.0000
  C   C1592     1.0  0.94078  0.60245  0.32245  1.0000
  C   C1593     1.0  0.92561  0.58430  0.32450  1.0000
  C   C1594     1.0  0.93505  0.65027  0.40187  1.0000
  C   C1595     1.0  0.93238  0.66955  0.29319  1.0000
  C   C1596     1.0  0.75920  0.96380  0.18936  1.0000
  H   H2831     1.0  0.93901  0.60482  0.35695  1.0000
  H   H2832     1.0  0.92049  0.62208  0.34400  1.0000
  H   H2833     1.0  0.95105  0.66366  0.35939  1.0000
  H   H2834     1.0  0.92661  0.65149  0.36080  1.0000
  H   H2835     1.0  0.99551  0.64875  0.33103  1.0000
  H   H2836     1.0  0.94309  0.62110  0.38644  1.0000
  H   H2837     1.0  0.85537  0.58655  0.28825  1.0000
  H   H2838     1.0  0.92404  0.66946  0.32744  1.0000
  H   H2839     1.0  0.91910  0.64533  0.31524  1.0000
  H   H2840     1.0  0.98639  0.51140  0.43309  1.0000
  C   C1597     1.0  0.98112  0.54078  0.45015  1.0000
  H   H2841     1.0  0.90891  0.59081  0.32567  1.0000
  C   C1598     1.0  0.77634  0.92771  0.18926  1.0000
  H   H2842     1.0  0.88405  0.53270  0.47590  1.0000
  H   H2843     1.0  0.91777  0.64993  0.40018  1.0000
  H   H2844     1.0  0.93825  0.64272  0.41815  1.0000
  H   H2845     1.0  0.78053  0.94326  0.21960  1.0000
  H   H2846     1.0  0.88968  0.50448  0.48118  1.0000
  N   N89       1.0  0.75715  0.94133  0.18256  1.0000
  S   S357      1.0  0.77115  0.87033  0.24041  1.0000
  C   C1599     1.0  0.81457  0.65553  0.19475  1.0000
  H   H2847     1.0  0.86489  0.66816  0.23064  1.0000
  C   C1600     1.0  0.75407  0.92146  0.12444  1.0000
  H   H2848     1.0  0.80366  0.91420  0.23552  1.0000
  H   H2849     1.0  0.81628  0.66989  0.22465  1.0000
  H   H2850     1.0  0.87187  0.76842  0.18997  1.0000
  H   H2851     1.0  0.81918  0.64921  0.26410  1.0000
  C   C1601     1.0  0.88166  0.64090  0.21726  1.0000
  H   H2852     1.0  0.78171  0.96608  0.27830  1.0000
  C   C1602     1.0  0.93604  0.51253  0.39208  1.0000
  C   C1603     1.0  0.95731  0.53834  0.45715  1.0000
  C   C1604     1.0  0.86819  0.65117  0.23630  1.0000
  C   C1605     1.0  0.83864  0.77936  0.19151  1.0000
  H   H2853     1.0  0.87142  0.57118  0.46868  1.0000
  H   H2854     1.0  0.80113  0.75899  0.14340  1.0000
  C   C1606     1.0  0.77019  0.71688  0.00562  1.0000
  H   H2855     1.0  0.87808  0.82441  0.32254  1.0000
  C   C1607     1.0  0.81889  0.77960  0.20793  1.0000
  H   H2856     1.0  0.97794  0.53476  0.41637  1.0000
  C   C1608     1.0  0.87506  0.57965  0.48236  1.0000
  H   H2857     1.0  0.77225  0.94791  0.15041  1.0000
  H   H2858     1.0  0.83472  0.68513  0.24689  1.0000
  C   C1609     1.0  0.86567  0.82159  0.31165  1.0000
  C   C1610     1.0  0.85815  0.76971  0.20229  1.0000
  S   S358      1.0  0.76969  0.71678  0.05017  1.0000
  H   H2859     1.0  0.82674  0.85086  0.19025  1.0000
  H   H2860     1.0  0.97997  0.61479  0.33212  1.0000
  H   H2861     1.0  0.81843  0.86002  0.21666  1.0000
  H   H2862     1.0  0.92434  0.58394  0.49601  1.0000
  H   H2863     1.0  0.93780  0.61229  0.30729  1.0000
  H   H2864     1.0  0.81492  0.92445  0.20942  1.0000
  H   H2865     1.0  0.95708  0.59498  0.32077  1.0000
  C   C1611     1.0  0.88390  0.59961  0.47879  1.0000
  C   C1612     1.0  0.78198  0.79010  0.21877  1.0000
  H   H2866     1.0  0.89464  0.62627  0.49402  1.0000
  H   H2867     1.0  0.96471  0.70513  0.30854  1.0000
  H   H2868     1.0  0.82705  0.61360  0.27812  1.0000
  H   H2869     1.0  0.80021  0.64675  0.20034  1.0000
  H   H2870     1.0  0.93352  0.61489  0.46942  1.0000
  H   H2871     1.0  0.96017  0.63900  0.30824  1.0000
  C   C1613     1.0  0.91758  0.52317  0.47661  1.0000
  H   H2872     1.0  0.92823  0.57479  0.31001  1.0000
  C   C1614     1.0  0.98811  0.71935  0.32602  1.0000
  H   H2873     1.0  0.74786  0.75723  0.03508  1.0000
  H   H2874     1.0  0.96724  0.57684  0.46967  1.0000
  C   C1615     1.0  0.94239  0.61079  0.48400  1.0000
  C   C1616     1.0  0.96090  0.54196  0.49665  1.0000
  H   H2875     1.0  0.92706  0.50945  0.48371  1.0000
  H   H2876     1.0  0.77622  0.96751  0.18890  1.0000
  C   C1617     1.0  0.75568  0.76868  0.24329  1.0000
  C   C1618     1.0  0.74875  0.98271  0.17571  1.0000
  H   H2877     1.0  0.95505  0.52091  0.45868  1.0000
  C   C1619     1.0  0.95040  0.57283  0.47282  1.0000
  H   H2878     1.0  0.97696  0.54844  0.49438  1.0000
  C   C1620     1.0  0.94113  0.58703  0.49120  1.0000
  N   N90       1.0  0.94854  0.54897  0.47738  1.0000
  C   C1621     1.0  0.75732  0.94129  0.15819  1.0000
  H   H2879     1.0  0.91525  0.55726  0.47318  1.0000
  H   H2880     1.0  0.77507  0.91070  0.18580  1.0000
  H   H2881     1.0  0.76882  0.90795  0.15238  1.0000
  H   H2882     1.0  0.95915  0.61493  0.48030  1.0000
  H   H2883     1.0  0.92021  0.54710  0.49974  1.0000
  H   H2884     1.0  0.75801  0.98510  0.15975  1.0000
  C   C1622     1.0  0.75509  0.91919  0.14904  1.0000
  C   C1623     1.0  0.76097  0.99160  0.26525  1.0000
  C   C1624     1.0  0.89437  0.52059  0.48461  1.0000
  H   H2885     1.0  0.98505  0.70846  0.34073  1.0000
  H   H2886     1.0  0.75277  0.90542  0.11833  1.0000
  H   H2887     1.0  0.91876  0.52217  0.45872  1.0000
  H   H2888     1.0  0.75998  0.77633  0.25776  1.0000
  C   C1625     1.0  0.75281  0.74820  0.02113  1.0000
  C   C1626     1.0  0.98787  0.52891  0.42977  1.0000
  H   H2889     1.0  0.98597  0.65343  0.35846  1.0000
  H   H2890     1.0  0.99056  0.73562  0.33081  1.0000
  H   H2891     1.0  0.99101  0.53415  0.46318  1.0000
  C   C1627     1.0  0.99135  0.64082  0.34733  1.0000
  S   S359      1.0  0.74797  0.70236  0.11012  1.0000
  H   H2892     1.0  0.74780  0.87500  0.33282  1.0000
  C   C1628     1.0  0.99506  0.57719  0.39271  1.0000
  Fe  Fe181     1.0  0.93304  0.57210  0.58753  1.0000
  S   S360      1.0  0.91467  0.60069  0.57342  1.0000
  S   S361      1.0  0.96528  0.56003  0.57436  1.0000
  Fe  Fe182     1.0  0.89726  0.55958  0.62021  1.0000
  S   S362      1.0  0.87542  0.58704  0.60886  1.0000
  S   S363      1.0  0.88794  0.53562  0.64766  1.0000
  Fe  Fe183     1.0  0.88801  0.57855  0.57521  1.0000
  S   S364      1.0  0.86893  0.57028  0.54804  1.0000
  Fe  Fe184     1.0  0.90395  0.60699  0.60845  1.0000
  S   S365      1.0  0.90475  0.64133  0.61904  1.0000
  S   S366      1.0  0.90741  0.54959  0.58707  1.0000
  S   S367      1.0  0.92488  0.57991  0.62212  1.0000
  Fe  Fe185     1.0  0.89109  0.71136  0.72772  1.0000
  S   S368      1.0  0.90293  0.70912  0.76127  1.0000
  S   S369      1.0  0.88889  0.67887  0.71309  1.0000
  Fe  Fe186     1.0  0.88617  0.76037  0.72753  1.0000
  S   S370      1.0  0.89961  0.76082  0.75981  1.0000
  S   S371      1.0  0.87470  0.79220  0.71069  1.0000
  Fe  Fe187     1.0  0.92414  0.73562  0.74834  1.0000
  S   S372      1.0  0.95881  0.72831  0.75701  1.0000
  Fe  Fe188     1.0  0.87744  0.73449  0.77001  1.0000
  S   S373      1.0  0.85595  0.74392  0.79985  1.0000
  S   S374      1.0  0.91270  0.73731  0.71470  1.0000
  S   S375      1.0  0.86374  0.73454  0.73773  1.0000
  Fe  Fe189     1.0  0.76445  0.86702  0.72905  1.0000
  S   S376      1.0  0.77489  0.88371  0.75655  1.0000
  S   S377      1.0  0.78582  0.84520  0.70753  1.0000
  C   C1629     1.0  0.98219  0.67401  0.74072  1.0000
  C   C1630     1.0  0.80292  0.75949  0.92642  1.0000
  H   H2893     1.0  0.79392  0.81411  0.82189  1.0000
  H   H2894     1.0  0.95647  0.55068  0.65673  1.0000
  H   H2895     1.0  0.76058  0.82938  0.84580  1.0000
  H   H2896     1.0  0.79742  0.90537  0.71102  1.0000
  S   S378      1.0  0.79159  0.69672  0.86940  1.0000
  C   C1631     1.0  0.96783  0.53298  0.62842  1.0000
  H   H2897     1.0  0.77746  0.99009  0.83473  1.0000
  C   C1632     1.0  0.81322  0.51375  0.55861  1.0000
  H   H2898     1.0  0.82699  0.76013  0.72224  1.0000
  H   H2899     1.0  0.80485  0.77161  0.70807  1.0000
  H   H2900     1.0  0.94278  0.50962  0.60855  1.0000
  H   H2901     1.0  0.81042  0.74298  0.70990  1.0000
  H   H2902     1.0  0.87721  0.50247  0.53555  1.0000
  C   C1633     1.0  0.83716  0.73025  0.81771  1.0000
  C   C1634     1.0  0.83599  0.70799  0.81889  1.0000
  C   C1635     1.0  0.82174  0.69789  0.83458  1.0000
  C   C1636     1.0  0.80816  0.70998  0.84878  1.0000
  C   C1637     1.0  0.80902  0.73227  0.84721  1.0000
  C   C1638     1.0  0.82361  0.74229  0.83197  1.0000
  H   H2903     1.0  0.84645  0.69853  0.80813  1.0000
  H   H2904     1.0  0.82131  0.68062  0.83575  1.0000
  H   H2905     1.0  0.79871  0.74180  0.85796  1.0000
  H   H2906     1.0  0.82458  0.75947  0.83137  1.0000
  C   C1639     1.0  0.84809  0.80324  0.71226  1.0000
  C   C1640     1.0  0.83829  0.81204  0.73111  1.0000
  C   C1641     1.0  0.81888  0.82459  0.73038  1.0000
  C   C1642     1.0  0.80914  0.82828  0.71080  1.0000
  C   C1643     1.0  0.81875  0.81897  0.69231  1.0000
  C   C1644     1.0  0.83808  0.80683  0.69297  1.0000
  H   H2907     1.0  0.84614  0.80988  0.74600  1.0000
  H   H2908     1.0  0.81166  0.83159  0.74483  1.0000
  H   H2909     1.0  0.81153  0.82170  0.67709  1.0000
  H   H2910     1.0  0.84562  0.80062  0.67822  1.0000
  C   C1645     1.0  0.98373  0.74043  0.75278  1.0000
  C   C1646     1.0  0.84195  0.87232  0.74939  1.0000
  H   H2911     1.0  0.80233  0.83158  0.79864  1.0000
  H   H2912     1.0  0.80883  0.78243  0.80327  1.0000
  H   H2913     1.0  0.85722  0.50924  0.66962  1.0000
  C   C1647     1.0  0.76246  0.73807  0.81980  1.0000
  H   H2914     1.0  0.97294  0.76838  0.73371  1.0000
  C   C1648     1.0  0.89892  0.65159  0.64518  1.0000
  C   C1649     1.0  0.90009  0.67371  0.64731  1.0000
  C   C1650     1.0  0.89705  0.68239  0.66784  1.0000
  C   C1651     1.0  0.89256  0.66906  0.68660  1.0000
  C   C1652     1.0  0.89109  0.64700  0.68442  1.0000
  C   C1653     1.0  0.89426  0.63830  0.66391  1.0000
  H   H2915     1.0  0.90350  0.68423  0.63297  1.0000
  H   H2916     1.0  0.89808  0.69939  0.66916  1.0000
  H   H2917     1.0  0.88753  0.63651  0.69875  1.0000
  H   H2918     1.0  0.89325  0.62128  0.66264  1.0000
  C   C1654     1.0  0.87518  0.58169  0.52153  1.0000
  C   C1655     1.0  0.88417  0.60157  0.51796  1.0000
  C   C1656     1.0  0.85318  0.90598  0.70963  1.0000
  H   H2919     1.0  0.85575  0.88219  0.75007  1.0000
  H   H2920     1.0  0.98171  0.53664  0.65946  1.0000
  H   H2921     1.0  0.83943  0.86531  0.78429  1.0000
  H   H2922     1.0  0.88753  0.61021  0.53161  1.0000
  H   H2923     1.0  0.81570  0.86128  0.77152  1.0000
  H   H2924     1.0  0.80623  0.52015  0.57397  1.0000
  C   C1657     1.0  0.76700  0.76008  0.80873  1.0000
  N   N91       1.0  0.84014  0.88664  0.70925  1.0000
  H   H2925     1.0  0.95315  0.50347  0.56851  1.0000
  C   C1658     1.0  0.98274  0.57837  0.58105  1.0000
  H   H2926     1.0  0.85497  0.95088  0.70366  1.0000
  H   H2927     1.0  0.78812  0.75081  0.92897  1.0000
  C   C1659     1.0  0.82465  0.89002  0.69195  1.0000
  H   H2928     1.0  0.87385  0.94023  0.72263  1.0000
  H   H2929     1.0  0.77550  0.95251  0.81986  1.0000
  C   C1660     1.0  0.97483  0.59850  0.58720  1.0000
  H   H2930     1.0  0.84591  0.91792  0.74209  1.0000
  C   C1661     1.0  0.80667  0.90765  0.69511  1.0000
  H   H2931     1.0  0.95808  0.60288  0.58735  1.0000
  H   H2932     1.0  0.79927  0.99141  0.81466  1.0000
  H   H2933     1.0  0.90814  0.52181  0.54394  1.0000
  H   H2934     1.0  0.99395  0.64392  0.64030  1.0000
  S   S379      1.0  0.75032  0.70492  0.92074  1.0000
  C   C1662     1.0  0.83306  0.54547  0.61864  1.0000
  H   H2935     1.0  0.78361  0.89194  0.67851  1.0000
  C   C1663     1.0  0.76573  0.72524  0.98460  1.0000
  C   C1664     1.0  0.83764  0.51424  0.55627  1.0000
  N   N92       1.0  0.96395  0.50963  0.63407  1.0000
  H   H2936     1.0  0.96547  0.60998  0.52596  1.0000
  H   H2937     1.0  0.79724  0.75304  0.79090  1.0000
  H   H2938     1.0  0.77539  0.76898  0.81992  1.0000
  H   H2939     1.0  0.86933  0.90107  0.71467  1.0000
  S   S380      1.0  0.76119  0.74961  0.89065  1.0000
  H   H2940     1.0  0.74900  0.68269  0.99020  1.0000
  H   H2941     1.0  0.85049  0.95596  0.73193  1.0000
  C   C1665     1.0  0.90755  0.50423  0.54775  1.0000
  H   H2942     1.0  0.74693  0.79535  0.86295  1.0000
  N   N93       1.0  0.84935  0.50408  0.57496  1.0000
  C   C1666     1.0  0.96817  0.62587  0.53165  1.0000
  H   H2943     1.0  0.94798  0.51164  0.50948  1.0000
  H   H2944     1.0  0.77719  0.72761  0.82036  1.0000
  H   H2945     1.0  0.84181  0.53122  0.55267  1.0000
  H   H2946     1.0  0.77541  0.74437  0.77895  1.0000
  H   H2947     1.0  0.76873  0.95145  0.79234  1.0000
  H   H2948     1.0  0.87412  0.52632  0.56679  1.0000
  H   H2949     1.0  0.98046  0.65664  0.74492  1.0000
  H   H2950     1.0  0.96686  0.62474  0.54966  1.0000
  C   C1667     1.0  0.98993  0.63335  0.52284  1.0000
  C   C1668     1.0  0.75769  0.97226  0.74592  1.0000
  C   C1669     1.0  0.85676  0.94388  0.72044  1.0000
  H   H2951     1.0  0.81331  0.92368  0.69350  1.0000
  C   C1670     1.0  0.77792  0.96004  0.80311  1.0000
  H   H2952     1.0  0.93180  0.51880  0.64610  1.0000
  C   C1671     1.0  0.82814  0.88102  0.73081  1.0000
  H   H2953     1.0  0.85592  0.91367  0.69293  1.0000
  H   H2954     1.0  0.79934  0.91052  0.66119  1.0000
  H   H2955     1.0  0.82749  0.92826  0.72325  1.0000
  H   H2956     1.0  0.78232  0.98862  0.72642  1.0000
  H   H2957     1.0  0.81892  0.79925  0.78047  1.0000
  C   C1672     1.0  0.78217  0.99627  0.81778  1.0000
  H   H2958     1.0  0.95556  0.63759  0.52611  1.0000
  H   H2959     1.0  0.81600  0.54211  0.62075  1.0000
  C   C1673     1.0  0.75896  0.78105  0.76272  1.0000
  H   H2960     1.0  0.99181  0.80925  0.77343  1.0000
  C   C1674     1.0  0.84441  0.92365  0.72489  1.0000
  C   C1675     1.0  0.82916  0.87180  0.77143  1.0000
  C   C1676     1.0  0.97186  0.54608  0.64782  1.0000
  H   H2961     1.0  0.90421  0.50482  0.61584  1.0000
  H   H2962     1.0  0.81011  0.75916  0.94214  1.0000
  H   H2963     1.0  0.77845  0.92040  0.68009  1.0000
  C   C1677     1.0  0.85482  0.86752  0.70367  1.0000
  C   C1678     1.0  0.86662  0.86867  0.68068  1.0000
  C   C1679     1.0  0.88351  0.85030  0.67839  1.0000
  H   H2964     1.0  0.81667  0.86873  0.72895  1.0000
  H   H2965     1.0  0.81714  0.87471  0.69012  1.0000
  H   H2966     1.0  0.84593  0.85267  0.70526  1.0000
  H   H2967     1.0  0.86728  0.86482  0.71533  1.0000
  H   H2968     1.0  0.84801  0.85562  0.74676  1.0000
  H   H2969     1.0  0.87447  0.88401  0.67717  1.0000
  H   H2970     1.0  0.85538  0.86710  0.66818  1.0000
  C   C1680     1.0  0.77034  0.98369  0.80236  1.0000
  H   H2971     1.0  0.74696  0.78699  0.77539  1.0000
  H   H2972     1.0  0.89149  0.85123  0.66173  1.0000
  H   H2973     1.0  0.89566  0.85114  0.69012  1.0000
  H   H2974     1.0  0.87615  0.83460  0.68129  1.0000
  N   N94       1.0  0.82891  0.72766  0.91553  1.0000
  C   C1681     1.0  0.84082  0.71904  0.89557  1.0000
  C   C1682     1.0  0.81160  0.71283  0.92357  1.0000
  C   C1683     1.0  0.81825  0.74908  0.90879  1.0000
  C   C1684     1.0  0.84310  0.73076  0.93331  1.0000
  C   C1685     1.0  0.86299  0.71516  0.93505  1.0000
  C   C1686     1.0  0.85584  0.73462  0.88222  1.0000
  C   C1687     1.0  0.84324  0.53785  0.59711  1.0000
  C   C1688     1.0  0.81866  0.68940  0.93040  1.0000
  C   C1689     1.0  0.79955  0.67562  0.93520  1.0000
  C   C1690     1.0  0.87356  0.71767  0.95589  1.0000
  C   C1691     1.0  0.87097  0.72288  0.86596  1.0000
  H   H2975     1.0  0.75550  0.73994  0.83664  1.0000
  H   H2976     1.0  0.82946  0.71439  0.88433  1.0000
  H   H2977     1.0  0.85016  0.70395  0.89954  1.0000
  H   H2978     1.0  0.80228  0.71882  0.93813  1.0000
  H   H2979     1.0  0.80013  0.71251  0.91095  1.0000
  H   H2980     1.0  0.80912  0.74765  0.89443  1.0000
  H   H2981     1.0  0.83030  0.76096  0.90351  1.0000
  H   H2982     1.0  0.84924  0.74713  0.93145  1.0000
  H   H2983     1.0  0.83374  0.73002  0.94938  1.0000
  H   H2984     1.0  0.87487  0.71858  0.92121  1.0000
  H   H2985     1.0  0.85921  0.69821  0.93491  1.0000
  H   H2986     1.0  0.84639  0.74696  0.87276  1.0000
  H   H2987     1.0  0.86532  0.74291  0.89290  1.0000
  C   C1692     1.0  0.76812  0.99058  0.73722  1.0000
  H   H2988     1.0  0.89178  0.52239  0.50232  1.0000
  H   H2989     1.0  0.82913  0.68187  0.91753  1.0000
  H   H2990     1.0  0.82690  0.68888  0.94551  1.0000
  H   H2991     1.0  0.79119  0.67475  0.92028  1.0000
  H   H2992     1.0  0.80495  0.65909  0.94078  1.0000
  H   H2993     1.0  0.78835  0.68227  0.94812  1.0000
  H   H2994     1.0  0.86262  0.71349  0.97036  1.0000
  H   H2995     1.0  0.88802  0.70676  0.95646  1.0000
  H   H2996     1.0  0.87824  0.73438  0.95651  1.0000
  H   H2997     1.0  0.88038  0.73462  0.85553  1.0000
  H   H2998     1.0  0.88203  0.71144  0.87452  1.0000
  H   H2999     1.0  0.86196  0.71400  0.85529  1.0000
  H   H3000     1.0  0.97276  0.57714  0.62964  1.0000
  H   H3001     1.0  0.76715  0.79099  0.72818  1.0000
  H   H3002     1.0  0.95008  0.51541  0.66642  1.0000
  N   N95       1.0  0.96530  0.66180  0.65180  1.0000
  C   C1693     1.0  0.95899  0.68384  0.65932  1.0000
  C   C1694     1.0  0.95843  0.66083  0.62920  1.0000
  C   C1695     1.0  0.95294  0.64587  0.66656  1.0000
  H   H3003     1.0  0.98113  0.53500  0.61578  1.0000
  Fe  Fe190     1.0  0.76319  0.71426  0.88638  1.0000
  C   C1696     1.0  0.96069  0.68644  0.68378  1.0000
  C   C1697     1.0  0.95422  0.62250  0.65956  1.0000
  C   C1698     1.0  0.96948  0.67545  0.61104  1.0000
  C   C1699     1.0  0.95880  0.67506  0.58988  1.0000
  C   C1700     1.0  0.96102  0.71002  0.68843  1.0000
  C   C1701     1.0  0.94604  0.60691  0.67805  1.0000
  H   H3004     1.0  0.94218  0.68838  0.65617  1.0000
  H   H3005     1.0  0.96816  0.69630  0.64978  1.0000
  H   H3006     1.0  0.96116  0.64443  0.62364  1.0000
  H   H3007     1.0  0.94104  0.66446  0.62926  1.0000
  H   H3008     1.0  0.93586  0.65124  0.66830  1.0000
  H   H3009     1.0  0.95822  0.64514  0.68326  1.0000
  H   H3010     1.0  0.77119  0.80086  0.79557  1.0000
  H   H3011     1.0  0.97363  0.52084  0.53477  1.0000
  H   H3012     1.0  0.75097  0.73019  0.81092  1.0000
  H   H3013     1.0  0.97998  0.68270  0.75581  1.0000
  H   H3014     1.0  0.94671  0.67971  0.69341  1.0000
  H   H3015     1.0  0.97516  0.67782  0.68956  1.0000
  H   H3016     1.0  0.97074  0.61715  0.65425  1.0000
  H   H3017     1.0  0.94410  0.62134  0.64596  1.0000
  H   H3018     1.0  0.96884  0.69234  0.61525  1.0000
  H   H3019     1.0  0.99504  0.51808  0.51380  1.0000
  H   H3020     1.0  0.96727  0.68519  0.57690  1.0000
  H   H3021     1.0  0.95907  0.65848  0.58463  1.0000
  H   H3022     1.0  0.94203  0.68140  0.59203  1.0000
  H   H3023     1.0  0.96054  0.71156  0.70621  1.0000
  H   H3024     1.0  0.97566  0.71706  0.68066  1.0000
  H   H3025     1.0  0.94697  0.71922  0.68226  1.0000
  H   H3026     1.0  0.94602  0.59062  0.67216  1.0000
  H   H3027     1.0  0.95632  0.60625  0.69173  1.0000
  H   H3028     1.0  0.92954  0.61187  0.68395  1.0000
  H   H3029     1.0  0.96938  0.67999  0.73035  1.0000
  H   H3030     1.0  0.78944  0.78398  0.90383  1.0000
  H   H3031     1.0  0.80090  0.74056  0.74898  1.0000
  C   C1702     1.0  0.87243  0.50883  0.57026  1.0000
  C   C1703     1.0  0.98281  0.56668  0.64032  1.0000
  C   C1704     1.0  0.86529  0.50029  0.65678  1.0000
  C   C1705     1.0  0.88111  0.50967  0.64281  1.0000
  H   H3032     1.0  0.80727  0.54440  0.54042  1.0000
  H   H3033     1.0  0.84287  0.50630  0.54113  1.0000
  H   H3034     1.0  0.77968  0.75429  0.73520  1.0000
  H   H3035     1.0  0.81805  0.89486  0.73658  1.0000
  H   H3036     1.0  0.83300  0.89444  0.67590  1.0000
  H   H3037     1.0  0.81361  0.77237  0.76032  1.0000
  H   H3038     1.0  0.82491  0.50993  0.60100  1.0000
  Fe  Fe191     1.0  0.75505  0.91288  0.74494  1.0000
  H   H3039     1.0  0.75320  0.76553  0.75872  1.0000
  C   C1706     1.0  0.75729  0.79693  0.74239  1.0000
  C   C1707     1.0  0.79113  0.90756  0.67759  1.0000
  H   H3040     1.0  0.86314  0.55567  0.50634  1.0000
  H   H3041     1.0  0.79893  0.78975  0.74278  1.0000
  H   H3042     1.0  0.82176  0.81636  0.81404  1.0000
  H   H3043     1.0  0.77077  0.71626  0.97067  1.0000
  N   N96       1.0  0.78053  0.77793  0.77153  1.0000
  C   C1708     1.0  0.79666  0.78280  0.91961  1.0000
  C   C1709     1.0  0.78077  0.75816  0.78696  1.0000
  C   C1710     1.0  0.78428  0.79766  0.78288  1.0000
  C   C1711     1.0  0.79784  0.77494  0.75363  1.0000
  C   C1712     1.0  0.79602  0.75568  0.73973  1.0000
  H   H3044     1.0  0.78480  0.78933  0.93203  1.0000
  C   C1713     1.0  0.80567  0.79747  0.79328  1.0000
  H   H3045     1.0  0.88122  0.50424  0.58480  1.0000
  S   S381      1.0  0.76895  0.94625  0.73985  1.0000
  C   C1714     1.0  0.81046  0.75775  0.71873  1.0000
  H   H3046     1.0  0.82295  0.88817  0.77526  1.0000
  C   C1715     1.0  0.80589  0.81606  0.80782  1.0000
  H   H3047     1.0  0.78382  0.81212  0.77139  1.0000
  C   C1716     1.0  0.94571  0.50863  0.65145  1.0000
  H   H3048     1.0  0.79494  0.95820  0.79727  1.0000
  S   S382      1.0  0.75054  0.85589  0.80805  1.0000
  H   H3049     1.0  0.95395  0.54113  0.62075  1.0000
  H   H3050     1.0  0.86004  0.54207  0.59581  1.0000
  C   C1717     1.0  0.98639  0.76001  0.74079  1.0000
  C   C1718     1.0  0.74878  0.75679  0.00008  1.0000
  C   C1719     1.0  0.98861  0.61313  0.59317  1.0000
  H   H3051     1.0  0.95325  0.54897  0.51155  1.0000
  H   H3052     1.0  0.80958  0.52144  0.52413  1.0000
  H   H3053     1.0  0.78599  0.52649  0.54181  1.0000
  H   H3054     1.0  0.98257  0.62878  0.59755  1.0000
  H   H3055     1.0  0.83508  0.54691  0.58389  1.0000
  H   H3056     1.0  0.98627  0.66961  0.60782  1.0000
  H   H3057     1.0  0.83439  0.56302  0.61891  1.0000
  H   H3058     1.0  0.84124  0.53745  0.63244  1.0000
  H   H3059     1.0  0.99202  0.64846  0.53032  1.0000
  H   H3060     1.0  0.98959  0.63662  0.50502  1.0000
  H   H3061     1.0  0.98081  0.51349  0.58968  1.0000
  C   C1720     1.0  0.97913  0.51267  0.51982  1.0000
  H   H3062     1.0  0.75305  0.98435  0.80714  1.0000
  C   C1721     1.0  0.74870  0.82156  0.83823  1.0000
  H   H3063     1.0  0.81069  0.79269  0.91820  1.0000
  C   C1722     1.0  0.80349  0.52736  0.54008  1.0000
  C   C1723     1.0  0.75496  0.74528  0.98170  1.0000
  C   C1724     1.0  0.84165  0.51336  0.59621  1.0000
  H   H3064     1.0  0.98549  0.57553  0.65460  1.0000
  C   C1725     1.0  0.96339  0.51759  0.50254  1.0000
  C   C1726     1.0  0.98876  0.65579  0.65251  1.0000
  H   H3065     1.0  0.77300  0.99032  0.78536  1.0000
  H   H3066     1.0  0.76259  0.81289  0.74535  1.0000
  H   H3067     1.0  0.99207  0.64733  0.66841  1.0000
  C   C1727     1.0  0.87045  0.57087  0.50367  1.0000
  H   H3068     1.0  0.85064  0.50534  0.60949  1.0000
  C   C1728     1.0  0.95695  0.50018  0.61435  1.0000
  H   H3069     1.0  0.75152  0.76873  0.80642  1.0000
  H   H3070     1.0  0.95014  0.58394  0.50576  1.0000
  S   S383      1.0  0.74882  0.75668  0.95560  1.0000
  H   H3071     1.0  0.74593  0.67296  0.96410  1.0000
  S   S384      1.0  0.74702  0.89698  0.71544  1.0000
  Fe  Fe192     1.0  0.74595  0.74028  0.92424  1.0000
  H   H3072     1.0  0.91574  0.49963  0.56268  1.0000
