data_image0
_chemical_formula_structural       SFeS2FeS2FeSFeS3FeHCFeS2C2SH7C2HC6H4C6H5CH5NH2C6H5CH3CH2CH2CH3CH3C2HSHCFeH2CH4CH2CHC2H3FeHCNHC3H2C3H4CH6CSH2CH3CH2C3H2NC8H2C2H9CH6CHCHS2H4C3H10C3H4CH4SH2CH2CHC3H4CH4CHFeHCH3NH10CH2NC3SCH7CH3C2H2CNFeC2SCHSH2CH8CH2FeH3CNH2CH3C3SH6CHCH4CH2C2FeC3H4C3NCH5SH3C2HC4HC3H2CH2CHC2H2SHCHCSHSCHNHSCH3CHCH2CH4SCH2CHSHFeHSH5CSHC4HC2H4C6H4CHCHCNH5CHCH2CHCH5C2H3CFeH2CSHC3HNH4CHCHCH5C2H5CH5C2H3NH2CSHS2CNH3FeCHCHSH2CFeH2SCHCHCH2FeH2NC12H13CH4CH15C2HCH3CH2SHC5H3C3H4C2H5CH2CH2C2HCH3CHCHNH2CH6CHSHCS2HFeS2Fe3SFeS3H2C2SHSHCH3CSH3C7H5C7H3NH7CSHC6H4C2HCHCHFeHSC2H2CHCNHCHNC12H28CH2CH5SCSCH4CHCH4CH2CH3SHC3H6CH3FeHSH2FeHC2H2CFeSCH2CHC2HC2HCH4CH6CH2CHC3HCSH3CHCH2NH5SCHCFeHFeCHCNCH3CH2CSCFeH2CH3C3H2CH3SH6CH2CH2CHC2H12CH7FeCHCH2C2HCH2SH2SH2CH6SHCH3C2SH2SFe2S2HSFeCFeSCSFeSFeS2FeSFeS3HFeSFeSHCFeS2HCH7CHC6H2CHC6H4C7H3C7H3C4H2FeH5CH3CH2SH2CH2CHC6H4C3SH4C2NH4CHC3HC4NCH6C2H3NC12H26C2HC2HC2HN2C2FeHCH3SH5CH3CSCH6CHCHSCHC2H2CH2C2H13SC2H3C3SH2CHCH2CHCHFeSHC2H9NC12H31SH2CH4FeNCH3NHCHCH3CH6C2SHCHCH2CHCH3CFeS2FeS2FeSFeCS2C3FeSH3FeSH5FeSCFeS2FeSFeS3H2C3HCH3SCHCS2CHCH2NH2CHCH4C6H2C6H4C6H4SC2H3NSH2CH3CH2NC6HC4H14SH3CH6C2H3CHCNC9SCH26CHCH3CH2CH2C4H3CH3SCH2C2HC2HCHCH4SFeH4CH9CHCNC10FeH11SH8CH7CH2CH2CH2CHC3H4CHCHC2HCH3NFeS2H3FeSHS2H3Fe3HSFeS2H2S3CHCHCSCH3C6H8SH2CHC2HS2CHC4H4CSC4H4CH2CHCHC2H7CH4CH2CH2CHNHCH2CH2CFeSNC2FeC2HFeCHCHFeCH3C2H4CSH4C2HSH5CH4C3H7CH4CHCH2CSH3C2H3CHC2H2CNCHC2H4CH2CH2CH3SFeSHCS2FeSFeS2HSH3C3H2FeSHFeS2FeSFeS3H2C6H5CHCHCH3CH2C6H4C4HCHCSC2HCHSHSCH5FeC2H7CHCH2C2H5CNHCHSH3CH2C2HNC2HC3HC3H13C2H10CHC3H7C2H3CHCH3C2H4CH3CFeC2H7CHCH9CH2NC9HCH6CSCH2CH8CHFeHCH3CH2CNCHCHCHC2H4FeH8SH2CSHCH2NH2CH2C2HCH2CH3CH2CH3SHC2H2CHFeS2FeSHFeCS2FeS2FeS2Fe2S3FeS2FeS2FeSFeS2H2SH3CHC2HC3HCH2C6H2CHC2H6SHC2NH2C6H4C6H3C6H2C7H3SHCHCHCH3C2HCH3CNH2CH2CNH3C2H3CH3CH4CHC3H2CHCH3C2H6C2H6CHCH3CH14CH2C2FeCH4SH2CSC2H2C5HC3H3CH5SH2C3FeH2CH5CHCH4CH4FeHCHCH2CH5C3H4CH2CHC2H3C2NHCH3CHCH2NHSH6CHC2H2CH6CHC2H3C2H3CHCH4SHCH3SH2CFeN2C12H24C3H4CHN2CH2S2FeH4FeH3C4H3SH6CHCNHCSH13CH3CH2C2H4NH2CH2SC2HCH2CHC2SC4HCFeS2FeSH2S2CFeS2FeS2FeSFeS3HCH3C3H3C3HC2H4CHSH2C4H8FeH8C7H4CHCHC2HFeCH3C6H4FeNC12H28CH2CSH2C2NC2H2CHFe2H3CSHCH3CH4CH3C2H2FeCHC2H3CHCHNH3C2HCH6NHCH5CH6C3H2CH5CH4NC9HC2H11CH9C2HCH5CHNHC4HCSHCH4C3H3CH4CH2CH6C2HC2H2C2H3C2HCHFeSC2HSHC4H3CSH2CHSC3HSH2CSHCHSH3FeHCH2CHCHFeSCHCH3CHS2FeCHCSHCH3C2HFeCH2SHCNC2H5CH2CH3C2H6NH6CH4SC3H5C2H5CHCH3CH2FeCHCHFeHSH3SHC2HC2HCH2SH6SFeH2CH3Fe2SFeSFeS2CHFeS2FeS2FeSFeS3HSC5H2C5H4C6H4C6H4C2H4C2H3CHC3H2C2H2CSH5C2HCH3SNH2C2HCFeH2FeH2CHS2H8CH2CFeH2CHNH3CH2C2H2CHSH5C2NSNC11H27CH2CHC2H3CHCH2NH4CHCHCH2C2HCHC4SH4CSH4SFeH2C2H3CH2SCHFeC2H7CHCHCFeCH5C4HC3H5CH3CH3CH2SC2H6CH2C5H3CH2C2H2C2HSHCSCH4CH2C4H2SC2SHC2HCH7NH5CSH7SHC3H2CFeCH3CH3NCH9C2H5CHCH4C2HSHNH4CHC2HSHCH2CHSH3CH5FeS2FeS2FeSFeS3FeS2FeS2HFeS3H2Fe2HFeSH3C8H4C6H4CHC2HC2H3C6H4C2H2CHC4H5C2H2SH2C2H5CHCH3CHCH5CNCH4CHC2H5CH2CHCHSH7NH3C2HCH3C6H2CHFeCH4CH2CH5CH6SHCHC2NHC3H2CH2CHCH16CH2CHC3H4NSCNC2HCHC5H12C4H4SCH5NH3C2HCHC5NCHCH7CHCH3CH2SC2HCH8CH4FeH3CH10C3HSCH3SCSHFeC2FeS2CHFeS3FeSFeS2FeSFeCS2H2C5H2CHCHSC8H4CH2C4HCH5CH3CH2CH3CHC2FeHCH5C3H4CH2SHCH7C2H2CH3C2H10CHFeC2H2NH5CHNH4CH11CHCH3C5H3C2H14CHC3H2C5H2NH4C2H3CH2CHC2H4C2SNC7H12SC3H3C2H4CH4C2H3CH4CH4C3HCHC2H4SH3CH2SCHCH3NH6C2HFeHC5H4SH2C2HCHSH2CH7CH2CNH5C2H3CH2C4HCH3CH3C3H2CH3CH2CSH6CH2SFeH2SHSCHCH2CH2CH3NCH3CSCH8CHC2HSC2H3CH2CHS2HC2SH2SC3H2CFeHFeHSCSCSHC6H3CHCH2FeCH3CH2C6H5C2H2SH2CH5C3H4CH12CH5C2H9FeH2CH2CH10FeH4C6H4CFeNCHCH3FeH2SNCHC3H4C2HCHC2HCH3SH2CHCHS2H2SCHCNSHC2HCH5C2HFeCH7C2H5CHCHC2FeS2FeS2FeSFeS3HSHSH2FeS2FeS2HSFeHFeC2SHC6H6C8H4C6H3C2HC5H3CH5NSC3HCH3C2H2CH3NCHCH3CHCHSH5C3HC2HCH4CHCSH7CH3FeCH2C2H2FeSHC4SCFeHC2H2C2H3SCFeHCFeC2FeSH3CH4NH4SH9C2H2NC8HC3H16SH11C2H3CH2CHSCNC11H16SH14CSCH2CHC3HNH2CH3SCH3CH10SCH3FeC2HC2HC2NHCHCH2SCH4SCSH2CHFeCSFeS2FeS2FeHFeHS2H2CFeS2FeS2FeSFeHS2HCH4CH2C4HCHNH3C3H5SC6HCH2CH3CHCH5C3H3C6H4C6HCH2C2H2CH4SH6FeSH8C2H2CHC2NCH3CHCHCHCSHCH3C2H3CH4SCFeHSC2H5C2NC11H12CH11FeCHCH7CNH2C4HCH2CHCHC4H3SCH10SH4CHSH4CH2CH2CH2CH3CHC2H3CHCH2CH2FeCNC2HC3HC2H2CH4C2H3C3SH5C2H3NH2CHCHC2H6SH3CNHCH9CH2C2H2C2HCH2CHCHCH2SH5CH3SFeCH4SC3H2FeS2NFeSHFeSCFeSFeSCFeS2HCFeSHSC6H4C4HCH2SHC3H6C3H2C6H2FeCH4C2H5CHC2H4FeH2CHCHCHCHCHCH2Fe2H5C2H2SC2HCFeCHNC12H22CH5NC6HCHC2SH3CH12CH10CSH2CH4SCSNCFeH4C2H3SH2C2H3S2CH3SCFeSH3CH6CHCNH2C3NC10H9CSH2SC4H6CSH2SNCH9CH2C2H5C2HS2H4C2H3C2H2CH3SC2H8CHCHSHS2HC2H3S2HCH4CHSCFeH3CFeH2FeS2HFeS2CSC6H4CH2FeHC3H5CH4CHSHSCH3CHC6H5C3H2S2H2CNC11H16SH8C3H3CHNH2CH3SH2CHCHCH5CH2CH4CH2CHFeH4C2SHCH3C3HCSH2C2HSH2CHC3H3SCH2CFeH5CFeH2FeC3H5FeH6CH2C2SHSHSH3CHFeCH2FeH3CFeSC3HNSH3FeS2CFeSHSHC2H2CFeC9H5SH9CHC3H6SH4CH4NH5CH4CH3C3H2CHFeC2H2CH3CH2FeC2H5C2HC2H3C3H3C4SH2C2H3FeH2SHSHSH4CHCHC2HSH2S2HFeC6H5SHCHCH2FeC2HSH9C2NCH2SH2CHCHCHFeHCHC2HCH3CH2CHSHNHC3SHC2H6CFeH2C2H7CHCSH5C2HC2HCHCH2CH8CH4CH7CH2SCHCSNC3HCHFeH2SHCH2CHCH3CH2CH2SH3CH3CH3CHC2H3FeHCFeS2HSFeSFeSHS2FeS2FeS2FeSFeHS2FeHSHCHS2FeS2FeS2FeSFeS3H2C3H4CHFeCHCH2CH2C2H3C6H5CHC3HCH2C6H5SCHC7H4C6H7C3HFeCH5CNC12H25CH2C2H3CHC3NC12H30CH2SH3C2H3NH3C2H2CH4C4SH3NCHCHFeH2C2H3NC12H24CHCH2CH3CHCHCHCH2CH3C2H2SHCH2CHCH6CHC2H2C2H2NCHCH3CH7C2HCH3CH3CSHC3H3CH4NCH4NHCH3CH4CH4C2H3C2HCH2CNC3H2C2H5CH8C4H2FeH2CH2C7H4C2H5CH2FeCHC2SH3CH2SHFeS2FeCFeHS2HFeCFeSNHCHCFeSCH3S2HCH2S2CH2C4HC4H6C2H3SHSCHCHCHCFeHCSH4SCH2C2HCHCHSFeH2C6H5CHCHCHCH2CHFeHSNHCHCSCH5C2HCH2C2NC6H2CHCH3NHCH7CFeCH13C3H4SHCH4CH3FeCHSH2CH2S2H4FeHC2H3CH2C4HCH2CH2CHNCSH3CHCHC2H4C2H2C2H5CH3CHC2H3CH2C2H3CH3CNHCSCH5FeCH4C2HCH2SH5SCHSHCHFeSH2C2H2SHSHSH4CFeH11FeH4SHSCH2C9H3C3HC2H2FeCSH2C3H4SC2H3CHCHCSC3HC3H3C3FeCH2CSC3FeCH4SH2FeHCHC2H2FeH3CH2C6H3CFeHFeH4CHSCH3CH4CH7C2H6C2SHFeH3SH2CNHC2HCH7C2NH2FeNH2CH9CH3CSH8CNC2HSH2CHNC6HCH2CH4SHCH6CH6C2H2C2H3CH3CFeC2H2SCHCH3CH4FeH2C2SFe2S2FeHFeS2C2H3SH2NHC2HFeS2FeS2FeSFeS3HCSHCSFeSCH2C3HC2HC2HC6H6NCH2C6H3C2H2CFeC5SHC2SCH2CH3CH6C2H3CH2CHCHCHNH2C2H9CNC12H29SC4HC2HCHCNCH4CH4CH2CH2C2FeH2CH4NC10H16SH2FeH3NC2SHC3HCH5SH3SH2C3H4NC12H28SHCH2S2CH4C2FeCH3CHCHSHCHC3H3CH3SH3CHSH4CHFeH4C2H4CH5C2H2SHCHC2H2CH4C3SH2FeCH3SHCH2CSCH2CHCHC3HC2HCH2C2H2C2H3C2NHCHSC2H2C2H2C2H4C3HCHCH3SH2SHNH2CH2
_chemical_formula_sum              "S576 Fe288 H4608 C2592 N144"
_cell_length_a       61.8732
_cell_length_b       60.1274
_cell_length_c       82.923
_cell_angle_alpha    77.7555
_cell_angle_beta     77.7547
_cell_angle_gamma    102.939

_space_group_name_H-M_alt    "P 1"
_space_group_IT_number       1

loop_
  _space_group_symop_operation_xyz
  'x, y, z'

loop_
  _atom_site_type_symbol
  _atom_site_label
  _atom_site_symmetry_multiplicity
  _atom_site_fract_x
  _atom_site_fract_y
  _atom_site_fract_z
  _atom_site_occupancy
  S   S1        1.0  0.04256  0.37076  0.15029  1.0000
  Fe  Fe1       1.0  0.09298  0.26518  0.17523  1.0000
  S   S2        1.0  0.06118  0.24142  0.17243  1.0000
  S   S3        1.0  0.09810  0.30208  0.17817  1.0000
  Fe  Fe2       1.0  0.12083  0.22978  0.17371  1.0000
  S   S4        1.0  0.09181  0.20298  0.17016  1.0000
  S   S5        1.0  0.15415  0.22039  0.17436  1.0000
  Fe  Fe3       1.0  0.08635  0.23330  0.15224  1.0000
  S   S6        1.0  0.08031  0.23117  0.12675  1.0000
  Fe  Fe4       1.0  0.06905  0.21295  0.19067  1.0000
  S   S7        1.0  0.04352  0.18224  0.21142  1.0000
  S   S8        1.0  0.11773  0.25937  0.15361  1.0000
  S   S9        1.0  0.09842  0.23739  0.19563  1.0000
  Fe  Fe5       1.0  0.29596  0.28097  0.17291  1.0000
  H   H1        1.0  0.17860  0.21631  0.00645  1.0000
  C   C1        1.0  0.29826  0.12662  0.23993  1.0000
  Fe  Fe6       1.0  0.25814  0.27022  0.20565  1.0000
  S   S10       1.0  0.27459  0.24674  0.19245  1.0000
  S   S11       1.0  0.21972  0.26489  0.21575  1.0000
  C   C2        1.0  0.30210  0.16410  0.20966  1.0000
  C   C3        1.0  0.30665  0.08278  0.16551  1.0000
  S   S12       1.0  0.28338  0.27530  0.22150  1.0000
  H   H2        1.0  0.05569  0.33588  0.08705  1.0000
  H   H3        1.0  0.27846  0.17658  0.19623  1.0000
  H   H4        1.0  0.11134  0.16969  0.00363  1.0000
  H   H5        1.0  0.30423  0.20633  0.15360  1.0000
  H   H6        1.0  0.16516  0.22678  0.13506  1.0000
  H   H7        1.0  0.21853  0.20492  0.15595  1.0000
  H   H8        1.0  0.00027  0.41484  0.15110  1.0000
  C   C4        1.0  0.00672  0.44522  0.16120  1.0000
  C   C5        1.0  0.29731  0.17983  0.19451  1.0000
  H   H9        1.0  0.24605  0.21121  0.14074  1.0000
  C   C6        1.0  0.17142  0.23243  0.18657  1.0000
  C   C7        1.0  0.16630  0.24942  0.19479  1.0000
  C   C8        1.0  0.18109  0.25916  0.20387  1.0000
  C   C9        1.0  0.20124  0.25231  0.20449  1.0000
  C   C10       1.0  0.20605  0.23503  0.19654  1.0000
  C   C11       1.0  0.19108  0.22499  0.18775  1.0000
  H   H10       1.0  0.15118  0.25530  0.19397  1.0000
  H   H11       1.0  0.17717  0.27241  0.21013  1.0000
  H   H12       1.0  0.22122  0.22925  0.19733  1.0000
  H   H13       1.0  0.19491  0.21158  0.18169  1.0000
  C   C12       1.0  0.05307  0.21319  0.12792  1.0000
  C   C13       1.0  0.04695  0.21196  0.11274  1.0000
  C   C14       1.0  0.02505  0.19825  0.11335  1.0000
  C   C15       1.0  0.00942  0.18522  0.12916  1.0000
  C   C16       1.0  0.01562  0.18623  0.14436  1.0000
  C   C17       1.0  0.03735  0.20036  0.14376  1.0000
  H   H14       1.0  0.05916  0.22164  0.10048  1.0000
  H   H15       1.0  0.02041  0.19746  0.10157  1.0000
  H   H16       1.0  0.11772  0.21837  0.22569  1.0000
  H   H17       1.0  0.04202  0.20115  0.15552  1.0000
  H   H18       1.0  0.30010  0.03620  0.19942  1.0000
  C   C18       1.0  0.31068  0.18132  0.02204  1.0000
  H   H19       1.0  0.08451  0.18519  0.22531  1.0000
  H   H20       1.0  0.13535  0.19774  0.00914  1.0000
  H   H21       1.0  0.11330  0.25387  0.00617  1.0000
  H   H22       1.0  0.02628  0.48240  0.08683  1.0000
  H   H23       1.0  0.14862  0.25080  0.00780  1.0000
  N   N1        1.0  0.01988  0.50393  0.10409  1.0000
  H   H24       1.0  0.29317  0.13453  0.19891  1.0000
  H   H25       1.0  0.11659  0.28026  0.21021  1.0000
  C   C19       1.0  0.05666  0.35042  0.15829  1.0000
  C   C20       1.0  0.04989  0.32638  0.15872  1.0000
  C   C21       1.0  0.06263  0.31116  0.16458  1.0000
  C   C22       1.0  0.08176  0.32001  0.17027  1.0000
  C   C23       1.0  0.08801  0.34385  0.17017  1.0000
  C   C24       1.0  0.07567  0.35902  0.16407  1.0000
  H   H26       1.0  0.03517  0.31967  0.15429  1.0000
  H   H27       1.0  0.05761  0.29268  0.16478  1.0000
  H   H28       1.0  0.10274  0.35076  0.17457  1.0000
  H   H29       1.0  0.08097  0.37757  0.16373  1.0000
  H   H30       1.0  0.29268  0.06604  0.17214  1.0000
  C   C25       1.0  0.01870  0.20420  0.23118  1.0000
  H   H31       1.0  0.02226  0.44242  0.16417  1.0000
  H   H32       1.0  0.99687  0.27489  0.20729  1.0000
  H   H33       1.0  0.30481  0.19880  0.19368  1.0000
  C   C26       1.0  0.09885  0.21042  0.02464  1.0000
  H   H34       1.0  0.30253  0.09703  0.17111  1.0000
  H   H35       1.0  0.16634  0.14447  0.17711  1.0000
  C   C27       1.0  0.07269  0.20832  0.02964  1.0000
  H   H36       1.0  0.12524  0.13711  0.23085  1.0000
  H   H37       1.0  0.06408  0.25548  0.22788  1.0000
  C   C28       1.0  0.17794  0.23628  0.12247  1.0000
  H   H38       1.0  0.01432  0.27826  0.23158  1.0000
  H   H39       1.0  0.02542  0.31761  0.21972  1.0000
  H   H40       1.0  0.16926  0.24605  0.11417  1.0000
  C   C29       1.0  0.06283  0.20123  0.04913  1.0000
  H   H41       1.0  0.06531  0.18391  0.05501  1.0000
  H   H42       1.0  0.10707  0.22374  0.03063  1.0000
  H   H43       1.0  0.10146  0.19344  0.03119  1.0000
  C   C30       1.0  0.30959  0.26486  0.13750  1.0000
  C   C31       1.0  0.26583  0.06110  0.21668  1.0000
  H   H44       1.0  0.28886  0.27769  0.09476  1.0000
  S   S13       1.0  0.30449  0.28927  0.14428  1.0000
  H   H45       1.0  0.29819  0.10174  0.11626  1.0000
  C   C32       1.0  0.24151  0.24091  0.15169  1.0000
  Fe  Fe7       1.0  0.32500  0.05622  0.03728  1.0000
  H   H46       1.0  0.06954  0.22553  0.02444  1.0000
  H   H47       1.0  0.00500  0.24773  0.20788  1.0000
  C   C33       1.0  0.29127  0.16869  0.03898  1.0000
  H   H48       1.0  0.30011  0.15100  0.09489  1.0000
  H   H49       1.0  0.24412  0.18281  0.16701  1.0000
  H   H50       1.0  0.30010  0.08343  0.20491  1.0000
  H   H51       1.0  0.24292  0.23851  0.10955  1.0000
  C   C34       1.0  0.09114  0.28176  0.23233  1.0000
  H   H52       1.0  0.28357  0.08083  0.04261  1.0000
  H   H53       1.0  0.10481  0.25287  0.22729  1.0000
  C   C35       1.0  0.30043  0.16845  0.05471  1.0000
  H   H54       1.0  0.07481  0.49620  0.12435  1.0000
  C   C36       1.0  0.21057  0.24074  0.13673  1.0000
  C   C37       1.0  0.30782  0.23814  0.03370  1.0000
  H   H55       1.0  0.07117  0.21498  0.05469  1.0000
  H   H56       1.0  0.04405  0.19943  0.05239  1.0000
  H   H57       1.0  0.30178  0.35396  0.16930  1.0000
  Fe  Fe8       1.0  0.28481  0.01321  0.05709  1.0000
  H   H58       1.0  0.32877  0.10468  0.22031  1.0000
  C   C38       1.0  0.27364  0.26472  0.09378  1.0000
  N   N2        1.0  0.05047  0.28524  0.23100  1.0000
  H   H59       1.0  0.28051  0.12778  0.24518  1.0000
  C   C39       1.0  0.05834  0.31170  0.22290  1.0000
  C   C40       1.0  0.02995  0.27349  0.22570  1.0000
  C   C41       1.0  0.07005  0.27513  0.22516  1.0000
  H   H60       1.0  0.29475  0.16907  0.22138  1.0000
  H   H61       1.0  0.31940  0.24661  0.10117  1.0000
  C   C42       1.0  0.03301  0.27842  0.20609  1.0000
  C   C43       1.0  0.30714  0.36337  0.15542  1.0000
  C   C44       1.0  0.10387  0.10888  0.22379  1.0000
  H   H62       1.0  0.32201  0.11862  0.18958  1.0000
  H   H63       1.0  0.02931  0.37588  0.18740  1.0000
  H   H64       1.0  0.27762  0.09725  0.20158  1.0000
  H   H65       1.0  0.03528  0.24590  0.00887  1.0000
  C   C45       1.0  0.02477  0.19206  0.00047  1.0000
  H   H66       1.0  0.06679  0.31586  0.20890  1.0000
  H   H67       1.0  0.14555  0.22547  0.02496  1.0000
  H   H68       1.0  0.12553  0.27741  0.22967  1.0000
  H   H69       1.0  0.29953  0.13002  0.02402  1.0000
  H   H70       1.0  0.07656  0.28111  0.21105  1.0000
  H   H71       1.0  0.17105  0.17630  0.17067  1.0000
  C   C46       1.0  0.31206  0.02357  0.22128  1.0000
  S   S14       1.0  0.31974  0.22987  0.21881  1.0000
  H   H72       1.0  0.04655  0.27097  0.20015  1.0000
  H   H73       1.0  0.03787  0.29768  0.19974  1.0000
  C   C47       1.0  0.04920  0.35119  0.21595  1.0000
  H   H74       1.0  0.12239  0.19258  0.20565  1.0000
  H   H75       1.0  0.30788  0.14421  0.11471  1.0000
  H   H76       1.0  0.00031  0.44331  0.08636  1.0000
  C   C48       1.0  0.24557  0.20143  0.16737  1.0000
  H   H77       1.0  0.01049  0.16773  0.19160  1.0000
  H   H78       1.0  0.09532  0.13280  0.23801  1.0000
  C   C49       1.0  0.15408  0.15953  0.19786  1.0000
  C   C50       1.0  0.29868  0.11444  0.00314  1.0000
  C   C51       1.0  0.31133  0.22404  0.12684  1.0000
  H   H79       1.0  0.18377  0.22315  0.11632  1.0000
  H   H80       1.0  0.02203  0.26652  0.06537  1.0000
  N   N3        1.0  0.27567  0.07943  0.09470  1.0000
  C   C52       1.0  0.28937  0.10484  0.09146  1.0000
  C   C53       1.0  0.27703  0.07381  0.07766  1.0000
  C   C54       1.0  0.25110  0.07629  0.10430  1.0000
  C   C55       1.0  0.28523  0.06256  0.10540  1.0000
  C   C56       1.0  0.31154  0.06626  0.09923  1.0000
  C   C57       1.0  0.29115  0.11324  0.10772  1.0000
  C   C58       1.0  0.23400  0.05176  0.10699  1.0000
  C   C59       1.0  0.26474  0.08684  0.06585  1.0000
  H   H81       1.0  0.31011  0.14447  0.23805  1.0000
  H   H82       1.0  0.06860  0.33362  0.10465  1.0000
  C   C60       1.0  0.30688  0.13849  0.10293  1.0000
  C   C61       1.0  0.20952  0.05078  0.11624  1.0000
  H   H83       1.0  0.28163  0.11704  0.08407  1.0000
  H   H84       1.0  0.30713  0.10823  0.08314  1.0000
  H   H85       1.0  0.29530  0.07841  0.07000  1.0000
  H   H86       1.0  0.27026  0.05435  0.07952  1.0000
  H   H87       1.0  0.24428  0.09042  0.09800  1.0000
  H   H88       1.0  0.25026  0.07852  0.11738  1.0000
  H   H89       1.0  0.28095  0.06302  0.11904  1.0000
  H   H90       1.0  0.27682  0.04404  0.10578  1.0000
  H   H91       1.0  0.07686  0.30115  0.09854  1.0000
  C   C62       1.0  0.00812  0.18823  0.03063  1.0000
  H   H92       1.0  0.27398  0.11330  0.11511  1.0000
  H   H93       1.0  0.10260  0.31346  0.11615  1.0000
  H   H94       1.0  0.23901  0.03768  0.11505  1.0000
  H   H95       1.0  0.23347  0.04753  0.09468  1.0000
  H   H96       1.0  0.24634  0.08389  0.07236  1.0000
  H   H97       1.0  0.27337  0.10619  0.06155  1.0000
  C   C63       1.0  0.99928  0.46453  0.16462  1.0000
  H   H98       1.0  0.28830  0.09674  0.01175  1.0000
  C   C64       1.0  0.29471  0.13384  0.01177  1.0000
  H   H99       1.0  0.02889  0.35522  0.10122  1.0000
  S   S15       1.0  0.29372  0.03770  0.03072  1.0000
  S   S16       1.0  0.31046  0.19812  0.12041  1.0000
  H   H100      1.0  0.27229  0.13365  0.21728  1.0000
  H   H101      1.0  0.20331  0.06423  0.10854  1.0000
  H   H102      1.0  0.00253  0.45192  0.11405  1.0000
  H   H103      1.0  0.20887  0.05385  0.12906  1.0000
  C   C65       1.0  0.22587  0.27498  0.14637  1.0000
  C   C66       1.0  0.24516  0.29122  0.15138  1.0000
  C   C67       1.0  0.23569  0.30829  0.16022  1.0000
  H   H104      1.0  0.21083  0.26706  0.15797  1.0000
  H   H105      1.0  0.22030  0.28717  0.13708  1.0000
  H   H106      1.0  0.25924  0.30208  0.13981  1.0000
  H   H107      1.0  0.25264  0.28089  0.16032  1.0000
  H   H108      1.0  0.22297  0.29830  0.17275  1.0000
  H   H109      1.0  0.24998  0.32088  0.16260  1.0000
  H   H110      1.0  0.22733  0.31871  0.15205  1.0000
  H   H111      1.0  0.12121  0.19866  0.24406  1.0000
  H   H112      1.0  0.30530  0.17645  0.18228  1.0000
  H   H113      1.0  0.09387  0.14867  0.18143  1.0000
  C   C68       1.0  0.30718  0.22300  0.14424  1.0000
  C   C69       1.0  0.03153  0.18780  0.23074  1.0000
  C   C70       1.0  0.23718  0.21403  0.15289  1.0000
  H   H114      1.0  0.06123  0.30357  0.13086  1.0000
  H   H115      1.0  0.00265  0.49392  0.08533  1.0000
  H   H116      1.0  0.09468  0.20684  0.24535  1.0000
  H   H117      1.0  0.07917  0.14002  0.00062  1.0000
  C   C71       1.0  0.26546  0.07794  0.04988  1.0000
  H   H118      1.0  0.30023  0.35119  0.14817  1.0000
  H   H119      1.0  0.19781  0.03293  0.11809  1.0000
  H   H120      1.0  0.29964  0.37856  0.15367  1.0000
  H   H121      1.0  0.29160  0.08255  0.23483  1.0000
  S   S17       1.0  0.28541  0.24718  0.00881  1.0000
  H   H122      1.0  0.32530  0.22980  0.05322  1.0000
  H   H123      1.0  0.32456  0.13940  0.09585  1.0000
  C   C72       1.0  0.08777  0.15222  0.20774  1.0000
  H   H124      1.0  0.00354  0.17619  0.15660  1.0000
  H   H125      1.0  0.27735  0.19628  0.01035  1.0000
  C   C73       1.0  0.01346  0.40030  0.19835  1.0000
  H   H126      1.0  0.18636  0.24514  0.01023  1.0000
  C   C74       1.0  0.11736  0.17693  0.21703  1.0000
  C   C75       1.0  0.08268  0.13840  0.19446  1.0000
  C   C76       1.0  0.05772  0.13470  0.19364  1.0000
  H   H127      1.0  0.31581  0.20015  0.02235  1.0000
  H   H128      1.0  0.31688  0.06681  0.08557  1.0000
  H   H129      1.0  0.28590  0.16077  0.06655  1.0000
  H   H130      1.0  0.12959  0.17122  0.18534  1.0000
  C   C77       1.0  0.32528  0.12186  0.21524  1.0000
  H   H131      1.0  0.07334  0.14461  0.21973  1.0000
  H   H132      1.0  0.08631  0.17017  0.20218  1.0000
  H   H133      1.0  0.31769  0.28281  0.11068  1.0000
  H   H134      1.0  0.03179  0.32300  0.23889  1.0000
  C   C78       1.0  0.28328  0.08562  0.21109  1.0000
  H   H135      1.0  0.12527  0.14032  0.19110  1.0000
  Fe  Fe9       1.0  0.31443  0.01383  0.02262  1.0000
  H   H136      1.0  0.16021  0.17618  0.20133  1.0000
  C   C79       1.0  0.15038  0.23255  0.01078  1.0000
  H   H137      1.0  0.32098  0.16828  0.20763  1.0000
  H   H138      1.0  0.31712  0.11468  0.00030  1.0000
  H   H139      1.0  0.31053  0.02900  0.10683  1.0000
  N   N4        1.0  0.11076  0.15425  0.21180  1.0000
  H   H140      1.0  0.04231  0.16071  0.24580  1.0000
  H   H141      1.0  0.05440  0.15204  0.18908  1.0000
  H   H142      1.0  0.05445  0.12417  0.18446  1.0000
  H   H143      1.0  0.04555  0.12507  0.20644  1.0000
  H   H144      1.0  0.26739  0.09387  0.23421  1.0000
  H   H145      1.0  0.10184  0.07271  0.23660  1.0000
  H   H146      1.0  0.32131  0.08305  0.10098  1.0000
  H   H147      1.0  0.13275  0.17783  0.22205  1.0000
  H   H148      1.0  0.25693  0.08768  0.04145  1.0000
  H   H149      1.0  0.23526  0.16203  0.00487  1.0000
  C   C80       1.0  0.03224  0.49246  0.11589  1.0000
  H   H150      1.0  0.18870  0.16387  0.18262  1.0000
  H   H151      1.0  0.05268  0.28101  0.05672  1.0000
  N   N5        1.0  0.03967  0.28716  0.10748  1.0000
  C   C81       1.0  0.03913  0.28697  0.08939  1.0000
  C   C82       1.0  0.03364  0.30906  0.11080  1.0000
  C   C83       1.0  0.02247  0.26562  0.12046  1.0000
  S   S18       1.0  0.01460  0.48303  0.17474  1.0000
  C   C84       1.0  0.05221  0.33299  0.10113  1.0000
  H   H152      1.0  0.27607  0.13245  0.01451  1.0000
  H   H153      1.0  0.15496  0.14442  0.20780  1.0000
  H   H154      1.0  0.02304  0.29039  0.08686  1.0000
  H   H155      1.0  0.01753  0.31035  0.10723  1.0000
  H   H156      1.0  0.02940  0.30784  0.12474  1.0000
  H   H157      1.0  0.02802  0.24938  0.11982  1.0000
  H   H158      1.0  0.02195  0.26698  0.13371  1.0000
  C   C85       1.0  0.31594  0.24574  0.11467  1.0000
  H   H159      1.0  0.32216  0.04332  0.16616  1.0000
  H   H160      1.0  0.02820  0.24814  0.09298  1.0000
  H   H161      1.0  0.05911  0.27252  0.13665  1.0000
  C   C86       1.0  0.10629  0.09062  0.23873  1.0000
  C   C87       1.0  0.06779  0.28954  0.12658  1.0000
  H   H162      1.0  0.01691  0.41982  0.19551  1.0000
  H   H163      1.0  0.05324  0.30187  0.08000  1.0000
  C   C88       1.0  0.10871  0.20261  0.23682  1.0000
  N   N6        1.0  0.30035  0.12040  0.22302  1.0000
  Fe  Fe10      1.0  0.30178  0.25480  0.20641  1.0000
  C   C89       1.0  0.06345  0.28711  0.10918  1.0000
  C   C90       1.0  0.03949  0.26541  0.06615  1.0000
  S   S19       1.0  0.00033  0.37888  0.12292  1.0000
  C   C91       1.0  0.04168  0.26410  0.08431  1.0000
  H   H164      1.0  0.04205  0.24913  0.06271  1.0000
  S   S20       1.0  0.27788  0.30382  0.18518  1.0000
  H   H165      1.0  0.08639  0.27394  0.24641  1.0000
  H   H166      1.0  0.06709  0.27027  0.10765  1.0000
  C   C92       1.0  0.12922  0.15614  0.19597  1.0000
  H   H167      1.0  0.24513  0.28099  0.11391  1.0000
  H   H168      1.0  0.26510  0.05419  0.20534  1.0000
  H   H169      1.0  0.04063  0.35173  0.11956  1.0000
  H   H170      1.0  0.05601  0.35385  0.20194  1.0000
  H   H171      1.0  0.07193  0.32040  0.22822  1.0000
  H   H172      1.0  0.05882  0.26160  0.08463  1.0000
  H   H173      1.0  0.19144  0.26677  0.13037  1.0000
  H   H174      1.0  0.99848  0.17722  0.04336  1.0000
  C   C93       1.0  0.09349  0.29585  0.12542  1.0000
  H   H175      1.0  0.10124  0.28229  0.12134  1.0000
  H   H176      1.0  0.09596  0.29673  0.13818  1.0000
  Fe  Fe11      1.0  0.00792  0.35831  0.14588  1.0000
  H   H177      1.0  0.27989  0.25244  0.08688  1.0000
  H   H178      1.0  0.21039  0.26307  0.11190  1.0000
  H   H179      1.0  0.27794  0.17843  0.04004  1.0000
  C   C94       1.0  0.30025  0.02077  0.20879  1.0000
  N   N7        1.0  0.23229  0.25565  0.13899  1.0000
  H   H180      1.0  0.26038  0.24867  0.14931  1.0000
  H   H181      1.0  0.23401  0.24162  0.16490  1.0000
  C   C95       1.0  0.19841  0.25376  0.12479  1.0000
  H   H182      1.0  0.09806  0.30125  0.22949  1.0000
  H   H183      1.0  0.01724  0.21457  0.21932  1.0000
  H   H184      1.0  0.19771  0.23242  0.14945  1.0000
  C   C96       1.0  0.04444  0.35385  0.10553  1.0000
  C   C97       1.0  0.99728  0.26110  0.11915  1.0000
  C   C98       1.0  0.31489  0.26616  0.12003  1.0000
  S   S21       1.0  0.31436  0.03360  0.06439  1.0000
  H   H185      1.0  0.29076  0.23025  0.04244  1.0000
  H   H186      1.0  0.06283  0.19472  0.02472  1.0000
  H   H187      1.0  0.26378  0.21038  0.16609  1.0000
  H   H188      1.0  0.25630  0.05869  0.05348  1.0000
  H   H189      1.0  0.00664  0.13658  0.20039  1.0000
  H   H190      1.0  0.28276  0.15015  0.03964  1.0000
  C   C99       1.0  0.25784  0.25059  0.11157  1.0000
  H   H191      1.0  0.04560  0.48594  0.10849  1.0000
  C   C100      1.0  0.25053  0.26730  0.12216  1.0000
  H   H192      1.0  0.08451  0.16779  0.01832  1.0000
  H   H193      1.0  0.21380  0.22573  0.13177  1.0000
  H   H194      1.0  0.26664  0.27727  0.12435  1.0000
  H   H195      1.0  0.23497  0.20130  0.18003  1.0000
  C   C101      1.0  0.30666  0.24352  0.14955  1.0000
  H   H196      1.0  0.30340  0.24263  0.16298  1.0000
  H   H197      1.0  0.08588  0.12083  0.19732  1.0000
  C   C102      1.0  0.01604  0.21279  0.02766  1.0000
  C   C103      1.0  0.17581  0.23421  0.00390  1.0000
  Fe  Fe12      1.0  0.30475  0.30673  0.19954  1.0000
  C   C104      1.0  0.13497  0.21594  0.00311  1.0000
  C   C105      1.0  0.30980  0.15854  0.00019  1.0000
  C   C106      1.0  0.06011  0.49702  0.13433  1.0000
  H   H198      1.0  0.03533  0.36007  0.21797  1.0000
  H   H199      1.0  0.02553  0.25398  0.23082  1.0000
  H   H200      1.0  0.05832  0.37062  0.09894  1.0000
  H   H201      1.0  0.01579  0.39356  0.21119  1.0000
  C   C107      1.0  0.17100  0.16109  0.18101  1.0000
  C   C108      1.0  0.31027  0.24854  0.01631  1.0000
  C   C109      1.0  0.09461  0.17385  0.00467  1.0000
  N   N8        1.0  0.30479  0.17985  0.00539  1.0000
  C   C110      1.0  0.29124  0.13731  0.21187  1.0000
  H   H202      1.0  0.32603  0.17486  0.02287  1.0000
  H   H203      1.0  0.26755  0.23996  0.11812  1.0000
  H   H204      1.0  0.26418  0.27437  0.08614  1.0000
  H   H205      1.0  0.09090  0.16586  0.24220  1.0000
  H   H206      1.0  0.00655  0.15889  0.01938  1.0000
  S   S22       1.0  0.32166  0.34213  0.20281  1.0000
  H   H207      1.0  0.30730  0.08782  0.15168  1.0000
  H   H208      1.0  0.11567  0.10819  0.21195  1.0000
  H   H209      1.0  0.26795  0.16501  0.01746  1.0000
  C   C111      1.0  0.03186  0.39528  0.18526  1.0000
  C   C112      1.0  0.01265  0.17790  0.01707  1.0000
  H   H210      1.0  0.31334  0.04443  0.12313  1.0000
  C   C113      1.0  0.10916  0.13391  0.22664  1.0000
  C   C114      1.0  0.09858  0.18129  0.23076  1.0000
  C   C115      1.0  0.28007  0.17997  0.00687  1.0000
  C   C116      1.0  0.11067  0.27246  0.22435  1.0000
  H   H211      1.0  0.24835  0.06203  0.22273  1.0000
  C   C117      1.0  0.99744  0.15026  0.19787  1.0000
  C   C118      1.0  0.03285  0.17379  0.24607  1.0000
  C   C119      1.0  0.03941  0.32476  0.22517  1.0000
  H   H212      1.0  0.30921  0.18676  0.05456  1.0000
  H   H213      1.0  0.04926  0.40340  0.18639  1.0000
  C   C120      1.0  0.00698  0.20635  0.24703  1.0000
  H   H214      1.0  0.03117  0.40295  0.17202  1.0000
  H   H215      1.0  0.32072  0.00536  0.24324  1.0000
  C   C121      1.0  0.31863  0.04602  0.10919  1.0000
  H   H216      1.0  0.06323  0.35956  0.22103  1.0000
  C   C122      1.0  0.01132  0.48637  0.09465  1.0000
  C   C123      1.0  0.01069  0.26721  0.20217  1.0000
  H   H217      1.0  0.08577  0.10323  0.22321  1.0000
  H   H218      1.0  0.12431  0.09488  0.23973  1.0000
  S   S23       1.0  0.32453  0.28666  0.18541  1.0000
  H   H219      1.0  0.31268  0.15757  0.05508  1.0000
  C   C124      1.0  0.32735  0.23772  0.03981  1.0000
  H   H220      1.0  0.05085  0.47885  0.14267  1.0000
  C   C125      1.0  0.02902  0.22689  0.01118  1.0000
  S   S24       1.0  0.32678  0.05259  0.22106  1.0000
  H   H221      1.0  0.01350  0.27088  0.18806  1.0000
  S   S25       1.0  0.01021  0.22620  0.04434  1.0000
  C   C126      1.0  0.28516  0.09541  0.22671  1.0000
  H   H222      1.0  0.27100  0.04843  0.22594  1.0000
  N   N9        1.0  0.11046  0.21728  0.00568  1.0000
  H   H223      1.0  0.02015  0.47659  0.12584  1.0000
  S   S26       1.0  0.31532  0.00481  0.99745  1.0000
  C   C127      1.0  0.03334  0.21656  0.99757  1.0000
  H   H224      1.0  0.32783  0.15845  0.99986  1.0000
  H   H225      1.0  0.32827  0.07512  0.18170  1.0000
  H   H226      1.0  0.99616  0.25998  0.10619  1.0000
  C   C128      1.0  0.10963  0.24207  0.99781  1.0000
  H   H227      1.0  0.24336  0.19413  0.99811  1.0000
  C   C129      1.0  0.16362  0.39773  0.45987  1.0000
  H   H228      1.0  0.00970  0.25303  0.41096  1.0000
  H   H229      1.0  0.17434  0.41170  0.44802  1.0000
  C   C130      1.0  0.18378  0.27563  0.47388  1.0000
  H   H230      1.0  0.04409  0.44097  0.44618  1.0000
  H   H231      1.0  0.01631  0.35016  0.27282  1.0000
  H   H232      1.0  0.04497  0.26584  0.49359  1.0000
  H   H233      1.0  0.03687  0.40967  0.45202  1.0000
  S   S27       1.0  0.32027  0.02700  0.47165  1.0000
  C   C131      1.0  0.32437  0.32932  0.25829  1.0000
  H   H234      1.0  0.02232  0.32315  0.26969  1.0000
  H   H235      1.0  0.17823  0.44355  0.48924  1.0000
  C   C132      1.0  0.30370  0.03651  0.42602  1.0000
  H   H236      1.0  0.01676  0.30275  0.41675  1.0000
  S   S28       1.0  0.06465  0.34511  0.47118  1.0000
  H   H237      1.0  0.22979  0.20080  0.49301  1.0000
  Fe  Fe13      1.0  0.01679  0.35249  0.39146  1.0000
  H   H238      1.0  0.15514  0.39128  0.48721  1.0000
  S   S29       1.0  0.04970  0.34744  0.39740  1.0000
  H   H239      1.0  0.29073  0.09198  0.25883  1.0000
  H   H240      1.0  0.23914  0.42635  0.46286  1.0000
  H   H241      1.0  0.00586  0.40473  0.47640  1.0000
  H   H242      1.0  0.02608  0.26021  0.28563  1.0000
  H   H243      1.0  0.26980  0.34666  0.44988  1.0000
  C   C133      1.0  0.03732  0.24806  0.49321  1.0000
  S   S30       1.0  0.01482  0.38149  0.37003  1.0000
  H   H244      1.0  0.29150  0.30909  0.28897  1.0000
  C   C134      1.0  0.01616  0.42327  0.46955  1.0000
  C   C135      1.0  0.02955  0.48326  0.38262  1.0000
  C   C136      1.0  0.21599  0.28233  0.48827  1.0000
  C   C137      1.0  0.23248  0.23741  0.49305  1.0000
  H   H245      1.0  0.28682  0.33579  0.43453  1.0000
  C   C138      1.0  0.01768  0.44233  0.38144  1.0000
  C   C139      1.0  0.03499  0.46355  0.37821  1.0000
  H   H246      1.0  0.01517  0.41282  0.41498  1.0000
  H   H247      1.0  0.10243  0.38246  0.47477  1.0000
  H   H248      1.0  0.02217  0.42709  0.37835  1.0000
  H   H249      1.0  0.05278  0.46449  0.37268  1.0000
  C   C140      1.0  0.06026  0.34486  0.45085  1.0000
  C   C141      1.0  0.04137  0.35151  0.44665  1.0000
  C   C142      1.0  0.03758  0.35170  0.43049  1.0000
  C   C143      1.0  0.05305  0.34596  0.41821  1.0000
  C   C144      1.0  0.07195  0.33937  0.42240  1.0000
  C   C145      1.0  0.07544  0.33861  0.43869  1.0000
  H   H250      1.0  0.02963  0.35645  0.45596  1.0000
  H   H251      1.0  0.02296  0.35670  0.42742  1.0000
  H   H252      1.0  0.08407  0.33501  0.41295  1.0000
  H   H253      1.0  0.09023  0.33381  0.44165  1.0000
  C   C146      1.0  0.26953  0.29449  0.32333  1.0000
  H   H254      1.0  0.27976  0.27031  0.30982  1.0000
  C   C147      1.0  0.02907  0.42477  0.45091  1.0000
  H   H255      1.0  0.30918  0.10722  0.27953  1.0000
  C   C148      1.0  0.04371  0.28068  0.25023  1.0000
  N   N10       1.0  0.24047  0.28295  0.48848  1.0000
  H   H256      1.0  0.21164  0.29802  0.49169  1.0000
  H   H257      1.0  0.25887  0.22001  0.48551  1.0000
  H   H258      1.0  0.30350  0.21823  0.28822  1.0000
  H   H259      1.0  0.25880  0.27997  0.33486  1.0000
  H   H260      1.0  0.02853  0.28716  0.25447  1.0000
  C   C149      1.0  0.06123  0.41432  0.40196  1.0000
  H   H261      1.0  0.24266  0.45157  0.47166  1.0000
  C   C150      1.0  0.01424  0.33134  0.27928  1.0000
  H   H262      1.0  0.22549  0.35393  0.45762  1.0000
  H   H263      1.0  0.32100  0.10692  0.24949  1.0000
  C   C151      1.0  0.24190  0.43250  0.47416  1.0000
  H   H264      1.0  0.28500  0.23597  0.28224  1.0000
  C   C152      1.0  0.99761  0.23357  0.33971  1.0000
  H   H265      1.0  0.17591  0.25674  0.48128  1.0000
  H   H266      1.0  0.06239  0.43187  0.42189  1.0000
  H   H267      1.0  0.00348  0.48749  0.35220  1.0000
  H   H268      1.0  0.31630  0.13711  0.26627  1.0000
  H   H269      1.0  0.00318  0.29718  0.31027  1.0000
  C   C153      1.0  0.23007  0.35693  0.48227  1.0000
  C   C154      1.0  0.26715  0.30890  0.45823  1.0000
  H   H270      1.0  0.99742  0.23913  0.45831  1.0000
  H   H271      1.0  0.05590  0.25975  0.27940  1.0000
  H   H272      1.0  0.10346  0.41319  0.46833  1.0000
  C   C155      1.0  0.03489  0.27196  0.43422  1.0000
  Fe  Fe14      1.0  0.13862  0.32058  0.47578  1.0000
  H   H273      1.0  0.00005  0.37926  0.45987  1.0000
  H   H274      1.0  0.20636  0.45445  0.47526  1.0000
  C   C156      1.0  0.04379  0.26341  0.44992  1.0000
  S   S31       1.0  0.17676  0.33487  0.46273  1.0000
  H   H275      1.0  0.25355  0.30317  0.45203  1.0000
  C   C157      1.0  0.01752  0.20242  0.49138  1.0000
  C   C158      1.0  0.00379  0.21775  0.49334  1.0000
  C   C159      1.0  0.06955  0.26568  0.44434  1.0000
  H   H276      1.0  0.02312  0.16578  0.27364  1.0000
  N   N11       1.0  0.01510  0.42454  0.43802  1.0000
  H   H277      1.0  0.01886  0.24563  0.26091  1.0000
  H   H278      1.0  0.02201  0.30083  0.44887  1.0000
  H   H279      1.0  0.04621  0.29018  0.42711  1.0000
  H   H280      1.0  0.03824  0.26038  0.42571  1.0000
  C   C160      1.0  0.28074  0.33448  0.44839  1.0000
  H   H281      1.0  0.24829  0.26427  0.46918  1.0000
  C   C161      1.0  0.10011  0.39785  0.47959  1.0000
  H   H282      1.0  0.05161  0.44539  0.40496  1.0000
  C   C162      1.0  0.00608  0.28391  0.42134  1.0000
  H   H283      1.0  0.00787  0.22862  0.34866  1.0000
  H   H284      1.0  0.03470  0.24451  0.45664  1.0000
  H   H285      1.0  0.04141  0.27416  0.45914  1.0000
  H   H286      1.0  0.31824  0.31457  0.25280  1.0000
  H   H287      1.0  0.30894  0.32252  0.30054  1.0000
  C   C163      1.0  0.00653  0.48205  0.38956  1.0000
  C   C164      1.0  0.03308  0.43115  0.47962  1.0000
  H   H288      1.0  0.17593  0.28690  0.48094  1.0000
  H   H289      1.0  0.00220  0.49727  0.39286  1.0000
  H   H290      1.0  0.01882  0.49643  0.42055  1.0000
  H   H291      1.0  0.26980  0.43676  0.48661  1.0000
  H   H292      1.0  0.27927  0.29787  0.45668  1.0000
  C   C165      1.0  0.19298  0.34172  0.47702  1.0000
  H   H293      1.0  0.29198  0.02608  0.43884  1.0000
  H   H294      1.0  0.07307  0.25478  0.43536  1.0000
  H   H295      1.0  0.07954  0.28451  0.43806  1.0000
  H   H296      1.0  0.07550  0.25934  0.45574  1.0000
  H   H297      1.0  0.99881  0.49808  0.43926  1.0000
  C   C166      1.0  0.31453  0.25467  0.28933  1.0000
  C   C167      1.0  0.19240  0.40949  0.47640  1.0000
  H   H298      1.0  0.03285  0.23261  0.28615  1.0000
  H   H299      1.0  0.03285  0.46065  0.42246  1.0000
  H   H300      1.0  0.00280  0.27493  0.46419  1.0000
  N   N12       1.0  0.00993  0.27204  0.43806  1.0000
  H   H301      1.0  0.31263  0.23983  0.26764  1.0000
  H   H302      1.0  0.00539  0.44870  0.41971  1.0000
  C   C168      1.0  0.04081  0.20950  0.49099  1.0000
  S   S32       1.0  0.31088  0.30398  0.49643  1.0000
  H   H303      1.0  0.20295  0.42205  0.46385  1.0000
  S   S33       1.0  0.12107  0.34397  0.48807  1.0000
  S   S34       1.0  0.99607  0.32369  0.38309  1.0000
  C   C169      1.0  0.20990  0.28250  0.47110  1.0000
  N   N13       1.0  0.19840  0.41847  0.49106  1.0000
  H   H304      1.0  0.27264  0.31040  0.48250  1.0000
  H   H305      1.0  0.21425  0.23523  0.49286  1.0000
  H   H306      1.0  0.10639  0.30815  0.29938  1.0000
  Fe  Fe15      1.0  0.09035  0.32707  0.47988  1.0000
  C   C170      1.0  0.24770  0.26281  0.48282  1.0000
  H   H307      1.0  0.16137  0.42176  0.47536  1.0000
  C   C171      1.0  0.03684  0.25422  0.26063  1.0000
  H   H308      1.0  0.02358  0.42824  0.49320  1.0000
  S   S35       1.0  0.10917  0.30650  0.46525  1.0000
  H   H309      1.0  0.01000  0.18479  0.49050  1.0000
  H   H310      1.0  0.26570  0.41127  0.47808  1.0000
  C   C172      1.0  0.01370  0.24069  0.49413  1.0000
  Fe  Fe16      1.0  0.09577  0.27820  0.49027  1.0000
  H   H311      1.0  0.28644  0.12023  0.27584  1.0000
  H   H312      1.0  0.99723  0.44483  0.35122  1.0000
  S   S36       1.0  0.08000  0.24010  0.49185  1.0000
  C   C173      1.0  0.25719  0.30645  0.47758  1.0000
  H   H313      1.0  0.04827  0.28528  0.39808  1.0000
  C   C174      1.0  0.02591  0.41444  0.42416  1.0000
  H   H314      1.0  0.04984  0.40913  0.39386  1.0000
  C   C175      1.0  0.16688  0.40539  0.47584  1.0000
  H   H315      1.0  0.02639  0.39616  0.42986  1.0000
  H   H316      1.0  0.19663  0.39235  0.47658  1.0000
  Fe  Fe17      1.0  0.32095  0.39129  0.48210  1.0000
  H   H317      1.0  0.05117  0.19730  0.48984  1.0000
  H   H318      1.0  0.01769  0.33942  0.30277  1.0000
  N   N14       1.0  0.03547  0.29925  0.31691  1.0000
  C   C176      1.0  0.03885  0.31925  0.32533  1.0000
  C   C177      1.0  0.02200  0.30388  0.30389  1.0000
  C   C178      1.0  0.02144  0.27678  0.33075  1.0000
  C   C179      1.0  0.05804  0.29536  0.30877  1.0000
  C   C180      1.0  0.07542  0.31645  0.29439  1.0000
  C   C181      1.0  0.05080  0.31633  0.34001  1.0000
  C   C182      1.0  0.01224  0.25469  0.32457  1.0000
  C   C183      1.0  0.02564  0.33005  0.29399  1.0000
  C   C184      1.0  0.30386  0.10951  0.25426  1.0000
  C   C185      1.0  0.09837  0.31102  0.28860  1.0000
  C   C186      1.0  0.05419  0.33838  0.34666  1.0000
  C   C187      1.0  0.32639  0.02991  0.42321  1.0000
  H   H319      1.0  0.02182  0.32173  0.33082  1.0000
  H   H320      1.0  0.04880  0.33643  0.31587  1.0000
  H   H321      1.0  0.02514  0.29371  0.29433  1.0000
  H   H322      1.0  0.09445  0.09014  0.25101  1.0000
  H   H323      1.0  0.22335  0.39897  0.49253  1.0000
  H   H324      1.0  0.03166  0.27127  0.33962  1.0000
  H   H325      1.0  0.06677  0.28965  0.31869  1.0000
  H   H326      1.0  0.05495  0.28042  0.30288  1.0000
  H   H327      1.0  0.07906  0.33281  0.29868  1.0000
  H   H328      1.0  0.06868  0.31968  0.28300  1.0000
  H   H329      1.0  0.04010  0.30111  0.35105  1.0000
  H   H330      1.0  0.06802  0.31371  0.33555  1.0000
  H   H331      1.0  0.02661  0.24912  0.31769  1.0000
  C   C188      1.0  0.03327  0.28482  0.39273  1.0000
  H   H332      1.0  0.16843  0.38104  0.45979  1.0000
  H   H333      1.0  0.04405  0.34002  0.28855  1.0000
  H   H334      1.0  0.04589  0.42088  0.47921  1.0000
  H   H335      1.0  0.29512  0.03316  0.41593  1.0000
  C   C189      1.0  0.03805  0.25171  0.27908  1.0000
  H   H336      1.0  0.11042  0.32624  0.27807  1.0000
  H   H337      1.0  0.27901  0.44062  0.46381  1.0000
  H   H338      1.0  0.09585  0.29501  0.28377  1.0000
  H   H339      1.0  0.06599  0.35412  0.33645  1.0000
  H   H340      1.0  0.03742  0.34206  0.35108  1.0000
  H   H341      1.0  0.06179  0.33559  0.35767  1.0000
  H   H342      1.0  0.00064  0.23510  0.43776  1.0000
  H   H343      1.0  0.99713  0.49158  0.33206  1.0000
  H   H344      1.0  0.21696  0.30071  0.46230  1.0000
  H   H345      1.0  0.23950  0.22135  0.47194  1.0000
  H   H346      1.0  0.26575  0.26393  0.48348  1.0000
  H   H347      1.0  0.25819  0.29944  0.31527  1.0000
  H   H348      1.0  0.03512  0.27560  0.38247  1.0000
  H   H349      1.0  0.29611  0.34015  0.45302  1.0000
  H   H350      1.0  0.14530  0.39454  0.45972  1.0000
  C   C190      1.0  0.00610  0.28627  0.45090  1.0000
  C   C191      1.0  0.21701  0.35102  0.47103  1.0000
  H   H351      1.0  0.24922  0.32109  0.47864  1.0000
  C   C192      1.0  0.05102  0.42826  0.41349  1.0000
  H   H352      1.0  0.21651  0.26995  0.46480  1.0000
  H   H353      1.0  0.06368  0.39814  0.40979  1.0000
  H   H354      1.0  0.06379  0.38740  0.48301  1.0000
  C   C193      1.0  0.30391  0.11919  0.26989  1.0000
  H   H355      1.0  0.30711  0.05563  0.42550  1.0000
  H   H356      1.0  0.07832  0.42544  0.39337  1.0000
  S   S37       1.0  0.29221  0.36061  0.48269  1.0000
  H   H357      1.0  0.05768  0.29114  0.25441  1.0000
  C   C194      1.0  0.24073  0.21883  0.48535  1.0000
  C   C195      1.0  0.30319  0.23610  0.28134  1.0000
  C   C196      1.0  0.26550  0.43012  0.47583  1.0000
  C   C197      1.0  0.05080  0.23227  0.49196  1.0000
  C   C198      1.0  0.22270  0.41756  0.49068  1.0000
  H   H358      1.0  0.24848  0.36475  0.47740  1.0000
  H   H359      1.0  0.17975  0.27820  0.46130  1.0000
  H   H360      1.0  0.00116  0.25813  0.31597  1.0000
  C   C199      1.0  0.01509  0.44936  0.42950  1.0000
  C   C200      1.0  0.19636  0.44344  0.48845  1.0000
  C   C201      1.0  0.00876  0.19266  0.26236  1.0000
  H   H361      1.0  0.02703  0.37672  0.49200  1.0000
  H   H362      1.0  0.11284  0.40229  0.48689  1.0000
  H   H363      1.0  0.29912  0.27990  0.27646  1.0000
  H   H364      1.0  0.01744  0.46869  0.44893  1.0000
  C   C202      1.0  0.01043  0.27192  0.40648  1.0000
  C   C203      1.0  0.18212  0.33836  0.49433  1.0000
  H   H365      1.0  0.07375  0.40900  0.49390  1.0000
  H   H366      1.0  0.00913  0.33677  0.48951  1.0000
  H   H367      1.0  0.21657  0.49201  0.48333  1.0000
  H   H368      1.0  0.04228  0.45034  0.47412  1.0000
  H   H369      1.0  0.00628  0.28007  0.33880  1.0000
  C   C204      1.0  0.07552  0.39234  0.49082  1.0000
  H   H370      1.0  0.03371  0.30334  0.38683  1.0000
  H   H371      1.0  0.04794  0.24408  0.25515  1.0000
  C   C205      1.0  0.02186  0.17654  0.26182  1.0000
  H   H372      1.0  0.99715  0.31905  0.46803  1.0000
  H   H373      1.0  0.00326  0.25279  0.49533  1.0000
  C   C206      1.0  0.00532  0.46364  0.44131  1.0000
  C   C207      1.0  0.28843  0.28610  0.31334  1.0000
  H   H374      1.0  0.27722  0.31000  0.32761  1.0000
  C   C208      1.0  0.30339  0.30574  0.29696  1.0000
  H   H375      1.0  0.30931  0.33507  0.26386  1.0000
  H   H376      1.0  0.30457  0.25022  0.30292  1.0000
  H   H377      1.0  0.00414  0.43433  0.47012  1.0000
  C   C209      1.0  0.00271  0.48656  0.43083  1.0000
  H   H378      1.0  0.29880  0.28091  0.32209  1.0000
  C   C210      1.0  0.31603  0.28009  0.27918  1.0000
  H   H379      1.0  0.32809  0.28271  0.26650  1.0000
  N   N15       1.0  0.32385  0.30037  0.28673  1.0000
  H   H380      1.0  0.99640  0.27214  0.40005  1.0000
  H   H381      1.0  0.18636  0.48414  0.49487  1.0000
  C   C211      1.0  0.20366  0.48273  0.49589  1.0000
  H   H382      1.0  0.99657  0.21852  0.24740  1.0000
  H   H383      1.0  0.03303  0.27713  0.74490  1.0000
  H   H384      1.0  0.04720  0.46879  0.67210  1.0000
  H   H385      1.0  0.29589  0.28713  0.68728  1.0000
  H   H386      1.0  0.28352  0.33451  0.64112  1.0000
  H   H387      1.0  0.16543  0.40761  0.51033  1.0000
  C   C212      1.0  0.03692  0.45886  0.66509  1.0000
  H   H388      1.0  0.12751  0.45771  0.60666  1.0000
  S   S38       1.0  0.11139  0.31334  0.53757  1.0000
  H   H389      1.0  0.05448  0.46977  0.56736  1.0000
  C   C213      1.0  0.04940  0.31113  0.55430  1.0000
  S   S39       1.0  0.04591  0.35372  0.58321  1.0000
  S   S40       1.0  0.09859  0.40680  0.55507  1.0000
  H   H390      1.0  0.09624  0.40664  0.62327  1.0000
  Fe  Fe18      1.0  0.12884  0.33263  0.68614  1.0000
  S   S41       1.0  0.13437  0.29680  0.69467  1.0000
  S   S42       1.0  0.13210  0.35216  0.65885  1.0000
  Fe  Fe19      1.0  0.11848  0.33822  0.72245  1.0000
  Fe  Fe20      1.0  0.31589  0.37546  0.52009  1.0000
  Fe  Fe21      1.0  0.15419  0.31349  0.71105  1.0000
  S   S43       1.0  0.18763  0.30571  0.71376  1.0000
  Fe  Fe22      1.0  0.10318  0.28954  0.71687  1.0000
  S   S44       1.0  0.07172  0.25777  0.72506  1.0000
  S   S45       1.0  0.15093  0.34987  0.70087  1.0000
  S   S46       1.0  0.09628  0.32416  0.70681  1.0000
  H   H391      1.0  0.10388  0.42098  0.66335  1.0000
  H   H392      1.0  0.02361  0.38195  0.53292  1.0000
  C   C214      1.0  0.08000  0.48501  0.59775  1.0000
  C   C215      1.0  0.21950  0.30872  0.66692  1.0000
  S   S47       1.0  0.30077  0.33385  0.72827  1.0000
  H   H393      1.0  0.00445  0.24315  0.57834  1.0000
  S   S48       1.0  0.28667  0.34329  0.52421  1.0000
  H   H394      1.0  0.22097  0.30379  0.51436  1.0000
  C   C216      1.0  0.24059  0.32621  0.66844  1.0000
  H   H395      1.0  0.20862  0.29756  0.67982  1.0000
  H   H396      1.0  0.01342  0.18394  0.55233  1.0000
  H   H397      1.0  0.22327  0.30174  0.73012  1.0000
  C   C217      1.0  0.02876  0.35060  0.51456  1.0000
  S   S49       1.0  0.07580  0.29802  0.50456  1.0000
  H   H398      1.0  0.27329  0.36167  0.66730  1.0000
  H   H399      1.0  0.25445  0.33147  0.73463  1.0000
  H   H400      1.0  0.20891  0.31861  0.66074  1.0000
  C   C218      1.0  0.21004  0.32761  0.71617  1.0000
  C   C219      1.0  0.22548  0.32045  0.72486  1.0000
  C   C220      1.0  0.24337  0.33731  0.72726  1.0000
  C   C221      1.0  0.24646  0.36153  0.72055  1.0000
  C   C222      1.0  0.23102  0.36876  0.71180  1.0000
  C   C223      1.0  0.21291  0.35184  0.70956  1.0000
  C   C224      1.0  0.07430  0.50202  0.60583  1.0000
  H   H401      1.0  0.01874  0.29771  0.72198  1.0000
  H   H402      1.0  0.06457  0.38481  0.64623  1.0000
  H   H403      1.0  0.20126  0.35750  0.70262  1.0000
  H   H404      1.0  0.03854  0.39832  0.51157  1.0000
  H   H405      1.0  0.24359  0.30527  0.69149  1.0000
  C   C225      1.0  0.32766  0.45062  0.53250  1.0000
  C   C226      1.0  0.06774  0.33620  0.63967  1.0000
  C   C227      1.0  0.08678  0.35551  0.63035  1.0000
  C   C228      1.0  0.10619  0.36057  0.63659  1.0000
  C   C229      1.0  0.10686  0.34617  0.65205  1.0000
  C   C230      1.0  0.08785  0.32682  0.66139  1.0000
  C   C231      1.0  0.06835  0.32185  0.65519  1.0000
  H   H406      1.0  0.08679  0.36620  0.61815  1.0000
  H   H407      1.0  0.12087  0.37551  0.62933  1.0000
  H   H408      1.0  0.08829  0.31543  0.67324  1.0000
  N   N16       1.0  0.27840  0.32765  0.67824  1.0000
  H   H409      1.0  0.03732  0.24160  0.55947  1.0000
  H   H410      1.0  0.00461  0.37189  0.51126  1.0000
  H   H411      1.0  0.18659  0.34160  0.51887  1.0000
  H   H412      1.0  0.05689  0.21733  0.53296  1.0000
  H   H413      1.0  0.16359  0.33146  0.49910  1.0000
  H   H414      1.0  0.12913  0.43221  0.59874  1.0000
  H   H415      1.0  0.06686  0.37279  0.67892  1.0000
  C   C232      1.0  0.07062  0.37198  0.50726  1.0000
  S   S50       1.0  0.23483  0.36191  0.51385  1.0000
  H   H416      1.0  0.07757  0.26244  0.54271  1.0000
  C   C233      1.0  0.11153  0.34045  0.54220  1.0000
  C   C234      1.0  0.11828  0.36174  0.52918  1.0000
  C   C235      1.0  0.11564  0.38270  0.53320  1.0000
  C   C236      1.0  0.10617  0.38221  0.55020  1.0000
  C   C237      1.0  0.10074  0.36126  0.56324  1.0000
  C   C238      1.0  0.10332  0.34041  0.55924  1.0000
  H   H417      1.0  0.12508  0.36197  0.51605  1.0000
  H   H418      1.0  0.11993  0.39896  0.52310  1.0000
  H   H419      1.0  0.09386  0.36098  0.57641  1.0000
  H   H420      1.0  0.09760  0.32390  0.56927  1.0000
  C   C239      1.0  0.05250  0.42777  0.52887  1.0000
  C   C240      1.0  0.05497  0.32774  0.53632  1.0000
  H   H421      1.0  0.31448  0.33327  0.66573  1.0000
  C   C241      1.0  0.20346  0.45673  0.50140  1.0000
  H   H422      1.0  0.22484  0.29708  0.65903  1.0000
  C   C242      1.0  0.17459  0.39777  0.71844  1.0000
  H   H423      1.0  0.99784  0.16823  0.52434  1.0000
  Fe  Fe23      1.0  0.29957  0.37061  0.72877  1.0000
  H   H424      1.0  0.27121  0.31792  0.70588  1.0000
  S   S51       1.0  0.30069  0.40005  0.50459  1.0000
  C   C243      1.0  0.30011  0.36901  0.67990  1.0000
  C   C244      1.0  0.01944  0.36694  0.65825  1.0000
  H   H425      1.0  0.03587  0.33886  0.50748  1.0000
  H   H426      1.0  0.32061  0.35376  0.61928  1.0000
  C   C245      1.0  0.32795  0.07345  0.55080  1.0000
  H   H427      1.0  0.06537  0.46485  0.64330  1.0000
  C   C246      1.0  0.03739  0.30255  0.72128  1.0000
  N   N17       1.0  0.04738  0.36576  0.52010  1.0000
  H   H428      1.0  0.01504  0.33855  0.52606  1.0000
  C   C247      1.0  0.28784  0.28021  0.71456  1.0000
  H   H429      1.0  0.22438  0.27917  0.54116  1.0000
  N   N18       1.0  0.13448  0.32048  0.60258  1.0000
  C   C248      1.0  0.14286  0.30441  0.61492  1.0000
  C   C249      1.0  0.14167  0.31659  0.58506  1.0000
  C   C250      1.0  0.14487  0.34580  0.60236  1.0000
  C   C251      1.0  0.10857  0.31507  0.60801  1.0000
  C   C252      1.0  0.09491  0.28917  0.61007  1.0000
  C   C253      1.0  0.13376  0.30280  0.63422  1.0000
  C   C254      1.0  0.13879  0.36503  0.58982  1.0000
  C   C255      1.0  0.16781  0.32586  0.57574  1.0000
  C   C256      1.0  0.17289  0.31967  0.55862  1.0000
  C   C257      1.0  0.06902  0.28551  0.61674  1.0000
  C   C258      1.0  0.14349  0.28614  0.64537  1.0000
  C   C259      1.0  0.15320  0.38993  0.58841  1.0000
  H   H430      1.0  0.16200  0.31030  0.61178  1.0000
  H   H431      1.0  0.13863  0.28605  0.61350  1.0000
  H   H432      1.0  0.13633  0.29733  0.58589  1.0000
  H   H433      1.0  0.13250  0.32471  0.57636  1.0000
  H   H434      1.0  0.16395  0.34990  0.59972  1.0000
  H   H435      1.0  0.13911  0.34845  0.61524  1.0000
  H   H436      1.0  0.10280  0.31972  0.62017  1.0000
  H   H437      1.0  0.10256  0.32642  0.59849  1.0000
  H   H438      1.0  0.09983  0.27627  0.61926  1.0000
  H   H439      1.0  0.09795  0.28495  0.59753  1.0000
  H   H440      1.0  0.13895  0.32038  0.63664  1.0000
  H   H441      1.0  0.11470  0.29594  0.63878  1.0000
  H   H442      1.0  0.12043  0.36441  0.59453  1.0000
  H   H443      1.0  0.14173  0.36260  0.57674  1.0000
  H   H444      1.0  0.17395  0.34544  0.57290  1.0000
  H   H445      1.0  0.17801  0.31796  0.58363  1.0000
  H   H446      1.0  0.16264  0.32679  0.55037  1.0000
  H   H447      1.0  0.19148  0.32754  0.55173  1.0000
  H   H448      1.0  0.16867  0.30014  0.56073  1.0000
  H   H449      1.0  0.05947  0.26714  0.61756  1.0000
  H   H450      1.0  0.06485  0.28823  0.62977  1.0000
  H   H451      1.0  0.06304  0.29807  0.60803  1.0000
  H   H452      1.0  0.13653  0.28527  0.65906  1.0000
  H   H453      1.0  0.13840  0.26795  0.64382  1.0000
  H   H454      1.0  0.16258  0.29277  0.64199  1.0000
  H   H455      1.0  0.15046  0.39351  0.60118  1.0000
  H   H456      1.0  0.17180  0.39197  0.58305  1.0000
  H   H457      1.0  0.14793  0.40322  0.57972  1.0000
  C   C260      1.0  0.00609  0.23906  0.53947  1.0000
  H   H458      1.0  0.06605  0.39725  0.68833  1.0000
  H   H459      1.0  0.06420  0.43866  0.53452  1.0000
  C   C261      1.0  0.00889  0.19849  0.54414  1.0000
  H   H460      1.0  0.02265  0.44410  0.67442  1.0000
  H   H461      1.0  0.00850  0.29866  0.53249  1.0000
  H   H462      1.0  0.29568  0.30911  0.66230  1.0000
  H   H463      1.0  0.01855  0.47171  0.62743  1.0000
  H   H464      1.0  0.16983  0.31885  0.74583  1.0000
  S   S52       1.0  0.01993  0.43197  0.61378  1.0000
  C   C262      1.0  0.29727  0.32750  0.66336  1.0000
  S   S53       1.0  0.12716  0.28980  0.49916  1.0000
  C   C263      1.0  0.23850  0.29523  0.53332  1.0000
  H   H465      1.0  0.31469  0.40585  0.67876  1.0000
  H   H466      1.0  0.05737  0.32037  0.56272  1.0000
  H   H467      1.0  0.02802  0.35253  0.65930  1.0000
  H   H468      1.0  0.05145  0.42180  0.67465  1.0000
  C   C264      1.0  0.29925  0.39475  0.67653  1.0000
  H   H469      1.0  0.00965  0.48035  0.58893  1.0000
  C   C265      1.0  0.05216  0.49703  0.61664  1.0000
  H   H470      1.0  0.01821  0.28507  0.51583  1.0000
  H   H471      1.0  0.18012  0.41723  0.71255  1.0000
  H   H472      1.0  0.18093  0.35693  0.73528  1.0000
  H   H473      1.0  0.03764  0.21161  0.56296  1.0000
  C   C266      1.0  0.24177  0.28021  0.50678  1.0000
  H   H474      1.0  0.30830  0.32530  0.57076  1.0000
  H   H475      1.0  0.05197  0.24583  0.52642  1.0000
  C   C267      1.0  0.19030  0.39938  0.52406  1.0000
  H   H476      1.0  0.17770  0.38363  0.55149  1.0000
  H   H477      1.0  0.29152  0.43727  0.54673  1.0000
  H   H478      1.0  0.25640  0.00815  0.73945  1.0000
  S   S54       1.0  0.00678  0.36614  0.61060  1.0000
  H   H479      1.0  0.31937  0.28050  0.55472  1.0000
  C   C268      1.0  0.23795  0.30080  0.51458  1.0000
  C   C269      1.0  0.09076  0.43471  0.63565  1.0000
  C   C270      1.0  0.27773  0.35247  0.67868  1.0000
  H   H480      1.0  0.07359  0.33178  0.53003  1.0000
  H   H481      1.0  0.19926  0.39948  0.73293  1.0000
  H   H482      1.0  0.25532  0.29234  0.53443  1.0000
  H   H483      1.0  0.23613  0.31037  0.53851  1.0000
  H   H484      1.0  0.06795  0.45048  0.59373  1.0000
  H   H485      1.0  0.26553  0.27862  0.69805  1.0000
  C   C271      1.0  0.06353  0.46335  0.60020  1.0000
  H   H486      1.0  0.25676  0.29771  0.67301  1.0000
  H   H487      1.0  0.18378  0.38942  0.70950  1.0000
  H   H488      1.0  0.28694  0.26113  0.71656  1.0000
  Fe  Fe24      1.0  0.01459  0.36628  0.58271  1.0000
  H   H489      1.0  0.23418  0.33813  0.67567  1.0000
  S   S55       1.0  0.06217  0.39443  0.60305  1.0000
  H   H490      1.0  0.22867  0.26393  0.51552  1.0000
  H   H491      1.0  0.03978  0.49973  0.55131  1.0000
  Fe  Fe25      1.0  0.04016  0.35686  0.61020  1.0000
  H   H492      1.0  0.25071  0.33708  0.65538  1.0000
  C   C272      1.0  0.25503  0.31311  0.67811  1.0000
  C   C273      1.0  0.28349  0.31627  0.69455  1.0000
  H   H493      1.0  0.26360  0.35165  0.68980  1.0000
  H   H494      1.0  0.05375  0.30674  0.66239  1.0000
  C   C274      1.0  0.28273  0.28967  0.69757  1.0000
  Fe  Fe26      1.0  0.06531  0.39228  0.57610  1.0000
  S   S56       1.0  0.04343  0.32912  0.63188  1.0000
  C   C275      1.0  0.01272  0.26408  0.54209  1.0000
  H   H495      1.0  0.03046  0.30459  0.56009  1.0000
  H   H496      1.0  0.04303  0.32967  0.74478  1.0000
  C   C276      1.0  0.03494  0.22645  0.55371  1.0000
  H   H497      1.0  0.20831  0.49176  0.50556  1.0000
  C   C277      1.0  0.04078  0.38740  0.52333  1.0000
  C   C278      1.0  0.05495  0.23336  0.53707  1.0000
  H   H498      1.0  0.10400  0.44269  0.59955  1.0000
  C   C279      1.0  0.04870  0.35117  0.53694  1.0000
  C   C280      1.0  0.04083  0.29637  0.73926  1.0000
  H   H499      1.0  0.02344  0.40144  0.66226  1.0000
  C   C281      1.0  0.00676  0.28184  0.52888  1.0000
  H   H500      1.0  0.15349  0.35884  0.74566  1.0000
  H   H501      1.0  0.03145  0.27051  0.54062  1.0000
  H   H502      1.0  0.03523  0.38249  0.67535  1.0000
  H   H503      1.0  0.07760  0.44461  0.66654  1.0000
  C   C282      1.0  0.04126  0.45857  0.61079  1.0000
  H   H504      1.0  0.02136  0.20332  0.53125  1.0000
  H   H505      1.0  0.31868  0.35152  0.57748  1.0000
  H   H506      1.0  0.05524  0.43755  0.51531  1.0000
  H   H507      1.0  0.05323  0.40700  0.63650  1.0000
  H   H508      1.0  0.04577  0.29242  0.71340  1.0000
  H   H509      1.0  0.16144  0.36877  0.53929  1.0000
  C   C283      1.0  0.05730  0.39953  0.64863  1.0000
  H   H510      1.0  0.05631  0.39561  0.54348  1.0000
  H   H511      1.0  0.02930  0.47114  0.65765  1.0000
  C   C284      1.0  0.17228  0.36521  0.74452  1.0000
  H   H512      1.0  0.09819  0.39610  0.65490  1.0000
  C   C285      1.0  0.05221  0.44931  0.65286  1.0000
  C   C286      1.0  0.07728  0.38966  0.68016  1.0000
  C   C287      1.0  0.03358  0.38838  0.66223  1.0000
  H   H513      1.0  0.30221  0.41697  0.53641  1.0000
  C   C288      1.0  0.31497  0.29066  0.52928  1.0000
  S   S57       1.0  0.10660  0.36357  0.73631  1.0000
  H   H514      1.0  0.10602  0.37491  0.68246  1.0000
  H   H515      1.0  0.09715  0.48871  0.58942  1.0000
  H   H516      1.0  0.05628  0.29572  0.55358  1.0000
  C   C289      1.0  0.17061  0.38638  0.54023  1.0000
  H   H517      1.0  0.04144  0.43976  0.64598  1.0000
  C   C290      1.0  0.05781  0.40396  0.52990  1.0000
  H   H518      1.0  0.06196  0.36124  0.54190  1.0000
  H   H519      1.0  0.15575  0.39122  0.72024  1.0000
  N   N19       1.0  0.07494  0.41809  0.65246  1.0000
  H   H520      1.0  0.03208  0.34695  0.54694  1.0000
  H   H521      1.0  0.20282  0.38873  0.52330  1.0000
  H   H522      1.0  0.30396  0.30156  0.53259  1.0000
  H   H523      1.0  0.28076  0.00826  0.52943  1.0000
  H   H524      1.0  0.22449  0.02753  0.74046  1.0000
  S   S58       1.0  0.12332  0.30303  0.73405  1.0000
  C   C291      1.0  0.08967  0.40685  0.66212  1.0000
  H   H525      1.0  0.08538  0.37104  0.70253  1.0000
  C   C292      1.0  0.09468  0.38350  0.68969  1.0000
  Fe  Fe27      1.0  0.02949  0.40383  0.60167  1.0000
  H   H526      1.0  0.03440  0.42503  0.53617  1.0000
  Fe  Fe28      1.0  0.27328  0.36706  0.50657  1.0000
  C   C293      1.0  0.32363  0.27869  0.54181  1.0000
  H   H527      1.0  0.01277  0.21774  0.58752  1.0000
  C   C294      1.0  0.99877  0.22362  0.58299  1.0000
  N   N20       1.0  0.01090  0.21945  0.55164  1.0000
  C   C295      1.0  0.31245  0.33185  0.58163  1.0000
  H   H528      1.0  0.15825  0.39701  0.54230  1.0000
  H   H529      1.0  0.10548  0.39964  0.69160  1.0000
  H   H530      1.0  0.01730  0.37193  0.64512  1.0000
  C   C296      1.0  0.07790  0.24526  0.53985  1.0000
  H   H531      1.0  0.29655  0.44247  0.52384  1.0000
  H   H532      1.0  0.01508  0.24060  0.52609  1.0000
  C   C297      1.0  0.06422  0.43296  0.66251  1.0000
  S   S59       1.0  0.26921  0.38297  0.72311  1.0000
  C   C298      1.0  0.19519  0.34412  0.50556  1.0000
  Fe  Fe29      1.0  0.10849  0.31255  0.51111  1.0000
  H   H533      1.0  0.00208  0.36009  0.66754  1.0000
  H   H534      1.0  0.08460  0.37689  0.51342  1.0000
  C   C299      1.0  0.21921  0.35327  0.49962  1.0000
  H   H535      1.0  0.00240  0.10846  0.72133  1.0000
  H   H536      1.0  0.23320  0.38748  0.70664  1.0000
  H   H537      1.0  0.04579  0.31795  0.52882  1.0000
  C   C300      1.0  0.10630  0.42369  0.62435  1.0000
  C   C301      1.0  0.30302  0.43594  0.53493  1.0000
  C   C302      1.0  0.11740  0.44017  0.60624  1.0000
  H   H538      1.0  0.12051  0.42054  0.62996  1.0000
  H   H539      1.0  0.05958  0.29984  0.73807  1.0000
  C   C303      1.0  0.29850  0.34252  0.64538  1.0000
  H   H540      1.0  0.08053  0.44235  0.62758  1.0000
  H   H541      1.0  0.04515  0.32179  0.71486  1.0000
  H   H542      1.0  0.19901  0.41656  0.52573  1.0000
  S   S60       1.0  0.03445  0.40499  0.57393  1.0000
  H   H543      1.0  0.30890  0.06736  0.55595  1.0000
  H   H544      1.0  0.29642  0.32655  0.59228  1.0000
  H   H545      1.0  0.08172  0.23357  0.55052  1.0000
  H   H546      1.0  0.29908  0.40175  0.66306  1.0000
  H   H547      1.0  0.17621  0.38371  0.50652  1.0000
  H   H548      1.0  0.10234  0.45014  0.63795  1.0000
  C   C304      1.0  0.02345  0.49482  0.57889  1.0000
  H   H549      1.0  0.07597  0.40758  0.52250  1.0000
  H   H550      1.0  0.09195  0.24883  0.52799  1.0000
  C   C305      1.0  0.06154  0.24156  0.74686  1.0000
  H   H551      1.0  0.25890  0.27801  0.50788  1.0000
  H   H552      1.0  0.28366  0.39618  0.68531  1.0000
  C   C306      1.0  0.03566  0.47544  0.61904  1.0000
  H   H553      1.0  0.30240  0.36363  0.69294  1.0000
  C   C307      1.0  0.01537  0.36321  0.50359  1.0000
  C   C308      1.0  0.32064  0.28848  0.51251  1.0000
  H   H554      1.0  0.07336  0.35614  0.50313  1.0000
  H   H555      1.0  0.03902  0.49600  0.58370  1.0000
  H   H556      1.0  0.17180  0.40220  0.74363  1.0000
  H   H557      1.0  0.00672  0.13937  0.72057  1.0000
  H   H558      1.0  0.30099  0.32563  0.69487  1.0000
  H   H559      1.0  0.25156  0.31757  0.50749  1.0000
  H   H560      1.0  0.29911  0.36115  0.64516  1.0000
  H   H561      1.0  0.27504  0.28205  0.72547  1.0000
  H   H562      1.0  0.30545  0.28995  0.71444  1.0000
  H   H563      1.0  0.32277  0.30217  0.59322  1.0000
  H   H564      1.0  0.32061  0.17861  0.50637  1.0000
  H   H565      1.0  0.02540  0.45028  0.57653  1.0000
  C   C309      1.0  0.18034  0.39233  0.73562  1.0000
  H   H566      1.0  0.00302  0.26416  0.55484  1.0000
  H   H567      1.0  0.22813  0.42294  0.50151  1.0000
  H   H568      1.0  0.02670  0.22866  0.74553  1.0000
  H   H569      1.0  0.22091  0.45649  0.50257  1.0000
  H   H570      1.0  0.32194  0.00804  0.74628  1.0000
  H   H571      1.0  0.23329  0.23335  0.50656  1.0000
  H   H572      1.0  0.31543  0.36853  0.67041  1.0000
  Fe  Fe30      1.0  0.30753  0.33903  0.50015  1.0000
  C   C310      1.0  0.02746  0.48591  0.56254  1.0000
  H   H573      1.0  0.29238  0.02826  0.74055  1.0000
  C   C311      1.0  0.18161  0.40217  0.50767  1.0000
  H   H574      1.0  0.19074  0.44870  0.51416  1.0000
  H   H575      1.0  0.32065  0.32512  0.63154  1.0000
  C   C312      1.0  0.32027  0.34331  0.63215  1.0000
  C   C313      1.0  0.03711  0.46464  0.56528  1.0000
  H   H576      1.0  0.32712  0.46900  0.53209  1.0000
  C   C314      1.0  0.99910  0.34531  0.49781  1.0000
  H   H577      1.0  0.03862  0.45779  0.55380  1.0000
  H   H578      1.0  0.01092  0.48011  0.55936  1.0000
  S   S61       1.0  0.32747  0.38234  0.54305  1.0000
  H   H579      1.0  0.20363  0.26680  0.49842  1.0000
  H   H580      1.0  0.24073  0.01827  0.87591  1.0000
  S   S62       1.0  0.32500  0.07987  0.80163  1.0000
  H   H581      1.0  0.03829  0.23050  0.87652  1.0000
  H   H582      1.0  0.05339  0.30444  0.79557  1.0000
  C   C315      1.0  0.07642  0.24104  0.75737  1.0000
  H   H583      1.0  0.01626  0.23339  0.85386  1.0000
  H   H584      1.0  0.30062  0.25981  0.91029  1.0000
  H   H585      1.0  0.00736  0.37449  0.77340  1.0000
  H   H586      1.0  0.25140  0.03756  0.88812  1.0000
  H   H587      1.0  0.16699  0.27782  0.75940  1.0000
  H   H588      1.0  0.06315  0.30518  0.76556  1.0000
  S   S63       1.0  0.00192  0.35351  0.85471  1.0000
  H   H589      1.0  0.18559  0.27863  0.93893  1.0000
  C   C316      1.0  0.31783  0.23246  0.91216  1.0000
  H   H590      1.0  0.08559  0.47047  0.82132  1.0000
  H   H591      1.0  0.00947  0.38807  0.87777  1.0000
  H   H592      1.0  0.04689  0.33660  0.77163  1.0000
  C   C317      1.0  0.21129  0.35540  0.77487  1.0000
  C   C318      1.0  0.31911  0.23725  0.87749  1.0000
  S   S64       1.0  0.03573  0.19593  0.80262  1.0000
  H   H593      1.0  0.03893  0.35993  0.89043  1.0000
  H   H594      1.0  0.28546  0.03087  0.76172  1.0000
  S   S65       1.0  0.32568  0.34277  0.93391  1.0000
  Fe  Fe31      1.0  0.31459  0.33376  0.75106  1.0000
  Fe  Fe32      1.0  0.03512  0.38193  0.84160  1.0000
  S   S66       1.0  0.05688  0.36121  0.85295  1.0000
  S   S67       1.0  0.03308  0.41881  0.84195  1.0000
  H   H595      1.0  0.03097  0.26420  0.85045  1.0000
  S   S68       1.0  0.02771  0.31583  0.84213  1.0000
  Fe  Fe33      1.0  0.02394  0.33182  0.86425  1.0000
  C   C319      1.0  0.01962  0.36414  0.77599  1.0000
  Fe  Fe34      1.0  0.05899  0.34696  0.82988  1.0000
  S   S69       1.0  0.09019  0.33799  0.81664  1.0000
  C   C320      1.0  0.04318  0.37758  0.89312  1.0000
  S   S70       1.0  0.04030  0.37048  0.81733  1.0000
  Fe  Fe35      1.0  0.05576  0.19894  0.95932  1.0000
  S   S71       1.0  0.08658  0.22746  0.95847  1.0000
  Fe  Fe36      1.0  0.07434  0.19832  0.92245  1.0000
  S   S72       1.0  0.10734  0.22621  0.91877  1.0000
  S   S73       1.0  0.07002  0.18340  0.90005  1.0000
  Fe  Fe37      1.0  0.10718  0.20701  0.94518  1.0000
  S   S74       1.0  0.13677  0.19668  0.95406  1.0000
  Fe  Fe38      1.0  0.08423  0.24441  0.93228  1.0000
  S   S75       1.0  0.09230  0.28388  0.92115  1.0000
  S   S76       1.0  0.07634  0.17725  0.94758  1.0000
  S   S77       1.0  0.05115  0.21779  0.93432  1.0000
  H   H596      1.0  0.04756  0.25221  0.90531  1.0000
  Fe  Fe39      1.0  0.28857  0.26311  0.98068  1.0000
  S   S78       1.0  0.27587  0.29420  0.97055  1.0000
  Fe  Fe40      1.0  0.30120  0.25389  0.94603  1.0000
  S   S79       1.0  0.28977  0.28394  0.93295  1.0000
  H   H597      1.0  0.13307  0.28599  0.95856  1.0000
  C   C321      1.0  0.01071  0.49428  0.81807  1.0000
  Fe  Fe41      1.0  0.25895  0.27162  0.95578  1.0000
  S   S80       1.0  0.22607  0.27649  0.94953  1.0000
  S   S81       1.0  0.26883  0.23956  0.96772  1.0000
  H   H598      1.0  0.07180  0.33682  0.92231  1.0000
  C   C322      1.0  0.15821  0.35972  0.79281  1.0000
  H   H599      1.0  0.12677  0.37946  0.87568  1.0000
  H   H600      1.0  0.20806  0.36641  0.78378  1.0000
  H   H601      1.0  0.12475  0.39471  0.85508  1.0000
  H   H602      1.0  0.01197  0.20467  0.77606  1.0000
  H   H603      1.0  0.10772  0.36439  0.86506  1.0000
  H   H604      1.0  0.01337  0.34469  0.75794  1.0000
  H   H605      1.0  0.21014  0.03132  0.76058  1.0000
  C   C323      1.0  0.08109  0.37256  0.89371  1.0000
  H   H606      1.0  0.31898  0.39611  0.81939  1.0000
  C   C324      1.0  0.16148  0.21890  0.95288  1.0000
  C   C325      1.0  0.17912  0.21250  0.95935  1.0000
  C   C326      1.0  0.19914  0.22992  0.95841  1.0000
  C   C327      1.0  0.20150  0.25382  0.95105  1.0000
  C   C328      1.0  0.18384  0.26015  0.94462  1.0000
  C   C329      1.0  0.16395  0.24276  0.94544  1.0000
  H   H607      1.0  0.17727  0.19402  0.96511  1.0000
  H   H608      1.0  0.21261  0.22495  0.96350  1.0000
  C   C330      1.0  0.17352  0.31507  0.75847  1.0000
  H   H609      1.0  0.15050  0.24783  0.94035  1.0000
  C   C331      1.0  0.09403  0.34480  0.79443  1.0000
  C   C332      1.0  0.08941  0.36506  0.78577  1.0000
  C   C333      1.0  0.05138  0.33232  0.94764  1.0000
  C   C334      1.0  0.02019  0.38225  0.90134  1.0000
  C   C335      1.0  0.10553  0.33532  0.76742  1.0000
  C   C336      1.0  0.10219  0.33000  0.78522  1.0000
  H   H610      1.0  0.08357  0.37684  0.79275  1.0000
  H   H611      1.0  0.29008  0.04015  0.89268  1.0000
  H   H612      1.0  0.11158  0.32369  0.76045  1.0000
  H   H613      1.0  0.10572  0.31428  0.79192  1.0000
  C   C337      1.0  0.03478  0.30363  0.90001  1.0000
  C   C338      1.0  0.02993  0.29091  0.91722  1.0000
  C   C339      1.0  0.04756  0.28480  0.92381  1.0000
  C   C340      1.0  0.07018  0.29193  0.91331  1.0000
  C   C341      1.0  0.07516  0.30535  0.89628  1.0000
  C   C342      1.0  0.05740  0.31070  0.88952  1.0000
  C   C343      1.0  0.07587  0.49922  0.80657  1.0000
  H   H614      1.0  0.04367  0.27448  0.93700  1.0000
  H   H615      1.0  0.09267  0.31094  0.88818  1.0000
  H   H616      1.0  0.06121  0.32014  0.87618  1.0000
  C   C344      1.0  0.03827  0.22834  0.75364  1.0000
  C   C345      1.0  0.99649  0.25272  0.86759  1.0000
  C   C346      1.0  0.02338  0.17949  0.90757  1.0000
  C   C347      1.0  0.04291  0.17913  0.89561  1.0000
  C   C348      1.0  0.04110  0.17634  0.87951  1.0000
  C   C349      1.0  0.01993  0.17401  0.87537  1.0000
  C   C350      1.0  0.23882  0.01641  0.76171  1.0000
  H   H617      1.0  0.02455  0.18154  0.92002  1.0000
  H   H618      1.0  0.05614  0.17607  0.87019  1.0000
  H   H619      1.0  0.01869  0.17180  0.86295  1.0000
  C   C351      1.0  0.04497  0.21380  0.78126  1.0000
  C   C352      1.0  0.06825  0.22684  0.77441  1.0000
  C   C353      1.0  0.15098  0.37708  0.80245  1.0000
  C   C354      1.0  0.02990  0.21476  0.77089  1.0000
  H   H620      1.0  0.08001  0.22598  0.78234  1.0000
  H   H621      1.0  0.09366  0.37073  0.90129  1.0000
  Fe  Fe42      1.0  0.99837  0.18382  0.81806  1.0000
  H   H622      1.0  0.10810  0.20493  0.98331  1.0000
  H   H623      1.0  0.04853  0.48125  0.87035  1.0000
  H   H624      1.0  0.26589  0.04316  0.86561  1.0000
  H   H625      1.0  0.10198  0.40406  0.90865  1.0000
  H   H626      1.0  0.99675  0.27139  0.86633  1.0000
  C   C355      1.0  0.23731  0.35882  0.76964  1.0000
  H   H627      1.0  0.02189  0.11532  0.79820  1.0000
  H   H628      1.0  0.00051  0.28132  0.79212  1.0000
  H   H629      1.0  0.02181  0.43370  0.78501  1.0000
  C   C356      1.0  0.06490  0.34828  0.92972  1.0000
  H   H630      1.0  0.00614  0.11471  0.74893  1.0000
  H   H631      1.0  0.05342  0.46901  0.78285  1.0000
  S   S82       1.0  0.31976  0.24078  0.85582  1.0000
  H   H632      1.0  0.15044  0.37458  0.76986  1.0000
  H   H633      1.0  0.04264  0.22760  0.98477  1.0000
  C   C357      1.0  0.31868  0.28502  0.77620  1.0000
  H   H634      1.0  0.16581  0.39279  0.80020  1.0000
  H   H635      1.0  0.03668  0.31839  0.94691  1.0000
  C   C358      1.0  0.00259  0.37696  0.89126  1.0000
  H   H636      1.0  0.30204  0.26429  0.87983  1.0000
  C   C359      1.0  0.07769  0.46746  0.86491  1.0000
  C   C360      1.0  0.05511  0.46805  0.86548  1.0000
  C   C361      1.0  0.04102  0.45169  0.85962  1.0000
  C   C362      1.0  0.04962  0.43522  0.85255  1.0000
  C   C363      1.0  0.07200  0.43412  0.85236  1.0000
  C   C364      1.0  0.08595  0.45004  0.85877  1.0000
  H   H637      1.0  0.02377  0.14630  0.79647  1.0000
  H   H638      1.0  0.02359  0.45229  0.86006  1.0000
  H   H639      1.0  0.07895  0.42196  0.84640  1.0000
  H   H640      1.0  0.10351  0.44971  0.85815  1.0000
  C   C365      1.0  0.12619  0.25469  0.97961  1.0000
  C   C366      1.0  0.00214  0.17676  0.90354  1.0000
  C   C367      1.0  0.01277  0.12779  0.80262  1.0000
  S   S83       1.0  0.32163  0.27540  0.95959  1.0000
  H   H641      1.0  0.10746  0.43898  0.92002  1.0000
  H   H642      1.0  0.06622  0.27217  0.80842  1.0000
  H   H643      1.0  0.99821  0.35792  0.89149  1.0000
  H   H644      1.0  0.01708  0.45223  0.81771  1.0000
  C   C368      1.0  0.31987  0.20178  0.99144  1.0000
  C   C369      1.0  0.27172  0.01337  0.88262  1.0000
  N   N21       1.0  0.02715  0.30340  0.76942  1.0000
  H   H645      1.0  0.08006  0.39916  0.92833  1.0000
  H   H646      1.0  0.32484  0.04987  0.76243  1.0000
  H   H647      1.0  0.05507  0.25398  0.79573  1.0000
  H   H648      1.0  0.03727  0.37467  0.76807  1.0000
  C   C370      1.0  0.10131  0.35578  0.75870  1.0000
  H   H649      1.0  0.04799  0.42608  0.78671  1.0000
  C   C371      1.0  0.12089  0.27744  0.97151  1.0000
  C   C372      1.0  0.02876  0.32497  0.77624  1.0000
  C   C373      1.0  0.06313  0.27243  0.79568  1.0000
  H   H650      1.0  0.02235  0.23022  0.90571  1.0000
  C   C374      1.0  0.01415  0.25155  0.85206  1.0000
  C   C375      1.0  0.04693  0.28758  0.79238  1.0000
  C   C376      1.0  0.30920  0.25143  0.88634  1.0000
  C   C377      1.0  0.09536  0.39047  0.87627  1.0000
  N   N22       1.0  0.17682  0.35766  0.76180  1.0000
  C   C378      1.0  0.04605  0.29284  0.77338  1.0000
  H   H651      1.0  0.13677  0.38297  0.79826  1.0000
  H   H652      1.0  0.07993  0.27954  0.78571  1.0000
  H   H653      1.0  0.29293  0.38374  0.81405  1.0000
  H   H654      1.0  0.03615  0.34510  0.91931  1.0000
  H   H655      1.0  0.29343  0.11686  0.99102  1.0000
  H   H656      1.0  0.31238  0.36526  0.87132  1.0000
  C   C379      1.0  0.16629  0.37135  0.77315  1.0000
  C   C380      1.0  0.03390  0.43251  0.79313  1.0000
  H   H657      1.0  0.01117  0.46472  0.79833  1.0000
  H   H658      1.0  0.07912  0.44122  0.91916  1.0000
  H   H659      1.0  0.10925  0.49606  0.80946  1.0000
  N   N23       1.0  0.08725  0.25549  0.85728  1.0000
  C   C381      1.0  0.10181  0.27866  0.84457  1.0000
  C   C382      1.0  0.07488  0.24005  0.84795  1.0000
  C   C383      1.0  0.06915  0.26101  0.86997  1.0000
  C   C384      1.0  0.10093  0.24258  0.86705  1.0000
  C   C385      1.0  0.12660  0.24629  0.85780  1.0000
  C   C386      1.0  0.11207  0.29826  0.85262  1.0000
  C   C387      1.0  0.05051  0.23920  0.88287  1.0000
  C   C388      1.0  0.09007  0.23233  0.83405  1.0000
  C   C389      1.0  0.07521  0.21778  0.82525  1.0000
  C   C390      1.0  0.13686  0.22931  0.86819  1.0000
  C   C391      1.0  0.13298  0.31703  0.83981  1.0000
  C   C392      1.0  0.00131  0.47949  0.83718  1.0000
  H   H660      1.0  0.09142  0.28621  0.83653  1.0000
  H   H661      1.0  0.11607  0.27599  0.83525  1.0000
  H   H662      1.0  0.06337  0.22313  0.85708  1.0000
  H   H663      1.0  0.06356  0.24907  0.84189  1.0000
  H   H664      1.0  0.06026  0.27262  0.86322  1.0000
  H   H665      1.0  0.07736  0.27129  0.87784  1.0000
  H   H666      1.0  0.10103  0.24750  0.87928  1.0000
  H   H667      1.0  0.09229  0.22316  0.87119  1.0000
  H   H668      1.0  0.13695  0.26458  0.85634  1.0000
  H   H669      1.0  0.12889  0.24348  0.84487  1.0000
  H   H670      1.0  0.09882  0.30727  0.85667  1.0000
  H   H671      1.0  0.11731  0.29079  0.86413  1.0000
  H   H672      1.0  0.05870  0.22629  0.88872  1.0000
  H   H673      1.0  0.14464  0.36826  0.81643  1.0000
  H   H674      1.0  0.10245  0.24779  0.82399  1.0000
  H   H675      1.0  0.09947  0.22069  0.84001  1.0000
  H   H676      1.0  0.08634  0.21261  0.81515  1.0000
  H   H677      1.0  0.06319  0.20132  0.83465  1.0000
  H   H678      1.0  0.06497  0.22819  0.81914  1.0000
  H   H679      1.0  0.12741  0.21058  0.86980  1.0000
  H   H680      1.0  0.15524  0.23233  0.86146  1.0000
  H   H681      1.0  0.13584  0.23234  0.88105  1.0000
  H   H682      1.0  0.14740  0.30921  0.83642  1.0000
  H   H683      1.0  0.12842  0.32451  0.82799  1.0000
  H   H684      1.0  0.13876  0.33162  0.84555  1.0000
  H   H685      1.0  0.10308  0.27347  0.97007  1.0000
  C   C393      1.0  0.04925  0.36024  0.92065  1.0000
  C   C394      1.0  0.09317  0.37061  0.76791  1.0000
  H   H686      1.0  0.23198  0.00914  0.77582  1.0000
  C   C395      1.0  0.09395  0.43536  0.91323  1.0000
  C   C396      1.0  0.29656  0.31428  0.85924  1.0000
  H   H687      1.0  0.12495  0.24307  0.97095  1.0000
  C   C397      1.0  0.30224  0.34674  0.87289  1.0000
  C   C398      1.0  0.29859  0.33239  0.89171  1.0000
  H   H688      1.0  0.18182  0.24281  0.98987  1.0000
  N   N24       1.0  0.06063  0.37859  0.90346  1.0000
  N   N25       1.0  0.30996  0.01471  0.89182  1.0000
  C   C399      1.0  0.28503  0.28139  0.84525  1.0000
  C   C400      1.0  0.28638  0.34365  0.90443  1.0000
  Fe  Fe43      1.0  0.00872  0.34032  0.83141  1.0000
  H   H689      1.0  0.08115  0.20345  0.99655  1.0000
  C   C401      1.0  0.31975  0.35520  0.84196  1.0000
  H   H690      1.0  0.14350  0.21920  0.98922  1.0000
  H   H691      1.0  0.29297  0.30068  0.87158  1.0000
  H   H692      1.0  0.21036  0.35601  0.74881  1.0000
  S   S84       1.0  0.31698  0.22905  0.93387  1.0000
  H   H693      1.0  0.30527  0.02616  0.91502  1.0000
  H   H694      1.0  0.06411  0.16198  0.99610  1.0000
  H   H695      1.0  0.28501  0.34811  0.87164  1.0000
  H   H696      1.0  0.31521  0.33176  0.89456  1.0000
  H   H697      1.0  0.28793  0.31390  0.89438  1.0000
  C   C402      1.0  0.20259  0.36343  0.75904  1.0000
  H   H698      1.0  0.27957  0.31723  0.85871  1.0000
  H   H699      1.0  0.00046  0.11370  0.77580  1.0000
  H   H700      1.0  0.04663  0.47498  0.82711  1.0000
  C   C403      1.0  0.09101  0.49015  0.81724  1.0000
  S   S85       1.0  0.30451  0.01290  0.80328  1.0000
  C   C404      1.0  0.32076  0.27319  0.79200  1.0000
  H   H701      1.0  0.27019  0.28741  0.84240  1.0000
  H   H702      1.0  0.29141  0.27279  0.83532  1.0000
  H   H703      1.0  0.29699  0.36191  0.90291  1.0000
  H   H704      1.0  0.26921  0.34419  0.90262  1.0000
  H   H705      1.0  0.28381  0.33305  0.91776  1.0000
  H   H706      1.0  0.07196  0.41672  0.89296  1.0000
  C   C405      1.0  0.27145  0.17869  0.99076  1.0000
  H   H707      1.0  0.24671  0.37760  0.76264  1.0000
  C   C406      1.0  0.08646  0.40886  0.91451  1.0000
  H   H708      1.0  0.08466  0.39294  0.86735  1.0000
  S   S86       1.0  0.02763  0.17872  0.98354  1.0000
  C   C407      1.0  0.25657  0.02915  0.87778  1.0000
  H   H709      1.0  0.01000  0.12428  0.81670  1.0000
  C   C408      1.0  0.03075  0.31151  0.75024  1.0000
  C   C409      1.0  0.16525  0.33138  0.76912  1.0000
  H   H710      1.0  0.07964  0.36148  0.93100  1.0000
  H   H711      1.0  0.03948  0.36795  0.92984  1.0000
  C   C410      1.0  0.32773  0.21822  0.90330  1.0000
  H   H712      1.0  0.14642  0.32789  0.77084  1.0000
  H   H713      1.0  0.16710  0.32479  0.78214  1.0000
  C   C411      1.0  0.06711  0.40328  0.90562  1.0000
  C   C412      1.0  0.00355  0.28625  0.77804  1.0000
  H   H714      1.0  0.17840  0.38924  0.77070  1.0000
  H   H715      1.0  0.30885  0.15963  0.98680  1.0000
  H   H716      1.0  0.20305  0.33642  0.78169  1.0000
  H   H717      1.0  0.08990  0.38650  0.76122  1.0000
  H   H718      1.0  0.30368  0.03998  0.87161  1.0000
  H   H719      1.0  0.14295  0.34413  0.79600  1.0000
  H   H720      1.0  0.02979  0.27798  0.80145  1.0000
  H   H721      1.0  0.05632  0.45437  0.80347  1.0000
  H   H722      1.0  0.28118  0.19440  0.97980  1.0000
  H   H723      1.0  0.09107  0.16407  0.98129  1.0000
  H   H724      1.0  0.31779  0.37341  0.80808  1.0000
  H   H725      1.0  0.02444  0.31973  0.79052  1.0000
  H   H726      1.0  0.08978  0.49688  0.82878  1.0000
  S   S87       1.0  0.31089  0.36943  0.75292  1.0000
  C   C413      1.0  0.11484  0.38163  0.86755  1.0000
  C   C414      1.0  0.24598  0.17801  0.99440  1.0000
  H   H727      1.0  0.14438  0.25961  0.98011  1.0000
  H   H728      1.0  0.02460  0.41932  0.80569  1.0000
  H   H729      1.0  0.32874  0.29028  0.74885  1.0000
  C   C415      1.0  0.05027  0.49211  0.81734  1.0000
  C   C416      1.0  0.16097  0.28897  0.76750  1.0000
  C   C417      1.0  0.99809  0.26322  0.77230  1.0000
  S   S88       1.0  0.30164  0.30466  0.77558  1.0000
  H   H730      1.0  0.10120  0.44594  0.89959  1.0000
  H   H731      1.0  0.00890  0.25662  0.84015  1.0000
  C   C418      1.0  0.30442  0.30239  0.84500  1.0000
  H   H732      1.0  0.25095  0.03428  0.75892  1.0000
  C   C419      1.0  0.09829  0.20074  0.99696  1.0000
  H   H733      1.0  0.04479  0.34290  0.95599  1.0000
  H   H734      1.0  0.27925  0.26796  0.85790  1.0000
  C   C420      1.0  0.29446  0.02812  0.88476  1.0000
  H   H735      1.0  0.10321  0.40798  0.87802  1.0000
  C   C421      1.0  0.03643  0.24600  0.89743  1.0000
  H   H736      1.0  0.17166  0.35358  0.79780  1.0000
  Fe  Fe44      1.0  0.30742  0.30450  0.94826  1.0000
  S   S89       1.0  0.01227  0.30977  0.89171  1.0000
  H   H737      1.0  0.07525  0.35493  0.89142  1.0000
  C   C422      1.0  0.04403  0.45676  0.79569  1.0000
  C   C423      1.0  0.30850  0.24899  0.90362  1.0000
  H   H738      1.0  0.04536  0.27625  0.76944  1.0000
  H   H739      1.0  0.01390  0.48463  0.84441  1.0000
  H   H740      1.0  0.28804  0.36661  0.84453  1.0000
  H   H741      1.0  0.02896  0.26023  0.89240  1.0000
  H   H742      1.0  0.31426  0.21768  0.99326  1.0000
  H   H743      1.0  0.24005  0.17737  0.98276  1.0000
  H   H744      1.0  0.05198  0.40694  0.91340  1.0000
  H   H745      1.0  0.19225  0.31728  0.75653  1.0000
  H   H746      1.0  0.01245  0.28534  0.92537  1.0000
  N   N26       1.0  0.22763  0.21909  0.90601  1.0000
  C   C424      1.0  0.23456  0.20382  0.89470  1.0000
  C   C425      1.0  0.20181  0.21054  0.91350  1.0000
  C   C426      1.0  0.23527  0.24458  0.89534  1.0000
  C   C427      1.0  0.23886  0.21750  0.92053  1.0000
  C   C428      1.0  0.23580  0.19211  0.93153  1.0000
  C   C429      1.0  0.26084  0.20798  0.88754  1.0000
  C   C430      1.0  0.22622  0.26231  0.90421  1.0000
  C   C431      1.0  0.18733  0.21282  0.90037  1.0000
  C   C432      1.0  0.16164  0.20598  0.90946  1.0000
  C   C433      1.0  0.24904  0.19287  0.94507  1.0000
  C   C434      1.0  0.26565  0.19032  0.87740  1.0000
  C   C435      1.0  0.23463  0.28741  0.89224  1.0000
  H   H747      1.0  0.22772  0.20680  0.88329  1.0000
  H   H748      1.0  0.22655  0.18467  0.90151  1.0000
  H   H749      1.0  0.19635  0.19146  0.92068  1.0000
  H   H750      1.0  0.19622  0.21969  0.92328  1.0000
  H   H751      1.0  0.23043  0.24610  0.88305  1.0000
  H   H752      1.0  0.25443  0.25128  0.89145  1.0000
  H   H753      1.0  0.25764  0.22682  0.91569  1.0000
  H   H754      1.0  0.23192  0.22709  0.92958  1.0000
  H   H755      1.0  0.24237  0.18107  0.92363  1.0000
  H   H756      1.0  0.21738  0.18315  0.93835  1.0000
  H   H757      1.0  0.26879  0.22605  0.87872  1.0000
  H   H758      1.0  0.26960  0.20588  0.89789  1.0000
  H   H759      1.0  0.23243  0.26292  0.91575  1.0000
  H   H760      1.0  0.20712  0.25744  0.90811  1.0000
  H   H761      1.0  0.19204  0.23119  0.89205  1.0000
  H   H762      1.0  0.18979  0.20078  0.89211  1.0000
  H   H763      1.0  0.15149  0.20583  0.89992  1.0000
  H   H764      1.0  0.15596  0.18801  0.91860  1.0000
  H   H765      1.0  0.15789  0.21904  0.91653  1.0000
  H   H766      1.0  0.26772  0.20153  0.93893  1.0000
  H   H767      1.0  0.24235  0.20278  0.95393  1.0000
  H   H768      1.0  0.24694  0.17453  0.95261  1.0000
  H   H769      1.0  0.25839  0.19252  0.86619  1.0000
  H   H770      1.0  0.28456  0.19348  0.87256  1.0000
  H   H771      1.0  0.25820  0.17182  0.88568  1.0000
  H   H772      1.0  0.25368  0.29366  0.88857  1.0000
  H   H773      1.0  0.22849  0.28801  0.88055  1.0000
  H   H774      1.0  0.22783  0.29957  0.89899  1.0000
  H   H775      1.0  0.09183  0.24181  0.99697  1.0000
  H   H776      1.0  0.31134  0.27570  0.80373  1.0000
  H   H777      1.0  0.16463  0.28362  0.78008  1.0000
  S   S90       1.0  0.31217  0.02223  0.83945  1.0000
  H   H778      1.0  0.14207  0.28569  0.76944  1.0000
  H   H779      1.0  0.00238  0.24671  0.87899  1.0000
  C   C436      1.0  0.29930  0.36036  0.83526  1.0000
  H   H780      1.0  0.06283  0.32339  0.95353  1.0000
  H   H781      1.0  0.05025  0.39090  0.88042  1.0000
  H   H782      1.0  0.01913  0.36113  0.78974  1.0000
  H   H783      1.0  0.28877  0.34432  0.83307  1.0000
  Fe  Fe45      1.0  0.32491  0.04195  0.81165  1.0000
  N   N27       1.0  0.31335  0.33687  0.85904  1.0000
  C   C437      1.0  0.01273  0.34048  0.77173  1.0000
  H   H784      1.0  0.01226  0.37109  0.91473  1.0000
  H   H785      1.0  0.30973  0.31492  0.83202  1.0000
  H   H786      1.0  0.24338  0.35391  0.78123  1.0000
  N   N28       1.0  0.03208  0.49033  0.80770  1.0000
  H   H787      1.0  0.12282  0.29006  0.97949  1.0000
  C   C438      1.0  0.02489  0.46582  0.80518  1.0000
  H   H788      1.0  0.00628  0.14504  0.77205  1.0000
  C   C439      1.0  0.30430  0.00951  0.91106  1.0000
  H   H789      1.0  0.21071  0.38288  0.75412  1.0000
  H   H790      1.0  0.99748  0.29041  0.82466  1.0000
  H   H791      1.0  0.24163  0.34733  0.76130  1.0000
  C   C440      1.0  0.30786  0.37959  0.81818  1.0000
  H   H792      1.0  0.99653  0.49126  0.81174  1.0000
  H   H793      1.0  0.31911  0.29545  0.84703  1.0000
  H   H794      1.0  0.32878  0.06600  0.88067  1.0000
  H   H795      1.0  0.27317  0.16246  0.98690  1.0000
  H   H796      1.0  0.02315  0.40118  0.90129  1.0000
  H   H797      1.0  0.07830  0.49232  0.79520  1.0000
  C   C441      1.0  0.00032  0.17396  0.88746  1.0000
  C   C442      1.0  0.21852  0.01945  0.75456  1.0000
  S   S91       1.0  0.09595  0.48900  0.87113  1.0000
  H   H798      1.0  0.01173  0.25414  0.77260  1.0000
  C   C443      1.0  0.08143  0.15916  0.99505  1.0000
  H   H799      1.0  0.09442  0.25090  0.75220  1.0000
  C   C444      1.0  0.29022  0.01867  0.75409  1.0000
  H   H800      1.0  0.99762  0.46017  0.83874  1.0000
  H   H801      1.0  0.31794  0.20028  0.97863  1.0000
  C   C445      1.0  0.31429  0.01666  0.75573  1.0000
  H   H802      1.0  0.31311  0.00605  0.76866  1.0000
  C   C446      1.0  0.32827  0.22054  0.88601  1.0000
  H   H803      1.0  0.27566  0.00486  0.87214  1.0000
  H   H804      1.0  0.99587  0.26740  0.75916  1.0000
  H   H805      1.0  0.01422  0.31298  0.74741  1.0000
  C   C447      1.0  0.29799  0.91607  0.05525  1.0000
  Fe  Fe46      1.0  0.11664  0.78040  0.15859  1.0000
  S   S92       1.0  0.07930  0.77983  0.16612  1.0000
  S   S93       1.0  0.14527  0.81577  0.14964  1.0000
  Fe  Fe47      1.0  0.10331  0.72775  0.15949  1.0000
  S   S94       1.0  0.06539  0.72324  0.16734  1.0000
  S   S95       1.0  0.11854  0.69870  0.15340  1.0000
  Fe  Fe48      1.0  0.07359  0.75802  0.14769  1.0000
  S   S96       1.0  0.04748  0.76323  0.13279  1.0000
  Fe  Fe49      1.0  0.07369  0.74508  0.18517  1.0000
  C   C448      1.0  0.25950  0.99479  0.12041  1.0000
  S   S97       1.0  0.11119  0.76124  0.13841  1.0000
  S   S98       1.0  0.11147  0.74684  0.17913  1.0000
  C   C449      1.0  0.03645  0.70746  0.22177  1.0000
  C   C450      1.0  0.02989  0.81424  0.14063  1.0000
  C   C451      1.0  0.99632  0.61823  0.08599  1.0000
  Fe  Fe50      1.0  0.02110  0.56465  0.13995  1.0000
  S   S99       1.0  0.04540  0.54967  0.15241  1.0000
  H   H806      1.0  0.16895  0.81484  0.00400  1.0000
  H   H807      1.0  0.03951  0.62984  0.01462  1.0000
  H   H808      1.0  0.06054  0.59938  0.13040  1.0000
  Fe  Fe51      1.0  0.03717  0.57063  0.17111  1.0000
  S   S100      1.0  0.06415  0.58983  0.18159  1.0000
  H   H809      1.0  0.21179  0.94173  0.10403  1.0000
  H   H810      1.0  0.00746  0.52340  0.12142  1.0000
  H   H811      1.0  0.27395  0.99646  0.12592  1.0000
  H   H812      1.0  0.03813  0.52208  0.06577  1.0000
  H   H813      1.0  0.07883  0.65726  0.20095  1.0000
  Fe  Fe52      1.0  0.28671  0.93467  0.16284  1.0000
  S   S101      1.0  0.28244  0.96723  0.17071  1.0000
  C   C452      1.0  0.03710  0.52611  0.09158  1.0000
  Fe  Fe53      1.0  0.23677  0.90506  0.18138  1.0000
  S   S102      1.0  0.22897  0.93500  0.19182  1.0000
  S   S103      1.0  0.21072  0.86822  0.18909  1.0000
  Fe  Fe54      1.0  0.24808  0.95797  0.16519  1.0000
  S   S104      1.0  0.23273  0.98560  0.15317  1.0000
  Fe  Fe55      1.0  0.26404  0.94199  0.19659  1.0000
  S   S105      1.0  0.27342  0.94910  0.22049  1.0000
  S   S106      1.0  0.25401  0.92783  0.15444  1.0000
  S   S107      1.0  0.27014  0.90966  0.18897  1.0000
  H   H814      1.0  0.09384  0.64684  0.10766  1.0000
  H   H815      1.0  0.10246  0.59426  0.23560  1.0000
  C   C453      1.0  0.00787  0.67570  0.24493  1.0000
  C   C454      1.0  0.32227  0.88904  0.24491  1.0000
  C   C455      1.0  0.08731  0.63487  0.22192  1.0000
  H   H816      1.0  0.00859  0.65287  0.20602  1.0000
  C   C456      1.0  0.00488  0.55021  0.23984  1.0000
  H   H817      1.0  0.00269  0.70143  0.14647  1.0000
  H   H818      1.0  0.28548  0.87142  0.01268  1.0000
  H   H819      1.0  0.32619  0.91805  0.19314  1.0000
  S   S108      1.0  0.24826  0.00229  0.07338  1.0000
  C   C457      1.0  0.29972  0.98073  0.23320  1.0000
  H   H820      1.0  0.05305  0.60613  0.01625  1.0000
  C   C458      1.0  0.27267  0.93763  0.01128  1.0000
  S   S109      1.0  0.02950  0.57834  0.11137  1.0000
  S   S110      1.0  0.04793  0.73767  0.21083  1.0000
  C   C459      1.0  0.04754  0.57043  0.23396  1.0000
  H   H821      1.0  0.10483  0.67078  0.20586  1.0000
  C   C460      1.0  0.23722  0.98935  0.13111  1.0000
  H   H822      1.0  0.20129  0.98408  0.13230  1.0000
  H   H823      1.0  0.13318  0.78483  0.00560  1.0000
  N   N29       1.0  0.06670  0.59002  0.23522  1.0000
  H   H824      1.0  0.30811  0.91326  0.07880  1.0000
  H   H825      1.0  0.08576  0.73952  0.01510  1.0000
  C   C461      1.0  0.29423  0.87918  0.02144  1.0000
  H   H826      1.0  0.05061  0.74343  0.00600  1.0000
  C   C462      1.0  0.12844  0.80640  0.09518  1.0000
  H   H827      1.0  0.29925  0.96527  0.24287  1.0000
  H   H828      1.0  0.07684  0.62496  0.10032  1.0000
  H   H829      1.0  0.28033  0.00253  0.09445  1.0000
  H   H830      1.0  0.10453  0.64819  0.19473  1.0000
  C   C463      1.0  0.03344  0.53415  0.07351  1.0000
  C   C464      1.0  0.31971  0.89156  0.01239  1.0000
  C   C465      1.0  0.04624  0.75289  0.11451  1.0000
  C   C466      1.0  0.06626  0.75377  0.10250  1.0000
  C   C467      1.0  0.06484  0.74801  0.08709  1.0000
  C   C468      1.0  0.04336  0.74042  0.08390  1.0000
  H   H831      1.0  0.08287  0.75973  0.10481  1.0000
  H   H832      1.0  0.08045  0.74943  0.07762  1.0000
  C   C469      1.0  0.10227  0.66869  0.15954  1.0000
  C   C470      1.0  0.07809  0.66154  0.16431  1.0000
  C   C471      1.0  0.06604  0.63716  0.17004  1.0000
  C   C472      1.0  0.07820  0.62005  0.17139  1.0000
  C   C473      1.0  0.10227  0.62732  0.16622  1.0000
  C   C474      1.0  0.11422  0.65147  0.15997  1.0000
  H   H833      1.0  0.06880  0.67476  0.16382  1.0000
  H   H834      1.0  0.04744  0.63158  0.17401  1.0000
  H   H835      1.0  0.11177  0.61424  0.16729  1.0000
  H   H836      1.0  0.13287  0.65686  0.15620  1.0000
  C   C475      1.0  0.16337  0.82999  0.16085  1.0000
  C   C476      1.0  0.16211  0.81987  0.17797  1.0000
  C   C477      1.0  0.17670  0.83185  0.18632  1.0000
  C   C478      1.0  0.19266  0.85418  0.17778  1.0000
  C   C479      1.0  0.19388  0.86438  0.16065  1.0000
  C   C480      1.0  0.17941  0.85230  0.15225  1.0000
  H   H837      1.0  0.14993  0.80277  0.18479  1.0000
  H   H838      1.0  0.17558  0.82374  0.19954  1.0000
  H   H839      1.0  0.20603  0.88150  0.15389  1.0000
  H   H840      1.0  0.18061  0.86034  0.13901  1.0000
  S   S111      1.0  0.32131  0.93346  0.14791  1.0000
  C   C481      1.0  0.04758  0.69106  0.21716  1.0000
  C   C482      1.0  0.32209  0.97734  0.11083  1.0000
  H   H841      1.0  0.06302  0.69687  0.20655  1.0000
  H   H842      1.0  0.28387  0.86548  0.12677  1.0000
  H   H843      1.0  0.00784  0.54850  0.22653  1.0000
  N   N30       1.0  0.31908  0.90047  0.22784  1.0000
  S   S112      1.0  0.00154  0.68234  0.00870  1.0000
  H   H844      1.0  0.32755  0.89841  0.02182  1.0000
  H   H845      1.0  0.08626  0.56470  0.23944  1.0000
  C   C483      1.0  0.09414  0.65390  0.20485  1.0000
  H   H846      1.0  0.14974  0.71914  0.01077  1.0000
  H   H847      1.0  0.31492  0.91536  0.04787  1.0000
  H   H848      1.0  0.04253  0.69253  0.02074  1.0000
  C   C484      1.0  0.04428  0.61637  0.00833  1.0000
  H   H849      1.0  0.10404  0.72857  0.10248  1.0000
  H   H850      1.0  0.01997  0.71583  0.15838  1.0000
  N   N31       1.0  0.05730  0.66619  0.10229  1.0000
  C   C485      1.0  0.07003  0.66721  0.08433  1.0000
  C   C486      1.0  0.05606  0.64321  0.11472  1.0000
  C   C487      1.0  0.03307  0.66694  0.10210  1.0000
  C   C488      1.0  0.06810  0.68733  0.10790  1.0000
  C   C489      1.0  0.09280  0.68987  0.10975  1.0000
  C   C490      1.0  0.07035  0.68840  0.06976  1.0000
  H   H851      1.0  0.29138  0.92811  0.04667  1.0000
  C   C491      1.0  0.07715  0.63314  0.11114  1.0000
  C   C492      1.0  0.02478  0.74539  0.11128  1.0000
  C   C493      1.0  0.10245  0.71343  0.11342  1.0000
  C   C494      1.0  0.08401  0.68764  0.05232  1.0000
  H   H852      1.0  0.00924  0.74494  0.12042  1.0000
  H   H853      1.0  0.06221  0.65066  0.08112  1.0000
  H   H854      1.0  0.08826  0.66762  0.08335  1.0000
  H   H855      1.0  0.05262  0.64494  0.12809  1.0000
  H   H856      1.0  0.04123  0.62871  0.11475  1.0000
  H   H857      1.0  0.02605  0.65524  0.09454  1.0000
  H   H858      1.0  0.03317  0.68518  0.09544  1.0000
  H   H859      1.0  0.06799  0.70399  0.09916  1.0000
  H   H860      1.0  0.05758  0.68713  0.12059  1.0000
  H   H861      1.0  0.10475  0.68935  0.09791  1.0000
  H   H862      1.0  0.09264  0.67556  0.12077  1.0000
  H   H863      1.0  0.05264  0.68786  0.06885  1.0000
  H   H864      1.0  0.07836  0.70558  0.07189  1.0000
  H   H865      1.0  0.02223  0.66610  0.12954  1.0000
  S   S113      1.0  0.00946  0.67814  0.05594  1.0000
  H   H866      1.0  0.01941  0.60036  0.20080  1.0000
  H   H867      1.0  0.26356  0.92366  0.02293  1.0000
  H   H868      1.0  0.02739  0.60749  0.07976  1.0000
  C   C495      1.0  0.21854  0.98809  0.12403  1.0000
  H   H869      1.0  0.12400  0.74560  0.00779  1.0000
  H   H870      1.0  0.09116  0.71493  0.12527  1.0000
  H   H871      1.0  0.11984  0.71447  0.11534  1.0000
  H   H872      1.0  0.07623  0.67098  0.04934  1.0000
  H   H873      1.0  0.08359  0.70285  0.04220  1.0000
  H   H874      1.0  0.10225  0.68892  0.05213  1.0000
  C   C496      1.0  0.08457  0.75753  0.00945  1.0000
  C   C497      1.0  0.00897  0.59250  0.10648  1.0000
  H   H875      1.0  0.06711  0.56036  0.06265  1.0000
  H   H876      1.0  0.04389  0.57213  0.07096  1.0000
  H   H877      1.0  0.29902  0.94266  0.12351  1.0000
  C   C498      1.0  0.03923  0.66723  0.22667  1.0000
  H   H878      1.0  0.25481  0.86604  0.13614  1.0000
  C   C499      1.0  0.02329  0.73879  0.09617  1.0000
  N   N32       1.0  0.09651  0.84311  0.12091  1.0000
  C   C500      1.0  0.07307  0.82511  0.12734  1.0000
  C   C501      1.0  0.11469  0.83197  0.11367  1.0000
  C   C502      1.0  0.10228  0.85062  0.13615  1.0000
  C   C503      1.0  0.09671  0.86493  0.10787  1.0000
  C   C504      1.0  0.08887  0.86093  0.09194  1.0000
  C   C505      1.0  0.05266  0.83375  0.13555  1.0000
  C   C506      1.0  0.12677  0.86755  0.13275  1.0000
  C   C507      1.0  0.10748  0.81266  0.10449  1.0000
  C   C508      1.0  0.08666  0.88390  0.08116  1.0000
  S   S114      1.0  0.04236  0.73374  0.06427  1.0000
  C   C509      1.0  0.13055  0.87328  0.14923  1.0000
  H   H879      1.0  0.07368  0.80946  0.13697  1.0000
  H   H880      1.0  0.06813  0.81782  0.11701  1.0000
  H   H881      1.0  0.13017  0.84591  0.10480  1.0000
  H   H882      1.0  0.12099  0.82283  0.12414  1.0000
  H   H883      1.0  0.10036  0.83465  0.14669  1.0000
  H   H884      1.0  0.09010  0.85996  0.14150  1.0000
  H   H885      1.0  0.08611  0.87510  0.11409  1.0000
  H   H886      1.0  0.11441  0.87728  0.10274  1.0000
  H   H887      1.0  0.07190  0.84754  0.09546  1.0000
  H   H888      1.0  0.10195  0.85530  0.08362  1.0000
  H   H889      1.0  0.05482  0.83854  0.14743  1.0000
  H   H890      1.0  0.05099  0.84928  0.12645  1.0000
  H   H891      1.0  0.12922  0.88466  0.12335  1.0000
  H   H892      1.0  0.14041  0.85955  0.12780  1.0000
  H   H893      1.0  0.09814  0.81805  0.09505  1.0000
  H   H894      1.0  0.12268  0.79172  0.08951  1.0000
  H   H895      1.0  0.08155  0.88071  0.06961  1.0000
  H   H896      1.0  0.07325  0.89015  0.08864  1.0000
  H   H897      1.0  0.10337  0.89796  0.07689  1.0000
  H   H898      1.0  0.12840  0.85678  0.15924  1.0000
  H   H899      1.0  0.14833  0.88487  0.14662  1.0000
  H   H900      1.0  0.11817  0.88266  0.15421  1.0000
  H   H901      1.0  0.24725  0.86617  0.23913  1.0000
  H   H902      1.0  0.09207  0.76976  0.01643  1.0000
  H   H903      1.0  0.31389  0.88716  0.19565  1.0000
  H   H904      1.0  0.03806  0.54131  0.09730  1.0000
  C   C510      1.0  0.28839  0.97792  0.22044  1.0000
  H   H905      1.0  0.28586  0.89794  0.05947  1.0000
  C   C511      1.0  0.00036  0.59656  0.20385  1.0000
  H   H906      1.0  0.05179  0.61729  0.22508  1.0000
  H   H907      1.0  0.31390  0.94293  0.06571  1.0000
  H   H908      1.0  0.08078  0.64263  0.23235  1.0000
  C   C512      1.0  0.29427  0.88996  0.22825  1.0000
  H   H909      1.0  0.14000  0.82197  0.08472  1.0000
  H   H910      1.0  0.13822  0.80052  0.10427  1.0000
  C   C513      1.0  0.01500  0.65938  0.11985  1.0000
  H   H911      1.0  0.25053  0.89701  0.22921  1.0000
  H   H912      1.0  0.03035  0.79857  0.15033  1.0000
  C   C514      1.0  0.04863  0.55930  0.06396  1.0000
  C   C515      1.0  0.30094  0.92524  0.07072  1.0000
  C   C516      1.0  0.04755  0.69191  0.00758  1.0000
  C   C517      1.0  0.01958  0.65951  0.24061  1.0000
  H   H913      1.0  0.28542  0.89191  0.02578  1.0000
  H   H914      1.0  0.31100  0.92241  0.99982  1.0000
  H   H915      1.0  0.04808  0.65475  0.22327  1.0000
  C   C518      1.0  0.06833  0.61266  0.22239  1.0000
  H   H916      1.0  0.05407  0.52619  0.11788  1.0000
  H   H917      1.0  0.09592  0.79624  0.11414  1.0000
  H   H918      1.0  0.32523  0.95584  0.17510  1.0000
  S   S115      1.0  0.00762  0.54071  0.18903  1.0000
  C   C519      1.0  0.28883  0.99806  0.20816  1.0000
  H   H919      1.0  0.10326  0.63065  0.22381  1.0000
  H   H920      1.0  0.07784  0.62159  0.13767  1.0000
  C   C520      1.0  0.08886  0.58304  0.23155  1.0000
  C   C521      1.0  0.09910  0.58359  0.21264  1.0000
  H   H921      1.0  0.32350  0.99352  0.10081  1.0000
  C   C522      1.0  0.07665  0.61402  0.12670  1.0000
  C   C523      1.0  0.00047  0.51013  0.11495  1.0000
  H   H922      1.0  0.28527  0.96294  0.02453  1.0000
  C   C524      1.0  0.12034  0.57437  0.21071  1.0000
  H   H923      1.0  0.02647  0.80864  0.12925  1.0000
  C   C525      1.0  0.01288  0.67727  0.16509  1.0000
  H   H924      1.0  0.07049  0.61019  0.20929  1.0000
  H   H925      1.0  0.03317  0.70441  0.14163  1.0000
  H   H926      1.0  0.01539  0.53394  0.07405  1.0000
  H   H927      1.0  0.29111  0.87096  0.22822  1.0000
  S   S116      1.0  0.30287  0.98763  0.04851  1.0000
  Fe  Fe56      1.0  0.01354  0.52120  0.16893  1.0000
  H   H928      1.0  0.31408  0.94822  0.09151  1.0000
  H   H929      1.0  0.10457  0.60197  0.20415  1.0000
  H   H930      1.0  0.08631  0.57236  0.20802  1.0000
  H   H931      1.0  0.27891  0.90919  0.24543  1.0000
  C   C526      1.0  0.01643  0.69974  0.23556  1.0000
  H   H932      1.0  0.01993  0.58788  0.23307  1.0000
  H   H933      1.0  0.01549  0.82087  0.14628  1.0000
  H   H934      1.0  0.04849  0.55274  0.24073  1.0000
  H   H935      1.0  0.00883  0.63972  0.12462  1.0000
  H   H936      1.0  0.02894  0.67681  0.16893  1.0000
  H   H937      1.0  0.04966  0.57003  0.22035  1.0000
  H   H938      1.0  0.12735  0.57524  0.19702  1.0000
  H   H939      1.0  0.13395  0.58542  0.21483  1.0000
  H   H940      1.0  0.11576  0.55563  0.21841  1.0000
  C   C527      1.0  0.02261  0.57181  0.24076  1.0000
  H   H941      1.0  0.29058  0.89910  0.21645  1.0000
  C   C528      1.0  0.01234  0.60613  0.08976  1.0000
  N   N33       1.0  0.27735  0.93063  0.09873  1.0000
  C   C529      1.0  0.27783  0.92742  0.08110  1.0000
  C   C530      1.0  0.25550  0.93690  0.10557  1.0000
  C   C531      1.0  0.29744  0.95165  0.09680  1.0000
  C   C532      1.0  0.27931  0.90913  0.11103  1.0000
  C   C533      1.0  0.26850  0.88437  0.10885  1.0000
  C   C534      1.0  0.05892  0.75582  0.01257  1.0000
  C   C535      1.0  0.29964  0.95835  0.11356  1.0000
  C   C536      1.0  0.23247  0.91752  0.10950  1.0000
  C   C537      1.0  0.21193  0.92713  0.11474  1.0000
  C   C538      1.0  0.26665  0.86458  0.12452  1.0000
  Fe  Fe57      1.0  0.00889  0.71359  0.06051  1.0000
  H   H942      1.0  0.05485  0.52395  0.08906  1.0000
  H   H943      1.0  0.27396  0.94268  0.07315  1.0000
  H   H944      1.0  0.26388  0.91180  0.08173  1.0000
  H   H945      1.0  0.25525  0.94143  0.11786  1.0000
  H   H946      1.0  0.25471  0.95306  0.09647  1.0000
  H   H947      1.0  0.29680  0.96770  0.08748  1.0000
  H   H948      1.0  0.29255  0.86467  0.03284  1.0000
  H   H949      1.0  0.29776  0.91013  0.11020  1.0000
  H   H950      1.0  0.27172  0.90908  0.12449  1.0000
  H   H951      1.0  0.27941  0.88139  0.09749  1.0000
  H   H952      1.0  0.25107  0.88233  0.10701  1.0000
  S   S117      1.0  0.01557  0.58815  0.15721  1.0000
  H   H953      1.0  0.00668  0.73324  0.09376  1.0000
  H   H954      1.0  0.05638  0.77353  0.00796  1.0000
  H   H955      1.0  0.28555  0.96544  0.11864  1.0000
  H   H956      1.0  0.23073  0.91089  0.09822  1.0000
  H   H957      1.0  0.23114  0.90256  0.12049  1.0000
  H   H958      1.0  0.19563  0.91273  0.11805  1.0000
  H   H959      1.0  0.21269  0.93386  0.12617  1.0000
  H   H960      1.0  0.25964  0.84704  0.12244  1.0000
  C   C539      1.0  0.28496  0.95986  0.01221  1.0000
  H   H961      1.0  0.04614  0.56438  0.05095  1.0000
  H   H962      1.0  0.99883  0.62856  0.07305  1.0000
  H   H963      1.0  0.09147  0.60665  0.12363  1.0000
  H   H964      1.0  0.31329  0.93393  0.21663  1.0000
  H   H965      1.0  0.08376  0.69965  0.00603  1.0000
  H   H966      1.0  0.05024  0.74895  0.02653  1.0000
  H   H967      1.0  0.27990  0.99614  0.19843  1.0000
  C   C540      1.0  0.27553  0.89113  0.24355  1.0000
  H   H968      1.0  0.00772  0.71245  0.23906  1.0000
  H   H969      1.0  0.32620  0.94432  0.01488  1.0000
  C   C541      1.0  0.32365  0.92701  0.22490  1.0000
  H   H970      1.0  0.01527  0.64090  0.18885  1.0000
  H   H971      1.0  0.32245  0.98215  0.12299  1.0000
  C   C542      1.0  0.01739  0.70118  0.15215  1.0000
  H   H972      1.0  0.02819  0.60425  0.00774  1.0000
  H   H973      1.0  0.31763  0.93127  0.23722  1.0000
  C   C543      1.0  0.22212  0.99195  0.10628  1.0000
  H   H974      1.0  0.20760  0.99088  0.10086  1.0000
  C   C544      1.0  0.25152  0.88438  0.24075  1.0000
  C   C545      1.0  0.07091  0.69616  0.99918  1.0000
  C   C546      1.0  0.03079  0.68689  0.99888  1.0000
  H   H975      1.0  0.32756  0.87789  0.00866  1.0000
  H   H976      1.0  0.00027  0.68554  0.18856  1.0000
  H   H977      1.0  0.00922  0.66340  0.15841  1.0000
  H   H978      1.0  0.03044  0.51018  0.13647  1.0000
  C   C547      1.0  0.24440  0.99729  0.09554  1.0000
  H   H979      1.0  0.06697  0.50785  0.14241  1.0000
  C   C548      1.0  0.26312  0.99862  0.10262  1.0000
  H   H980      1.0  0.99906  0.68821  0.11582  1.0000
  C   C549      1.0  0.04385  0.50822  0.12606  1.0000
  C   C550      1.0  0.00055  0.64026  0.19945  1.0000
  H   H981      1.0  0.99970  0.61544  0.22310  1.0000
  C   C551      1.0  0.31184  0.00344  0.23347  1.0000
  H   H982      1.0  0.20667  0.80384  0.48169  1.0000
  H   H983      1.0  0.01998  0.54796  0.32282  1.0000
  H   H984      1.0  0.23011  0.84877  0.49144  1.0000
  N   N34       1.0  0.05187  0.57649  0.47633  1.0000
  Fe  Fe58      1.0  0.17447  0.73035  0.45759  1.0000
  S   S118      1.0  0.16512  0.69350  0.45406  1.0000
  S   S119      1.0  0.20963  0.75737  0.44634  1.0000
  H   H985      1.0  0.07644  0.64212  0.26833  1.0000
  H   H986      1.0  0.04417  0.55666  0.26783  1.0000
  H   H987      1.0  0.26732  0.81845  0.45776  1.0000
  Fe  Fe59      1.0  0.13360  0.70188  0.44799  1.0000
  S   S120      1.0  0.11681  0.69542  0.42702  1.0000
  H   H988      1.0  0.02488  0.66800  0.45871  1.0000
  S   S121      1.0  0.14464  0.73959  0.44914  1.0000
  S   S122      1.0  0.15567  0.71936  0.48550  1.0000
  H   H989      1.0  0.20625  0.74165  0.48274  1.0000
  H   H990      1.0  0.06526  0.59217  0.28599  1.0000
  H   H991      1.0  0.10564  0.76264  0.44803  1.0000
  Fe  Fe60      1.0  0.29172  0.89221  0.48291  1.0000
  Fe  Fe61      1.0  0.28805  0.83937  0.48883  1.0000
  Fe  Fe62      1.0  0.03717  0.58807  0.37577  1.0000
  H   H992      1.0  0.07247  0.64754  0.47355  1.0000
  S   S123      1.0  0.03528  0.61100  0.35107  1.0000
  Fe  Fe63      1.0  0.06666  0.58257  0.40065  1.0000
  S   S124      1.0  0.04502  0.54531  0.41409  1.0000
  S   S125      1.0  0.09615  0.59476  0.41185  1.0000
  H   H993      1.0  0.04444  0.54354  0.49612  1.0000
  H   H994      1.0  0.00575  0.53375  0.24845  1.0000
  S   S126      1.0  0.10357  0.74676  0.48882  1.0000
  S   S127      1.0  0.06925  0.57622  0.37465  1.0000
  S   S128      1.0  0.03656  0.59758  0.40072  1.0000
  C   C552      1.0  0.31193  0.92620  0.43727  1.0000
  H   H995      1.0  0.04678  0.68560  0.42481  1.0000
  C   C553      1.0  0.05549  0.65872  0.28361  1.0000
  H   H996      1.0  0.09244  0.72146  0.39766  1.0000
  C   C554      1.0  0.24857  0.79059  0.48078  1.0000
  S   S129      1.0  0.01261  0.55155  0.38773  1.0000
  C   C555      1.0  0.28660  0.94939  0.47586  1.0000
  H   H997      1.0  0.08620  0.77172  0.43637  1.0000
  H   H998      1.0  0.00826  0.68178  0.33298  1.0000
  H   H999      1.0  0.06812  0.52728  0.44020  1.0000
  C   C556      1.0  0.10169  0.62279  0.41599  1.0000
  C   C557      1.0  0.11499  0.62728  0.42735  1.0000
  C   C558      1.0  0.11936  0.64931  0.43114  1.0000
  C   C559      1.0  0.11081  0.66714  0.42331  1.0000
  C   C560      1.0  0.09737  0.66258  0.41207  1.0000
  C   C561      1.0  0.09267  0.64042  0.40850  1.0000
  H   H1000     1.0  0.12204  0.61371  0.43316  1.0000
  H   H1001     1.0  0.12981  0.65272  0.43977  1.0000
  H   H1002     1.0  0.09076  0.67629  0.40595  1.0000
  H   H1003     1.0  0.08240  0.63711  0.39976  1.0000
  H   H1004     1.0  0.04166  0.63901  0.47661  1.0000
  H   H1005     1.0  0.06899  0.73830  0.26092  1.0000
  H   H1006     1.0  0.99701  0.68976  0.30870  1.0000
  H   H1007     1.0  0.19810  0.80559  0.45659  1.0000
  S   S130      1.0  0.01124  0.62981  0.25282  1.0000
  H   H1008     1.0  0.23845  0.88501  0.25199  1.0000
  H   H1009     1.0  0.05490  0.66182  0.48550  1.0000
  C   C562      1.0  0.05798  0.55019  0.45566  1.0000
  H   H1010     1.0  0.03341  0.71452  0.29544  1.0000
  C   C563      1.0  0.06859  0.56736  0.46530  1.0000
  C   C564      1.0  0.30760  0.99699  0.47369  1.0000
  H   H1011     1.0  0.05901  0.55867  0.32652  1.0000
  S   S131      1.0  0.11184  0.68863  0.47521  1.0000
  S   S132      1.0  0.27261  0.91968  0.47763  1.0000
  C   C565      1.0  0.32223  0.00302  0.42458  1.0000
  H   H1012     1.0  0.29935  0.95635  0.43808  1.0000
  C   C566      1.0  0.02998  0.65894  0.28932  1.0000
  C   C567      1.0  0.01792  0.70468  0.44260  1.0000
  C   C568      1.0  0.00950  0.60037  0.34601  1.0000
  C   C569      1.0  0.23128  0.76886  0.48772  1.0000
  H   H1013     1.0  0.04509  0.69835  0.26241  1.0000
  H   H1014     1.0  0.05425  0.67948  0.34084  1.0000
  H   H1015     1.0  0.02596  0.60798  0.31905  1.0000
  H   H1016     1.0  0.03473  0.68700  0.47096  1.0000
  C   C570      1.0  0.20389  0.83971  0.47806  1.0000
  S   S133      1.0  0.32475  0.90020  0.49011  1.0000
  C   C571      1.0  0.25393  0.80181  0.46326  1.0000
  C   C572      1.0  0.24202  0.79134  0.45280  1.0000
  C   C573      1.0  0.22457  0.76973  0.45978  1.0000
  C   C574      1.0  0.21932  0.75849  0.47729  1.0000
  H   H1017     1.0  0.06088  0.65070  0.29492  1.0000
  H   H1018     1.0  0.24628  0.80006  0.43924  1.0000
  H   H1019     1.0  0.06733  0.67676  0.27737  1.0000
  H   H1020     1.0  0.08146  0.52809  0.45744  1.0000
  C   C575      1.0  0.03743  0.70893  0.27025  1.0000
  H   H1021     1.0  0.03543  0.70409  0.32281  1.0000
  H   H1022     1.0  0.31266  0.99423  0.43829  1.0000
  C   C576      1.0  0.03811  0.58840  0.46608  1.0000
  H   H1023     1.0  0.04860  0.54218  0.34879  1.0000
  C   C577      1.0  0.05227  0.60816  0.44947  1.0000
  H   H1024     1.0  0.12196  0.80127  0.49534  1.0000
  C   C578      1.0  0.03669  0.62020  0.44104  1.0000
  C   C579      1.0  0.05869  0.72303  0.41118  1.0000
  H   H1025     1.0  0.06833  0.70347  0.39274  1.0000
  H   H1026     1.0  0.05250  0.67427  0.31214  1.0000
  H   H1027     1.0  0.04896  0.73962  0.24810  1.0000
  H   H1028     1.0  0.23465  0.86954  0.47105  1.0000
  H   H1029     1.0  0.05184  0.55979  0.44538  1.0000
  H   H1030     1.0  0.06516  0.62213  0.45191  1.0000
  H   H1031     1.0  0.06135  0.60048  0.44007  1.0000
  C   C580      1.0  0.28450  0.98976  0.47363  1.0000
  H   H1032     1.0  0.03972  0.56823  0.34127  1.0000
  H   H1033     1.0  0.02516  0.60729  0.43667  1.0000
  H   H1034     1.0  0.02623  0.62750  0.45007  1.0000
  H   H1035     1.0  0.04727  0.63497  0.42964  1.0000
  C   C581      1.0  0.02337  0.53711  0.33411  1.0000
  H   H1036     1.0  0.08243  0.58233  0.45562  1.0000
  H   H1037     1.0  0.09107  0.55285  0.43844  1.0000
  C   C582      1.0  0.27399  0.96602  0.47486  1.0000
  H   H1038     1.0  0.25603  0.96052  0.47504  1.0000
  H   H1039     1.0  0.02669  0.65150  0.32206  1.0000
  C   C583      1.0  0.19511  0.81303  0.48806  1.0000
  H   H1040     1.0  0.07718  0.73528  0.38412  1.0000
  N   N35       1.0  0.02573  0.67654  0.29927  1.0000
  H   H1041     1.0  0.31108  0.89335  0.25550  1.0000
  C   C584      1.0  0.05868  0.64401  0.27087  1.0000
  H   H1042     1.0  0.00647  0.71944  0.46419  1.0000
  H   H1043     1.0  0.18394  0.79731  0.43227  1.0000
  C   C585      1.0  0.07516  0.72058  0.39550  1.0000
  H   H1044     1.0  0.05017  0.56128  0.29559  1.0000
  H   H1045     1.0  0.05777  0.70495  0.28843  1.0000
  C   C586      1.0  0.04386  0.55247  0.33795  1.0000
  Fe  Fe64      1.0  0.14398  0.68322  0.48160  1.0000
  S   S134      1.0  0.30251  0.87059  0.46520  1.0000
  N   N36       1.0  0.04186  0.70460  0.44406  1.0000
  C   C587      1.0  0.05527  0.70253  0.42724  1.0000
  C   C588      1.0  0.03940  0.68311  0.45838  1.0000
  Fe  Fe65      1.0  0.04464  0.54023  0.38821  1.0000
  C   C589      1.0  0.05238  0.72731  0.44809  1.0000
  C   C590      1.0  0.07842  0.73346  0.44705  1.0000
  H   H1046     1.0  0.24044  0.84138  0.47175  1.0000
  Fe  Fe66      1.0  0.01504  0.55978  0.41261  1.0000
  C   C591      1.0  0.06033  0.67285  0.45777  1.0000
  H   H1047     1.0  0.03496  0.58135  0.28723  1.0000
  C   C592      1.0  0.08732  0.75899  0.44780  1.0000
  H   H1048     1.0  0.06610  0.74050  0.41315  1.0000
  Fe  Fe67      1.0  0.12504  0.72563  0.47684  1.0000
  C   C593      1.0  0.30992  0.95680  0.47534  1.0000
  H   H1049     1.0  0.07267  0.70120  0.42773  1.0000
  H   H1050     1.0  0.02588  0.57513  0.46231  1.0000
  H   H1051     1.0  0.02711  0.59651  0.47409  1.0000
  C   C594      1.0  0.07578  0.53896  0.44746  1.0000
  C   C595      1.0  0.03535  0.67707  0.34442  1.0000
  H   H1052     1.0  0.04933  0.74266  0.43963  1.0000
  H   H1053     1.0  0.04359  0.72704  0.46134  1.0000
  H   H1054     1.0  0.08908  0.73185  0.43505  1.0000
  H   H1055     1.0  0.08137  0.72190  0.45819  1.0000
  C   C596      1.0  0.06539  0.59435  0.48343  1.0000
  S   S135      1.0  0.32155  0.84366  0.49629  1.0000
  H   H1056     1.0  0.07419  0.56607  0.26698  1.0000
  H   H1057     1.0  0.03139  0.68786  0.35339  1.0000
  H   H1058     1.0  0.06261  0.66427  0.44716  1.0000
  H   H1059     1.0  0.07647  0.68667  0.45560  1.0000
  C   C597      1.0  0.03916  0.70160  0.28896  1.0000
  C   C598      1.0  0.16451  0.80482  0.47302  1.0000
  H   H1060     1.0  0.16533  0.82377  0.46794  1.0000
  S   S136      1.0  0.05206  0.50856  0.38003  1.0000
  H   H1061     1.0  0.07725  0.76182  0.45961  1.0000
  H   H1062     1.0  0.07818  0.60897  0.47285  1.0000
  H   H1063     1.0  0.01027  0.68916  0.43818  1.0000
  H   H1064     1.0  0.07774  0.55773  0.47328  1.0000
  H   H1065     1.0  0.07371  0.70023  0.49173  1.0000
  C   C599      1.0  0.07337  0.73471  0.49488  1.0000
  H   H1066     1.0  0.14642  0.79464  0.47464  1.0000
  H   H1067     1.0  0.02020  0.64059  0.29713  1.0000
  H   H1068     1.0  0.02304  0.66153  0.27792  1.0000
  H   H1069     1.0  0.02284  0.54495  0.48532  1.0000
  C   C600      1.0  0.03342  0.67079  0.31539  1.0000
  C   C601      1.0  0.02715  0.68480  0.32854  1.0000
  C   C602      1.0  0.05700  0.65413  0.47442  1.0000
  H   H1070     1.0  0.17619  0.77764  0.46269  1.0000
  H   H1071     1.0  0.04721  0.60142  0.25527  1.0000
  H   H1072     1.0  0.04301  0.74669  0.26834  1.0000
  H   H1073     1.0  0.01857  0.72075  0.43275  1.0000
  H   H1074     1.0  0.15498  0.79550  0.44344  1.0000
  H   H1075     1.0  0.01924  0.70647  0.26994  1.0000
  H   H1076     1.0  0.17747  0.82339  0.43705  1.0000
  C   C603      1.0  0.17350  0.80383  0.44191  1.0000
  H   H1077     1.0  0.20356  0.84219  0.46448  1.0000
  H   H1078     1.0  0.04616  0.62612  0.27606  1.0000
  H   H1079     1.0  0.04208  0.72284  0.40809  1.0000
  H   H1080     1.0  0.07690  0.60765  0.25370  1.0000
  C   C604      1.0  0.00974  0.60144  0.32892  1.0000
  H   H1081     1.0  0.04322  0.53547  0.46436  1.0000
  C   C605      1.0  0.17946  0.79716  0.45892  1.0000
  H   H1082     1.0  0.19328  0.85005  0.48389  1.0000
  H   H1083     1.0  0.31999  0.94434  0.47539  1.0000
  C   C606      1.0  0.22875  0.85042  0.47811  1.0000
  S   S137      1.0  0.26258  0.80294  0.49466  1.0000
  H   H1084     1.0  0.09509  0.58175  0.48722  1.0000
  H   H1085     1.0  0.00691  0.52234  0.36143  1.0000
  H   H1086     1.0  0.30998  0.99788  0.41701  1.0000
  C   C607      1.0  0.31383  0.95227  0.42991  1.0000
  C   C608      1.0  0.00164  0.52897  0.34966  1.0000
  H   H1087     1.0  0.01867  0.57225  0.25435  1.0000
  H   H1088     1.0  0.32362  0.92013  0.42817  1.0000
  H   H1089     1.0  0.99725  0.68761  0.46946  1.0000
  C   C609      1.0  0.32038  0.98051  0.47447  1.0000
  H   H1090     1.0  0.29400  0.91524  0.43948  1.0000
  C   C610      1.0  0.05175  0.57709  0.28519  1.0000
  C   C611      1.0  0.00034  0.70411  0.45926  1.0000
  H   H1091     1.0  0.27502  0.87836  0.25555  1.0000
  H   H1092     1.0  0.05611  0.65296  0.25854  1.0000
  C   C612      1.0  0.06211  0.59391  0.25285  1.0000
  N   N37       1.0  0.17017  0.80077  0.49004  1.0000
  C   C613      1.0  0.05820  0.57176  0.26787  1.0000
  H   H1093     1.0  0.02864  0.52192  0.33064  1.0000
  C   C614      1.0  0.00038  0.67500  0.30335  1.0000
  C   C615      1.0  0.03524  0.55582  0.49053  1.0000
  H   H1094     1.0  0.02637  0.65812  0.35120  1.0000
  H   H1095     1.0  0.31126  0.95436  0.41692  1.0000
  H   H1096     1.0  0.05384  0.60306  0.49041  1.0000
  H   H1097     1.0  0.27462  0.00250  0.47281  1.0000
  C   C616      1.0  0.05041  0.73499  0.26146  1.0000
  H   H1098     1.0  0.31638  0.92345  0.44970  1.0000
  H   H1099     1.0  0.17875  0.76802  0.48948  1.0000
  C   C617      1.0  0.06311  0.71137  0.49513  1.0000
  H   H1100     1.0  0.15720  0.82966  0.49557  1.0000
  H   H1101     1.0  0.14900  0.76435  0.49661  1.0000
  C   C618      1.0  0.07971  0.58481  0.49513  1.0000
  H   H1102     1.0  0.99700  0.54550  0.35086  1.0000
  H   H1103     1.0  0.09724  0.62050  0.49540  1.0000
  H   H1104     1.0  0.31669  0.86935  0.24748  1.0000
  S   S138      1.0  0.99809  0.64728  0.49719  1.0000
  Fe  Fe68      1.0  0.16770  0.70607  0.72392  1.0000
  S   S139      1.0  0.15523  0.72551  0.70322  1.0000
  H   H1105     1.0  0.20100  0.62427  0.74506  1.0000
  C   C619      1.0  0.05326  0.63809  0.73194  1.0000
  S   S140      1.0  0.10539  0.68465  0.71980  1.0000
  S   S141      1.0  0.09514  0.52926  0.60218  1.0000
  Fe  Fe69      1.0  0.13867  0.68946  0.70053  1.0000
  S   S142      1.0  0.13971  0.68347  0.67427  1.0000
  Fe  Fe70      1.0  0.12301  0.71862  0.72430  1.0000
  S   S143      1.0  0.15415  0.67045  0.71944  1.0000
  S   S144      1.0  0.31057  0.86774  0.53832  1.0000
  H   H1106     1.0  0.23603  0.86202  0.53919  1.0000
  S   S145      1.0  0.28075  0.87949  0.73063  1.0000
  H   H1107     1.0  0.17759  0.69024  0.52609  1.0000
  H   H1108     1.0  0.01426  0.65088  0.55852  1.0000
  H   H1109     1.0  0.30049  0.93309  0.50802  1.0000
  C   C620      1.0  0.18300  0.65307  0.55071  1.0000
  C   C621      1.0  0.07704  0.76446  0.74653  1.0000
  C   C622      1.0  0.02874  0.63670  0.74228  1.0000
  H   H1110     1.0  0.29063  0.90071  0.55616  1.0000
  H   H1111     1.0  0.13273  0.61579  0.72968  1.0000
  Fe  Fe71      1.0  0.04634  0.58543  0.61081  1.0000
  S   S146      1.0  0.07533  0.58496  0.58970  1.0000
  H   H1112     1.0  0.15476  0.77155  0.52514  1.0000
  Fe  Fe72      1.0  0.07712  0.58888  0.63549  1.0000
  S   S147      1.0  0.10834  0.58924  0.61560  1.0000
  S   S148      1.0  0.07841  0.59102  0.66235  1.0000
  Fe  Fe73      1.0  0.09626  0.61398  0.59752  1.0000
  S   S149      1.0  0.11617  0.64892  0.57835  1.0000
  Fe  Fe74      1.0  0.08391  0.55990  0.60982  1.0000
  S   S150      1.0  0.01195  0.58750  0.60598  1.0000
  S   S151      1.0  0.06695  0.61575  0.61780  1.0000
  S   S152      1.0  0.05317  0.55793  0.63077  1.0000
  H   H1113     1.0  0.30881  0.79206  0.68424  1.0000
  H   H1114     1.0  0.24795  0.63944  0.57692  1.0000
  C   C623      1.0  0.11999  0.64821  0.55692  1.0000
  C   C624      1.0  0.12561  0.66950  0.54410  1.0000
  C   C625      1.0  0.13104  0.66966  0.52677  1.0000
  C   C626      1.0  0.13173  0.64869  0.52219  1.0000
  C   C627      1.0  0.12576  0.62733  0.53504  1.0000
  C   C628      1.0  0.11960  0.62703  0.55238  1.0000
  H   H1115     1.0  0.12616  0.68594  0.54755  1.0000
  H   H1116     1.0  0.13530  0.68611  0.51700  1.0000
  H   H1117     1.0  0.12620  0.61105  0.53157  1.0000
  H   H1118     1.0  0.11564  0.61060  0.56217  1.0000
  H   H1119     1.0  0.14530  0.73053  0.52168  1.0000
  C   C629      1.0  0.03572  0.53746  0.56291  1.0000
  H   H1120     1.0  0.17585  0.73374  0.51397  1.0000
  C   C630      1.0  0.26210  0.92256  0.53157  1.0000
  H   H1121     1.0  0.21983  0.65678  0.56392  1.0000
  C   C631      1.0  0.05380  0.61504  0.72711  1.0000
  H   H1122     1.0  0.16383  0.73438  0.53557  1.0000
  H   H1123     1.0  0.30422  0.84033  0.66386  1.0000
  H   H1124     1.0  0.07156  0.61665  0.71979  1.0000
  C   C632      1.0  0.20680  0.63913  0.56833  1.0000
  H   H1125     1.0  0.15401  0.67798  0.60343  1.0000
  H   H1126     1.0  0.08385  0.64181  0.52907  1.0000
  C   C633      1.0  0.12206  0.65781  0.67134  1.0000
  C   C634      1.0  0.10899  0.63827  0.68517  1.0000
  C   C635      1.0  0.09563  0.61797  0.68224  1.0000
  C   C636      1.0  0.09519  0.61702  0.66551  1.0000
  C   C637      1.0  0.10814  0.63662  0.65170  1.0000
  C   C638      1.0  0.12150  0.65689  0.65463  1.0000
  H   H1127     1.0  0.10938  0.63878  0.69806  1.0000
  H   H1128     1.0  0.08565  0.60287  0.69295  1.0000
  H   H1129     1.0  0.10787  0.63617  0.63877  1.0000
  H   H1130     1.0  0.13141  0.67201  0.64391  1.0000
  C   C639      1.0  0.21312  0.74658  0.72971  1.0000
  C   C640      1.0  0.20248  0.76391  0.72438  1.0000
  C   C641      1.0  0.14831  0.57653  0.57409  1.0000
  C   C642      1.0  0.23421  0.62233  0.58264  1.0000
  H   H1131     1.0  0.22199  0.88488  0.54149  1.0000
  C   C643      1.0  0.05933  0.74879  0.49974  1.0000
  H   H1132     1.0  0.04206  0.61143  0.71894  1.0000
  C   C644      1.0  0.16754  0.76655  0.51610  1.0000
  S   S153      1.0  0.10700  0.74812  0.72667  1.0000
  C   C645      1.0  0.26622  0.99824  0.52557  1.0000
  C   C646      1.0  0.28695  0.98329  0.73234  1.0000
  H   H1133     1.0  0.18800  0.75953  0.71912  1.0000
  C   C647      1.0  0.21037  0.62649  0.58544  1.0000
  H   H1134     1.0  0.32315  0.80437  0.70777  1.0000
  S   S154      1.0  0.23878  0.82245  0.73361  1.0000
  H   H1135     1.0  0.20945  0.63780  0.59439  1.0000
  S   S155      1.0  0.00244  0.59720  0.53070  1.0000
  C   C648      1.0  0.16677  0.60015  0.56505  1.0000
  H   H1136     1.0  0.31262  0.83042  0.63053  1.0000
  H   H1137     1.0  0.25478  0.78020  0.74294  1.0000
  H   H1138     1.0  0.14090  0.82635  0.72492  1.0000
  H   H1139     1.0  0.29393  0.84483  0.62107  1.0000
  H   H1140     1.0  0.16063  0.81067  0.51364  1.0000
  Fe  Fe75      1.0  0.12191  0.66808  0.73893  1.0000
  C   C649      1.0  0.28375  0.96419  0.52404  1.0000
  C   C650      1.0  0.02156  0.67057  0.55476  1.0000
  H   H1141     1.0  0.01514  0.54354  0.59171  1.0000
  H   H1142     1.0  0.08072  0.75043  0.54303  1.0000
  H   H1143     1.0  0.00119  0.67437  0.57899  1.0000
  H   H1144     1.0  0.07359  0.60412  0.51424  1.0000
  H   H1145     1.0  0.15583  0.81495  0.70881  1.0000
  H   H1146     1.0  0.01224  0.52783  0.52405  1.0000
  H   H1147     1.0  0.29045  0.86680  0.67392  1.0000
  C   C651      1.0  0.02644  0.59743  0.55451  1.0000
  H   H1148     1.0  0.29900  0.97736  0.52492  1.0000
  C   C652      1.0  0.02993  0.70179  0.74105  1.0000
  H   H1149     1.0  0.08339  0.78051  0.73605  1.0000
  H   H1150     1.0  0.17335  0.63491  0.60537  1.0000
  C   C653      1.0  0.25921  0.89568  0.53789  1.0000
  C   C654      1.0  0.14390  0.80998  0.72188  1.0000
  H   H1151     1.0  0.27385  0.89232  0.68948  1.0000
  H   H1152     1.0  0.27931  0.91062  0.58396  1.0000
  H   H1153     1.0  0.05377  0.68436  0.72996  1.0000
  H   H1154     1.0  0.10913  0.74613  0.53938  1.0000
  H   H1155     1.0  0.17080  0.81014  0.73422  1.0000
  C   C655      1.0  0.02880  0.59542  0.57113  1.0000
  N   N38       1.0  0.28424  0.93918  0.53178  1.0000
  H   H1156     1.0  0.06604  0.64139  0.73929  1.0000
  C   C656      1.0  0.29614  0.79014  0.69646  1.0000
  H   H1157     1.0  0.09536  0.56371  0.55182  1.0000
  S   S156      1.0  0.30698  0.83718  0.73361  1.0000
  H   H1158     1.0  0.23654  0.61368  0.59515  1.0000
  H   H1159     1.0  0.25690  0.89041  0.55193  1.0000
  H   H1160     1.0  0.25463  0.87984  0.67806  1.0000
  C   C657      1.0  0.19541  0.68869  0.52456  1.0000
  H   H1161     1.0  0.29658  0.78555  0.72321  1.0000
  H   H1162     1.0  0.06662  0.52459  0.56198  1.0000
  C   C658      1.0  0.12881  0.79827  0.50671  1.0000
  C   C659      1.0  0.23770  0.88124  0.53458  1.0000
  H   H1163     1.0  0.18819  0.64224  0.54205  1.0000
  N   N39       1.0  0.04564  0.67709  0.55703  1.0000
  C   C660      1.0  0.05879  0.66218  0.54879  1.0000
  C   C661      1.0  0.04346  0.67130  0.57608  1.0000
  H   H1164     1.0  0.02452  0.75086  0.50800  1.0000
  C   C662      1.0  0.05641  0.70326  0.54856  1.0000
  C   C663      1.0  0.08134  0.71349  0.54922  1.0000
  C   C664      1.0  0.06435  0.66802  0.52897  1.0000
  H   H1165     1.0  0.03232  0.55470  0.56304  1.0000
  C   C665      1.0  0.06445  0.66636  0.58217  1.0000
  C   C666      1.0  0.06389  0.67092  0.59968  1.0000
  C   C667      1.0  0.09136  0.73922  0.53844  1.0000
  H   H1166     1.0  0.02709  0.67755  0.72506  1.0000
  H   H1167     1.0  0.04925  0.64310  0.55441  1.0000
  H   H1168     1.0  0.07570  0.66370  0.55158  1.0000
  H   H1169     1.0  0.03865  0.68571  0.58125  1.0000
  H   H1170     1.0  0.02903  0.65489  0.58304  1.0000
  H   H1171     1.0  0.12102  0.80445  0.53202  1.0000
  H   H1172     1.0  0.02178  0.67675  0.54109  1.0000
  H   H1173     1.0  0.05593  0.70763  0.53490  1.0000
  H   H1174     1.0  0.04619  0.71378  0.55462  1.0000
  H   H1175     1.0  0.09285  0.70323  0.54437  1.0000
  H   H1176     1.0  0.08149  0.71353  0.56257  1.0000
  H   H1177     1.0  0.04932  0.67014  0.52431  1.0000
  H   H1178     1.0  0.07855  0.68475  0.52311  1.0000
  C   C668      1.0  0.29745  0.91693  0.57590  1.0000
  C   C669      1.0  0.30866  0.78814  0.71051  1.0000
  H   H1179     1.0  0.06401  0.64749  0.58323  1.0000
  H   H1180     1.0  0.08130  0.67721  0.57335  1.0000
  H   H1181     1.0  0.07917  0.66745  0.60362  1.0000
  H   H1182     1.0  0.06458  0.68971  0.59907  1.0000
  H   H1183     1.0  0.04801  0.65910  0.60949  1.0000
  H   H1184     1.0  0.29633  0.95436  0.55093  1.0000
  H   H1185     1.0  0.18143  0.67691  0.60764  1.0000
  H   H1186     1.0  0.09212  0.74042  0.52481  1.0000
  H   H1187     1.0  0.31576  0.77266  0.71115  1.0000
  H   H1188     1.0  0.28439  0.85552  0.69687  1.0000
  C   C670      1.0  0.29837  0.91864  0.55711  1.0000
  H   H1189     1.0  0.21201  0.62977  0.55858  1.0000
  C   C671      1.0  0.00564  0.59883  0.55099  1.0000
  C   C672      1.0  0.19904  0.67870  0.54204  1.0000
  C   C673      1.0  0.03482  0.67974  0.73579  1.0000
  H   H1190     1.0  0.04487  0.59424  0.57349  1.0000
  H   H1191     1.0  0.31678  0.92390  0.54995  1.0000
  H   H1192     1.0  0.03089  0.52397  0.59800  1.0000
  H   H1193     1.0  0.30681  0.91719  0.52579  1.0000
  H   H1194     1.0  0.19751  0.60896  0.59152  1.0000
  H   H1195     1.0  0.08077  0.65520  0.50840  1.0000
  H   H1196     1.0  0.15040  0.56872  0.58687  1.0000
  C   C674      1.0  0.00314  0.54008  0.51837  1.0000
  C   C675      1.0  0.01533  0.52470  0.59351  1.0000
  H   H1197     1.0  0.16524  0.65339  0.55034  1.0000
  H   H1198     1.0  0.29972  0.81093  0.66253  1.0000
  H   H1199     1.0  0.25043  0.00299  0.53103  1.0000
  C   C676      1.0  0.32758  0.95379  0.51595  1.0000
  H   H1200     1.0  0.18502  0.77466  0.51707  1.0000
  C   C677      1.0  0.29820  0.96522  0.72632  1.0000
  H   H1201     1.0  0.15842  0.78200  0.73072  1.0000
  H   H1202     1.0  0.19576  0.69101  0.54991  1.0000
  H   H1203     1.0  0.26005  0.92630  0.51827  1.0000
  C   C678      1.0  0.02041  0.56226  0.50547  1.0000
  C   C679      1.0  0.22957  0.79304  0.73235  1.0000
  H   H1204     1.0  0.00901  0.70025  0.56104  1.0000
  H   H1205     1.0  0.30056  0.82733  0.69333  1.0000
  H   H1206     1.0  0.06244  0.54199  0.57686  1.0000
  H   H1207     1.0  0.04782  0.50980  0.62322  1.0000
  C   C680      1.0  0.07758  0.56214  0.55059  1.0000
  H   H1208     1.0  0.01026  0.51591  0.62884  1.0000
  H   H1209     1.0  0.27010  0.00363  0.51134  1.0000
  H   H1210     1.0  0.28499  0.96712  0.51008  1.0000
  C   C681      1.0  0.16385  0.66617  0.60862  1.0000
  Fe  Fe76      1.0  0.27054  0.83975  0.74093  1.0000
  C   C682      1.0  0.15448  0.79738  0.73486  1.0000
  C   C683      1.0  0.11552  0.80792  0.52003  1.0000
  H   H1211     1.0  0.04062  0.59707  0.54449  1.0000
  H   H1212     1.0  0.14176  0.59108  0.72433  1.0000
  H   H1213     1.0  0.20309  0.80058  0.72080  1.0000
  H   H1214     1.0  0.07306  0.57849  0.55239  1.0000
  H   H1215     1.0  0.24703  0.96256  0.52873  1.0000
  H   H1216     1.0  0.16592  0.66839  0.57464  1.0000
  H   H1217     1.0  0.13077  0.57897  0.57582  1.0000
  C   C684      1.0  0.00366  0.68059  0.56496  1.0000
  H   H1218     1.0  0.01053  0.57423  0.50065  1.0000
  C   C685      1.0  0.16465  0.61851  0.57547  1.0000
  H   H1219     1.0  0.32503  0.86719  0.56895  1.0000
  H   H1220     1.0  0.12730  0.79820  0.72188  1.0000
  H   H1221     1.0  0.12486  0.77892  0.51222  1.0000
  H   H1222     1.0  0.06970  0.56796  0.50492  1.0000
  H   H1223     1.0  0.30593  0.93447  0.57735  1.0000
  H   H1224     1.0  0.10495  0.59340  0.71785  1.0000
  H   H1225     1.0  0.29956  0.00104  0.72665  1.0000
  H   H1226     1.0  0.09679  0.79897  0.52314  1.0000
  H   H1227     1.0  0.21741  0.67890  0.53984  1.0000
  C   C686      1.0  0.08566  0.74510  0.74538  1.0000
  H   H1228     1.0  0.10066  0.59697  0.51125  1.0000
  H   H1229     1.0  0.25881  0.96689  0.54639  1.0000
  N   N40       1.0  0.27309  0.81591  0.68192  1.0000
  C   C687      1.0  0.26105  0.83438  0.68534  1.0000
  C   C688      1.0  0.25563  0.79278  0.68374  1.0000
  C   C689      1.0  0.28589  0.81159  0.69540  1.0000
  C   C690      1.0  0.29052  0.82441  0.66456  1.0000
  C   C691      1.0  0.28118  0.83006  0.64874  1.0000
  C   C692      1.0  0.27653  0.85822  0.68601  1.0000
  C   C693      1.0  0.16281  0.73964  0.52214  1.0000
  C   C694      1.0  0.23342  0.79426  0.67817  1.0000
  C   C695      1.0  0.21977  0.76998  0.67762  1.0000
  H   H1230     1.0  0.19846  0.67710  0.51601  1.0000
  C   C696      1.0  0.26243  0.87561  0.68881  1.0000
  H   H1231     1.0  0.28662  0.94687  0.73220  1.0000
  H   H1232     1.0  0.24757  0.82699  0.69782  1.0000
  H   H1233     1.0  0.25156  0.83877  0.67575  1.0000
  H   H1234     1.0  0.26400  0.78163  0.67679  1.0000
  H   H1235     1.0  0.24908  0.78218  0.69745  1.0000
  H   H1236     1.0  0.27441  0.80912  0.70835  1.0000
  C   C697      1.0  0.16789  0.57962  0.74623  1.0000
  S   S157      1.0  0.14046  0.64882  0.50060  1.0000
  C   C698      1.0  0.15509  0.81069  0.50171  1.0000
  H   H1237     1.0  0.27036  0.84233  0.64982  1.0000
  H   H1238     1.0  0.27107  0.81337  0.64707  1.0000
  C   C699      1.0  0.30094  0.84183  0.63236  1.0000
  H   H1239     1.0  0.18382  0.59664  0.56349  1.0000
  H   H1240     1.0  0.03781  0.73983  0.73049  1.0000
  H   H1241     1.0  0.28248  0.77317  0.69957  1.0000
  H   H1242     1.0  0.22206  0.80031  0.68756  1.0000
  H   H1243     1.0  0.23709  0.80680  0.66542  1.0000
  H   H1244     1.0  0.20333  0.77120  0.67462  1.0000
  H   H1245     1.0  0.22978  0.76380  0.66755  1.0000
  H   H1246     1.0  0.21559  0.75666  0.69020  1.0000
  C   C700      1.0  0.30426  0.93460  0.52032  1.0000
  H   H1247     1.0  0.14977  0.56376  0.56628  1.0000
  Fe  Fe77      1.0  0.31705  0.87711  0.72534  1.0000
  H   H1248     1.0  0.24859  0.86803  0.70109  1.0000
  C   C701      1.0  0.28633  0.93706  0.54988  1.0000
  H   H1249     1.0  0.01795  0.63565  0.73316  1.0000
  H   H1250     1.0  0.23608  0.61055  0.57407  1.0000
  H   H1251     1.0  0.27408  0.89059  0.53128  1.0000
  C   C702      1.0  0.04091  0.72426  0.72618  1.0000
  H   H1252     1.0  0.26900  0.93303  0.55896  1.0000
  H   H1253     1.0  0.05889  0.65264  0.71986  1.0000
  C   C703      1.0  0.26243  0.97153  0.53221  1.0000
  N   N41       1.0  0.18309  0.64203  0.56887  1.0000
  C   C704      1.0  0.01018  0.59390  0.58458  1.0000
  H   H1254     1.0  0.16354  0.60957  0.58889  1.0000
  C   C705      1.0  0.21089  0.78708  0.72550  1.0000
  H   H1255     1.0  0.14748  0.62154  0.57607  1.0000
  C   C706      1.0  0.16497  0.64725  0.59899  1.0000
  H   H1256     1.0  0.05657  0.63353  0.52408  1.0000
  C   C707      1.0  0.07191  0.64841  0.52231  1.0000
  C   C708      1.0  0.17753  0.65858  0.57961  1.0000
  H   H1257     1.0  0.11836  0.82730  0.51497  1.0000
  H   H1258     1.0  0.15492  0.65743  0.62238  1.0000
  H   H1259     1.0  0.24055  0.73928  0.74033  1.0000
  H   H1260     1.0  0.31110  0.85927  0.63294  1.0000
  Fe  Fe78      1.0  0.30903  0.86712  0.51149  1.0000
  H   H1261     1.0  0.32715  0.97043  0.50737  1.0000
  H   H1262     1.0  0.31472  0.96639  0.72980  1.0000
  H   H1263     1.0  0.30197  0.96891  0.71216  1.0000
  H   H1264     1.0  0.01117  0.69982  0.74502  1.0000
  H   H1265     1.0  0.19347  0.67251  0.57851  1.0000
  H   H1266     1.0  0.30674  0.90411  0.58047  1.0000
  H   H1267     1.0  0.14693  0.63710  0.60060  1.0000
  H   H1268     1.0  0.16419  0.60645  0.55220  1.0000
  S   S158      1.0  0.27483  0.86080  0.50570  1.0000
  H   H1269     1.0  0.04878  0.59994  0.73881  1.0000
  H   H1270     1.0  0.24697  0.92557  0.53983  1.0000
  C   C709      1.0  0.24031  0.77577  0.73768  1.0000
  S   S159      1.0  0.20318  0.71750  0.72802  1.0000
  H   H1271     1.0  0.23904  0.88556  0.52062  1.0000
  C   C710      1.0  0.02495  0.71642  0.50462  1.0000
  H   H1272     1.0  0.03504  0.53557  0.54996  1.0000
  H   H1273     1.0  0.03133  0.57113  0.51258  1.0000
  N   N42       1.0  0.01730  0.51794  0.57682  1.0000
  H   H1274     1.0  0.05984  0.72723  0.72173  1.0000
  H   H1275     1.0  0.27182  0.98306  0.72712  1.0000
  C   C711      1.0  0.08828  0.60275  0.50455  1.0000
  H   H1276     1.0  0.07729  0.56072  0.53750  1.0000
  H   H1277     1.0  0.21202  0.57762  0.72995  1.0000
  C   C712      1.0  0.03523  0.73974  0.50448  1.0000
  C   C713      1.0  0.06085  0.54019  0.56411  1.0000
  H   H1278     1.0  0.20760  0.70664  0.51832  1.0000
  C   C714      1.0  0.23219  0.75262  0.73622  1.0000
  H   H1279     1.0  0.19840  0.81177  0.50085  1.0000
  H   H1280     1.0  0.03336  0.72294  0.71529  1.0000
  C   C715      1.0  0.10510  0.58621  0.73131  1.0000
  H   H1281     1.0  0.99683  0.51083  0.55936  1.0000
  H   H1282     1.0  0.22717  0.76000  0.50123  1.0000
  H   H1283     1.0  0.03128  0.68402  0.50079  1.0000
  C   C716      1.0  0.03898  0.70219  0.50016  1.0000
  H   H1284     1.0  0.19692  0.66315  0.73141  1.0000
  H   H1285     1.0  0.17622  0.58992  0.73258  1.0000
  C   C717      1.0  0.12903  0.59617  0.73338  1.0000
  H   H1286     1.0  0.16773  0.62467  0.73390  1.0000
  H   H1287     1.0  0.10048  0.56656  0.73430  1.0000
  H   H1288     1.0  0.09199  0.59156  0.73988  1.0000
  S   S160      1.0  0.13652  0.70172  0.74520  1.0000
  H   H1289     1.0  0.19273  0.54785  0.73911  1.0000
  C   C718      1.0  0.20276  0.56352  0.74208  1.0000
  C   C719      1.0  0.19412  0.65729  0.74552  1.0000
  H   H1290     1.0  0.15684  0.56264  0.74554  1.0000
  H   H1291     1.0  0.99664  0.55086  0.55861  1.0000
  C   C720      1.0  0.16598  0.77449  0.49740  1.0000
  H   H1292     1.0  0.06710  0.76684  0.49966  1.0000
  Fe  Fe79      1.0  0.24477  0.85997  0.95040  1.0000
  S   S161      1.0  0.27637  0.87096  0.95951  1.0000
  S   S162      1.0  0.22443  0.82144  0.95636  1.0000
  Fe  Fe80      1.0  0.24531  0.91053  0.93557  1.0000
  S   S163      1.0  0.22608  0.93383  0.92351  1.0000
  H   H1293     1.0  0.30587  0.98752  0.96961  1.0000
  Fe  Fe81      1.0  0.26058  0.89817  0.96814  1.0000
  C   C721      1.0  0.05211  0.64056  0.78892  1.0000
  S   S164      1.0  0.26013  0.88491  0.92391  1.0000
  S   S165      1.0  0.22772  0.88470  0.96141  1.0000
  Fe  Fe82      1.0  0.14784  0.75171  0.91131  1.0000
  S   S166      1.0  0.14917  0.71676  0.92649  1.0000
  S   S167      1.0  0.17752  0.78534  0.90219  1.0000
  Fe  Fe83      1.0  0.09781  0.73230  0.91152  1.0000
  S   S168      1.0  0.09468  0.69579  0.92713  1.0000
  S   S169      1.0  0.06880  0.74310  0.90247  1.0000
  Fe  Fe84      1.0  0.11428  0.71446  0.94249  1.0000
  Fe  Fe85      1.0  0.12952  0.70074  0.90985  1.0000
  S   S170      1.0  0.13958  0.67117  0.90014  1.0000
  S   S171      1.0  0.11423  0.75067  0.92859  1.0000
  S   S172      1.0  0.13144  0.73608  0.89293  1.0000
  Fe  Fe86      1.0  0.07325  0.56321  0.88041  1.0000
  S   S173      1.0  0.05262  0.52828  0.87855  1.0000
  S   S174      1.0  0.06342  0.57953  0.90214  1.0000
  Fe  Fe87      1.0  0.10521  0.57506  0.84470  1.0000
  S   S175      1.0  0.08780  0.54136  0.83965  1.0000
  S   S176      1.0  0.13266  0.60556  0.82517  1.0000
  Fe  Fe88      1.0  0.05491  0.54821  0.85180  1.0000
  S   S177      1.0  0.02608  0.54139  0.83928  1.0000
  Fe  Fe89      1.0  0.08706  0.52393  0.86659  1.0000
  S   S178      1.0  0.07239  0.58320  0.85463  1.0000
  S   S179      1.0  0.10770  0.55734  0.87068  1.0000
  H   H1294     1.0  0.02277  0.60610  0.88658  1.0000
  H   H1295     1.0  0.03633  0.65637  0.94787  1.0000
  S   S180      1.0  0.02418  0.67860  0.82130  1.0000
  H   H1296     1.0  0.17552  0.76215  0.93726  1.0000
  H   H1297     1.0  0.29868  0.81208  0.95044  1.0000
  H   H1298     1.0  0.04215  0.66387  0.89538  1.0000
  C   C722      1.0  0.30629  0.95302  0.78993  1.0000
  H   H1299     1.0  0.22797  0.96792  0.78425  1.0000
  C   C723      1.0  0.05162  0.74263  0.77474  1.0000
  C   C724      1.0  0.06000  0.72299  0.77366  1.0000
  H   H1300     1.0  0.04947  0.62462  0.76838  1.0000
  C   C725      1.0  0.16940  0.79652  0.76736  1.0000
  C   C726      1.0  0.24972  0.77076  0.91980  1.0000
  C   C727      1.0  0.29650  0.97365  0.98127  1.0000
  H   H1301     1.0  0.05325  0.70698  0.78413  1.0000
  C   C728      1.0  0.03976  0.50851  0.79046  1.0000
  H   H1302     1.0  0.15836  0.81787  0.96917  1.0000
  H   H1303     1.0  0.29079  0.98052  0.89023  1.0000
  C   C729      1.0  0.12257  0.61533  0.80750  1.0000
  C   C730      1.0  0.10184  0.60202  0.80597  1.0000
  C   C731      1.0  0.09486  0.60844  0.79109  1.0000
  C   C732      1.0  0.10835  0.62841  0.77777  1.0000
  C   C733      1.0  0.12857  0.64242  0.77959  1.0000
  C   C734      1.0  0.13576  0.63580  0.79443  1.0000
  H   H1304     1.0  0.09141  0.58639  0.81606  1.0000
  H   H1305     1.0  0.07907  0.59771  0.78985  1.0000
  C   C735      1.0  0.06730  0.61067  0.98093  1.0000
  H   H1306     1.0  0.15178  0.64617  0.79560  1.0000
  C   C736      1.0  0.01560  0.56505  0.83107  1.0000
  C   C737      1.0  0.02293  0.58752  0.83360  1.0000
  H   H1307     1.0  0.25904  0.81346  0.92988  1.0000
  H   H1308     1.0  0.07176  0.65257  0.95615  1.0000
  H   H1309     1.0  0.12516  0.76027  0.96188  1.0000
  H   H1310     1.0  0.15169  0.81520  0.88658  1.0000
  H   H1311     1.0  0.03567  0.59080  0.84051  1.0000
  H   H1312     1.0  0.16767  0.76092  0.75322  1.0000
  S   S181      1.0  0.26027  0.90433  0.99424  1.0000
  H   H1313     1.0  0.27324  0.84493  0.86775  1.0000
  C   C738      1.0  0.06077  0.69116  0.97329  1.0000
  C   C739      1.0  0.03741  0.68588  0.98189  1.0000
  N   N43       1.0  0.26984  0.79302  0.91263  1.0000
  H   H1314     1.0  0.06571  0.69108  0.96004  1.0000
  H   H1315     1.0  0.02446  0.68151  0.97525  1.0000
  C   C740      1.0  0.11796  0.64585  0.90104  1.0000
  C   C741      1.0  0.12437  0.62590  0.89792  1.0000
  C   C742      1.0  0.10777  0.60574  0.89787  1.0000
  C   C743      1.0  0.08450  0.60504  0.90159  1.0000
  C   C744      1.0  0.07794  0.62478  0.90513  1.0000
  C   C745      1.0  0.09469  0.64535  0.90447  1.0000
  H   H1316     1.0  0.14235  0.62619  0.89518  1.0000
  H   H1317     1.0  0.11297  0.59057  0.89521  1.0000
  H   H1318     1.0  0.05995  0.62439  0.90782  1.0000
  H   H1319     1.0  0.08964  0.66085  0.90643  1.0000
  C   C746      1.0  0.05472  0.72261  0.89309  1.0000
  C   C747      1.0  0.05449  0.69886  0.89805  1.0000
  C   C748      1.0  0.04276  0.68232  0.89103  1.0000
  C   C749      1.0  0.03169  0.68947  0.87859  1.0000
  C   C750      1.0  0.03199  0.71329  0.87345  1.0000
  C   C751      1.0  0.04324  0.72980  0.88090  1.0000
  H   H1320     1.0  0.06298  0.69310  0.90754  1.0000
  H   H1321     1.0  0.02334  0.71890  0.86394  1.0000
  H   H1322     1.0  0.04330  0.74817  0.87705  1.0000
  C   C752      1.0  0.23677  0.94585  0.90127  1.0000
  C   C753      1.0  0.25569  0.94061  0.89190  1.0000
  C   C754      1.0  0.26305  0.94944  0.87394  1.0000
  C   C755      1.0  0.25087  0.96272  0.86541  1.0000
  C   C756      1.0  0.23202  0.96796  0.87483  1.0000
  C   C757      1.0  0.22538  0.96006  0.89274  1.0000
  H   H1323     1.0  0.26451  0.92965  0.89849  1.0000
  H   H1324     1.0  0.27759  0.94528  0.86665  1.0000
  C   C758      1.0  0.01366  0.60578  0.82719  1.0000
  C   C759      1.0  0.19020  0.79512  0.91746  1.0000
  C   C760      1.0  0.20468  0.81831  0.91301  1.0000
  C   C761      1.0  0.21498  0.82675  0.92491  1.0000
  C   C762      1.0  0.21128  0.81181  0.94124  1.0000
  C   C763      1.0  0.19727  0.78843  0.94555  1.0000
  C   C764      1.0  0.18647  0.78016  0.93379  1.0000
  H   H1325     1.0  0.20810  0.82969  0.90024  1.0000
  H   H1326     1.0  0.22602  0.84468  0.92137  1.0000
  H   H1327     1.0  0.19484  0.77670  0.95803  1.0000
  S   S182      1.0  0.10686  0.70302  0.97119  1.0000
  H   H1328     1.0  0.07539  0.64129  0.99176  1.0000
  C   C765      1.0  0.07251  0.63651  0.95168  1.0000
  H   H1329     1.0  0.08525  0.69284  0.78881  1.0000
  C   C766      1.0  0.12455  0.64677  0.94649  1.0000
  H   H1330     1.0  0.04822  0.72481  0.94763  1.0000
  C   C767      1.0  0.12374  0.79672  0.95577  1.0000
  H   H1331     1.0  0.12765  0.63321  0.93977  1.0000
  H   H1332     1.0  0.26665  0.00155  0.91900  1.0000
  H   H1333     1.0  0.10270  0.65163  0.96833  1.0000
  C   C768      1.0  0.17322  0.92866  0.87552  1.0000
  C   C769      1.0  0.13982  0.80797  0.93767  1.0000
  H   H1334     1.0  0.09269  0.60788  0.94061  1.0000
  C   C770      1.0  0.28439  0.95145  0.98036  1.0000
  H   H1335     1.0  0.20631  0.73878  0.92750  1.0000
  H   H1336     1.0  0.06055  0.66739  0.75489  1.0000
  H   H1337     1.0  0.14448  0.83973  0.87454  1.0000
  C   C771      1.0  0.32675  0.86762  0.91324  1.0000
  N   N44       1.0  0.27128  0.99557  0.75969  1.0000
  H   H1338     1.0  0.03193  0.59708  0.86764  1.0000
  H   H1339     1.0  0.22376  0.94234  0.81291  1.0000
  C   C772      1.0  0.31402  0.93481  0.76152  1.0000
  H   H1340     1.0  0.20853  0.73368  0.90668  1.0000
  H   H1341     1.0  0.10611  0.78948  0.95466  1.0000
  C   C773      1.0  0.04560  0.53491  0.79092  1.0000
  N   N45       1.0  0.15345  0.59291  0.75528  1.0000
  H   H1342     1.0  0.01968  0.62172  0.86649  1.0000
  H   H1343     1.0  0.15088  0.70751  0.77516  1.0000
  H   H1344     1.0  0.16071  0.91771  0.87051  1.0000
  C   C774      1.0  0.07756  0.69631  0.98190  1.0000
  C   C775      1.0  0.32737  0.96234  0.77730  1.0000
  H   H1345     1.0  0.21592  0.91945  0.87389  1.0000
  H   H1346     1.0  0.27875  0.78939  0.96870  1.0000
  H   H1347     1.0  0.25651  0.85267  0.88539  1.0000
  C   C776      1.0  0.99727  0.75138  0.91704  1.0000
  H   H1348     1.0  0.14122  0.79440  0.93063  1.0000
  H   H1349     1.0  0.13299  0.82126  0.93046  1.0000
  H   H1350     1.0  0.15731  0.81692  0.93819  1.0000
  C   C777      1.0  0.13335  0.79148  0.99196  1.0000
  H   H1351     1.0  0.15537  0.82234  0.77839  1.0000
  H   H1352     1.0  0.99736  0.70376  0.97041  1.0000
  H   H1353     1.0  0.14306  0.70818  0.99314  1.0000
  H   H1354     1.0  0.16057  0.66688  0.93695  1.0000
  C   C778      1.0  0.28229  0.83554  0.89184  1.0000
  H   H1355     1.0  0.13906  0.65790  0.76936  1.0000
  C   C779      1.0  0.10523  0.63611  0.96367  1.0000
  C   C780      1.0  0.27263  0.80435  0.92699  1.0000
  C   C781      1.0  0.19162  0.88372  0.90693  1.0000
  H   H1356     1.0  0.08936  0.75267  0.98396  1.0000
  H   H1357     1.0  0.18439  0.85085  0.87752  1.0000
  C   C782      1.0  0.16413  0.94934  0.87894  1.0000
  H   H1358     1.0  0.25386  0.77663  0.95109  1.0000
  C   C783      1.0  0.17208  0.87668  0.92383  1.0000
  H   H1359     1.0  0.12246  0.80394  0.99223  1.0000
  H   H1360     1.0  0.21798  0.86802  0.87927  1.0000
  H   H1361     1.0  0.12283  0.77505  0.75258  1.0000
  C   C784      1.0  0.30312  0.87727  0.81043  1.0000
  C   C785      1.0  0.18048  0.86769  0.93935  1.0000
  H   H1362     1.0  0.07130  0.76746  0.93778  1.0000
  H   H1363     1.0  0.20610  0.89761  0.90805  1.0000
  H   H1364     1.0  0.19836  0.86817  0.90663  1.0000
  H   H1365     1.0  0.23787  0.98278  0.75549  1.0000
  H   H1366     1.0  0.18974  0.93641  0.86531  1.0000
  H   H1367     1.0  0.03590  0.61562  0.96259  1.0000
  C   C786      1.0  0.27270  0.93325  0.99529  1.0000
  C   C787      1.0  0.00233  0.65240  0.76015  1.0000
  H   H1368     1.0  0.20550  0.00205  0.75744  1.0000
  H   H1369     1.0  0.01797  0.69970  0.94489  1.0000
  H   H1370     1.0  0.08262  0.51884  0.80190  1.0000
  H   H1371     1.0  0.16607  0.89217  0.92589  1.0000
  H   H1372     1.0  0.15725  0.86251  0.92366  1.0000
  H   H1373     1.0  0.02175  0.63416  0.93918  1.0000
  C   C788      1.0  0.31730  0.77276  0.88474  1.0000
  H   H1374     1.0  0.26318  0.80358  0.88780  1.0000
  C   C789      1.0  0.17640  0.91373  0.89217  1.0000
  H   H1375     1.0  0.25544  0.75564  0.92605  1.0000
  H   H1376     1.0  0.09687  0.76346  0.77841  1.0000
  H   H1377     1.0  0.02114  0.76224  0.94755  1.0000
  C   C790      1.0  0.00777  0.70915  0.93786  1.0000
  H   H1378     1.0  0.23441  0.89176  0.88539  1.0000
  H   H1379     1.0  0.27677  0.97575  0.91775  1.0000
  H   H1380     1.0  0.18644  0.85182  0.93847  1.0000
  H   H1381     1.0  0.19489  0.88179  0.94020  1.0000
  H   H1382     1.0  0.16627  0.86290  0.95129  1.0000
  H   H1383     1.0  0.23504  0.88981  0.84846  1.0000
  H   H1384     1.0  0.15934  0.90815  0.90184  1.0000
  H   H1385     1.0  0.12632  0.53588  0.80952  1.0000
  H   H1386     1.0  0.31772  0.96900  0.90633  1.0000
  H   H1387     1.0  0.15037  0.78093  0.96170  1.0000
  H   H1388     1.0  0.05211  0.62358  0.79739  1.0000
  H   H1389     1.0  0.17638  0.96122  0.88362  1.0000
  H   H1390     1.0  0.27249  0.92815  0.79775  1.0000
  H   H1391     1.0  0.17255  0.72145  0.99234  1.0000
  C   C791      1.0  0.06029  0.76330  0.76117  1.0000
  H   H1392     1.0  0.03302  0.72997  0.96701  1.0000
  H   H1393     1.0  0.14705  0.94273  0.88860  1.0000
  C   C792      1.0  0.14735  0.65864  0.94949  1.0000
  C   C793      1.0  0.16986  0.84956  0.88842  1.0000
  Fe  Fe90      1.0  0.29018  0.89811  0.93395  1.0000
  C   C794      1.0  0.13135  0.77647  0.96604  1.0000
  H   H1394     1.0  0.22264  0.97826  0.86824  1.0000
  H   H1395     1.0  0.05391  0.77851  0.76197  1.0000
  H   H1396     1.0  0.28925  0.81847  0.92300  1.0000
  H   H1397     1.0  0.01924  0.62305  0.82930  1.0000
  S   S183      1.0  0.25759  0.97123  0.84303  1.0000
  H   H1398     1.0  0.15828  0.74884  0.97383  1.0000
  H   H1399     1.0  0.30378  0.84524  0.83888  1.0000
  C   C795      1.0  0.28890  0.93502  0.78813  1.0000
  S   S184      1.0  0.27668  0.92607  0.94311  1.0000
  C   C796      1.0  0.27183  0.78756  0.94433  1.0000
  C   C797      1.0  0.20641  0.90074  0.87538  1.0000
  H   H1400     1.0  0.04996  0.61191  0.94223  1.0000
  H   H1401     1.0  0.28126  0.75677  0.89627  1.0000
  C   C798      1.0  0.12990  0.77440  0.78431  1.0000
  C   C799      1.0  0.10656  0.75595  0.78695  1.0000
  C   C800      1.0  0.16019  0.74228  0.77986  1.0000
  C   C801      1.0  0.15315  0.75668  0.76492  1.0000
  C   C802      1.0  0.27915  0.97702  0.75221  1.0000
  H   H1402     1.0  0.16297  0.88081  0.87538  1.0000
  C   C803      1.0  0.09148  0.74943  0.80537  1.0000
  C   C804      1.0  0.16631  0.72042  0.77587  1.0000
  C   C805      1.0  0.30863  0.99233  0.88605  1.0000
  H   H1403     1.0  0.05391  0.53778  0.80121  1.0000
  H   H1404     1.0  0.99970  0.73727  0.91070  1.0000
  H   H1405     1.0  0.23634  0.77324  0.93008  1.0000
  C   C806      1.0  0.19144  0.83811  0.76631  1.0000
  H   H1406     1.0  0.12324  0.81101  0.96227  1.0000
  H   H1407     1.0  0.17486  0.79021  0.77904  1.0000
  H   H1408     1.0  0.13711  0.76906  0.79525  1.0000
  H   H1409     1.0  0.12547  0.79094  0.78571  1.0000
  H   H1410     1.0  0.10890  0.73939  0.78409  1.0000
  S   S185      1.0  0.27074  0.84120  0.76776  1.0000
  H   H1411     1.0  0.17557  0.75322  0.78221  1.0000
  H   H1412     1.0  0.14595  0.73596  0.79187  1.0000
  C   C807      1.0  0.06211  0.75855  0.95150  1.0000
  C   C808      1.0  0.24368  0.96476  0.78752  1.0000
  C   C809      1.0  0.07490  0.56133  0.94922  1.0000
  Fe  Fe91      1.0  0.29457  0.99197  0.83080  1.0000
  H   H1413     1.0  0.22744  0.72467  0.91895  1.0000
  H   H1414     1.0  0.09155  0.55780  0.95006  1.0000
  C   C810      1.0  0.07728  0.72432  0.75899  1.0000
  H   H1415     1.0  0.07478  0.73656  0.80670  1.0000
  H   H1416     1.0  0.10004  0.74111  0.81450  1.0000
  H   H1417     1.0  0.08780  0.76541  0.80868  1.0000
  H   H1418     1.0  0.32887  0.97141  0.94814  1.0000
  H   H1419     1.0  0.17995  0.72544  0.76357  1.0000
  C   C811      1.0  0.12808  0.74865  0.99363  1.0000
  H   H1420     1.0  0.25712  0.88658  0.85912  1.0000
  C   C812      1.0  0.06878  0.57744  0.96040  1.0000
  H   H1421     1.0  0.15347  0.64538  0.95744  1.0000
  H   H1422     1.0  0.13860  0.74469  0.76225  1.0000
  H   H1423     1.0  0.03779  0.67150  0.76972  1.0000
  H   H1424     1.0  0.25086  0.91466  0.85425  1.0000
  C   C813      1.0  0.26480  0.81052  0.89899  1.0000
  H   H1425     1.0  0.18557  0.62576  0.76584  1.0000
  H   H1426     1.0  0.29637  0.77585  0.91632  1.0000
  H   H1427     1.0  0.14964  0.87146  0.89768  1.0000
  H   H1428     1.0  0.30318  0.96002  0.80092  1.0000
  Fe  Fe92      1.0  0.00982  0.70853  0.81226  1.0000
  H   H1429     1.0  0.06123  0.54414  0.95356  1.0000
  C   C814      1.0  0.99753  0.60169  0.81781  1.0000
  H   H1430     1.0  0.16217  0.95987  0.86687  1.0000
  C   C815      1.0  0.16403  0.61940  0.74813  1.0000
  H   H1431     1.0  0.12196  0.56751  0.75606  1.0000
  H   H1432     1.0  0.99645  0.63507  0.77009  1.0000
  C   C816      1.0  0.04145  0.73799  0.95312  1.0000
  H   H1433     1.0  0.06702  0.56802  0.97389  1.0000
  H   H1434     1.0  0.30216  0.89525  0.80430  1.0000
  H   H1435     1.0  0.19769  0.58772  0.75717  1.0000
  H   H1436     1.0  0.28423  0.84430  0.90215  1.0000
  H   H1437     1.0  0.10316  0.59670  0.95805  1.0000
  C   C817      1.0  0.04062  0.63564  0.77499  1.0000
  C   C818      1.0  0.22520  0.88745  0.87580  1.0000
  C   C819      1.0  0.16619  0.87425  0.88798  1.0000
  H   H1438     1.0  0.05038  0.65252  0.92755  1.0000
  H   H1439     1.0  0.07583  0.60004  0.98890  1.0000
  H   H1440     1.0  0.32877  0.83369  0.90943  1.0000
  H   H1441     1.0  0.08398  0.64340  0.93842  1.0000
  C   C820      1.0  0.16771  0.82455  0.99140  1.0000
  H   H1442     1.0  0.07617  0.56964  0.93562  1.0000
  H   H1443     1.0  0.24742  0.76186  0.89532  1.0000
  C   C821      1.0  0.21858  0.73847  0.91569  1.0000
  H   H1444     1.0  0.30770  0.86927  0.79963  1.0000
  C   C822      1.0  0.15002  0.58631  0.77444  1.0000
  C   C823      1.0  0.23862  0.95845  0.80705  1.0000
  H   H1445     1.0  0.20130  0.90087  0.86327  1.0000
  H   H1446     1.0  0.16329  0.83031  0.75533  1.0000
  H   H1447     1.0  0.11221  0.62573  0.97310  1.0000
  C   C824      1.0  0.13490  0.56076  0.78434  1.0000
  C   C825      1.0  0.06148  0.55147  0.77383  1.0000
  N   N46       1.0  0.00221  0.72833  0.94572  1.0000
  H   H1448     1.0  0.17284  0.71155  0.78621  1.0000
  C   C826      1.0  0.13808  0.55368  0.80232  1.0000
  H   H1449     1.0  0.13338  0.82970  0.89770  1.0000
  H   H1450     1.0  0.14175  0.59851  0.78012  1.0000
  H   H1451     1.0  0.16669  0.58892  0.77773  1.0000
  C   C827      1.0  0.02465  0.74659  0.94345  1.0000
  H   H1452     1.0  0.31745  0.00215  0.91586  1.0000
  C   C828      1.0  0.03872  0.64318  0.94057  1.0000
  H   H1453     1.0  0.30780  0.90653  0.82795  1.0000
  H   H1454     1.0  0.18804  0.92590  0.89707  1.0000
  N   N47       1.0  0.14755  0.77913  0.76742  1.0000
  H   H1455     1.0  0.26983  0.81404  0.95857  1.0000
  S   S186      1.0  0.10037  0.63428  0.75858  1.0000
  H   H1456     1.0  0.11640  0.55978  0.78580  1.0000
  H   H1457     1.0  0.13910  0.54765  0.77749  1.0000
  H   H1458     1.0  0.05647  0.77167  0.95776  1.0000
  H   H1459     1.0  0.25376  0.95479  0.81112  1.0000
  H   H1460     1.0  0.30673  0.80391  0.90131  1.0000
  H   H1461     1.0  0.07849  0.54776  0.77125  1.0000
  C   C829      1.0  0.13776  0.78884  0.75315  1.0000
  H   H1462     1.0  0.07421  0.75161  0.95793  1.0000
  C   C830      1.0  0.99930  0.56105  0.82184  1.0000
  C   C831      1.0  0.25095  0.99989  0.75355  1.0000
  H   H1463     1.0  0.15607  0.55316  0.80165  1.0000
  H   H1464     1.0  0.13398  0.56647  0.80954  1.0000
  C   C832      1.0  0.24310  0.89512  0.85833  1.0000
  H   H1465     1.0  0.05179  0.57971  0.95954  1.0000
  H   H1466     1.0  0.28261  0.77538  0.94256  1.0000
  H   H1467     1.0  0.11659  0.73316  0.99147  1.0000
  H   H1468     1.0  0.02607  0.50593  0.78364  1.0000
  H   H1469     1.0  0.28854  0.78502  0.88033  1.0000
  H   H1470     1.0  0.31786  0.76450  0.87393  1.0000
  C   C833      1.0  0.27835  0.86263  0.82143  1.0000
  H   H1471     1.0  0.14533  0.67274  0.95598  1.0000
  C   C834      1.0  0.26036  0.86604  0.81182  1.0000
  C   C835      1.0  0.14851  0.83263  0.88671  1.0000
  H   H1472     1.0  0.24673  0.94903  0.78347  1.0000
  H   H1473     1.0  0.17296  0.84140  0.90069  1.0000
  H   H1474     1.0  0.30369  0.88114  0.84478  1.0000
  C   C836      1.0  0.28031  0.80170  0.95619  1.0000
  C   C837      1.0  0.29307  0.77504  0.89136  1.0000
  H   H1475     1.0  0.27367  0.86774  0.83352  1.0000
  H   H1476     1.0  0.27710  0.84340  0.82462  1.0000
  H   H1477     1.0  0.27952  0.98196  0.78322  1.0000
  C   C838      1.0  0.04851  0.62476  0.94994  1.0000
  H   H1478     1.0  0.31505  0.90261  0.98742  1.0000
  C   C839      1.0  0.26494  0.98679  0.77900  1.0000
  H   H1479     1.0  0.26456  0.86144  0.79947  1.0000
  H   H1480     1.0  0.24311  0.85432  0.81964  1.0000
  H   H1481     1.0  0.25958  0.88468  0.80930  1.0000
  H   H1482     1.0  0.07019  0.65154  0.78305  1.0000
  S   S187      1.0  0.32728  0.91113  0.91861  1.0000
  H   H1483     1.0  0.29945  0.83461  0.88505  1.0000
  C   C840      1.0  0.29210  0.78749  0.90588  1.0000
  H   H1484     1.0  0.02265  0.62486  0.78132  1.0000
  H   H1485     1.0  0.28460  0.94820  0.96810  1.0000
  H   H1486     1.0  0.18405  0.79752  0.75650  1.0000
  S   S188      1.0  0.03124  0.74283  0.79300  1.0000
  H   H1487     1.0  0.11994  0.66052  0.93778  1.0000
  H   H1488     1.0  0.28582  0.86979  0.87505  1.0000
  C   C841      1.0  0.27390  0.85163  0.87919  1.0000
  Fe  Fe93      1.0  0.28382  0.88065  0.75681  1.0000
  N   N48       1.0  0.12306  0.77113  0.98529  1.0000
  N   N49       1.0  0.08929  0.66009  0.84509  1.0000
  C   C842      1.0  0.09858  0.66701  0.82583  1.0000
  C   C843      1.0  0.10512  0.64845  0.85330  1.0000
  C   C844      1.0  0.06583  0.64230  0.84971  1.0000
  C   C845      1.0  0.08598  0.68088  0.85185  1.0000
  C   C846      1.0  0.10729  0.70257  0.84712  1.0000
  C   C847      1.0  0.08348  0.67729  0.81533  1.0000
  C   C848      1.0  0.05489  0.62957  0.86909  1.0000
  C   C849      1.0  0.13132  0.65728  0.84378  1.0000
  C   C850      1.0  0.14568  0.64704  0.85462  1.0000
  C   C851      1.0  0.10090  0.72271  0.85383  1.0000
  C   C852      1.0  0.09648  0.68633  0.79631  1.0000
  C   C853      1.0  0.03089  0.61266  0.87253  1.0000
  H   H1489     1.0  0.10136  0.65117  0.82160  1.0000
  H   H1490     1.0  0.11577  0.68018  0.82151  1.0000
  H   H1491     1.0  0.10296  0.64968  0.86675  1.0000
  H   H1492     1.0  0.10040  0.62912  0.85430  1.0000
  H   H1493     1.0  0.06661  0.62843  0.84277  1.0000
  H   H1494     1.0  0.05314  0.65101  0.84542  1.0000
  H   H1495     1.0  0.07173  0.68709  0.84792  1.0000
  H   H1496     1.0  0.08025  0.67529  0.86610  1.0000
  H   H1497     1.0  0.11476  0.70953  0.83305  1.0000
  H   H1498     1.0  0.12048  0.69777  0.85327  1.0000
  H   H1499     1.0  0.06759  0.66330  0.81665  1.0000
  H   H1500     1.0  0.07868  0.69227  0.81952  1.0000
  H   H1501     1.0  0.05301  0.64247  0.87658  1.0000
  H   H1502     1.0  0.06568  0.61905  0.87418  1.0000
  H   H1503     1.0  0.13442  0.65149  0.83184  1.0000
  H   H1504     1.0  0.13816  0.67679  0.84008  1.0000
  H   H1505     1.0  0.13862  0.62745  0.85964  1.0000
  H   H1506     1.0  0.16368  0.65113  0.84666  1.0000
  H   H1507     1.0  0.14602  0.65520  0.86540  1.0000
  H   H1508     1.0  0.11627  0.73834  0.84993  1.0000
  H   H1509     1.0  0.08712  0.72804  0.84863  1.0000
  H   H1510     1.0  0.09483  0.71710  0.86806  1.0000
  H   H1511     1.0  0.11209  0.70106  0.79418  1.0000
  H   H1512     1.0  0.10178  0.67191  0.79156  1.0000
  C   C854      1.0  0.29271  0.92597  0.77389  1.0000
  C   C855      1.0  0.08782  0.60145  0.95491  1.0000
  C   C856      1.0  0.23611  0.76278  0.90726  1.0000
  H   H1513     1.0  0.04262  0.64991  0.79683  1.0000
  H   H1514     1.0  0.31347  0.99697  0.87181  1.0000
  H   H1515     1.0  0.22630  0.77549  0.90356  1.0000
  H   H1516     1.0  0.21091  0.96437  0.89999  1.0000
  C   C857      1.0  0.31636  0.89304  0.83279  1.0000
  H   H1517     1.0  0.24772  0.81303  0.90422  1.0000
  N   N50       1.0  0.08268  0.62092  0.96279  1.0000
  N   N51       1.0  0.18526  0.89255  0.89062  1.0000
  C   C858      1.0  0.16813  0.82216  0.76683  1.0000
  H   H1518     1.0  0.03463  0.75341  0.92972  1.0000
  H   H1519     1.0  0.02950  0.54045  0.79344  1.0000
  S   S189      1.0  0.01724  0.66783  0.87028  1.0000
  S   S190      1.0  0.27024  0.90470  0.77120  1.0000
  Fe  Fe94      1.0  0.00359  0.67747  0.84743  1.0000
  H   H1520     1.0  0.11797  0.59416  0.76032  1.0000
  H   H1521     1.0  0.32109  0.84324  0.81939  1.0000
  H   H1522     1.0  0.26517  0.96006  0.75638  1.0000
  H   H1523     1.0  0.05096  0.59800  0.98143  1.0000
  Fe  Fe95      1.0  0.30813  0.84212  0.75974  1.0000
  H   H1524     1.0  0.19726  0.83093  0.77761  1.0000
  H   H1525     1.0  0.30531  0.94307  0.88904  1.0000
  H   H1526     1.0  0.31690  0.92575  0.85192  1.0000
  C   C859      1.0  0.32254  0.91154  0.99625  1.0000
  C   C860      1.0  0.32042  0.85396  0.82887  1.0000
  C   C861      1.0  0.29727  0.97778  0.99715  1.0000
  C   C862      1.0  0.04206  0.65914  0.76209  1.0000
  H   H1527     1.0  0.01936  0.71708  0.92461  1.0000
  H   H1528     1.0  0.06423  0.57019  0.77431  1.0000
  H   H1529     1.0  0.19001  0.85616  0.76641  1.0000
  S   S191      1.0  0.32101  0.88166  0.75080  1.0000
  H   H1530     1.0  0.17891  0.55835  0.76632  1.0000
  H   H1531     1.0  0.23436  0.97321  0.81195  1.0000
  H   H1532     1.0  0.01392  0.51294  0.81856  1.0000
  H   H1533     1.0  0.00086  0.66568  0.76759  1.0000
  H   H1534     1.0  0.05366  0.54927  0.76318  1.0000
  H   H1535     1.0  0.18529  0.83567  0.98371  1.0000
  C   C863      1.0  0.18695  0.63025  0.75193  1.0000
  H   H1536     1.0  0.02157  0.61945  0.75237  1.0000
  C   C864      1.0  0.15820  0.80717  0.98187  1.0000
  N   N52       1.0  0.32147  0.87903  0.81998  1.0000
  H   H1537     1.0  0.99989  0.68708  0.91163  1.0000
  C   C865      1.0  0.18686  0.57270  0.75417  1.0000
  S   S192      1.0  0.32296  0.82233  0.77899  1.0000
  H   H1538     1.0  0.26060  0.97420  0.94755  1.0000
  H   H1539     1.0  0.13059  0.80353  0.75577  1.0000
  H   H1540     1.0  0.21050  0.66476  0.74844  1.0000
  H   H1541     1.0  0.15144  0.62881  0.75283  1.0000
  H   H1542     1.0  0.00875  0.66874  0.92777  1.0000
  H   H1543     1.0  0.29130  0.97892  0.94347  1.0000
  H   H1544     1.0  0.32645  0.96269  0.86973  1.0000
  H   H1545     1.0  0.08389  0.70929  0.75811  1.0000
  H   H1546     1.0  0.05071  0.63919  0.98327  1.0000
  H   H1547     1.0  0.26152  0.99918  0.89434  1.0000
  H   H1548     1.0  0.29332  0.97253  0.75728  1.0000
  H   H1549     1.0  0.31375  0.86017  0.92543  1.0000
  H   H1550     1.0  0.03690  0.70450  0.75191  1.0000
  C   C866      1.0  0.32372  0.97666  0.89220  1.0000
  H   H1551     1.0  0.31781  0.92808  0.96314  1.0000
  H   H1552     1.0  0.04923  0.50536  0.82487  1.0000
  H   H1553     1.0  0.01397  0.76523  0.91350  1.0000
  C   C867      1.0  0.27769  0.98700  0.94048  1.0000
  H   H1554     1.0  0.32021  0.81580  0.85560  1.0000
  H   H1555     1.0  0.26213  0.00119  0.78500  1.0000
  C   C868      1.0  0.28013  0.99277  0.92123  1.0000
  C   C869      1.0  0.15291  0.74676  0.98781  1.0000
  H   H1556     1.0  0.32106  0.89970  0.86515  1.0000
  H   H1557     1.0  0.32209  0.76143  0.89506  1.0000
  H   H1558     1.0  0.27908  0.00329  0.94496  1.0000
  H   H1559     1.0  0.17041  0.79659  0.97956  1.0000
  N   N53       1.0  0.02699  0.65698  0.75003  1.0000
  H   H1560     1.0  0.18078  0.66465  0.75191  1.0000
  H   H1561     1.0  0.15657  0.83642  0.99339  1.0000
  C   C870      1.0  0.12988  0.58704  0.75214  1.0000
  H   H1562     1.0  0.09218  0.78249  0.98482  1.0000
  H   H1563     1.0  0.20464  0.83963  0.75443  1.0000
  S   S193      1.0  0.32391  0.97572  0.82819  1.0000
  C   C871      1.0  0.06021  0.62883  0.99031  1.0000
  C   C872      1.0  0.09711  0.76628  0.98999  1.0000
  H   H1564     1.0  0.31695  0.92826  0.75032  1.0000
  C   C873      1.0  0.32255  0.95616  0.88389  1.0000
  H   H1565     1.0  0.16514  0.76002  0.99140  1.0000
  H   H1566     1.0  0.05481  0.50595  0.78190  1.0000
  C   C874      1.0  0.15457  0.72236  0.99661  1.0000
  H   H1567     1.0  0.21576  0.55816  0.74826  1.0000
  C   C875      1.0  0.35190  0.25837  0.01124  1.0000
  C   C876      1.0  0.36444  0.01966  0.12638  1.0000
  S   S194      1.0  0.58631  0.06830  0.16331  1.0000
  C   C877      1.0  0.34519  0.13155  0.04598  1.0000
  C   C878      1.0  0.36147  0.10524  0.07027  1.0000
  C   C879      1.0  0.37438  0.36671  0.12148  1.0000
  C   C880      1.0  0.48662  0.34751  0.22328  1.0000
  H   H1568     1.0  0.49491  0.38932  0.20028  1.0000
  C   C881      1.0  0.39435  0.08811  0.02023  1.0000
  Fe  Fe96      1.0  0.39437  0.22453  0.09200  1.0000
  S   S195      1.0  0.36902  0.18970  0.10730  1.0000
  S   S196      1.0  0.42206  0.23708  0.10485  1.0000
  Fe  Fe97      1.0  0.37243  0.17921  0.08283  1.0000
  S   S197      1.0  0.37423  0.14184  0.08414  1.0000
  H   H1569     1.0  0.37960  0.24750  0.13314  1.0000
  H   H1570     1.0  0.40155  0.15977  0.04256  1.0000
  S   S198      1.0  0.40043  0.21252  0.06784  1.0000
  S   S199      1.0  0.36740  0.24185  0.08577  1.0000
  C   C882      1.0  0.40897  0.38606  0.14069  1.0000
  Fe  Fe98      1.0  0.50146  0.37632  0.14685  1.0000
  S   S200      1.0  0.49452  0.34159  0.13974  1.0000
  S   S201      1.0  0.53476  0.40654  0.13523  1.0000
  Fe  Fe99      1.0  0.45270  0.36391  0.16977  1.0000
  S   S202      1.0  0.44169  0.32821  0.16523  1.0000
  S   S203      1.0  0.43038  0.38141  0.18493  1.0000
  Fe  Fe100     1.0  0.47637  0.32533  0.16780  1.0000
  S   S204      1.0  0.48085  0.29017  0.18045  1.0000
  Fe  Fe101     1.0  0.46019  0.34662  0.13771  1.0000
  S   S205      1.0  0.44051  0.33909  0.11841  1.0000
  S   S206      1.0  0.48592  0.35947  0.17507  1.0000
  S   S207      1.0  0.46875  0.38288  0.14201  1.0000
  H   H1571     1.0  0.54660  0.47029  0.14682  1.0000
  C   C883      1.0  0.52225  0.20700  0.22777  1.0000
  H   H1572     1.0  0.36241  0.21484  0.19399  1.0000
  H   H1573     1.0  0.49440  0.03706  0.22930  1.0000
  H   H1574     1.0  0.41534  0.38692  0.12695  1.0000
  C   C884      1.0  0.37754  0.29473  0.14792  1.0000
  C   C885      1.0  0.36975  0.31567  0.13991  1.0000
  C   C886      1.0  0.47185  0.03915  0.20479  1.0000
  H   H1575     1.0  0.47993  0.07750  0.17399  1.0000
  H   H1576     1.0  0.34935  0.33569  0.11858  1.0000
  H   H1577     1.0  0.49917  0.00837  0.21170  1.0000
  C   C887      1.0  0.40028  0.36966  0.18964  1.0000
  C   C888      1.0  0.39016  0.34674  0.18886  1.0000
  C   C889      1.0  0.36598  0.33775  0.19329  1.0000
  H   H1578     1.0  0.54152  0.33839  0.21511  1.0000
  C   C890      1.0  0.36217  0.37489  0.19857  1.0000
  C   C891      1.0  0.38618  0.38357  0.19466  1.0000
  H   H1579     1.0  0.40087  0.33578  0.18517  1.0000
  H   H1580     1.0  0.35830  0.31986  0.19314  1.0000
  H   H1581     1.0  0.54723  0.11957  0.10381  1.0000
  H   H1582     1.0  0.39386  0.40125  0.19536  1.0000
  C   C892      1.0  0.39998  0.17924  0.01828  1.0000
  H   H1583     1.0  0.63821  0.09608  0.09329  1.0000
  S   S208      1.0  0.37974  0.04513  0.24346  1.0000
  H   H1584     1.0  0.57363  0.11916  0.07615  1.0000
  H   H1585     1.0  0.54359  0.47539  0.17288  1.0000
  C   C893      1.0  0.49730  0.27145  0.22503  1.0000
  C   C894      1.0  0.49712  0.27552  0.20777  1.0000
  C   C895      1.0  0.48038  0.28492  0.20219  1.0000
  C   C896      1.0  0.46306  0.28903  0.21410  1.0000
  H   H1586     1.0  0.54004  0.48174  0.12766  1.0000
  H   H1587     1.0  0.37982  0.05094  0.20561  1.0000
  H   H1588     1.0  0.51042  0.27214  0.19861  1.0000
  H   H1589     1.0  0.44984  0.29584  0.20993  1.0000
  H   H1590     1.0  0.45367  0.14018  0.06569  1.0000
  H   H1591     1.0  0.46861  0.14414  0.15750  1.0000
  H   H1592     1.0  0.58718  0.11554  0.10144  1.0000
  H   H1593     1.0  0.55555  0.01658  0.12982  1.0000
  Fe  Fe102     1.0  0.65422  0.05066  0.18352  1.0000
  H   H1594     1.0  0.61582  0.12373  0.06844  1.0000
  H   H1595     1.0  0.33762  0.04956  0.10479  1.0000
  H   H1596     1.0  0.36044  0.02151  0.21049  1.0000
  H   H1597     1.0  0.41593  0.14087  0.06051  1.0000
  H   H1598     1.0  0.50963  0.47620  0.16384  1.0000
  H   H1599     1.0  0.37900  0.35361  0.09050  1.0000
  H   H1600     1.0  0.57699  0.49184  0.11334  1.0000
  H   H1601     1.0  0.44386  0.32261  0.23005  1.0000
  C   C897      1.0  0.33394  0.12884  0.19532  1.0000
  C   C898      1.0  0.42626  0.26526  0.10895  1.0000
  C   C899      1.0  0.41555  0.28178  0.10218  1.0000
  C   C900      1.0  0.41994  0.30431  0.10524  1.0000
  C   C901      1.0  0.43488  0.31043  0.11520  1.0000
  C   C902      1.0  0.44512  0.29370  0.12233  1.0000
  C   C903      1.0  0.44091  0.27129  0.11912  1.0000
  H   H1602     1.0  0.40421  0.27739  0.09433  1.0000
  H   H1603     1.0  0.41188  0.31713  0.09972  1.0000
  H   H1604     1.0  0.45666  0.29826  0.13002  1.0000
  H   H1605     1.0  0.44920  0.25867  0.12444  1.0000
  C   C904      1.0  0.36211  0.12877  0.06991  1.0000
  H   H1606     1.0  0.35235  0.07673  0.05879  1.0000
  C   C905      1.0  0.35249  0.09481  0.05858  1.0000
  H   H1607     1.0  0.52055  0.36412  0.22686  1.0000
  C   C906      1.0  0.46266  0.28392  0.23153  1.0000
  C   C907      1.0  0.35375  0.14181  0.05785  1.0000
  H   H1608     1.0  0.35145  0.38595  0.20220  1.0000
  Fe  Fe103     1.0  0.63883  0.01357  0.16573  1.0000
  C   C908      1.0  0.43927  0.14353  0.03556  1.0000
  H   H1609     1.0  0.53786  0.20451  0.23164  1.0000
  H   H1610     1.0  0.37724  0.37404  0.16103  1.0000
  H   H1611     1.0  0.54867  0.08342  0.15468  1.0000
  C   C909      1.0  0.57866  0.44585  0.16456  1.0000
  C   C910      1.0  0.55820  0.42778  0.17361  1.0000
  C   C911      1.0  0.54459  0.41553  0.16485  1.0000
  C   C912      1.0  0.55139  0.42114  0.14692  1.0000
  C   C913      1.0  0.57187  0.43917  0.13790  1.0000
  C   C914      1.0  0.58546  0.45145  0.14666  1.0000
  H   H1612     1.0  0.55293  0.42316  0.18747  1.0000
  H   H1613     1.0  0.52894  0.40165  0.17193  1.0000
  H   H1614     1.0  0.57736  0.44350  0.12404  1.0000
  H   H1615     1.0  0.60143  0.46487  0.13957  1.0000
  Fe  Fe104     1.0  0.37115  0.22707  0.06278  1.0000
  N   N54       1.0  0.47672  0.19065  0.11061  1.0000
  C   C915      1.0  0.46337  0.19236  0.09734  1.0000
  C   C916      1.0  0.49219  0.21488  0.10908  1.0000
  C   C917      1.0  0.49202  0.17494  0.10682  1.0000
  C   C918      1.0  0.46110  0.17949  0.12862  1.0000
  C   C919      1.0  0.43993  0.18872  0.13388  1.0000
  C   C920      1.0  0.44829  0.16844  0.09658  1.0000
  C   C921      1.0  0.50875  0.17233  0.11821  1.0000
  C   C922      1.0  0.48321  0.23664  0.10362  1.0000
  C   C923      1.0  0.49829  0.25912  0.10577  1.0000
  C   C924      1.0  0.42500  0.17435  0.15191  1.0000
  C   C925      1.0  0.43136  0.17233  0.08606  1.0000
  C   C926      1.0  0.52315  0.15599  0.11323  1.0000
  H   H1616     1.0  0.47543  0.20114  0.08431  1.0000
  H   H1617     1.0  0.45195  0.20399  0.09923  1.0000
  H   H1618     1.0  0.49680  0.21528  0.12132  1.0000
  H   H1619     1.0  0.50892  0.21874  0.09925  1.0000
  H   H1620     1.0  0.50250  0.18149  0.09315  1.0000
  H   H1621     1.0  0.48149  0.15660  0.10839  1.0000
  H   H1622     1.0  0.45447  0.15996  0.13092  1.0000
  H   H1623     1.0  0.47100  0.18163  0.13819  1.0000
  H   H1624     1.0  0.42874  0.18719  0.12511  1.0000
  H   H1625     1.0  0.44548  0.20739  0.13418  1.0000
  H   H1626     1.0  0.45927  0.15857  0.09046  1.0000
  H   H1627     1.0  0.43814  0.15713  0.10954  1.0000
  H   H1628     1.0  0.49908  0.16444  0.13189  1.0000
  H   H1629     1.0  0.52081  0.18972  0.11690  1.0000
  H   H1630     1.0  0.48330  0.23996  0.08989  1.0000
  H   H1631     1.0  0.46548  0.23386  0.11118  1.0000
  H   H1632     1.0  0.49170  0.27441  0.10128  1.0000
  H   H1633     1.0  0.49781  0.25723  0.11947  1.0000
  H   H1634     1.0  0.51639  0.26301  0.09805  1.0000
  H   H1635     1.0  0.40974  0.18097  0.15533  1.0000
  H   H1636     1.0  0.41881  0.15530  0.15244  1.0000
  H   H1637     1.0  0.43493  0.17607  0.16151  1.0000
  H   H1638     1.0  0.44057  0.18362  0.07284  1.0000
  H   H1639     1.0  0.42150  0.15494  0.08531  1.0000
  H   H1640     1.0  0.41894  0.18077  0.09232  1.0000
  H   H1641     1.0  0.51181  0.13802  0.11486  1.0000
  H   H1642     1.0  0.53380  0.16333  0.09971  1.0000
  H   H1643     1.0  0.53478  0.15421  0.12166  1.0000
  C   C927      1.0  0.63603  0.10743  0.12376  1.0000
  H   H1644     1.0  0.46511  0.02509  0.21723  1.0000
  H   H1645     1.0  0.37681  0.39475  0.14247  1.0000
  C   C928      1.0  0.33240  0.25890  0.00516  1.0000
  S   S209      1.0  0.65132  0.08035  0.16320  1.0000
  H   H1646     1.0  0.60075  0.09887  0.12346  1.0000
  H   H1647     1.0  0.35332  0.01891  0.16137  1.0000
  C   C929      1.0  0.44101  0.16316  0.00547  1.0000
  C   C930      1.0  0.52238  0.33280  0.21888  1.0000
  N   N55       1.0  0.60380  0.09229  0.08983  1.0000
  C   C931      1.0  0.58238  0.09862  0.09783  1.0000
  C   C932      1.0  0.48014  0.27577  0.23691  1.0000
  H   H1648     1.0  0.34195  0.03331  0.18618  1.0000
  H   H1649     1.0  0.47843  0.19439  0.22642  1.0000
  C   C933      1.0  0.37028  0.23130  0.14382  1.0000
  H   H1650     1.0  0.48630  0.08751  0.19884  1.0000
  Fe  Fe105     1.0  0.43429  0.02577  0.14022  1.0000
  Fe  Fe106     1.0  0.62110  0.49726  0.16671  1.0000
  H   H1651     1.0  0.36895  0.26634  0.00249  1.0000
  H   H1652     1.0  0.39659  0.29967  0.14532  1.0000
  H   H1653     1.0  0.59859  0.09908  0.06428  1.0000
  C   C934      1.0  0.36598  0.18585  0.21238  1.0000
  S   S210      1.0  0.37669  0.09732  0.22366  1.0000
  H   H1654     1.0  0.37728  0.22293  0.20941  1.0000
  C   C935      1.0  0.49948  0.07959  0.19293  1.0000
  H   H1655     1.0  0.37831  0.18153  0.21965  1.0000
  H   H1656     1.0  0.40813  0.21438  0.02265  1.0000
  H   H1657     1.0  0.64367  0.43710  0.21854  1.0000
  C   C936      1.0  0.61656  0.09454  0.11755  1.0000
  H   H1658     1.0  0.50915  0.43782  0.15690  1.0000
  H   H1659     1.0  0.50526  0.11139  0.15097  1.0000
  H   H1660     1.0  0.56809  0.01739  0.08336  1.0000
  H   H1661     1.0  0.41002  0.18650  0.00463  1.0000
  C   C937      1.0  0.51342  0.35455  0.21829  1.0000
  H   H1662     1.0  0.37623  0.33221  0.15995  1.0000
  H   H1663     1.0  0.41568  0.37309  0.14840  1.0000
  H   H1664     1.0  0.48262  0.44531  0.15672  1.0000
  C   C938      1.0  0.51643  0.02136  0.20597  1.0000
  C   C939      1.0  0.36438  0.36111  0.09410  1.0000
  H   H1665     1.0  0.36495  0.09457  0.13188  1.0000
  H   H1666     1.0  0.35509  0.30050  0.23441  1.0000
  Fe  Fe107     1.0  0.35191  0.06120  0.23690  1.0000
  C   C940      1.0  0.62264  0.10189  0.09764  1.0000
  H   H1667     1.0  0.48012  0.33238  0.23513  1.0000
  C   C941      1.0  0.45376  0.12232  0.18340  1.0000
  C   C942      1.0  0.50105  0.19600  0.24322  1.0000
  H   H1668     1.0  0.46678  0.15559  0.23381  1.0000
  H   H1669     1.0  0.33831  0.38392  0.13578  1.0000
  H   H1670     1.0  0.42472  0.11482  0.00439  1.0000
  C   C943      1.0  0.59950  0.06576  0.09381  1.0000
  H   H1671     1.0  0.40054  0.07351  0.01642  1.0000
  C   C944      1.0  0.55404  0.03117  0.13524  1.0000
  H   H1672     1.0  0.43126  0.11364  0.07843  1.0000
  N   N56       1.0  0.42540  0.15071  0.02341  1.0000
  H   H1673     1.0  0.51534  0.06523  0.22045  1.0000
  H   H1674     1.0  0.42706  0.18297  0.03137  1.0000
  H   H1675     1.0  0.35978  0.05371  0.12661  1.0000
  C   C945      1.0  0.43553  0.33702  0.22956  1.0000
  C   C946      1.0  0.34463  0.35172  0.15027  1.0000
  H   H1676     1.0  0.64893  0.10486  0.06554  1.0000
  C   C947      1.0  0.45308  0.36163  0.22008  1.0000
  H   H1677     1.0  0.52046  0.19836  0.21735  1.0000
  H   H1678     1.0  0.59306  0.05758  0.10788  1.0000
  H   H1679     1.0  0.37198  0.28003  0.14228  1.0000
  H   H1680     1.0  0.59861  0.02542  0.08134  1.0000
  H   H1681     1.0  0.53345  0.08843  0.10713  1.0000
  H   H1682     1.0  0.52467  0.22634  0.22284  1.0000
  N   N57       1.0  0.49564  0.05443  0.20327  1.0000
  H   H1683     1.0  0.50339  0.44908  0.13676  1.0000
  C   C948      1.0  0.41675  0.33165  0.22050  1.0000
  H   H1684     1.0  0.51647  0.09086  0.19293  1.0000
  H   H1685     1.0  0.44479  0.23006  0.24330  1.0000
  H   H1686     1.0  0.34297  0.09708  0.16152  1.0000
  H   H1687     1.0  0.48194  0.33981  0.21295  1.0000
  H   H1688     1.0  0.45725  0.36322  0.20608  1.0000
  C   C949      1.0  0.64033  0.11183  0.04171  1.0000
  H   H1689     1.0  0.56411  0.05254  0.09265  1.0000
  H   H1690     1.0  0.38195  0.20646  0.01638  1.0000
  H   H1691     1.0  0.38394  0.08132  0.03380  1.0000
  H   H1692     1.0  0.65587  0.10782  0.03486  1.0000
  H   H1693     1.0  0.61593  0.06117  0.08997  1.0000
  H   H1694     1.0  0.47760  0.03786  0.17777  1.0000
  C   C950      1.0  0.49040  0.39062  0.21374  1.0000
  C   C951      1.0  0.33618  0.06020  0.15973  1.0000
  C   C952      1.0  0.64422  0.45604  0.21405  1.0000
  H   H1695     1.0  0.63974  0.12695  0.11890  1.0000
  H   H1696     1.0  0.43542  0.02881  0.18910  1.0000
  C   C953      1.0  0.46946  0.02594  0.19080  1.0000
  H   H1697     1.0  0.38261  0.19351  0.03785  1.0000
  H   H1698     1.0  0.39114  0.02588  0.20492  1.0000
  H   H1699     1.0  0.38140  0.03678  0.14951  1.0000
  H   H1700     1.0  0.40554  0.31332  0.22653  1.0000
  H   H1701     1.0  0.58245  0.03024  0.14648  1.0000
  C   C954      1.0  0.49818  0.08309  0.17416  1.0000
  H   H1702     1.0  0.35039  0.35323  0.08879  1.0000
  H   H1703     1.0  0.45955  0.13599  0.00225  1.0000
  H   H1704     1.0  0.60877  0.44658  0.21274  1.0000
  H   H1705     1.0  0.45225  0.15956  0.03582  1.0000
  N   N58       1.0  0.40932  0.23846  0.17530  1.0000
  C   C955      1.0  0.39411  0.24367  0.16373  1.0000
  C   C956      1.0  0.41460  0.25780  0.18422  1.0000
  C   C957      1.0  0.43192  0.23838  0.16400  1.0000
  C   C958      1.0  0.39895  0.21461  0.18827  1.0000
  C   C959      1.0  0.37535  0.21118  0.20084  1.0000
  C   C960      1.0  0.38630  0.22450  0.15452  1.0000
  C   C961      1.0  0.45027  0.23301  0.17327  1.0000
  C   C962      1.0  0.39564  0.27020  0.18909  1.0000
  C   C963      1.0  0.40000  0.28311  0.20257  1.0000
  H   H1706     1.0  0.45939  0.05000  0.20514  1.0000
  C   C964      1.0  0.41631  0.22110  0.23273  1.0000
  C   C965      1.0  0.47380  0.23873  0.16041  1.0000
  H   H1707     1.0  0.40310  0.26074  0.15368  1.0000
  H   H1708     1.0  0.37798  0.24625  0.17086  1.0000
  H   H1709     1.0  0.41958  0.25090  0.19602  1.0000
  H   H1710     1.0  0.43006  0.27254  0.17611  1.0000
  H   H1711     1.0  0.43979  0.25590  0.15426  1.0000
  H   H1712     1.0  0.42931  0.22500  0.15673  1.0000
  H   H1713     1.0  0.39764  0.20011  0.18183  1.0000
  H   H1714     1.0  0.41056  0.21130  0.19648  1.0000
  H   H1715     1.0  0.53194  0.05838  0.19262  1.0000
  H   H1716     1.0  0.47782  0.01141  0.19225  1.0000
  H   H1717     1.0  0.40113  0.22212  0.14559  1.0000
  C   C966      1.0  0.48050  0.06639  0.23102  1.0000
  H   H1718     1.0  0.44530  0.21389  0.18021  1.0000
  H   H1719     1.0  0.45230  0.24342  0.18266  1.0000
  H   H1720     1.0  0.39591  0.28357  0.17750  1.0000
  H   H1721     1.0  0.37804  0.25790  0.19423  1.0000
  H   H1722     1.0  0.38762  0.29374  0.20448  1.0000
  H   H1723     1.0  0.39764  0.27019  0.21499  1.0000
  H   H1724     1.0  0.41770  0.29523  0.19843  1.0000
  H   H1725     1.0  0.44745  0.18260  0.00388  1.0000
  H   H1726     1.0  0.51385  0.04294  0.18249  1.0000
  C   C967      1.0  0.39277  0.19956  0.02419  1.0000
  C   C968      1.0  0.61953  0.45783  0.21878  1.0000
  H   H1727     1.0  0.36813  0.09510  0.07947  1.0000
  C   C969      1.0  0.41489  0.10912  0.01810  1.0000
  H   H1728     1.0  0.47282  0.22819  0.15095  1.0000
  H   H1729     1.0  0.47996  0.25795  0.15353  1.0000
  H   H1730     1.0  0.48652  0.23447  0.16732  1.0000
  H   H1731     1.0  0.41111  0.06912  0.05592  1.0000
  H   H1732     1.0  0.38402  0.16572  0.01905  1.0000
  C   C970      1.0  0.37723  0.03378  0.20226  1.0000
  H   H1733     1.0  0.41380  0.42428  0.13509  1.0000
  N   N59       1.0  0.35917  0.05607  0.16052  1.0000
  H   H1734     1.0  0.38320  0.09334  0.01209  1.0000
  C   C971      1.0  0.36296  0.03659  0.15225  1.0000
  C   C972      1.0  0.35813  0.04768  0.17928  1.0000
  C   C973      1.0  0.37892  0.07845  0.15262  1.0000
  C   C974      1.0  0.38146  0.09213  0.13394  1.0000
  H   H1735     1.0  0.39384  0.12267  0.03591  1.0000
  C   C975      1.0  0.37797  0.03765  0.18333  1.0000
  S   S211      1.0  0.61942  0.02704  0.18574  1.0000
  H   H1736     1.0  0.41488  0.01356  0.09651  1.0000
  C   C976      1.0  0.39839  0.11682  0.12903  1.0000
  H   H1737     1.0  0.52408  0.02443  0.21656  1.0000
  H   H1738     1.0  0.33578  0.02915  0.13951  1.0000
  H   H1739     1.0  0.45161  0.11271  0.05970  1.0000
  H   H1740     1.0  0.42562  0.10262  0.02611  1.0000
  C   C977      1.0  0.43922  0.21817  0.23554  1.0000
  C   C978      1.0  0.58168  0.05252  0.08602  1.0000
  C   C979      1.0  0.35194  0.35197  0.19792  1.0000
  H   H1741     1.0  0.35776  0.06226  0.18555  1.0000
  H   H1742     1.0  0.37802  0.09094  0.16075  1.0000
  H   H1743     1.0  0.39567  0.07451  0.15247  1.0000
  C   C980      1.0  0.46314  0.15546  0.99977  1.0000
  H   H1744     1.0  0.38859  0.08265  0.12494  1.0000
  H   H1745     1.0  0.58518  0.06059  0.07209  1.0000
  H   H1746     1.0  0.50365  0.48760  0.14386  1.0000
  H   H1747     1.0  0.39509  0.04954  0.17571  1.0000
  C   C981      1.0  0.64691  0.01937  0.09954  1.0000
  H   H1748     1.0  0.46559  0.41019  0.20782  1.0000
  H   H1749     1.0  0.44907  0.28664  0.24081  1.0000
  C   C982      1.0  0.53459  0.06076  0.14018  1.0000
  H   H1750     1.0  0.57799  0.01744  0.10221  1.0000
  H   H1751     1.0  0.61917  0.47644  0.21396  1.0000
  H   H1752     1.0  0.39205  0.12767  0.13725  1.0000
  H   H1753     1.0  0.41561  0.11551  0.13031  1.0000
  H   H1754     1.0  0.40016  0.12590  0.11548  1.0000
  H   H1755     1.0  0.35497  0.23432  0.15185  1.0000
  C   C983      1.0  0.51263  0.47584  0.15024  1.0000
  C   C984      1.0  0.40662  0.01983  0.08690  1.0000
  H   H1756     1.0  0.37012  0.38062  0.08832  1.0000
  C   C985      1.0  0.55328  0.49382  0.17166  1.0000
  C   C986      1.0  0.47914  0.19985  0.23835  1.0000
  H   H1757     1.0  0.52744  0.11451  0.16204  1.0000
  H   H1758     1.0  0.51079  0.26506  0.22915  1.0000
  C   C987      1.0  0.56928  0.03888  0.14464  1.0000
  C   C988      1.0  0.61212  0.10412  0.07076  1.0000
  H   H1759     1.0  0.44340  0.37477  0.22206  1.0000
  H   H1760     1.0  0.39691  0.13542  0.01412  1.0000
  H   H1761     1.0  0.57234  0.08494  0.11006  1.0000
  C   C989      1.0  0.42547  0.13002  0.05436  1.0000
  C   C990      1.0  0.45854  0.12678  0.16556  1.0000
  H   H1762     1.0  0.41860  0.23983  0.22593  1.0000
  C   C991      1.0  0.32981  0.07973  0.16776  1.0000
  H   H1763     1.0  0.63078  0.10275  0.13798  1.0000
  Fe  Fe108     1.0  0.40334  0.08212  0.23219  1.0000
  S   S212      1.0  0.59546  0.46033  0.17622  1.0000
  C   C992      1.0  0.41393  0.16819  0.02971  1.0000
  C   C993      1.0  0.45199  0.10830  0.15825  1.0000
  H   H1764     1.0  0.36360  0.13093  0.17501  1.0000
  S   S213      1.0  0.63400  0.03941  0.14386  1.0000
  H   H1765     1.0  0.40319  0.21670  0.24518  1.0000
  C   C994      1.0  0.55000  0.06864  0.14941  1.0000
  C   C995      1.0  0.63378  0.09889  0.06078  1.0000
  C   C996      1.0  0.44416  0.01483  0.19208  1.0000
  C   C997      1.0  0.53874  0.48366  0.14086  1.0000
  H   H1766     1.0  0.63279  0.02388  0.09435  1.0000
  H   H1767     1.0  0.37702  0.04184  0.05222  1.0000
  H   H1768     1.0  0.41309  0.11313  0.05501  1.0000
  C   C998      1.0  0.35549  0.35521  0.11360  1.0000
  S   S214      1.0  0.46180  0.11309  0.13604  1.0000
  H   H1769     1.0  0.48541  0.08590  0.22547  1.0000
  H   H1770     1.0  0.40996  0.20935  0.22510  1.0000
  C   C999      1.0  0.35487  0.03606  0.13580  1.0000
  H   H1771     1.0  0.39816  0.34261  0.14023  1.0000
  S   S215      1.0  0.44043  0.06238  0.07791  1.0000
  C   C1000     1.0  0.40447  0.05111  0.06401  1.0000
  C   C1001     1.0  0.43916  0.08574  0.16881  1.0000
  C   C1002     1.0  0.43383  0.08142  0.18672  1.0000
  H   H1772     1.0  0.36940  0.28859  0.16194  1.0000
  S   S216      1.0  0.45485  0.01915  0.11685  1.0000
  H   H1773     1.0  0.37643  0.31952  0.12578  1.0000
  H   H1774     1.0  0.45216  0.22443  0.22280  1.0000
  C   C1003     1.0  0.38766  0.00427  0.08449  1.0000
  S   S217      1.0  0.48226  0.07628  0.10537  1.0000
  H   H1775     1.0  0.47568  0.16149  0.00685  1.0000
  C   C1004     1.0  0.44172  0.09957  0.19397  1.0000
  H   H1776     1.0  0.39101  0.36402  0.11507  1.0000
  S   S218      1.0  0.51924  0.03330  0.11982  1.0000
  H   H1777     1.0  0.43416  0.07142  0.16319  1.0000
  H   H1778     1.0  0.33187  0.27885  0.21906  1.0000
  H   H1779     1.0  0.42480  0.06378  0.19490  1.0000
  Fe  Fe109     1.0  0.48542  0.04279  0.12166  1.0000
  H   H1780     1.0  0.42702  0.33645  0.24291  1.0000
  C   C1005     1.0  0.37920  0.33772  0.14579  1.0000
  H   H1781     1.0  0.50706  0.39552  0.21689  1.0000
  H   H1782     1.0  0.37661  0.20721  0.16396  1.0000
  C   C1006     1.0  0.44157  0.12384  0.06515  1.0000
  H   H1783     1.0  0.62822  0.12167  0.09327  1.0000
  C   C1007     1.0  0.51488  0.04516  0.19525  1.0000
  H   H1784     1.0  0.36300  0.17316  0.20460  1.0000
  Fe  Fe110     1.0  0.45948  0.07832  0.12956  1.0000
  S   S219      1.0  0.34689  0.03461  0.02682  1.0000
  C   C1008     1.0  0.41535  0.04315  0.07640  1.0000
  H   H1785     1.0  0.64696  0.02723  0.11057  1.0000
  C   C1009     1.0  0.54337  0.10536  0.09734  1.0000
  H   H1786     1.0  0.56067  0.08777  0.08105  1.0000
  H   H1787     1.0  0.51621  0.32057  0.23204  1.0000
  H   H1788     1.0  0.52052  0.36621  0.20493  1.0000
  C   C1010     1.0  0.41911  0.41036  0.14314  1.0000
  H   H1789     1.0  0.52140  0.06941  0.13834  1.0000
  S   S220      1.0  0.43980  0.09325  0.21587  1.0000
  S   S221      1.0  0.42697  0.05796  0.12580  1.0000
  Fe  Fe111     1.0  0.44988  0.05319  0.10278  1.0000
  C   C1011     1.0  0.38519  0.03572  0.06191  1.0000
  H   H1790     1.0  0.61193  0.45173  0.23290  1.0000
  C   C1012     1.0  0.56552  0.10258  0.08675  1.0000
  S   S222      1.0  0.46513  0.04675  0.14614  1.0000
  H   H1791     1.0  0.38350  0.02414  0.12358  1.0000
  C   C1013     1.0  0.50852  0.10906  0.16381  1.0000
  H   H1792     1.0  0.43821  0.41494  0.13929  1.0000
  H   H1793     1.0  0.48216  0.21944  0.23444  1.0000
  H   H1794     1.0  0.61393  0.07523  0.12257  1.0000
  C   C1014     1.0  0.50133  0.45051  0.15012  1.0000
  C   C1015     1.0  0.34947  0.24766  0.02854  1.0000
  H   H1795     1.0  0.50068  0.12073  0.17042  1.0000
  Fe  Fe112     1.0  0.61789  0.05517  0.16380  1.0000
  C   C1016     1.0  0.56733  0.05771  0.15171  1.0000
  H   H1796     1.0  0.46007  0.13629  0.18902  1.0000
  H   H1797     1.0  0.53245  0.11002  0.08884  1.0000
  S   S223      1.0  0.37443  0.24671  0.03549  1.0000
  H   H1798     1.0  0.41333  0.41017  0.15681  1.0000
  C   C1017     1.0  0.53672  0.04213  0.13291  1.0000
  N   N60       1.0  0.36988  0.35854  0.14076  1.0000
  C   C1018     1.0  0.38223  0.37856  0.14677  1.0000
  C   C1019     1.0  0.33339  0.37244  0.14910  1.0000
  H   H1799     1.0  0.65040  0.46146  0.19991  1.0000
  H   H1800     1.0  0.65797  0.06160  0.07277  1.0000
  H   H1801     1.0  0.65193  0.10213  0.11953  1.0000
  H   H1802     1.0  0.37693  0.38619  0.11709  1.0000
  H   H1803     1.0  0.33502  0.06500  0.14634  1.0000
  C   C1020     1.0  0.40679  0.12982  0.02322  1.0000
  H   H1804     1.0  0.50752  0.07276  0.16738  1.0000
  H   H1805     1.0  0.50453  0.43381  0.18888  1.0000
  C   C1021     1.0  0.58173  0.02662  0.08841  1.0000
  H   H1806     1.0  0.58303  0.49780  0.14073  1.0000
  H   H1807     1.0  0.37033  0.13504  0.19448  1.0000
  H   H1808     1.0  0.46258  0.05874  0.23072  1.0000
  C   C1022     1.0  0.34448  0.10804  0.04635  1.0000
  C   C1023     1.0  0.35752  0.12487  0.18923  1.0000
  H   H1809     1.0  0.43644  0.18262  0.23395  1.0000
  H   H1810     1.0  0.35633  0.10570  0.19337  1.0000
  H   H1811     1.0  0.44937  0.13185  0.03111  1.0000
  H   H1812     1.0  0.42448  0.33302  0.20684  1.0000
  H   H1813     1.0  0.51655  0.32333  0.20976  1.0000
  H   H1814     1.0  0.63046  0.07965  0.06185  1.0000
  N   N61       1.0  0.47512  0.36693  0.22544  1.0000
  H   H1815     1.0  0.35987  0.02121  0.11402  1.0000
  H   H1816     1.0  0.37625  0.02025  0.18056  1.0000
  H   H1817     1.0  0.62609  0.10595  0.03598  1.0000
  H   H1818     1.0  0.52794  0.49565  0.19370  1.0000
  H   H1819     1.0  0.50134  0.39084  0.24460  1.0000
  H   H1820     1.0  0.64434  0.13132  0.03979  1.0000
  C   C1024     1.0  0.49752  0.05529  0.22104  1.0000
  H   H1821     1.0  0.35433  0.15998  0.05743  1.0000
  H   H1822     1.0  0.36417  0.21680  0.13808  1.0000
  H   H1823     1.0  0.55170  0.48551  0.19869  1.0000
  H   H1824     1.0  0.60531  0.01016  0.12107  1.0000
  S   S224      1.0  0.34373  0.19274  0.07605  1.0000
  C   C1025     1.0  0.43735  0.19192  0.24414  1.0000
  C   C1026     1.0  0.35335  0.28177  0.23605  1.0000
  C   C1027     1.0  0.37705  0.01214  0.07188  1.0000
  H   H1825     1.0  0.35074  0.30990  0.14363  1.0000
  H   H1826     1.0  0.35490  0.34465  0.23645  1.0000
  H   H1827     1.0  0.33572  0.14789  0.18992  1.0000
  H   H1828     1.0  0.34977  0.21316  0.00136  1.0000
  H   H1829     1.0  0.57191  0.49521  0.16836  1.0000
  C   C1028     1.0  0.48048  0.41217  0.21341  1.0000
  C   C1029     1.0  0.49860  0.43510  0.20219  1.0000
  H   H1830     1.0  0.65291  0.46271  0.23642  1.0000
  H   H1831     1.0  0.34947  0.18394  0.22177  1.0000
  H   H1832     1.0  0.40596  0.34405  0.22138  1.0000
  H   H1833     1.0  0.65624  0.48894  0.22076  1.0000
  H   H1834     1.0  0.51370  0.43873  0.20747  1.0000
  C   C1030     1.0  0.53191  0.01043  0.19501  1.0000
  H   H1835     1.0  0.54957  0.02279  0.18947  1.0000
  C   C1031     1.0  0.33750  0.24525  0.22930  1.0000
  H   H1836     1.0  0.33926  0.14186  0.03640  1.0000
  H   H1837     1.0  0.34668  0.21475  0.24159  1.0000
  H   H1838     1.0  0.49102  0.45023  0.20173  1.0000
  C   C1032     1.0  0.34868  0.23349  0.23995  1.0000
  H   H1839     1.0  0.43589  0.14452  0.24204  1.0000
  H   H1840     1.0  0.34206  0.34358  0.16419  1.0000
  Fe  Fe113     1.0  0.34255  0.20593  0.09939  1.0000
  C   C1033     1.0  0.45242  0.14706  0.24562  1.0000
  H   H1841     1.0  0.33713  0.13488  0.21947  1.0000
  C   C1034     1.0  0.34012  0.26946  0.22730  1.0000
  H   H1842     1.0  0.34023  0.36195  0.11653  1.0000
  Fe  Fe114     1.0  0.33353  0.01025  0.05352  1.0000
  H   H1843     1.0  0.45304  0.11156  0.24404  1.0000
  S   S225      1.0  0.33445  0.09611  0.03091  1.0000
  H   H1844     1.0  0.33910  0.38358  0.15737  1.0000
  H   H1845     1.0  0.33425  0.33764  0.14605  1.0000
  H   H1846     1.0  0.52477  0.00636  0.18441  1.0000
  S   S226      1.0  0.65495  0.50388  0.17350  1.0000
  H   H1847     1.0  0.47499  0.41434  0.22647  1.0000
  C   C1035     1.0  0.46878  0.36719  0.24397  1.0000
  C   C1036     1.0  0.34036  0.35005  0.24340  1.0000
  H   H1848     1.0  0.44307  0.00429  0.18263  1.0000
  C   C1037     1.0  0.36394  0.27000  0.24710  1.0000
  C   C1038     1.0  0.54681  0.49825  0.18930  1.0000
  H   H1849     1.0  0.45792  0.37938  0.24587  1.0000
  C   C1039     1.0  0.65973  0.47132  0.22247  1.0000
  H   H1850     1.0  0.33058  0.35566  0.23426  1.0000
  H   H1851     1.0  0.61721  0.50268  0.11527  1.0000
  S   S227      1.0  0.43120  0.04272  0.47443  1.0000
  H   H1852     1.0  0.42236  0.18018  0.33013  1.0000
  H   H1853     1.0  0.61546  0.08079  0.30483  1.0000
  H   H1854     1.0  0.44795  0.13233  0.30960  1.0000
  H   H1855     1.0  0.36822  0.02714  0.41808  1.0000
  H   H1856     1.0  0.44832  0.15396  0.32937  1.0000
  H   H1857     1.0  0.38066  0.07702  0.39176  1.0000
  S   S228      1.0  0.48795  0.05475  0.35817  1.0000
  Fe  Fe115     1.0  0.63491  0.04163  0.39210  1.0000
  H   H1858     1.0  0.57713  0.03905  0.33081  1.0000
  H   H1859     1.0  0.40895  0.12314  0.47636  1.0000
  C   C1040     1.0  0.65047  0.07116  0.28378  1.0000
  H   H1860     1.0  0.37399  0.11185  0.32865  1.0000
  H   H1861     1.0  0.40338  0.07615  0.32848  1.0000
  H   H1862     1.0  0.45049  0.17108  0.28951  1.0000
  Fe  Fe116     1.0  0.40501  0.22615  0.29741  1.0000
  Fe  Fe117     1.0  0.44601  0.26679  0.27543  1.0000
  S   S229      1.0  0.42848  0.29488  0.27934  1.0000
  Fe  Fe118     1.0  0.41526  0.27327  0.30690  1.0000
  S   S230      1.0  0.41046  0.28749  0.33027  1.0000
  Fe  Fe119     1.0  0.39811  0.26995  0.27561  1.0000
  S   S231      1.0  0.43567  0.24731  0.30334  1.0000
  S   S232      1.0  0.41685  0.24400  0.26930  1.0000
  C   C1041     1.0  0.55236  0.46772  0.34166  1.0000
  H   H1863     1.0  0.52495  0.44491  0.36381  1.0000
  Fe  Fe120     1.0  0.46881  0.38476  0.36580  1.0000
  S   S233      1.0  0.45196  0.41135  0.37454  1.0000
  S   S234      1.0  0.47677  0.37873  0.33930  1.0000
  Fe  Fe121     1.0  0.47320  0.36365  0.40124  1.0000
  S   S235      1.0  0.45664  0.38788  0.41323  1.0000
  S   S236      1.0  0.48552  0.33563  0.41634  1.0000
  Fe  Fe122     1.0  0.43153  0.38120  0.39773  1.0000
  S   S237      1.0  0.39325  0.36705  0.40946  1.0000
  Fe  Fe123     1.0  0.47851  0.41637  0.38946  1.0000
  S   S238      1.0  0.49439  0.45255  0.39268  1.0000
  S   S239      1.0  0.44626  0.35449  0.38781  1.0000
  S   S240      1.0  0.49727  0.39252  0.37863  1.0000
  H   H1864     1.0  0.37606  0.15313  0.47307  1.0000
  S   S241      1.0  0.39598  0.18615  0.30561  1.0000
  C   C1042     1.0  0.53064  0.48065  0.39983  1.0000
  C   C1043     1.0  0.52162  0.45881  0.39677  1.0000
  C   C1044     1.0  0.53441  0.44239  0.39705  1.0000
  C   C1045     1.0  0.55575  0.44748  0.40083  1.0000
  C   C1046     1.0  0.47852  0.12249  0.31261  1.0000
  H   H1865     1.0  0.52777  0.42570  0.39442  1.0000
  H   H1866     1.0  0.56545  0.43457  0.40118  1.0000
  C   C1047     1.0  0.35720  0.40544  0.44383  1.0000
  C   C1048     1.0  0.37719  0.41843  0.43062  1.0000
  C   C1049     1.0  0.38842  0.40702  0.41968  1.0000
  C   C1050     1.0  0.37924  0.38275  0.42175  1.0000
  C   C1051     1.0  0.35870  0.37019  0.43439  1.0000
  H   H1867     1.0  0.49422  0.46765  0.42962  1.0000
  H   H1868     1.0  0.38424  0.43716  0.42904  1.0000
  H   H1869     1.0  0.40418  0.41687  0.40979  1.0000
  H   H1870     1.0  0.43413  0.42448  0.45887  1.0000
  C   C1052     1.0  0.42654  0.28088  0.45863  1.0000
  C   C1053     1.0  0.42220  0.29373  0.44411  1.0000
  C   C1054     1.0  0.44026  0.31091  0.43129  1.0000
  C   C1055     1.0  0.46288  0.31433  0.43246  1.0000
  C   C1056     1.0  0.46738  0.30076  0.44666  1.0000
  C   C1057     1.0  0.44914  0.28436  0.45994  1.0000
  H   H1871     1.0  0.40478  0.29083  0.44297  1.0000
  H   H1872     1.0  0.43670  0.32150  0.42050  1.0000
  H   H1873     1.0  0.48491  0.30338  0.44758  1.0000
  H   H1874     1.0  0.57942  0.08064  0.31603  1.0000
  C   C1058     1.0  0.42863  0.31403  0.33144  1.0000
  C   C1059     1.0  0.42137  0.32345  0.34506  1.0000
  C   C1060     1.0  0.43582  0.34354  0.34730  1.0000
  C   C1061     1.0  0.45779  0.35435  0.33602  1.0000
  C   C1062     1.0  0.46489  0.34530  0.32210  1.0000
  C   C1063     1.0  0.45037  0.32516  0.31982  1.0000
  H   H1875     1.0  0.40450  0.31509  0.35401  1.0000
  H   H1876     1.0  0.42986  0.35071  0.35776  1.0000
  H   H1877     1.0  0.48182  0.35366  0.31325  1.0000
  H   H1878     1.0  0.45615  0.31802  0.30929  1.0000
  C   C1064     1.0  0.48900  0.37339  0.25195  1.0000
  C   C1065     1.0  0.36599  0.30667  0.31590  1.0000
  H   H1879     1.0  0.36212  0.18444  0.25732  1.0000
  H   H1880     1.0  0.43501  0.33302  0.46062  1.0000
  H   H1881     1.0  0.39593  0.14128  0.29863  1.0000
  H   H1882     1.0  0.41849  0.06435  0.27643  1.0000
  C   C1066     1.0  0.56450  0.46904  0.40431  1.0000
  C   C1067     1.0  0.41276  0.13084  0.33672  1.0000
  H   H1883     1.0  0.59884  0.08314  0.49710  1.0000
  H   H1884     1.0  0.55363  0.47605  0.32805  1.0000
  H   H1885     1.0  0.33562  0.31779  0.31473  1.0000
  C   C1068     1.0  0.39352  0.16362  0.47273  1.0000
  H   H1886     1.0  0.51943  0.45726  0.46011  1.0000
  C   C1069     1.0  0.43679  0.05014  0.31228  1.0000
  C   C1070     1.0  0.43745  0.06093  0.29537  1.0000
  C   C1071     1.0  0.41754  0.05645  0.28960  1.0000
  H   H1887     1.0  0.37455  0.20246  0.27932  1.0000
  H   H1888     1.0  0.45348  0.07264  0.28667  1.0000
  C   C1072     1.0  0.42991  0.07100  0.44414  1.0000
  C   C1073     1.0  0.54023  0.01478  0.37831  1.0000
  H   H1889     1.0  0.37685  0.31285  0.44262  1.0000
  H   H1890     1.0  0.43043  0.10094  0.36920  1.0000
  C   C1074     1.0  0.57629  0.03298  0.39207  1.0000
  S   S242      1.0  0.64512  0.02099  0.37364  1.0000
  H   H1891     1.0  0.62023  0.09700  0.32757  1.0000
  H   H1892     1.0  0.44829  0.10349  0.30730  1.0000
  H   H1893     1.0  0.40596  0.31191  0.40861  1.0000
  H   H1894     1.0  0.35697  0.00735  0.43891  1.0000
  H   H1895     1.0  0.37592  0.47773  0.47394  1.0000
  C   C1075     1.0  0.43860  0.05330  0.45196  1.0000
  C   C1076     1.0  0.43886  0.10432  0.33414  1.0000
  H   H1896     1.0  0.41072  0.16727  0.35303  1.0000
  C   C1077     1.0  0.39709  0.29768  0.40372  1.0000
  H   H1897     1.0  0.35852  0.44731  0.48287  1.0000
  H   H1898     1.0  0.43716  0.14132  0.35193  1.0000
  H   H1899     1.0  0.46050  0.03068  0.44774  1.0000
  S   S243      1.0  0.38327  0.25025  0.30345  1.0000
  N   N62       1.0  0.39477  0.18955  0.46975  1.0000
  H   H1900     1.0  0.43749  0.20031  0.27218  1.0000
  H   H1901     1.0  0.47465  0.04276  0.25645  1.0000
  C   C1078     1.0  0.38726  0.19738  0.45383  1.0000
  C   C1079     1.0  0.38449  0.22286  0.44989  1.0000
  H   H1902     1.0  0.54111  0.05138  0.33241  1.0000
  C   C1080     1.0  0.42568  0.37545  0.46101  1.0000
  Fe  Fe124     1.0  0.37239  0.05708  0.26760  1.0000
  H   H1903     1.0  0.37262  0.24604  0.43216  1.0000
  H   H1904     1.0  0.54176  0.08147  0.33253  1.0000
  Fe  Fe125     1.0  0.34653  0.03527  0.48622  1.0000
  H   H1905     1.0  0.40524  0.36678  0.49213  1.0000
  H   H1906     1.0  0.59219  0.00797  0.38302  1.0000
  C   C1081     1.0  0.61004  0.01490  0.33395  1.0000
  H   H1907     1.0  0.37713  0.09337  0.30347  1.0000
  S   S244      1.0  0.46216  0.05656  0.31900  1.0000
  S   S245      1.0  0.45412  0.07752  0.39368  1.0000
  H   H1908     1.0  0.52398  0.03934  0.38781  1.0000
  H   H1909     1.0  0.34175  0.33801  0.27680  1.0000
  H   H1910     1.0  0.38794  0.30330  0.47151  1.0000
  H   H1911     1.0  0.38474  0.22524  0.42320  1.0000
  H   H1912     1.0  0.43565  0.15412  0.26884  1.0000
  H   H1913     1.0  0.40545  0.08756  0.39907  1.0000
  H   H1914     1.0  0.47201  0.12393  0.25558  1.0000
  H   H1915     1.0  0.39565  0.15639  0.48556  1.0000
  C   C1082     1.0  0.43009  0.19781  0.48201  1.0000
  H   H1916     1.0  0.49973  0.17690  0.24775  1.0000
  H   H1917     1.0  0.49497  0.37859  0.27597  1.0000
  C   C1083     1.0  0.57505  0.07436  0.33021  1.0000
  Fe  Fe126     1.0  0.45837  0.04856  0.38112  1.0000
  H   H1918     1.0  0.37184  0.03619  0.36048  1.0000
  H   H1919     1.0  0.59290  0.48396  0.36929  1.0000
  C   C1084     1.0  0.46442  0.20377  0.29471  1.0000
  H   H1920     1.0  0.65012  0.05134  0.30855  1.0000
  N   N63       1.0  0.41433  0.10567  0.33885  1.0000
  H   H1921     1.0  0.44808  0.30960  0.49359  1.0000
  H   H1922     1.0  0.39601  0.13082  0.34500  1.0000
  H   H1923     1.0  0.62073  0.10139  0.37179  1.0000
  C   C1085     1.0  0.40256  0.09056  0.35703  1.0000
  H   H1924     1.0  0.47278  0.33355  0.49149  1.0000
  H   H1925     1.0  0.63431  0.49927  0.32482  1.0000
  C   C1086     1.0  0.37929  0.19264  0.48532  1.0000
  C   C1087     1.0  0.37672  0.18530  0.27868  1.0000
  H   H1926     1.0  0.38092  0.30385  0.30727  1.0000
  H   H1927     1.0  0.36555  0.08218  0.34268  1.0000
  C   C1088     1.0  0.42668  0.33526  0.47326  1.0000
  H   H1928     1.0  0.51712  0.46909  0.35157  1.0000
  S   S246      1.0  0.40332  0.26079  0.47494  1.0000
  H   H1929     1.0  0.52093  0.49357  0.39941  1.0000
  H   H1930     1.0  0.38076  0.28733  0.41362  1.0000
  H   H1931     1.0  0.60863  0.05005  0.30670  1.0000
  H   H1932     1.0  0.34678  0.18737  0.47757  1.0000
  H   H1933     1.0  0.41239  0.13888  0.32341  1.0000
  C   C1089     1.0  0.41121  0.15728  0.45945  1.0000
  C   C1090     1.0  0.57750  0.01501  0.38391  1.0000
  N   N64       1.0  0.41076  0.35072  0.47094  1.0000
  S   S247      1.0  0.36751  0.01209  0.49559  1.0000
  N   N65       1.0  0.44956  0.28142  0.37808  1.0000
  C   C1091     1.0  0.43547  0.26634  0.36943  1.0000
  C   C1092     1.0  0.43527  0.29545  0.38631  1.0000
  C   C1093     1.0  0.46982  0.29902  0.36422  1.0000
  C   C1094     1.0  0.45864  0.26724  0.39109  1.0000
  C   C1095     1.0  0.44317  0.24193  0.40130  1.0000
  C   C1096     1.0  0.44907  0.25480  0.35724  1.0000
  C   C1097     1.0  0.48509  0.31840  0.36995  1.0000
  C   C1098     1.0  0.41212  0.28137  0.39987  1.0000
  C   C1099     1.0  0.45187  0.23173  0.41637  1.0000
  C   C1100     1.0  0.43294  0.23521  0.35277  1.0000
  C   C1101     1.0  0.50727  0.33208  0.35582  1.0000
  H   H1934     1.0  0.42691  0.27720  0.36167  1.0000
  H   H1935     1.0  0.42109  0.25197  0.37887  1.0000
  H   H1936     1.0  0.44517  0.30625  0.39308  1.0000
  H   H1937     1.0  0.43156  0.30825  0.37619  1.0000
  H   H1938     1.0  0.46378  0.30832  0.35366  1.0000
  H   H1939     1.0  0.48157  0.28969  0.35823  1.0000
  H   H1940     1.0  0.47550  0.26496  0.38480  1.0000
  H   H1941     1.0  0.46251  0.27726  0.40051  1.0000
  H   H1942     1.0  0.44329  0.22987  0.39284  1.0000
  H   H1943     1.0  0.42510  0.24160  0.40648  1.0000
  H   H1944     1.0  0.45906  0.26840  0.34499  1.0000
  H   H1945     1.0  0.46128  0.24715  0.36306  1.0000
  H   H1946     1.0  0.48984  0.31072  0.38164  1.0000
  H   H1947     1.0  0.47585  0.33154  0.37260  1.0000
  H   H1948     1.0  0.40174  0.26740  0.39562  1.0000
  H   H1949     1.0  0.41553  0.27322  0.41206  1.0000
  H   H1950     1.0  0.47015  0.23185  0.41185  1.0000
  H   H1951     1.0  0.45040  0.24223  0.42589  1.0000
  H   H1952     1.0  0.44139  0.21311  0.42277  1.0000
  H   H1953     1.0  0.42339  0.22036  0.36440  1.0000
  H   H1954     1.0  0.42041  0.24228  0.34692  1.0000
  H   H1955     1.0  0.44314  0.22826  0.34332  1.0000
  H   H1956     1.0  0.51809  0.32017  0.35306  1.0000
  H   H1957     1.0  0.50320  0.34026  0.34391  1.0000
  H   H1958     1.0  0.51724  0.34650  0.36003  1.0000
  H   H1959     1.0  0.48374  0.10657  0.31793  1.0000
  H   H1960     1.0  0.35123  0.35166  0.43566  1.0000
  C   C1102     1.0  0.56372  0.44296  0.45376  1.0000
  H   H1961     1.0  0.46560  0.20832  0.46616  1.0000
  H   H1962     1.0  0.40976  0.16362  0.44627  1.0000
  C   C1103     1.0  0.35309  0.18113  0.48877  1.0000
  H   H1963     1.0  0.38032  0.35644  0.48571  1.0000
  C   C1104     1.0  0.42878  0.41874  0.44810  1.0000
  C   C1105     1.0  0.43538  0.07889  0.42622  1.0000
  H   H1964     1.0  0.40647  0.34251  0.44739  1.0000
  H   H1965     1.0  0.43862  0.37476  0.44967  1.0000
  H   H1966     1.0  0.35991  0.33124  0.29597  1.0000
  C   C1106     1.0  0.45323  0.04388  0.44176  1.0000
  H   H1967     1.0  0.34919  0.16151  0.49191  1.0000
  C   C1107     1.0  0.35781  0.02008  0.38800  1.0000
  H   H1968     1.0  0.41946  0.22334  0.46558  1.0000
  H   H1969     1.0  0.42859  0.09258  0.42026  1.0000
  N   N66       1.0  0.52010  0.42112  0.46053  1.0000
  H   H1970     1.0  0.41947  0.43089  0.44260  1.0000
  H   H1971     1.0  0.46818  0.35709  0.27849  1.0000
  H   H1972     1.0  0.44427  0.42011  0.43786  1.0000
  H   H1973     1.0  0.59097  0.00857  0.33719  1.0000
  C   C1108     1.0  0.45978  0.32673  0.48501  1.0000
  H   H1974     1.0  0.55700  0.47953  0.36411  1.0000
  C   C1109     1.0  0.45526  0.21245  0.47724  1.0000
  H   H1975     1.0  0.37218  0.03200  0.39070  1.0000
  C   C1110     1.0  0.59774  0.45795  0.35614  1.0000
  H   H1976     1.0  0.60663  0.44907  0.38038  1.0000
  H   H1977     1.0  0.37082  0.18471  0.45429  1.0000
  C   C1111     1.0  0.39264  0.45185  0.46775  1.0000
  C   C1112     1.0  0.61198  0.44751  0.36709  1.0000
  H   H1978     1.0  0.43570  0.38353  0.46902  1.0000
  C   C1113     1.0  0.39561  0.34181  0.46020  1.0000
  H   H1979     1.0  0.48460  0.39928  0.47135  1.0000
  C   C1114     1.0  0.52689  0.45576  0.35073  1.0000
  C   C1115     1.0  0.54879  0.06656  0.33702  1.0000
  C   C1116     1.0  0.40720  0.13046  0.46337  1.0000
  C   C1117     1.0  0.56297  0.48696  0.34991  1.0000
  S   S248      1.0  0.36402  0.14083  0.24924  1.0000
  H   H1980     1.0  0.60372  0.45582  0.34313  1.0000
  H   H1981     1.0  0.57948  0.44737  0.36204  1.0000
  H   H1982     1.0  0.38432  0.35339  0.45763  1.0000
  H   H1983     1.0  0.55565  0.05528  0.39998  1.0000
  C   C1118     1.0  0.61474  0.07957  0.35460  1.0000
  S   S249      1.0  0.34236  0.06996  0.26212  1.0000
  H   H1984     1.0  0.49534  0.00671  0.42026  1.0000
  H   H1985     1.0  0.55418  0.50105  0.34708  1.0000
  H   H1986     1.0  0.33791  0.04128  0.41070  1.0000
  H   H1987     1.0  0.63687  0.04256  0.33715  1.0000
  S   S250      1.0  0.34390  0.41904  0.45835  1.0000
  Fe  Fe127     1.0  0.48697  0.01711  0.36985  1.0000
  H   H1988     1.0  0.63062  0.45686  0.36146  1.0000
  H   H1989     1.0  0.41707  0.31697  0.48118  1.0000
  C   C1119     1.0  0.40211  0.09462  0.32726  1.0000
  C   C1120     1.0  0.37593  0.45956  0.48036  1.0000
  H   H1990     1.0  0.61967  0.11752  0.35111  1.0000
  H   H1991     1.0  0.59885  0.46095  0.45239  1.0000
  H   H1992     1.0  0.58525  0.43590  0.47089  1.0000
  C   C1121     1.0  0.34975  0.31440  0.30574  1.0000
  H   H1993     1.0  0.46565  0.21899  0.26181  1.0000
  H   H1994     1.0  0.44693  0.20487  0.30040  1.0000
  S   S251      1.0  0.48093  0.27133  0.25837  1.0000
  C   C1122     1.0  0.36186  0.24585  0.24892  1.0000
  H   H1995     1.0  0.56105  0.45889  0.44577  1.0000
  Fe  Fe128     1.0  0.46067  0.03923  0.34637  1.0000
  C   C1123     1.0  0.61891  0.06415  0.31107  1.0000
  C   C1124     1.0  0.39602  0.03056  0.31771  1.0000
  H   H1996     1.0  0.38969  0.12172  0.46273  1.0000
  H   H1997     1.0  0.54096  0.42108  0.43599  1.0000
  H   H1998     1.0  0.40792  0.11560  0.37248  1.0000
  H   H1999     1.0  0.57860  0.04656  0.35003  1.0000
  H   H2000     1.0  0.51450  0.36787  0.43421  1.0000
  H   H2001     1.0  0.52485  0.45199  0.43969  1.0000
  H   H2002     1.0  0.50442  0.41616  0.42989  1.0000
  C   C1125     1.0  0.46319  0.18845  0.28227  1.0000
  H   H2003     1.0  0.41060  0.46310  0.46498  1.0000
  C   C1126     1.0  0.39625  0.35197  0.48769  1.0000
  H   H2004     1.0  0.42910  0.16515  0.45973  1.0000
  C   C1127     1.0  0.58521  0.05358  0.33586  1.0000
  Fe  Fe129     1.0  0.39640  0.04573  0.48705  1.0000
  C   C1128     1.0  0.44646  0.34476  0.48103  1.0000
  H   H2005     1.0  0.49087  0.38965  0.44742  1.0000
  H   H2006     1.0  0.49518  0.43035  0.48918  1.0000
  H   H2007     1.0  0.46937  0.04388  0.41599  1.0000
  H   H2008     1.0  0.54445  0.41089  0.47389  1.0000
  H   H2009     1.0  0.65579  0.08279  0.30566  1.0000
  C   C1129     1.0  0.41294  0.39337  0.45442  1.0000
  C   C1130     1.0  0.36533  0.30906  0.45572  1.0000
  C   C1131     1.0  0.64490  0.06720  0.30321  1.0000
  C   C1132     1.0  0.44915  0.06873  0.41603  1.0000
  H   H2010     1.0  0.35653  0.28974  0.46049  1.0000
  C   C1133     1.0  0.48063  0.06205  0.24984  1.0000
  C   C1134     1.0  0.51435  0.44370  0.45327  1.0000
  C   C1135     1.0  0.36652  0.08367  0.31673  1.0000
  H   H2011     1.0  0.53760  0.43719  0.47704  1.0000
  H   H2012     1.0  0.61066  0.03374  0.35318  1.0000
  H   H2013     1.0  0.41063  0.10442  0.31357  1.0000
  H   H2014     1.0  0.59411  0.47972  0.32383  1.0000
  H   H2015     1.0  0.38387  0.18489  0.49709  1.0000
  C   C1136     1.0  0.37393  0.22756  0.43489  1.0000
  H   H2016     1.0  0.35249  0.00679  0.36614  1.0000
  H   H2017     1.0  0.57752  0.46345  0.46994  1.0000
  H   H2018     1.0  0.42972  0.17885  0.48517  1.0000
  C   C1137     1.0  0.49536  0.41152  0.49191  1.0000
  H   H2019     1.0  0.62695  0.48779  0.29886  1.0000
  H   H2020     1.0  0.35640  0.49111  0.49413  1.0000
  H   H2021     1.0  0.54354  0.06120  0.35127  1.0000
  C   C1138     1.0  0.34805  0.38131  0.44566  1.0000
  H   H2022     1.0  0.44067  0.18385  0.34413  1.0000
  H   H2023     1.0  0.62017  0.06557  0.36242  1.0000
  S   S252      1.0  0.37124  0.03579  0.29394  1.0000
  C   C1139     1.0  0.37628  0.09382  0.32994  1.0000
  C   C1140     1.0  0.61790  0.03814  0.33909  1.0000
  H   H2024     1.0  0.35191  0.31849  0.45511  1.0000
  H   H2025     1.0  0.41536  0.02633  0.33648  1.0000
  H   H2026     1.0  0.43918  0.08543  0.33706  1.0000
  H   H2027     1.0  0.53253  0.39434  0.41781  1.0000
  H   H2028     1.0  0.39275  0.30602  0.39197  1.0000
  H   H2029     1.0  0.40327  0.07194  0.35811  1.0000
  C   C1141     1.0  0.37875  0.31661  0.46809  1.0000
  H   H2030     1.0  0.48382  0.13629  0.31914  1.0000
  H   H2031     1.0  0.40153  0.23623  0.44636  1.0000
  C   C1142     1.0  0.40379  0.01574  0.42755  1.0000
  C   C1143     1.0  0.38855  0.15072  0.28966  1.0000
  C   C1144     1.0  0.48022  0.37443  0.27039  1.0000
  C   C1145     1.0  0.41168  0.09869  0.37144  1.0000
  C   C1146     1.0  0.53883  0.03250  0.38668  1.0000
  H   H2032     1.0  0.64640  0.08742  0.27759  1.0000
  H   H2033     1.0  0.43057  0.20414  0.45504  1.0000
  H   H2034     1.0  0.36995  0.23663  0.25747  1.0000
  C   C1147     1.0  0.55678  0.04150  0.39357  1.0000
  H   H2035     1.0  0.38339  0.12325  0.27667  1.0000
  H   H2036     1.0  0.47825  0.43823  0.46726  1.0000
  C   C1148     1.0  0.38154  0.14053  0.27718  1.0000
  C   C1149     1.0  0.38631  0.17321  0.29035  1.0000
  H   H2037     1.0  0.41923  0.00905  0.42612  1.0000
  H   H2038     1.0  0.44127  0.11323  0.26544  1.0000
  C   C1150     1.0  0.36638  0.01833  0.36971  1.0000
  C   C1151     1.0  0.62250  0.08059  0.33532  1.0000
  H   H2039     1.0  0.47124  0.38846  0.27075  1.0000
  S   S253      1.0  0.37607  0.06840  0.47566  1.0000
  H   H2040     1.0  0.50295  0.38295  0.41832  1.0000
  C   C1152     1.0  0.59816  0.49782  0.32556  1.0000
  S   S254      1.0  0.43120  0.03607  0.36843  1.0000
  C   C1153     1.0  0.45249  0.11606  0.31501  1.0000
  H   H2041     1.0  0.48763  0.12946  0.29873  1.0000
  H   H2042     1.0  0.44890  0.11201  0.34222  1.0000
  H   H2043     1.0  0.38136  0.01087  0.36853  1.0000
  H   H2044     1.0  0.56122  0.45362  0.34197  1.0000
  C   C1154     1.0  0.45825  0.05134  0.42381  1.0000
  H   H2045     1.0  0.45667  0.23171  0.47395  1.0000
  H   H2046     1.0  0.47605  0.22191  0.28808  1.0000
  C   C1155     1.0  0.39670  0.04133  0.30075  1.0000
  C   C1156     1.0  0.36955  0.17502  0.26630  1.0000
  C   C1157     1.0  0.55199  0.48573  0.40368  1.0000
  C   C1158     1.0  0.62572  0.10306  0.35780  1.0000
  H   H2047     1.0  0.48098  0.42713  0.44880  1.0000
  H   H2048     1.0  0.39760  0.39272  0.46448  1.0000
  S   S255      1.0  0.65499  0.02886  0.41020  1.0000
  C   C1159     1.0  0.33703  0.32216  0.27204  1.0000
  C   C1160     1.0  0.37213  0.15271  0.26542  1.0000
  S   S256      1.0  0.59101  0.47417  0.40950  1.0000
  H   H2049     1.0  0.55867  0.50246  0.40626  1.0000
  C   C1161     1.0  0.41899  0.20441  0.46719  1.0000
  C   C1162     1.0  0.43252  0.14872  0.34019  1.0000
  H   H2050     1.0  0.36594  0.06465  0.31897  1.0000
  C   C1163     1.0  0.41601  0.03490  0.32346  1.0000
  H   H2051     1.0  0.61715  0.01744  0.32003  1.0000
  H   H2052     1.0  0.40876  0.03402  0.41898  1.0000
  H   H2053     1.0  0.35511  0.29153  0.28931  1.0000
  H   H2054     1.0  0.60931  0.42843  0.36769  1.0000
  H   H2055     1.0  0.64481  0.10769  0.35328  1.0000
  H   H2056     1.0  0.40144  0.46994  0.49329  1.0000
  H   H2057     1.0  0.59581  0.07589  0.35937  1.0000
  N   N67       1.0  0.61114  0.05912  0.33032  1.0000
  H   H2058     1.0  0.36568  0.31626  0.47965  1.0000
  H   H2059     1.0  0.45259  0.27441  0.47110  1.0000
  H   H2060     1.0  0.46870  0.07071  0.25640  1.0000
  H   H2061     1.0  0.41931  0.07894  0.45188  1.0000
  H   H2062     1.0  0.58156  0.08950  0.33521  1.0000
  C   C1164     1.0  0.52630  0.40898  0.44675  1.0000
  S   S257      1.0  0.37834  0.28611  0.25898  1.0000
  H   H2063     1.0  0.39991  0.19682  0.44232  1.0000
  H   H2064     1.0  0.37306  0.22583  0.46098  1.0000
  H   H2065     1.0  0.33914  0.27239  0.49545  1.0000
  H   H2066     1.0  0.40439  0.06377  0.38911  1.0000
  H   H2067     1.0  0.42041  0.18383  0.25399  1.0000
  H   H2068     1.0  0.51933  0.44376  0.34361  1.0000
  H   H2069     1.0  0.38404  0.08979  0.36057  1.0000
  S   S258      1.0  0.59864  0.04505  0.40065  1.0000
  H   H2070     1.0  0.40737  0.38912  0.44335  1.0000
  C   C1165     1.0  0.39968  0.08058  0.38886  1.0000
  C   C1166     1.0  0.51490  0.38553  0.42644  1.0000
  C   C1167     1.0  0.54094  0.42735  0.46725  1.0000
  H   H2071     1.0  0.39176  0.43297  0.47302  1.0000
  H   H2072     1.0  0.43981  0.34963  0.49291  1.0000
  C   C1168     1.0  0.50738  0.40058  0.43806  1.0000
  Fe  Fe130     1.0  0.36902  0.10491  0.24915  1.0000
  C   C1169     1.0  0.42608  0.17134  0.34198  1.0000
  H   H2073     1.0  0.57063  0.43274  0.44524  1.0000
  H   H2074     1.0  0.38001  0.01870  0.32638  1.0000
  H   H2075     1.0  0.46246  0.20813  0.48833  1.0000
  C   C1170     1.0  0.48867  0.44167  0.45387  1.0000
  H   H2076     1.0  0.38215  0.21171  0.48481  1.0000
  H   H2077     1.0  0.64147  0.08341  0.33223  1.0000
  H   H2078     1.0  0.46893  0.32372  0.47299  1.0000
  N   N68       1.0  0.58896  0.49744  0.34407  1.0000
  C   C1171     1.0  0.58238  0.45127  0.46237  1.0000
  H   H2079     1.0  0.53226  0.39345  0.45196  1.0000
  H   H2080     1.0  0.38782  0.45365  0.45548  1.0000
  H   H2081     1.0  0.33196  0.27849  0.30789  1.0000
  H   H2082     1.0  0.45919  0.36074  0.47171  1.0000
  H   H2083     1.0  0.47104  0.19564  0.30526  1.0000
  H   H2084     1.0  0.49395  0.48002  0.44774  1.0000
  H   H2085     1.0  0.50418  0.20490  0.25326  1.0000
  H   H2086     1.0  0.34323  0.02797  0.38821  1.0000
  H   H2087     1.0  0.61887  0.49363  0.35285  1.0000
  C   C1172     1.0  0.60025  0.48421  0.35579  1.0000
  C   C1173     1.0  0.50079  0.40369  0.47517  1.0000
  H   H2088     1.0  0.49809  0.35942  0.25250  1.0000
  H   H2089     1.0  0.35361  0.31978  0.26526  1.0000
  H   H2090     1.0  0.64056  0.05568  0.28054  1.0000
  H   H2091     1.0  0.48031  0.18548  0.27835  1.0000
  H   H2092     1.0  0.42006  0.12620  0.45383  1.0000
  C   C1174     1.0  0.45546  0.19997  0.26663  1.0000
  H   H2093     1.0  0.46561  0.15805  0.26549  1.0000
  C   C1175     1.0  0.48601  0.46462  0.44345  1.0000
  H   H2094     1.0  0.49819  0.06962  0.25094  1.0000
  H   H2095     1.0  0.34868  0.08506  0.31793  1.0000
  H   H2096     1.0  0.33218  0.25303  0.28898  1.0000
  H   H2097     1.0  0.33263  0.37117  0.45566  1.0000
  C   C1176     1.0  0.45482  0.12248  0.25319  1.0000
  C   C1177     1.0  0.45254  0.16185  0.25886  1.0000
  H   H2098     1.0  0.35630  0.21533  0.43814  1.0000
  S   S259      1.0  0.39793  0.09290  0.25658  1.0000
  H   H2099     1.0  0.33445  0.03440  0.43331  1.0000
  N   N69       1.0  0.45659  0.18826  0.25204  1.0000
  H   H2100     1.0  0.50485  0.38642  0.47867  1.0000
  H   H2101     1.0  0.42093  0.20149  0.49376  1.0000
  H   H2102     1.0  0.39791  0.01619  0.44108  1.0000
  H   H2103     1.0  0.35690  0.29000  0.32624  1.0000
  C   C1178     1.0  0.34010  0.29503  0.29734  1.0000
  H   H2104     1.0  0.37272  0.32066  0.32188  1.0000
  C   C1179     1.0  0.55957  0.00600  0.37702  1.0000
  C   C1180     1.0  0.36285  0.00805  0.42506  1.0000
  H   H2105     1.0  0.45775  0.34939  0.25215  1.0000
  S   S260      1.0  0.45911  0.01192  0.39388  1.0000
  H   H2106     1.0  0.46746  0.46335  0.44507  1.0000
  C   C1181     1.0  0.38327  0.45896  0.49715  1.0000
  H   H2107     1.0  0.34732  0.36545  0.24803  1.0000
  H   H2108     1.0  0.41530  0.45196  0.70487  1.0000
  C   C1182     1.0  0.50188  0.29346  0.57785  1.0000
  H   H2109     1.0  0.58205  0.49816  0.52226  1.0000
  S   S261      1.0  0.35139  0.34694  0.73532  1.0000
  H   H2110     1.0  0.63467  0.44695  0.59903  1.0000
  H   H2111     1.0  0.40951  0.40402  0.70944  1.0000
  H   H2112     1.0  0.58564  0.48868  0.54336  1.0000
  C   C1183     1.0  0.64931  0.42215  0.62242  1.0000
  H   H2113     1.0  0.46768  0.48479  0.69286  1.0000
  H   H2114     1.0  0.55763  0.23070  0.56115  1.0000
  H   H2115     1.0  0.41172  0.31702  0.72106  1.0000
  H   H2116     1.0  0.35068  0.14150  0.52473  1.0000
  H   H2117     1.0  0.46481  0.01382  0.52401  1.0000
  Fe  Fe131     1.0  0.48184  0.42917  0.57867  1.0000
  S   S262      1.0  0.46280  0.40095  0.60337  1.0000
  S   S263      1.0  0.51819  0.45329  0.57281  1.0000
  Fe  Fe132     1.0  0.44300  0.41614  0.56176  1.0000
  S   S264      1.0  0.42074  0.38756  0.58519  1.0000
  S   S265      1.0  0.43353  0.42215  0.53662  1.0000
  Fe  Fe133     1.0  0.43199  0.41329  0.59983  1.0000
  S   S266      1.0  0.40728  0.42113  0.62071  1.0000
  Fe  Fe134     1.0  0.45327  0.37763  0.58647  1.0000
  S   S267      1.0  0.45018  0.33841  0.59189  1.0000
  S   S268      1.0  0.45164  0.44318  0.57611  1.0000
  S   S269      1.0  0.47498  0.40465  0.56208  1.0000
  Fe  Fe135     1.0  0.41498  0.21578  0.52959  1.0000
  S   S270      1.0  0.44022  0.24576  0.50818  1.0000
  S   S271      1.0  0.42356  0.18071  0.53415  1.0000
  Fe  Fe136     1.0  0.38299  0.24576  0.53786  1.0000
  S   S272      1.0  0.40544  0.27781  0.51720  1.0000
  S   S273      1.0  0.35100  0.25173  0.55256  1.0000
  H   H2118     1.0  0.64691  0.07156  0.56806  1.0000
  Fe  Fe137     1.0  0.43447  0.26821  0.52628  1.0000
  S   S274      1.0  0.46345  0.29807  0.52692  1.0000
  S   S275      1.0  0.38401  0.22107  0.52109  1.0000
  S   S276      1.0  0.41180  0.23777  0.54846  1.0000
  H   H2119     1.0  0.42724  0.45602  0.66064  1.0000
  H   H2120     1.0  0.55410  0.44532  0.62892  1.0000
  Fe  Fe138     1.0  0.33728  0.35124  0.71238  1.0000
  Fe  Fe139     1.0  0.36649  0.07423  0.50182  1.0000
  H   H2121     1.0  0.36076  0.02385  0.57398  1.0000
  Fe  Fe140     1.0  0.35873  0.02253  0.52001  1.0000
  S   S277      1.0  0.38939  0.05445  0.51237  1.0000
  H   H2122     1.0  0.37166  0.08777  0.55052  1.0000
  H   H2123     1.0  0.34930  0.28420  0.59552  1.0000
  H   H2124     1.0  0.64073  0.48357  0.58155  1.0000
  C   C1184     1.0  0.62542  0.42620  0.62529  1.0000
  C   C1185     1.0  0.37734  0.12555  0.51639  1.0000
  C   C1186     1.0  0.45408  0.32743  0.57374  1.0000
  C   C1187     1.0  0.44236  0.30396  0.57523  1.0000
  C   C1188     1.0  0.44422  0.29515  0.56074  1.0000
  C   C1189     1.0  0.45902  0.30936  0.54490  1.0000
  C   C1190     1.0  0.47170  0.33241  0.54360  1.0000
  C   C1191     1.0  0.46890  0.34160  0.55790  1.0000
  H   H2125     1.0  0.43171  0.29269  0.58762  1.0000
  H   H2126     1.0  0.43472  0.27720  0.56195  1.0000
  H   H2127     1.0  0.48350  0.34333  0.53147  1.0000
  H   H2128     1.0  0.47856  0.35947  0.55674  1.0000
  C   C1192     1.0  0.40414  0.41011  0.53862  1.0000
  C   C1193     1.0  0.39711  0.40589  0.52427  1.0000
  C   C1194     1.0  0.37362  0.39685  0.52556  1.0000
  C   C1195     1.0  0.35709  0.39235  0.54113  1.0000
  C   C1196     1.0  0.36414  0.39656  0.55545  1.0000
  C   C1197     1.0  0.38761  0.40529  0.55423  1.0000
  H   H2129     1.0  0.40986  0.40963  0.51216  1.0000
  H   H2130     1.0  0.36833  0.39375  0.51444  1.0000
  H   H2131     1.0  0.35141  0.39329  0.56750  1.0000
  H   H2132     1.0  0.39284  0.40889  0.56527  1.0000
  C   C1198     1.0  0.44080  0.38778  0.74548  1.0000
  H   H2133     1.0  0.51000  0.27474  0.55216  1.0000
  C   C1199     1.0  0.50772  0.47090  0.60083  1.0000
  C   C1200     1.0  0.52476  0.47024  0.58701  1.0000
  H   H2134     1.0  0.36649  0.31612  0.52908  1.0000
  C   C1201     1.0  0.59767  0.07389  0.51050  1.0000
  C   C1202     1.0  0.65989  0.08467  0.53279  1.0000
  H   H2135     1.0  0.49004  0.46069  0.60308  1.0000
  H   H2136     1.0  0.47708  0.22348  0.53857  1.0000
  H   H2137     1.0  0.60362  0.50058  0.56707  1.0000
  C   C1203     1.0  0.36634  0.36220  0.66966  1.0000
  C   C1204     1.0  0.38174  0.35734  0.65671  1.0000
  C   C1205     1.0  0.39439  0.37525  0.64156  1.0000
  C   C1206     1.0  0.39141  0.39799  0.63922  1.0000
  C   C1207     1.0  0.37565  0.40266  0.65200  1.0000
  C   C1208     1.0  0.36322  0.38487  0.66717  1.0000
  H   H2138     1.0  0.38428  0.33985  0.65857  1.0000
  H   H2139     1.0  0.40660  0.37154  0.63177  1.0000
  H   H2140     1.0  0.37319  0.42019  0.65021  1.0000
  H   H2141     1.0  0.35121  0.38874  0.67690  1.0000
  C   C1209     1.0  0.48293  0.24165  0.54003  1.0000
  C   C1210     1.0  0.39051  0.32312  0.56044  1.0000
  H   H2142     1.0  0.61834  0.46513  0.57563  1.0000
  H   H2143     1.0  0.47531  0.03178  0.50203  1.0000
  C   C1211     1.0  0.48887  0.26858  0.57799  1.0000
  H   H2144     1.0  0.65468  0.41864  0.60976  1.0000
  C   C1212     1.0  0.40022  0.12558  0.51533  1.0000
  C   C1213     1.0  0.41418  0.14200  0.52137  1.0000
  C   C1214     1.0  0.40542  0.15871  0.52815  1.0000
  C   C1215     1.0  0.38236  0.15808  0.52968  1.0000
  H   H2145     1.0  0.53849  0.20967  0.55429  1.0000
  H   H2146     1.0  0.44854  0.47363  0.71444  1.0000
  H   H2147     1.0  0.43203  0.14239  0.52015  1.0000
  H   H2148     1.0  0.37525  0.17041  0.53532  1.0000
  H   H2149     1.0  0.46184  0.44328  0.69045  1.0000
  C   C1216     1.0  0.60628  0.47600  0.59905  1.0000
  C   C1217     1.0  0.36614  0.08432  0.58989  1.0000
  H   H2150     1.0  0.35679  0.46881  0.68140  1.0000
  H   H2151     1.0  0.53310  0.25014  0.54678  1.0000
  S   S278      1.0  0.33515  0.04284  0.51145  1.0000
  H   H2152     1.0  0.39879  0.07586  0.58446  1.0000
  H   H2153     1.0  0.42637  0.39096  0.74016  1.0000
  C   C1218     1.0  0.36011  0.45176  0.68683  1.0000
  C   C1219     1.0  0.62258  0.48052  0.58092  1.0000
  H   H2154     1.0  0.46926  0.40156  0.51624  1.0000
  H   H2155     1.0  0.38137  0.31313  0.72312  1.0000
  H   H2156     1.0  0.33298  0.44351  0.54407  1.0000
  H   H2157     1.0  0.36882  0.06039  0.54526  1.0000
  H   H2158     1.0  0.46386  0.45011  0.66313  1.0000
  C   C1220     1.0  0.41080  0.47330  0.53981  1.0000
  H   H2159     1.0  0.44573  0.02663  0.51358  1.0000
  C   C1221     1.0  0.33840  0.26502  0.53745  1.0000
  H   H2160     1.0  0.47611  0.43762  0.63721  1.0000
  H   H2161     1.0  0.42976  0.47665  0.53750  1.0000
  H   H2162     1.0  0.56085  0.48288  0.57369  1.0000
  C   C1222     1.0  0.50561  0.25380  0.52557  1.0000
  H   H2163     1.0  0.63092  0.09505  0.50930  1.0000
  C   C1223     1.0  0.39198  0.31910  0.74557  1.0000
  H   H2164     1.0  0.35203  0.30944  0.61289  1.0000
  H   H2165     1.0  0.33312  0.06414  0.57580  1.0000
  H   H2166     1.0  0.34544  0.43073  0.51830  1.0000
  H   H2167     1.0  0.33253  0.06953  0.53824  1.0000
  H   H2168     1.0  0.65283  0.04007  0.55551  1.0000
  C   C1224     1.0  0.41101  0.36376  0.69764  1.0000
  N   N70       1.0  0.36840  0.46651  0.51069  1.0000
  C   C1225     1.0  0.33926  0.18739  0.50391  1.0000
  H   H2169     1.0  0.61368  0.49041  0.60449  1.0000
  H   H2170     1.0  0.34752  0.32163  0.56198  1.0000
  H   H2171     1.0  0.38390  0.44061  0.50254  1.0000
  H   H2172     1.0  0.36096  0.24905  0.60767  1.0000
  C   C1226     1.0  0.33475  0.27419  0.50836  1.0000
  H   H2173     1.0  0.43538  0.40704  0.69419  1.0000
  C   C1227     1.0  0.40514  0.38623  0.68981  1.0000
  C   C1228     1.0  0.36840  0.14156  0.52383  1.0000
  H   H2174     1.0  0.46974  0.25063  0.53706  1.0000
  H   H2175     1.0  0.54532  0.40233  0.60759  1.0000
  H   H2176     1.0  0.38251  0.42484  0.70329  1.0000
  H   H2177     1.0  0.49576  0.48228  0.54317  1.0000
  H   H2178     1.0  0.40234  0.45646  0.55010  1.0000
  C   C1229     1.0  0.59044  0.45249  0.62917  1.0000
  H   H2179     1.0  0.39312  0.28443  0.59011  1.0000
  H   H2180     1.0  0.37149  0.44613  0.53459  1.0000
  C   C1230     1.0  0.49181  0.26582  0.55953  1.0000
  H   H2181     1.0  0.51779  0.26419  0.49776  1.0000
  C   C1231     1.0  0.54759  0.48366  0.58418  1.0000
  H   H2182     1.0  0.41024  0.38937  0.67570  1.0000
  S   S279      1.0  0.36030  0.10822  0.50657  1.0000
  H   H2183     1.0  0.38609  0.11934  0.58968  1.0000
  H   H2184     1.0  0.60757  0.04644  0.53567  1.0000
  H   H2185     1.0  0.35638  0.24162  0.58836  1.0000
  H   H2186     1.0  0.38264  0.31296  0.49995  1.0000
  H   H2187     1.0  0.39698  0.04260  0.55283  1.0000
  H   H2188     1.0  0.40636  0.36005  0.71180  1.0000
  H   H2189     1.0  0.49228  0.23929  0.50643  1.0000
  N   N71       1.0  0.37932  0.06073  0.56862  1.0000
  H   H2190     1.0  0.38455  0.31346  0.55139  1.0000
  H   H2191     1.0  0.39661  0.33866  0.74082  1.0000
  H   H2192     1.0  0.40560  0.31721  0.56290  1.0000
  C   C1232     1.0  0.44889  0.44724  0.70000  1.0000
  C   C1233     1.0  0.36222  0.29014  0.58285  1.0000
  H   H2193     1.0  0.60033  0.42485  0.59768  1.0000
  C   C1234     1.0  0.51353  0.48492  0.61172  1.0000
  H   H2194     1.0  0.62073  0.42864  0.63837  1.0000
  H   H2195     1.0  0.61372  0.07467  0.53917  1.0000
  H   H2196     1.0  0.41104  0.45765  0.51885  1.0000
  C   C1235     1.0  0.39419  0.30905  0.73001  1.0000
  C   C1236     1.0  0.52537  0.23873  0.56006  1.0000
  C   C1237     1.0  0.61980  0.04160  0.58479  1.0000
  C   C1238     1.0  0.62096  0.06385  0.53134  1.0000
  C   C1239     1.0  0.58858  0.43180  0.60617  1.0000
  C   C1240     1.0  0.55554  0.41415  0.59473  1.0000
  H   H2197     1.0  0.64895  0.40658  0.63258  1.0000
  H   H2198     1.0  0.35586  0.49651  0.51424  1.0000
  C   C1241     1.0  0.65460  0.04777  0.52345  1.0000
  H   H2199     1.0  0.58668  0.43490  0.63848  1.0000
  Fe  Fe141     1.0  0.34716  0.38277  0.73584  1.0000
  C   C1242     1.0  0.37555  0.10223  0.59910  1.0000
  H   H2200     1.0  0.56625  0.40467  0.58788  1.0000
  H   H2201     1.0  0.45324  0.41826  0.66714  1.0000
  H   H2202     1.0  0.61912  0.06956  0.56436  1.0000
  H   H2203     1.0  0.39442  0.46900  0.68679  1.0000
  C   C1243     1.0  0.56723  0.45877  0.63160  1.0000
  H   H2204     1.0  0.42014  0.34227  0.52860  1.0000
  H   H2205     1.0  0.43651  0.35379  0.54212  1.0000
  C   C1244     1.0  0.57066  0.43698  0.59636  1.0000
  H   H2206     1.0  0.55911  0.44598  0.60272  1.0000
  H   H2207     1.0  0.36099  0.10561  0.60772  1.0000
  H   H2208     1.0  0.58983  0.47906  0.59745  1.0000
  H   H2209     1.0  0.56933  0.47662  0.62334  1.0000
  H   H2210     1.0  0.33329  0.05237  0.73962  1.0000
  C   C1245     1.0  0.37860  0.02573  0.59358  1.0000
  H   H2211     1.0  0.38626  0.09524  0.60698  1.0000
  H   H2212     1.0  0.55317  0.44084  0.65895  1.0000
  H   H2213     1.0  0.40391  0.32810  0.50829  1.0000
  H   H2214     1.0  0.42608  0.37321  0.52811  1.0000
  H   H2215     1.0  0.40740  0.11367  0.50920  1.0000
  H   H2216     1.0  0.41241  0.05320  0.56677  1.0000
  S   S280      1.0  0.35147  0.33984  0.68890  1.0000
  H   H2217     1.0  0.61301  0.41003  0.62482  1.0000
  C   C1246     1.0  0.53929  0.22100  0.56326  1.0000
  H   H2218     1.0  0.35259  0.28378  0.57399  1.0000
  C   C1247     1.0  0.42197  0.35496  0.53650  1.0000
  C   C1248     1.0  0.36626  0.49107  0.50392  1.0000
  N   N72       1.0  0.48414  0.24076  0.55817  1.0000
  H   H2219     1.0  0.65035  0.09667  0.53760  1.0000
  C   C1249     1.0  0.53636  0.49842  0.60884  1.0000
  C   C1250     1.0  0.45994  0.22946  0.56982  1.0000
  C   C1251     1.0  0.49944  0.22580  0.56346  1.0000
  H   H2220     1.0  0.39498  0.09704  0.56779  1.0000
  H   H2221     1.0  0.40707  0.08521  0.53439  1.0000
  C   C1252     1.0  0.44759  0.20458  0.56868  1.0000
  H   H2222     1.0  0.40573  0.48807  0.54420  1.0000
  H   H2223     1.0  0.38627  0.03846  0.60011  1.0000
  C   C1253     1.0  0.42779  0.45061  0.69346  1.0000
  H   H2224     1.0  0.33588  0.45204  0.50555  1.0000
  C   C1254     1.0  0.42535  0.19297  0.58317  1.0000
  H   H2225     1.0  0.42380  0.09452  0.54829  1.0000
  H   H2226     1.0  0.38204  0.41779  0.68358  1.0000
  H   H2227     1.0  0.44794  0.08891  0.52256  1.0000
  H   H2228     1.0  0.39246  0.01962  0.58649  1.0000
  H   H2229     1.0  0.44875  0.24123  0.56726  1.0000
  H   H2230     1.0  0.45995  0.22739  0.58348  1.0000
  H   H2231     1.0  0.49325  0.21681  0.57749  1.0000
  H   H2232     1.0  0.49826  0.21108  0.55718  1.0000
  H   H2233     1.0  0.44314  0.43232  0.71190  1.0000
  H   H2234     1.0  0.39207  0.46007  0.66765  1.0000
  H   H2235     1.0  0.35515  0.25225  0.51723  1.0000
  H   H2236     1.0  0.54332  0.41851  0.58732  1.0000
  H   H2237     1.0  0.45878  0.19254  0.56935  1.0000
  H   H2238     1.0  0.44271  0.20611  0.55646  1.0000
  H   H2239     1.0  0.61716  0.05131  0.59472  1.0000
  H   H2240     1.0  0.34952  0.03777  0.58916  1.0000
  C   C1255     1.0  0.36568  0.06818  0.55629  1.0000
  H   H2241     1.0  0.35528  0.09215  0.58261  1.0000
  H   H2242     1.0  0.51407  0.27175  0.52624  1.0000
  C   C1256     1.0  0.36595  0.03694  0.58116  1.0000
  H   H2243     1.0  0.49847  0.29531  0.59114  1.0000
  C   C1257     1.0  0.38599  0.07967  0.57745  1.0000
  C   C1258     1.0  0.36939  0.25038  0.59413  1.0000
  C   C1259     1.0  0.38045  0.27632  0.58393  1.0000
  H   H2244     1.0  0.37052  0.47551  0.53441  1.0000
  H   H2245     1.0  0.41358  0.20447  0.58297  1.0000
  H   H2246     1.0  0.41642  0.17577  0.58145  1.0000
  H   H2247     1.0  0.42918  0.18958  0.59581  1.0000
  N   N73       1.0  0.37163  0.31682  0.57695  1.0000
  S   S281      1.0  0.33561  0.38825  0.71163  1.0000
  C   C1260     1.0  0.35272  0.32730  0.57291  1.0000
  N   N74       1.0  0.64333  0.06091  0.53478  1.0000
  C   C1261     1.0  0.38168  0.32729  0.58974  1.0000
  C   C1262     1.0  0.37104  0.31400  0.60906  1.0000
  H   H2248     1.0  0.65976  0.05781  0.50974  1.0000
  C   C1263     1.0  0.39993  0.34987  0.55077  1.0000
  H   H2249     1.0  0.53262  0.20955  0.57668  1.0000
  C   C1264     1.0  0.47212  0.39616  0.50411  1.0000
  C   C1265     1.0  0.37998  0.32894  0.62032  1.0000
  C   C1266     1.0  0.40126  0.05771  0.55840  1.0000
  C   C1267     1.0  0.40418  0.47153  0.52328  1.0000
  C   C1268     1.0  0.64010  0.02244  0.52485  1.0000
  H   H2250     1.0  0.35899  0.34699  0.56862  1.0000
  H   H2251     1.0  0.35313  0.44676  0.70101  1.0000
  H   H2252     1.0  0.44670  0.42341  0.63842  1.0000
  H   H2253     1.0  0.49603  0.30708  0.56997  1.0000
  H   H2254     1.0  0.40046  0.32867  0.58726  1.0000
  H   H2255     1.0  0.38088  0.34594  0.58800  1.0000
  H   H2256     1.0  0.37586  0.29721  0.61210  1.0000
  H   H2257     1.0  0.63089  0.03018  0.58803  1.0000
  H   H2258     1.0  0.38617  0.38260  0.69440  1.0000
  H   H2259     1.0  0.41530  0.42637  0.66115  1.0000
  H   H2260     1.0  0.40380  0.36081  0.55957  1.0000
  H   H2261     1.0  0.38707  0.35574  0.54475  1.0000
  C   C1269     1.0  0.37759  0.46479  0.52632  1.0000
  C   C1270     1.0  0.62137  0.50258  0.56841  1.0000
  C   C1271     1.0  0.63780  0.04633  0.55318  1.0000
  C   C1272     1.0  0.45138  0.43560  0.66078  1.0000
  H   H2262     1.0  0.57015  0.47129  0.65418  1.0000
  H   H2263     1.0  0.37250  0.31899  0.63406  1.0000
  H   H2264     1.0  0.39908  0.33317  0.61740  1.0000
  H   H2265     1.0  0.37504  0.34578  0.61822  1.0000
  S   S282      1.0  0.65149  0.01523  0.62058  1.0000
  C   C1273     1.0  0.43726  0.07324  0.53331  1.0000
  H   H2266     1.0  0.57945  0.44856  0.58318  1.0000
  H   H2267     1.0  0.48200  0.27678  0.55339  1.0000
  H   H2268     1.0  0.60223  0.46542  0.63358  1.0000
  H   H2269     1.0  0.63672  0.46405  0.61395  1.0000
  H   H2270     1.0  0.54165  0.46482  0.65124  1.0000
  N   N75       1.0  0.41630  0.43164  0.68608  1.0000
  H   H2271     1.0  0.57943  0.41652  0.61767  1.0000
  H   H2272     1.0  0.35090  0.43795  0.68170  1.0000
  H   H2273     1.0  0.47541  0.46623  0.70952  1.0000
  C   C1274     1.0  0.34447  0.44938  0.51604  1.0000
  C   C1275     1.0  0.37009  0.33129  0.51768  1.0000
  H   H2274     1.0  0.52761  0.25018  0.56881  1.0000
  C   C1276     1.0  0.39116  0.43091  0.68924  1.0000
  H   H2275     1.0  0.60279  0.03026  0.58509  1.0000
  C   C1277     1.0  0.62552  0.44840  0.61169  1.0000
  C   C1278     1.0  0.65156  0.01279  0.51070  1.0000
  C   C1279     1.0  0.46021  0.01848  0.51173  1.0000
  C   C1280     1.0  0.63120  0.05918  0.56715  1.0000
  C   C1281     1.0  0.38601  0.45455  0.68187  1.0000
  N   N76       1.0  0.60222  0.45208  0.61133  1.0000
  C   C1282     1.0  0.41678  0.07939  0.54345  1.0000
  H   H2276     1.0  0.39092  0.28951  0.73406  1.0000
  C   C1283     1.0  0.55756  0.45890  0.65014  1.0000
  H   H2277     1.0  0.37526  0.34811  0.52119  1.0000
  H   H2278     1.0  0.35401  0.33040  0.51368  1.0000
  H   H2279     1.0  0.63833  0.01012  0.53741  1.0000
  H   H2280     1.0  0.52073  0.29674  0.57263  1.0000
  H   H2281     1.0  0.49507  0.25541  0.58594  1.0000
  H   H2282     1.0  0.42553  0.00635  0.54837  1.0000
  H   H2283     1.0  0.42967  0.36569  0.69271  1.0000
  C   C1284     1.0  0.38901  0.32967  0.50320  1.0000
  H   H2284     1.0  0.38285  0.24086  0.59394  1.0000
  C   C1285     1.0  0.34388  0.26280  0.52072  1.0000
  H   H2285     1.0  0.38978  0.27658  0.57082  1.0000
  H   H2286     1.0  0.43124  0.05840  0.52785  1.0000
  H   H2287     1.0  0.47175  0.37713  0.50729  1.0000
  C   C1286     1.0  0.55335  0.49795  0.59491  1.0000
  H   H2288     1.0  0.62351  0.02987  0.55584  1.0000
  H   H2289     1.0  0.51760  0.24262  0.52626  1.0000
  S   S283      1.0  0.33807  0.36912  0.49744  1.0000
  C   C1287     1.0  0.42661  0.43752  0.66694  1.0000
  C   C1288     1.0  0.41735  0.40759  0.69539  1.0000
  H   H2290     1.0  0.44818  0.06810  0.54168  1.0000
  C   C1289     1.0  0.45802  0.43818  0.64148  1.0000
  H   H2291     1.0  0.35537  0.06791  0.59987  1.0000
  H   H2292     1.0  0.45654  0.45531  0.63421  1.0000
  H   H2293     1.0  0.47036  0.26594  0.58425  1.0000
  H   H2294     1.0  0.47992  0.50300  0.53679  1.0000
  H   H2295     1.0  0.55021  0.50067  0.54542  1.0000
  H   H2296     1.0  0.43849  0.35416  0.74024  1.0000
  H   H2297     1.0  0.43304  0.46836  0.68400  1.0000
  H   H2298     1.0  0.34879  0.00927  0.61590  1.0000
  C   C1290     1.0  0.46080  0.46938  0.70445  1.0000
  H   H2299     1.0  0.58789  0.05499  0.51315  1.0000
  H   H2300     1.0  0.34192  0.20688  0.50108  1.0000
  H   H2301     1.0  0.50028  0.48538  0.62241  1.0000
  H   H2302     1.0  0.41319  0.48851  0.51346  1.0000
  Fe  Fe142     1.0  0.40895  0.25271  0.50113  1.0000
  H   H2303     1.0  0.49022  0.48660  0.52245  1.0000
  H   H2304     1.0  0.33593  0.35199  0.63550  1.0000
  H   H2305     1.0  0.33380  0.09293  0.54887  1.0000
  C   C1291     1.0  0.62191  0.07586  0.51264  1.0000
  H   H2306     1.0  0.39528  0.01361  0.53419  1.0000
  H   H2307     1.0  0.33469  0.32974  0.59792  1.0000
  H   H2308     1.0  0.45725  0.39651  0.73528  1.0000
  H   H2309     1.0  0.50872  0.40956  0.49878  1.0000
  H   H2310     1.0  0.65164  0.02342  0.49796  1.0000
  H   H2311     1.0  0.49044  0.26907  0.50604  1.0000
  H   H2312     1.0  0.63058  0.06770  0.50333  1.0000
  H   H2313     1.0  0.62264  0.02226  0.52348  1.0000
  H   H2314     1.0  0.58816  0.08224  0.51929  1.0000
  H   H2315     1.0  0.34452  0.18126  0.51570  1.0000
  C   C1292     1.0  0.33898  0.06060  0.56330  1.0000
  C   C1293     1.0  0.49433  0.49569  0.53222  1.0000
  C   C1294     1.0  0.33066  0.32153  0.58776  1.0000
  H   H2316     1.0  0.40105  0.34852  0.69419  1.0000
  S   S284      1.0  0.37747  0.40772  0.74008  1.0000
  C   C1295     1.0  0.50116  0.25668  0.50790  1.0000
  H   H2317     1.0  0.33212  0.04124  0.56502  1.0000
  H   H2318     1.0  0.45785  0.39844  0.49833  1.0000
  H   H2319     1.0  0.36747  0.08822  0.87919  1.0000
  S   S285      1.0  0.42604  0.36323  0.88572  1.0000
  C   C1296     1.0  0.36610  0.37599  0.79073  1.0000
  S   S286      1.0  0.47801  0.46782  0.82476  1.0000
  H   H2320     1.0  0.50441  0.39610  0.87684  1.0000
  Fe  Fe143     1.0  0.36497  0.18638  0.83513  1.0000
  C   C1297     1.0  0.34815  0.25575  0.77748  1.0000
  C   C1298     1.0  0.35332  0.35201  0.86392  1.0000
  Fe  Fe144     1.0  0.39926  0.23428  0.82970  1.0000
  S   S287      1.0  0.37640  0.25467  0.82001  1.0000
  S   S288      1.0  0.43437  0.24943  0.83292  1.0000
  C   C1299     1.0  0.54900  0.49899  0.80010  1.0000
  H   H2321     1.0  0.35888  0.29239  0.86073  1.0000
  Fe  Fe145     1.0  0.36967  0.22776  0.80537  1.0000
  S   S289      1.0  0.36876  0.23996  0.77808  1.0000
  S   S290      1.0  0.37120  0.20984  0.85243  1.0000
  S   S291      1.0  0.39510  0.20933  0.81318  1.0000
  Fe  Fe146     1.0  0.45970  0.42852  0.82958  1.0000
  S   S292      1.0  0.42233  0.41286  0.84502  1.0000
  Fe  Fe147     1.0  0.46362  0.38114  0.82384  1.0000
  S   S293      1.0  0.42755  0.36211  0.83903  1.0000
  S   S294      1.0  0.48519  0.35924  0.81348  1.0000
  Fe  Fe148     1.0  0.41862  0.39339  0.82480  1.0000
  S   S295      1.0  0.38595  0.38204  0.81656  1.0000
  Fe  Fe149     1.0  0.43427  0.38284  0.85771  1.0000
  C   C1300     1.0  0.42995  0.13070  0.77791  1.0000
  S   S296      1.0  0.45481  0.41145  0.80822  1.0000
  S   S297      1.0  0.47163  0.39951  0.84366  1.0000
  H   H2322     1.0  0.39266  0.23267  0.90110  1.0000
  H   H2323     1.0  0.33702  0.07051  0.83386  1.0000
  C   C1301     1.0  0.44620  0.30808  0.77005  1.0000
  C   C1302     1.0  0.42452  0.41320  0.91139  1.0000
  C   C1303     1.0  0.44786  0.42804  0.91236  1.0000
  C   C1304     1.0  0.36237  0.36856  0.90640  1.0000
  C   C1305     1.0  0.38465  0.37338  0.89559  1.0000
  H   H2324     1.0  0.34657  0.02226  0.89010  1.0000
  H   H2325     1.0  0.39130  0.38881  0.88462  1.0000
  C   C1306     1.0  0.39116  0.10071  0.76693  1.0000
  H   H2326     1.0  0.45181  0.30701  0.89143  1.0000
  C   C1307     1.0  0.45432  0.30684  0.87781  1.0000
  H   H2327     1.0  0.41659  0.41719  0.78516  1.0000
  S   S298      1.0  0.33901  0.20264  0.82586  1.0000
  C   C1308     1.0  0.39360  0.28818  0.85775  1.0000
  C   C1309     1.0  0.38468  0.31333  0.78366  1.0000
  C   C1310     1.0  0.44763  0.28016  0.82723  1.0000
  C   C1311     1.0  0.43593  0.29694  0.82273  1.0000
  C   C1312     1.0  0.44713  0.32133  0.81885  1.0000
  C   C1313     1.0  0.47029  0.32894  0.81885  1.0000
  C   C1314     1.0  0.48204  0.31212  0.82289  1.0000
  C   C1315     1.0  0.47065  0.28786  0.82734  1.0000
  H   H2328     1.0  0.41830  0.29112  0.82228  1.0000
  H   H2329     1.0  0.43810  0.33425  0.81534  1.0000
  H   H2330     1.0  0.49994  0.31787  0.82281  1.0000
  H   H2331     1.0  0.47984  0.27500  0.83068  1.0000
  C   C1316     1.0  0.49861  0.47795  0.83550  1.0000
  H   H2332     1.0  0.42681  0.40064  0.90363  1.0000
  H   H2333     1.0  0.41778  0.35585  0.77705  1.0000
  C   C1317     1.0  0.39825  0.35821  0.89906  1.0000
  C   C1318     1.0  0.38498  0.38887  0.79494  1.0000
  C   C1319     1.0  0.40199  0.40708  0.78205  1.0000
  C   C1320     1.0  0.39964  0.41281  0.76522  1.0000
  H   H2334     1.0  0.47646  0.33014  0.85313  1.0000
  C   C1321     1.0  0.38970  0.33862  0.91354  1.0000
  H   H2335     1.0  0.36861  0.17624  0.78371  1.0000
  H   H2336     1.0  0.46161  0.29204  0.87585  1.0000
  H   H2337     1.0  0.37809  0.29364  0.78677  1.0000
  H   H2338     1.0  0.50499  0.44425  0.84380  1.0000
  H   H2339     1.0  0.33739  0.25004  0.80487  1.0000
  C   C1322     1.0  0.39081  0.28496  0.87713  1.0000
  H   H2340     1.0  0.37237  0.32052  0.77758  1.0000
  H   H2341     1.0  0.33526  0.20898  0.87945  1.0000
  H   H2342     1.0  0.36313  0.26236  0.94011  1.0000
  C   C1323     1.0  0.36721  0.33340  0.92404  1.0000
  H   H2343     1.0  0.40855  0.10822  0.75773  1.0000
  H   H2344     1.0  0.43544  0.11427  0.77779  1.0000
  C   C1324     1.0  0.38054  0.40004  0.76112  1.0000
  H   H2345     1.0  0.40048  0.32746  0.91666  1.0000
  H   H2346     1.0  0.41509  0.42516  0.90583  1.0000
  H   H2347     1.0  0.35551  0.31786  0.82327  1.0000
  C   C1325     1.0  0.33926  0.05585  0.88673  1.0000
  H   H2348     1.0  0.38794  0.35929  0.86650  1.0000
  C   C1326     1.0  0.40091  0.12218  0.80637  1.0000
  C   C1327     1.0  0.40651  0.10056  0.81678  1.0000
  Fe  Fe150     1.0  0.34278  0.00799  0.83425  1.0000
  H   H2349     1.0  0.36340  0.06790  0.77425  1.0000
  C   C1328     1.0  0.40914  0.10366  0.83415  1.0000
  H   H2350     1.0  0.38262  0.12064  0.81226  1.0000
  H   H2351     1.0  0.41060  0.13840  0.80887  1.0000
  H   H2352     1.0  0.43274  0.13977  0.76414  1.0000
  H   H2353     1.0  0.39220  0.08424  0.81924  1.0000
  H   H2354     1.0  0.42261  0.09778  0.80972  1.0000
  C   C1329     1.0  0.48725  0.47574  0.90438  1.0000
  C   C1330     1.0  0.42479  0.31280  0.78095  1.0000
  C   C1331     1.0  0.53112  0.49499  0.85271  1.0000
  H   H2355     1.0  0.42447  0.11863  0.83239  1.0000
  H   H2356     1.0  0.39360  0.10728  0.84136  1.0000
  H   H2357     1.0  0.41137  0.08721  0.84182  1.0000
  H   H2358     1.0  0.46335  0.16034  0.97289  1.0000
  C   C1332     1.0  0.33062  0.28147  0.76106  1.0000
  H   H2359     1.0  0.34582  0.31854  0.80423  1.0000
  H   H2360     1.0  0.46928  0.31782  0.78555  1.0000
  S   S299      1.0  0.35966  0.14713  0.84560  1.0000
  H   H2361     1.0  0.47765  0.13896  0.77002  1.0000
  C   C1333     1.0  0.40144  0.16794  0.78250  1.0000
  H   H2362     1.0  0.45415  0.28642  0.79135  1.0000
  H   H2363     1.0  0.35298  0.36179  0.80056  1.0000
  H   H2364     1.0  0.36865  0.33173  0.88081  1.0000
  H   H2365     1.0  0.41879  0.27334  0.90790  1.0000
  H   H2366     1.0  0.33452  0.26734  0.99185  1.0000
  H   H2367     1.0  0.41545  0.29543  0.79062  1.0000
  H   H2368     1.0  0.39220  0.38893  0.92813  1.0000
  C   C1334     1.0  0.33557  0.25869  0.79263  1.0000
  C   C1335     1.0  0.33490  0.33124  0.86207  1.0000
  H   H2369     1.0  0.47537  0.37717  0.88190  1.0000
  H   H2370     1.0  0.37394  0.25447  0.91215  1.0000
  C   C1336     1.0  0.41546  0.34863  0.76604  1.0000
  H   H2371     1.0  0.64989  0.47595  0.76937  1.0000
  H   H2372     1.0  0.34948  0.09705  0.85128  1.0000
  H   H2373     1.0  0.40618  0.41024  0.93770  1.0000
  C   C1337     1.0  0.36460  0.06962  0.87837  1.0000
  C   C1338     1.0  0.50475  0.50197  0.83543  1.0000
  H   H2374     1.0  0.38787  0.18473  0.76228  1.0000
  H   H2375     1.0  0.42762  0.46062  0.85332  1.0000
  H   H2376     1.0  0.44271  0.16192  0.78721  1.0000
  H   H2377     1.0  0.41957  0.17687  0.77497  1.0000
  H   H2378     1.0  0.36954  0.06989  0.86463  1.0000
  H   H2379     1.0  0.41031  0.01406  0.85739  1.0000
  H   H2380     1.0  0.44881  0.13554  0.79720  1.0000
  H   H2381     1.0  0.55060  0.49848  0.81326  1.0000
  H   H2382     1.0  0.50774  0.50237  0.91333  1.0000
  H   H2383     1.0  0.38900  0.28644  0.93456  1.0000
  C   C1339     1.0  0.43142  0.30431  0.87262  1.0000
  H   H2384     1.0  0.35303  0.19264  0.98876  1.0000
  Fe  Fe151     1.0  0.34761  0.22807  0.84134  1.0000
  C   C1340     1.0  0.43803  0.36119  0.75158  1.0000
  C   C1341     1.0  0.46281  0.30264  0.78054  1.0000
  H   H2385     1.0  0.42607  0.32075  0.87309  1.0000
  H   H2386     1.0  0.44061  0.29237  0.76530  1.0000
  N   N77       1.0  0.41178  0.28268  0.88311  1.0000
  H   H2387     1.0  0.48832  0.33186  0.87102  1.0000
  H   H2388     1.0  0.42266  0.21479  0.88919  1.0000
  H   H2389     1.0  0.45414  0.41673  0.92173  1.0000
  H   H2390     1.0  0.48803  0.48974  0.89293  1.0000
  H   H2391     1.0  0.38791  0.33939  0.79885  1.0000
  C   C1342     1.0  0.38141  0.26916  0.93236  1.0000
  H   H2392     1.0  0.43088  0.32508  0.78841  1.0000
  N   N78       1.0  0.40865  0.32184  0.77150  1.0000
  H   H2393     1.0  0.34365  0.32557  0.85115  1.0000
  H   H2394     1.0  0.53280  0.48553  0.80117  1.0000
  H   H2395     1.0  0.34931  0.37120  0.77092  1.0000
  H   H2396     1.0  0.37958  0.11109  0.76280  1.0000
  C   C1343     1.0  0.33770  0.08900  0.82996  1.0000
  H   H2397     1.0  0.39950  0.16741  0.79618  1.0000
  H   H2398     1.0  0.34006  0.03234  0.87037  1.0000
  H   H2399     1.0  0.44986  0.46702  0.89069  1.0000
  H   H2400     1.0  0.33552  0.05549  0.90047  1.0000
  H   H2401     1.0  0.33067  0.31586  0.87355  1.0000
  H   H2402     1.0  0.37562  0.26951  0.88417  1.0000
  H   H2403     1.0  0.41276  0.30100  0.90296  1.0000
  H   H2404     1.0  0.37586  0.06136  0.88499  1.0000
  H   H2405     1.0  0.44377  0.44186  0.91850  1.0000
  H   H2406     1.0  0.38579  0.30054  0.88019  1.0000
  H   H2407     1.0  0.35073  0.29178  0.81554  1.0000
  C   C1344     1.0  0.33450  0.03037  0.88442  1.0000
  H   H2408     1.0  0.38003  0.33445  0.85816  1.0000
  C   C1345     1.0  0.34491  0.10406  0.83978  1.0000
  H   H2409     1.0  0.49347  0.37106  0.89565  1.0000
  H   H2410     1.0  0.43263  0.25845  0.88636  1.0000
  H   H2411     1.0  0.37464  0.13622  0.78534  1.0000
  C   C1346     1.0  0.38691  0.18347  0.77599  1.0000
  C   C1347     1.0  0.50913  0.46262  0.84398  1.0000
  C   C1348     1.0  0.35966  0.22847  0.97419  1.0000
  C   C1349     1.0  0.47225  0.32998  0.86686  1.0000
  C   C1350     1.0  0.33214  0.09809  0.81489  1.0000
  H   H2412     1.0  0.47143  0.47360  0.91448  1.0000
  H   H2413     1.0  0.39344  0.20166  0.77717  1.0000
  H   H2414     1.0  0.40220  0.27557  0.85312  1.0000
  C   C1351     1.0  0.52518  0.47107  0.85260  1.0000
  C   C1352     1.0  0.34731  0.12841  0.83433  1.0000
  H   H2415     1.0  0.41712  0.38526  0.93506  1.0000
  H   H2416     1.0  0.34654  0.35937  0.87446  1.0000
  H   H2417     1.0  0.52431  0.48735  0.90122  1.0000
  H   H2418     1.0  0.45595  0.32332  0.75884  1.0000
  H   H2419     1.0  0.64128  0.46171  0.79206  1.0000
  H   H2420     1.0  0.35188  0.38033  0.90376  1.0000
  H   H2421     1.0  0.45074  0.48326  0.85515  1.0000
  H   H2422     1.0  0.44119  0.39598  0.75627  1.0000
  H   H2423     1.0  0.40168  0.29152  0.76136  1.0000
  H   H2424     1.0  0.38515  0.23764  0.88092  1.0000
  H   H2425     1.0  0.39452  0.19994  0.88795  1.0000
  H   H2426     1.0  0.40125  0.35509  0.76221  1.0000
  H   H2427     1.0  0.40381  0.30660  0.85040  1.0000
  H   H2428     1.0  0.48396  0.16480  0.77785  1.0000
  C   C1353     1.0  0.40866  0.21678  0.88303  1.0000
  H   H2429     1.0  0.35360  0.24440  0.97471  1.0000
  C   C1354     1.0  0.39943  0.23713  0.88701  1.0000
  C   C1355     1.0  0.39226  0.10107  0.78541  1.0000
  C   C1356     1.0  0.47165  0.15439  0.77235  1.0000
  H   H2430     1.0  0.43591  0.30456  0.85883  1.0000
  H   H2431     1.0  0.39701  0.14572  0.76587  1.0000
  C   C1357     1.0  0.38138  0.07550  0.76593  1.0000
  C   C1358     1.0  0.40763  0.31130  0.75659  1.0000
  C   C1359     1.0  0.37034  0.28363  0.85386  1.0000
  C   C1360     1.0  0.38216  0.31996  0.80093  1.0000
  C   C1361     1.0  0.38239  0.27201  0.91346  1.0000
  H   H2432     1.0  0.40039  0.08703  0.78990  1.0000
  H   H2433     1.0  0.37422  0.09492  0.79373  1.0000
  N   N79       1.0  0.40475  0.12459  0.78743  1.0000
  H   H2434     1.0  0.37276  0.29018  0.83990  1.0000
  H   H2435     1.0  0.35995  0.36661  0.85191  1.0000
  H   H2436     1.0  0.39076  0.25630  0.93672  1.0000
  H   H2437     1.0  0.46570  0.34543  0.86817  1.0000
  C   C1362     1.0  0.36400  0.38133  0.77390  1.0000
  C   C1363     1.0  0.41868  0.26096  0.88025  1.0000
  H   H2438     1.0  0.37826  0.23302  0.97367  1.0000
  H   H2439     1.0  0.41253  0.42730  0.75542  1.0000
  H   H2440     1.0  0.42648  0.26340  0.86637  1.0000
  C   C1364     1.0  0.35352  0.34840  0.92052  1.0000
  H   H2441     1.0  0.39246  0.31187  0.80863  1.0000
  H   H2442     1.0  0.53310  0.45899  0.85919  1.0000
  C   C1365     1.0  0.35699  0.31145  0.81161  1.0000
  H   H2443     1.0  0.36067  0.31815  0.93513  1.0000
  C   C1366     1.0  0.40760  0.28254  0.90183  1.0000
  C   C1367     1.0  0.37368  0.34369  0.86761  1.0000
  H   H2444     1.0  0.47783  0.29943  0.77233  1.0000
  H   H2445     1.0  0.37185  0.28412  0.91007  1.0000
  H   H2446     1.0  0.36223  0.26427  0.85786  1.0000
  H   H2447     1.0  0.41537  0.21995  0.86896  1.0000
  C   C1368     1.0  0.40916  0.39859  0.92920  1.0000
  C   C1369     1.0  0.65522  0.47508  0.78141  1.0000
  S   S300      1.0  0.36592  0.00869  0.85170  1.0000
  N   N80       1.0  0.46649  0.43916  0.89564  1.0000
  C   C1370     1.0  0.47276  0.42073  0.88716  1.0000
  C   C1371     1.0  0.45961  0.45708  0.88345  1.0000
  C   C1372     1.0  0.48782  0.45213  0.89966  1.0000
  C   C1373     1.0  0.48009  0.40099  0.89816  1.0000
  C   C1374     1.0  0.44567  0.44786  0.87151  1.0000
  C   C1375     1.0  0.43641  0.46710  0.86249  1.0000
  C   C1376     1.0  0.48887  0.38542  0.88744  1.0000
  H   H2448     1.0  0.48696  0.42960  0.87520  1.0000
  H   H2449     1.0  0.45836  0.41140  0.88287  1.0000
  H   H2450     1.0  0.47530  0.47060  0.87438  1.0000
  H   H2451     1.0  0.50328  0.45657  0.88853  1.0000
  H   H2452     1.0  0.49152  0.44061  0.91052  1.0000
  H   H2453     1.0  0.35758  0.22353  0.96231  1.0000
  H   H2454     1.0  0.49419  0.40838  0.90348  1.0000
  H   H2455     1.0  0.46513  0.38938  0.90890  1.0000
  H   H2456     1.0  0.45706  0.44286  0.86147  1.0000
  H   H2457     1.0  0.43094  0.43206  0.87832  1.0000
  H   H2458     1.0  0.42381  0.47174  0.87196  1.0000
  H   H2459     1.0  0.56373  0.49419  0.79287  1.0000
  S   S301      1.0  0.35705  0.03020  0.80702  1.0000
  C   C1377     1.0  0.39371  0.14288  0.77997  1.0000
  C   C1378     1.0  0.34512  0.26656  0.76174  1.0000
  C   C1379     1.0  0.44757  0.14605  0.78486  1.0000
  H   H2460     1.0  0.34314  0.15626  0.81517  1.0000
  H   H2461     1.0  0.33477  0.20519  0.90985  1.0000
  H   H2462     1.0  0.62000  0.49969  0.81049  1.0000
  C   C1380     1.0  0.34139  0.13749  0.81942  1.0000
  C   C1381     1.0  0.34613  0.20785  0.98996  1.0000
  H   H2463     1.0  0.39207  0.06393  0.76996  1.0000
  H   H2464     1.0  0.47164  0.16592  0.75997  1.0000
  H   H2465     1.0  0.37371  0.31261  0.75310  1.0000
  H   H2466     1.0  0.59953  0.49762  0.83982  1.0000
  C   C1382     1.0  0.47487  0.16657  0.98063  1.0000
  H   H2467     1.0  0.35429  0.26376  0.75007  1.0000
  H   H2468     1.0  0.50726  0.47238  0.92306  1.0000
  H   H2469     1.0  0.38116  0.07580  0.75253  1.0000
  H   H2470     1.0  0.33131  0.35034  0.83186  1.0000
  C   C1383     1.0  0.33356  0.12228  0.80982  1.0000
  C   C1384     1.0  0.33107  0.04099  0.75263  1.0000
  H   H2471     1.0  0.45303  0.35923  0.75648  1.0000
  H   H2472     1.0  0.34810  0.03872  0.75370  1.0000
  H   H2473     1.0  0.33021  0.37250  0.84261  1.0000
  C   C1385     1.0  0.50791  0.48493  0.91090  1.0000
  H   H2474     1.0  0.47944  0.18623  0.97754  1.0000
  H   H2475     1.0  0.49093  0.16128  0.97702  1.0000
  H   H2476     1.0  0.64201  0.50087  0.83173  1.0000
  H   H2477     1.0  0.65673  0.48286  0.81148  1.0000
  C   C1386     1.0  0.65937  0.49945  0.78487  1.0000
  H   H2478     1.0  0.43110  0.16156  0.99580  1.0000
  H   H2479     1.0  0.32920  0.12940  0.79821  1.0000
  H   H2480     1.0  0.42490  0.31552  0.74757  1.0000
  H   H2481     1.0  0.66005  0.54028  0.24137  1.0000
  C   C1387     1.0  0.61460  0.60366  0.15040  1.0000
  C   C1388     1.0  0.65969  0.97935  0.22553  1.0000
  C   C1389     1.0  0.64562  0.93800  0.16161  1.0000
  H   H2482     1.0  0.54702  0.56397  0.10163  1.0000
  C   C1390     1.0  0.60254  0.99070  0.12526  1.0000
  H   H2483     1.0  0.64745  0.65397  0.21101  1.0000
  C   C1391     1.0  0.64782  0.60049  0.09704  1.0000
  C   C1392     1.0  0.38301  0.98139  0.15781  1.0000
  H   H2484     1.0  0.36502  0.91534  0.18020  1.0000
  H   H2485     1.0  0.62777  0.92912  0.16308  1.0000
  H   H2486     1.0  0.57578  0.55526  0.11714  1.0000
  H   H2487     1.0  0.65481  0.94995  0.10423  1.0000
  S   S302      1.0  0.62963  0.97451  0.16817  1.0000
  H   H2488     1.0  0.62774  0.67867  0.22514  1.0000
  H   H2489     1.0  0.64784  0.96856  0.20428  1.0000
  H   H2490     1.0  0.33191  0.87443  0.21732  1.0000
  C   C1393     1.0  0.60208  0.63616  0.15855  1.0000
  H   H2491     1.0  0.36158  0.93599  0.22166  1.0000
  H   H2492     1.0  0.59572  0.57788  0.22407  1.0000
  S   S303      1.0  0.60745  0.57622  0.14557  1.0000
  C   C1394     1.0  0.65238  0.75322  0.21328  1.0000
  H   H2493     1.0  0.36505  0.89164  0.00359  1.0000
  C   C1395     1.0  0.60440  0.58628  0.19644  1.0000
  H   H2494     1.0  0.64226  0.58261  0.10629  1.0000
  H   H2495     1.0  0.63433  0.99163  0.13251  1.0000
  H   H2496     1.0  0.59954  0.60295  0.19309  1.0000
  N   N81       1.0  0.55194  0.50836  0.14022  1.0000
  H   H2497     1.0  0.65710  0.59935  0.08436  1.0000
  H   H2498     1.0  0.58028  0.56743  0.18501  1.0000
  H   H2499     1.0  0.34828  0.96909  0.23033  1.0000
  H   H2500     1.0  0.55611  0.51654  0.18890  1.0000
  H   H2501     1.0  0.65121  0.95130  0.12610  1.0000
  H   H2502     1.0  0.40288  0.97798  0.13422  1.0000
  C   C1396     1.0  0.61749  0.66329  0.22201  1.0000
  C   C1397     1.0  0.55781  0.55243  0.12466  1.0000
  H   H2503     1.0  0.65763  0.71510  0.12545  1.0000
  Fe  Fe152     1.0  0.62620  0.55046  0.15522  1.0000
  H   H2504     1.0  0.64698  0.70877  0.10782  1.0000
  C   C1398     1.0  0.61174  0.58297  0.21338  1.0000
  C   C1399     1.0  0.58782  0.98188  0.14390  1.0000
  C   C1400     1.0  0.62153  0.97962  0.21893  1.0000
  C   C1401     1.0  0.58453  0.51002  0.11414  1.0000
  C   C1402     1.0  0.36107  0.97483  0.16933  1.0000
  H   H2505     1.0  0.64390  0.62197  0.18787  1.0000
  H   H2506     1.0  0.58012  0.60684  0.15337  1.0000
  H   H2507     1.0  0.59614  0.99152  0.15201  1.0000
  H   H2508     1.0  0.52953  0.56731  0.12101  1.0000
  S   S304      1.0  0.64560  0.53322  0.21188  1.0000
  H   H2509     1.0  0.63798  0.68666  0.12828  1.0000
  H   H2510     1.0  0.37364  0.97516  0.01390  1.0000
  C   C1403     1.0  0.58372  0.56588  0.19776  1.0000
  C   C1404     1.0  0.34962  0.90065  0.18156  1.0000
  H   H2511     1.0  0.63220  0.60615  0.09582  1.0000
  C   C1405     1.0  0.61068  0.51568  0.10745  1.0000
  H   H2512     1.0  0.61924  0.53390  0.10770  1.0000
  S   S305      1.0  0.40622  0.99951  0.16240  1.0000
  H   H2513     1.0  0.38135  0.98607  0.09232  1.0000
  H   H2514     1.0  0.58843  0.64439  0.16161  1.0000
  C   C1406     1.0  0.63099  0.64499  0.22102  1.0000
  H   H2515     1.0  0.35349  0.94285  0.20226  1.0000
  H   H2516     1.0  0.65342  0.67300  0.09878  1.0000
  H   H2517     1.0  0.64992  0.96190  0.23467  1.0000
  H   H2518     1.0  0.65912  0.64459  0.15547  1.0000
  H   H2519     1.0  0.61955  0.99449  0.22458  1.0000
  H   H2520     1.0  0.61870  0.58664  0.18567  1.0000
  H   H2521     1.0  0.60021  0.61583  0.22646  1.0000
  C   C1407     1.0  0.54825  0.51228  0.15787  1.0000
  H   H2522     1.0  0.56814  0.56647  0.20702  1.0000
  H   H2523     1.0  0.61314  0.63044  0.20448  1.0000
  C   C1408     1.0  0.64186  0.63616  0.15522  1.0000
  N   N82       1.0  0.62897  0.60405  0.21487  1.0000
  H   H2524     1.0  0.65103  0.58050  0.19251  1.0000
  H   H2525     1.0  0.35266  0.90203  0.21216  1.0000
  H   H2526     1.0  0.65234  0.61069  0.23055  1.0000
  H   H2527     1.0  0.55793  0.58736  0.11076  1.0000
  H   H2528     1.0  0.65257  0.61969  0.11547  1.0000
  C   C1409     1.0  0.54734  0.56867  0.11385  1.0000
  C   C1410     1.0  0.57730  0.51156  0.13290  1.0000
  H   H2529     1.0  0.65961  0.93546  0.22243  1.0000
  H   H2530     1.0  0.61247  0.97984  0.20871  1.0000
  H   H2531     1.0  0.64644  0.73352  0.21758  1.0000
  C   C1411     1.0  0.54350  0.52606  0.12922  1.0000
  H   H2532     1.0  0.61530  0.51461  0.09400  1.0000
  H   H2533     1.0  0.62362  0.96114  0.10048  1.0000
  C   C1412     1.0  0.63405  0.96682  0.06710  1.0000
  C   C1413     1.0  0.35175  0.96818  0.21681  1.0000
  C   C1414     1.0  0.33412  0.89392  0.21378  1.0000
  C   C1415     1.0  0.34501  0.95194  0.15170  1.0000
  H   H2534     1.0  0.53037  0.51321  0.16275  1.0000
  C   C1416     1.0  0.62579  0.98433  0.12344  1.0000
  H   H2535     1.0  0.34596  0.97533  0.02612  1.0000
  H   H2536     1.0  0.58783  0.52865  0.13384  1.0000
  H   H2537     1.0  0.58717  0.54854  0.20202  1.0000
  C   C1417     1.0  0.64703  0.98232  0.21126  1.0000
  H   H2538     1.0  0.62121  0.96472  0.12846  1.0000
  H   H2539     1.0  0.59230  0.98218  0.11761  1.0000
  H   H2540     1.0  0.57065  0.98500  0.14473  1.0000
  C   C1418     1.0  0.63697  0.61444  0.15091  1.0000
  C   C1419     1.0  0.38599  0.97308  0.14318  1.0000
  C   C1420     1.0  0.62420  0.64673  0.15946  1.0000
  H   H2541     1.0  0.61832  0.56707  0.21497  1.0000
  H   H2542     1.0  0.36939  0.95152  0.12901  1.0000
  C   C1421     1.0  0.35745  0.93927  0.99908  1.0000
  H   H2543     1.0  0.65051  0.60619  0.14771  1.0000
  H   H2544     1.0  0.60088  0.65550  0.23215  1.0000
  H   H2545     1.0  0.65710  0.99261  0.23281  1.0000
  C   C1422     1.0  0.61719  0.62322  0.21665  1.0000
  H   H2546     1.0  0.65042  0.60645  0.00252  1.0000
  H   H2547     1.0  0.61409  0.66983  0.20947  1.0000
  C   C1423     1.0  0.63081  0.98054  0.09419  1.0000
  S   S306      1.0  0.66174  0.71500  0.18693  1.0000
  H   H2548     1.0  0.33982  0.97591  0.21066  1.0000
  H   H2549     1.0  0.61325  0.96248  0.22894  1.0000
  H   H2550     1.0  0.63488  0.63987  0.23352  1.0000
  H   H2551     1.0  0.35387  0.88348  0.18412  1.0000
  H   H2552     1.0  0.66125  0.64652  0.08362  1.0000
  H   H2553     1.0  0.35571  0.94928  0.03102  1.0000
  C   C1424     1.0  0.34415  0.95466  0.00770  1.0000
  H   H2554     1.0  0.54241  0.52147  0.11704  1.0000
  H   H2555     1.0  0.35863  0.98120  0.18060  1.0000
  S   S307      1.0  0.62858  0.67282  0.16625  1.0000
  Fe  Fe153     1.0  0.64386  0.53105  0.18531  1.0000
  H   H2556     1.0  0.63204  0.94822  0.07411  1.0000
  H   H2557     1.0  0.65449  1.00000  0.20187  1.0000
  S   S308      1.0  0.63568  0.52458  0.14100  1.0000
  H   H2558     1.0  0.64487  0.58113  0.22913  1.0000
  S   S309      1.0  0.60927  0.52279  0.18024  1.0000
  C   C1425     1.0  0.59736  0.61489  0.15388  1.0000
  H   H2559     1.0  0.52552  0.52518  0.13573  1.0000
  C   C1426     1.0  0.36705  0.95805  0.14027  1.0000
  H   H2560     1.0  0.33712  0.97051  0.10705  1.0000
  H   H2561     1.0  0.64801  0.00226  0.06787  1.0000
  C   C1427     1.0  0.63768  0.59632  0.23020  1.0000
  H   H2562     1.0  0.53310  0.99369  0.20306  1.0000
  H   H2563     1.0  0.57890  0.52268  0.10531  1.0000
  C   C1428     1.0  0.65170  0.96095  0.16347  1.0000
  H   H2564     1.0  0.55838  0.55836  0.13639  1.0000
  H   H2565     1.0  0.55962  0.52980  0.15732  1.0000
  H   H2566     1.0  0.35674  0.00106  0.13421  1.0000
  N   N83       1.0  0.64222  0.99270  0.10561  1.0000
  C   C1429     1.0  0.35566  0.96409  0.02044  1.0000
  H   H2567     1.0  0.35991  0.92619  0.00966  1.0000
  H   H2568     1.0  0.61560  0.98674  0.09248  1.0000
  H   H2569     1.0  0.61684  0.96902  0.06656  1.0000
  C   C1430     1.0  0.64925  0.61384  0.19915  1.0000
  S   S310      1.0  0.35422  0.99219  0.06825  1.0000
  C   C1431     1.0  0.64579  0.98414  0.07582  1.0000
  H   H2570     1.0  0.58524  0.96256  0.14909  1.0000
  H   H2571     1.0  0.34492  0.90353  0.16923  1.0000
  H   H2572     1.0  0.64478  0.97026  0.05377  1.0000
  H   H2573     1.0  0.36006  0.89457  0.23682  1.0000
  H   H2574     1.0  0.36970  0.97899  0.20986  1.0000
  H   H2575     1.0  0.65523  0.65514  0.11785  1.0000
  H   H2576     1.0  0.64833  0.75923  0.20092  1.0000
  H   H2577     1.0  0.34383  0.97033  0.99800  1.0000
  C   C1432     1.0  0.65266  0.70107  0.11905  1.0000
  H   H2578     1.0  0.65771  0.90892  0.15584  1.0000
  C   C1433     1.0  0.34208  0.96054  0.16617  1.0000
  C   C1434     1.0  0.34884  0.94257  0.21598  1.0000
  H   H2579     1.0  0.64286  0.76040  0.22292  1.0000
  S   S311      1.0  0.65971  0.56111  0.16151  1.0000
  C   C1435     1.0  0.66214  0.95951  0.11277  1.0000
  C   C1436     1.0  0.32943  0.90043  0.19594  1.0000
  H   H2580     1.0  0.43499  0.00285  0.20510  1.0000
  H   H2581     1.0  0.66220  0.62837  0.20101  1.0000
  H   H2582     1.0  0.60593  0.57196  0.24872  1.0000
  C   C1437     1.0  0.49866  0.93332  0.41479  1.0000
  H   H2583     1.0  0.57699  0.79918  0.45164  1.0000
  H   H2584     1.0  0.55845  0.95827  0.39903  1.0000
  C   C1438     1.0  0.47663  0.96333  0.41460  1.0000
  H   H2585     1.0  0.61132  0.60200  0.25032  1.0000
  S   S312      1.0  0.37262  0.89151  0.45917  1.0000
  S   S313      1.0  0.66034  0.66124  0.45048  1.0000
  H   H2586     1.0  0.59250  0.84785  0.46693  1.0000
  C   C1439     1.0  0.54239  0.94466  0.40728  1.0000
  C   C1440     1.0  0.34967  0.99532  0.40098  1.0000
  S   S314      1.0  0.40213  0.96914  0.38773  1.0000
  H   H2587     1.0  0.54263  0.92740  0.40454  1.0000
  H   H2588     1.0  0.61855  0.88177  0.43364  1.0000
  S   S315      1.0  0.61552  0.68399  0.47984  1.0000
  C   C1441     1.0  0.60204  0.85921  0.48781  1.0000
  C   C1442     1.0  0.33737  0.96852  0.42970  1.0000
  C   C1443     1.0  0.47510  0.93857  0.39472  1.0000
  H   H2589     1.0  0.63880  0.67422  0.39833  1.0000
  H   H2590     1.0  0.62028  0.59862  0.38560  1.0000
  C   C1444     1.0  0.45180  0.93829  0.37294  1.0000
  Fe  Fe154     1.0  0.64308  0.55663  0.39420  1.0000
  H   H2591     1.0  0.43695  0.92734  0.40004  1.0000
  Fe  Fe155     1.0  0.60969  0.55146  0.42839  1.0000
  H   H2592     1.0  0.46471  0.99696  0.43082  1.0000
  S   S316      1.0  0.59060  0.57117  0.44421  1.0000
  C   C1445     1.0  0.58981  0.55334  0.36152  1.0000
  S   S317      1.0  0.64791  0.56582  0.41804  1.0000
  C   C1446     1.0  0.45215  0.94100  0.39079  1.0000
  S   S318      1.0  0.60441  0.54507  0.40345  1.0000
  H   H2593     1.0  0.44959  0.89397  0.41191  1.0000
  C   C1447     1.0  0.63983  0.63512  0.45154  1.0000
  C   C1448     1.0  0.61649  0.63402  0.45373  1.0000
  C   C1449     1.0  0.60115  0.61407  0.45194  1.0000
  C   C1450     1.0  0.60905  0.59508  0.44829  1.0000
  C   C1451     1.0  0.63198  0.59572  0.44731  1.0000
  C   C1452     1.0  0.52147  0.95199  0.40352  1.0000
  H   H2594     1.0  0.61051  0.64897  0.45596  1.0000
  H   H2595     1.0  0.58337  0.61370  0.45285  1.0000
  H   H2596     1.0  0.64253  0.65982  0.41816  1.0000
  C   C1453     1.0  0.42648  0.97748  0.46681  1.0000
  H   H2597     1.0  0.62994  0.64226  0.37889  1.0000
  C   C1454     1.0  0.61774  0.83671  0.44074  1.0000
  H   H2598     1.0  0.45219  0.92014  0.37225  1.0000
  H   H2599     1.0  0.47834  0.92220  0.39178  1.0000
  Fe  Fe156     1.0  0.64869  0.52852  0.42765  1.0000
  C   C1455     1.0  0.38490  0.99964  0.42266  1.0000
  H   H2600     1.0  0.63736  0.00049  0.34061  1.0000
  H   H2601     1.0  0.64426  0.59738  0.26237  1.0000
  H   H2602     1.0  0.43573  0.94132  0.37013  1.0000
  C   C1456     1.0  0.64139  0.95164  0.44698  1.0000
  H   H2603     1.0  0.48893  0.95337  0.38497  1.0000
  H   H2604     1.0  0.62718  0.95438  0.45572  1.0000
  C   C1457     1.0  0.37949  0.91419  0.44002  1.0000
  C   C1458     1.0  0.39877  0.93385  0.43622  1.0000
  C   C1459     1.0  0.40582  0.95103  0.42027  1.0000
  C   C1460     1.0  0.39371  0.94845  0.40802  1.0000
  C   C1461     1.0  0.37424  0.92900  0.41196  1.0000
  C   C1462     1.0  0.36709  0.91196  0.42793  1.0000
  H   H2605     1.0  0.40830  0.93566  0.44561  1.0000
  H   H2606     1.0  0.42050  0.96626  0.41747  1.0000
  H   H2607     1.0  0.36479  0.92692  0.40253  1.0000
  H   H2608     1.0  0.35244  0.89665  0.43069  1.0000
  H   H2609     1.0  0.38134  0.98145  0.43101  1.0000
  C   C1463     1.0  0.63138  0.50666  0.29907  1.0000
  C   C1464     1.0  0.65936  0.81488  0.48348  1.0000
  H   H2610     1.0  0.62732  0.80529  0.45257  1.0000
  H   H2611     1.0  0.41339  0.98512  0.49061  1.0000
  S   S319      1.0  0.46222  0.00205  0.35591  1.0000
  H   H2612     1.0  0.42791  0.96205  0.46173  1.0000
  H   H2613     1.0  0.65513  0.82827  0.48940  1.0000
  C   C1465     1.0  0.62717  0.54097  0.47779  1.0000
  H   H2614     1.0  0.42573  0.93770  0.49387  1.0000
  H   H2615     1.0  0.39177  0.00001  0.40911  1.0000
  H   H2616     1.0  0.63882  0.56716  0.26081  1.0000
  H   H2617     1.0  0.36560  0.88671  0.26578  1.0000
  H   H2618     1.0  0.62983  0.52780  0.31674  1.0000
  C   C1466     1.0  0.64810  0.96422  0.42957  1.0000
  C   C1467     1.0  0.34808  0.88078  0.26409  1.0000
  C   C1468     1.0  0.63081  0.58166  0.26234  1.0000
  H   H2619     1.0  0.61925  0.52588  0.48952  1.0000
  H   H2620     1.0  0.49898  0.93032  0.42845  1.0000
  H   H2621     1.0  0.52293  0.95396  0.38969  1.0000
  H   H2622     1.0  0.41477  0.88486  0.43586  1.0000
  C   C1469     1.0  0.43000  0.87908  0.43809  1.0000
  H   H2623     1.0  0.61274  0.97884  0.33945  1.0000
  H   H2624     1.0  0.63885  0.97632  0.42489  1.0000
  H   H2625     1.0  0.58375  0.62151  0.49142  1.0000
  H   H2626     1.0  0.60139  0.84165  0.44106  1.0000
  H   H2627     1.0  0.45901  0.92025  0.43908  1.0000
  H   H2628     1.0  0.44385  0.98999  0.46389  1.0000
  H   H2629     1.0  0.61341  0.53084  0.34183  1.0000
  H   H2630     1.0  0.65485  0.57302  0.46822  1.0000
  H   H2631     1.0  0.52261  0.96959  0.40594  1.0000
  H   H2632     1.0  0.45004  0.95874  0.39116  1.0000
  H   H2633     1.0  0.58523  0.86254  0.49264  1.0000
  H   H2634     1.0  0.62325  0.83402  0.42780  1.0000
  C   C1470     1.0  0.65204  0.66973  0.40461  1.0000
  H   H2635     1.0  0.46748  0.95646  0.44273  1.0000
  H   H2636     1.0  0.33737  0.96699  0.44330  1.0000
  H   H2637     1.0  0.40094  0.54860  0.48189  1.0000
  H   H2638     1.0  0.49807  0.96610  0.43274  1.0000
  H   H2639     1.0  0.48920  0.97739  0.40350  1.0000
  C   C1471     1.0  0.64743  0.61581  0.44852  1.0000
  C   C1472     1.0  0.63062  0.85809  0.46129  1.0000
  H   H2640     1.0  0.63999  0.62205  0.41325  1.0000
  H   H2641     1.0  0.56547  0.51923  0.36729  1.0000
  H   H2642     1.0  0.45961  0.96626  0.41435  1.0000
  H   H2643     1.0  0.60489  0.59609  0.40739  1.0000
  H   H2644     1.0  0.49928  0.91628  0.41176  1.0000
  H   H2645     1.0  0.60591  0.87923  0.46212  1.0000
  H   H2646     1.0  0.60875  0.56153  0.35806  1.0000
  H   H2647     1.0  0.59467  0.60841  0.38970  1.0000
  H   H2648     1.0  0.61367  0.54897  0.47433  1.0000
  Fe  Fe157     1.0  0.33495  0.87673  0.47408  1.0000
  H   H2649     1.0  0.33842  0.98613  0.47402  1.0000
  H   H2650     1.0  0.62389  0.79478  0.48842  1.0000
  C   C1473     1.0  0.65350  0.70732  0.41422  1.0000
  H   H2651     1.0  0.58200  0.55580  0.37413  1.0000
  H   H2652     1.0  0.60145  0.84114  0.49498  1.0000
  C   C1474     1.0  0.48123  0.96841  0.43133  1.0000
  H   H2653     1.0  0.64752  0.53968  0.36431  1.0000
  H   H2654     1.0  0.63589  0.86794  0.40786  1.0000
  H   H2655     1.0  0.65408  0.61827  0.39366  1.0000
  H   H2656     1.0  0.34534  0.94463  0.49385  1.0000
  H   H2657     1.0  0.58836  0.53379  0.33526  1.0000
  H   H2658     1.0  0.61569  0.87242  0.49033  1.0000
  H   H2659     1.0  0.44794  0.96413  0.48925  1.0000
  H   H2660     1.0  0.65940  0.55068  0.48390  1.0000
  H   H2661     1.0  0.61067  0.99108  0.35757  1.0000
  H   H2662     1.0  0.42734  0.86052  0.43724  1.0000
  Fe  Fe158     1.0  0.43449  0.99980  0.37906  1.0000
  H   H2663     1.0  0.61379  0.64021  0.40030  1.0000
  H   H2664     1.0  0.64056  0.71161  0.40755  1.0000
  H   H2665     1.0  0.63787  0.58066  0.44569  1.0000
  H   H2666     1.0  0.35091  0.96037  0.42464  1.0000
  C   C1475     1.0  0.41533  0.96934  0.48614  1.0000
  C   C1476     1.0  0.64639  0.63086  0.39922  1.0000
  C   C1477     1.0  0.61035  0.60722  0.39391  1.0000
  C   C1478     1.0  0.61195  0.81202  0.45367  1.0000
  C   C1479     1.0  0.64716  0.77787  0.47599  1.0000
  C   C1480     1.0  0.65882  0.55187  0.35242  1.0000
  H   H2667     1.0  0.65303  0.99985  0.47710  1.0000
  H   H2668     1.0  0.65539  0.52604  0.33802  1.0000
  H   H2669     1.0  0.54221  0.94327  0.42089  1.0000
  H   H2670     1.0  0.44057  0.92635  0.42630  1.0000
  C   C1481     1.0  0.61825  0.99517  0.34351  1.0000
  Fe  Fe159     1.0  0.65052  0.67900  0.47109  1.0000
  N   N84       1.0  0.63585  0.85634  0.44306  1.0000
  C   C1482     1.0  0.60665  0.86135  0.46860  1.0000
  H   H2671     1.0  0.65576  0.97367  0.47077  1.0000
  C   C1483     1.0  0.64636  0.55945  0.48061  1.0000
  H   H2672     1.0  0.62688  0.58271  0.48885  1.0000
  H   H2673     1.0  0.58253  0.56257  0.35183  1.0000
  H   H2674     1.0  0.46677  0.95146  0.36301  1.0000
  Fe  Fe160     1.0  0.63507  0.71920  0.48208  1.0000
  H   H2675     1.0  0.43111  0.87945  0.45123  1.0000
  H   H2676     1.0  0.33486  0.98510  0.39753  1.0000
  S   S320      1.0  0.62511  0.75342  0.47633  1.0000
  N   N85       1.0  0.47677  0.93903  0.41255  1.0000
  C   C1484     1.0  0.62494  0.63200  0.39254  1.0000
  H   H2677     1.0  0.59889  0.79175  0.43711  1.0000
  C   C1485     1.0  0.64543  0.88273  0.41190  1.0000
  C   C1486     1.0  0.45196  0.89512  0.42461  1.0000
  C   C1487     1.0  0.45663  0.92096  0.42608  1.0000
  H   H2678     1.0  0.36325  0.98623  0.39816  1.0000
  H   H2679     1.0  0.46644  0.88785  0.42668  1.0000
  H   H2680     1.0  0.56205  0.60134  0.48588  1.0000
  H   H2681     1.0  0.62450  0.90562  0.40400  1.0000
  C   C1488     1.0  0.56706  0.60740  0.49666  1.0000
  C   C1489     1.0  0.63621  0.87950  0.43143  1.0000
  H   H2682     1.0  0.58963  0.77631  0.45959  1.0000
  C   C1490     1.0  0.64173  0.79594  0.48292  1.0000
  H   H2683     1.0  0.65902  0.61695  0.48105  1.0000
  C   C1491     1.0  0.61957  0.58801  0.24790  1.0000
  C   C1492     1.0  0.59319  0.79381  0.45021  1.0000
  H   H2684     1.0  0.63451  0.53402  0.46712  1.0000
  C   C1493     1.0  0.59447  0.52285  0.34501  1.0000
  H   H2685     1.0  0.34468  0.86192  0.26385  1.0000
  H   H2686     1.0  0.61758  0.57559  0.27492  1.0000
  H   H2687     1.0  0.60560  0.81268  0.46705  1.0000
  S   S321      1.0  0.61047  0.51425  0.43933  1.0000
  H   H2688     1.0  0.41578  0.98682  0.46030  1.0000
  H   H2689     1.0  0.39788  0.95734  0.48834  1.0000
  C   C1494     1.0  0.65879  0.85108  0.43872  1.0000
  H   H2690     1.0  0.64339  0.87354  0.46250  1.0000
  C   C1495     1.0  0.58446  0.52686  0.36268  1.0000
  H   H2691     1.0  0.56073  0.99223  0.37061  1.0000
  S   S322      1.0  0.64552  0.92126  0.47504  1.0000
  S   S323      1.0  0.51829  0.00313  0.36928  1.0000
  H   H2692     1.0  0.64448  0.69671  0.42766  1.0000
  H   H2693     1.0  0.63266  0.84238  0.47002  1.0000
  S   S324      1.0  0.64756  0.52039  0.40259  1.0000
  C   C1496     1.0  0.48163  0.99391  0.43139  1.0000
  H   H2694     1.0  0.37788  0.53126  0.47578  1.0000
  C   C1497     1.0  0.65333  0.93597  0.45312  1.0000
  N   N86       1.0  0.34321  0.99429  0.41980  1.0000
  S   S325      1.0  0.65247  0.66177  0.49725  1.0000
  H   H2695     1.0  0.59219  0.51878  0.37251  1.0000
  C   C1498     1.0  0.42941  0.95579  0.49588  1.0000
  C   C1499     1.0  0.63669  0.57112  0.49452  1.0000
  H   H2696     1.0  0.44980  0.00245  0.49295  1.0000
  C   C1500     1.0  0.62448  0.50867  0.31744  1.0000
  H   H2697     1.0  0.48526  0.99734  0.44332  1.0000
  H   H2698     1.0  0.40185  0.50703  0.48690  1.0000
  H   H2699     1.0  0.58936  0.50782  0.31742  1.0000
  H   H2700     1.0  0.64644  0.89478  0.43465  1.0000
  H   H2701     1.0  0.33538  0.88222  0.27524  1.0000
  C   C1501     1.0  0.38455  0.53407  0.48684  1.0000
  C   C1502     1.0  0.64288  0.90569  0.40140  1.0000
  H   H2702     1.0  0.65029  0.51441  0.29353  1.0000
  Fe  Fe161     1.0  0.60897  0.50907  0.41344  1.0000
  C   C1503     1.0  0.34673  0.89631  0.24736  1.0000
  H   H2703     1.0  0.62263  0.51653  0.29089  1.0000
  H   H2704     1.0  0.35088  0.91485  0.24829  1.0000
  H   H2705     1.0  0.64966  0.90763  0.38750  1.0000
  H   H2706     1.0  0.65283  0.92125  0.40448  1.0000
  H   H2707     1.0  0.65844  0.83441  0.44782  1.0000
  H   H2708     1.0  0.66035  0.67364  0.37197  1.0000
  H   H2709     1.0  0.37195  0.53967  0.49565  1.0000
  C   C1504     1.0  0.38894  0.51143  0.49623  1.0000
  C   C1505     1.0  0.56555  0.53637  0.52730  1.0000
  H   H2710     1.0  0.57249  0.96952  0.57937  1.0000
  H   H2711     1.0  0.63105  0.80473  0.71917  1.0000
  H   H2712     1.0  0.59406  0.92852  0.50896  1.0000
  H   H2713     1.0  0.35852  0.94856  0.54354  1.0000
  H   H2714     1.0  0.62258  0.82155  0.70199  1.0000
  C   C1506     1.0  0.52282  0.52893  0.53768  1.0000
  H   H2715     1.0  0.65363  0.73951  0.73087  1.0000
  C   C1507     1.0  0.47056  0.92152  0.52413  1.0000
  H   H2716     1.0  0.41742  0.86457  0.70759  1.0000
  C   C1508     1.0  0.62428  0.92134  0.70654  1.0000
  C   C1509     1.0  0.36208  0.00402  0.60744  1.0000
  Fe  Fe162     1.0  0.44108  0.89727  0.60082  1.0000
  S   S326      1.0  0.41173  0.86780  0.60061  1.0000
  S   S327      1.0  0.47067  0.88558  0.60832  1.0000
  Fe  Fe163     1.0  0.41748  0.93471  0.58962  1.0000
  S   S328      1.0  0.38581  0.90827  0.58911  1.0000
  S   S329      1.0  0.42324  0.97409  0.57998  1.0000
  Fe  Fe164     1.0  0.38933  0.88688  0.61369  1.0000
  S   S330      1.0  0.36024  0.86318  0.63632  1.0000
  Fe  Fe165     1.0  0.41083  0.89145  0.57616  1.0000
  S   S331      1.0  0.40881  0.87979  0.55224  1.0000
  S   S332      1.0  0.41880  0.91500  0.61555  1.0000
  S   S333      1.0  0.44245  0.91938  0.57496  1.0000
  H   H2717     1.0  0.53227  0.57385  0.52009  1.0000
  S   S334      1.0  0.60568  0.95399  0.64182  1.0000
  H   H2718     1.0  0.35344  0.99085  0.60158  1.0000
  S   S335      1.0  0.60543  0.97977  0.60300  1.0000
  H   H2719     1.0  0.33131  0.95780  0.52768  1.0000
  H   H2720     1.0  0.60268  0.51741  0.52949  1.0000
  Fe  Fe166     1.0  0.58144  0.95036  0.62517  1.0000
  S   S336      1.0  0.54470  0.95218  0.63241  1.0000
  S   S337      1.0  0.59321  0.92159  0.61576  1.0000
  Fe  Fe167     1.0  0.60662  0.55813  0.64368  1.0000
  S   S338      1.0  0.58648  0.57180  0.62623  1.0000
  S   S339      1.0  0.60300  0.56538  0.66974  1.0000
  H   H2721     1.0  0.61177  0.75687  0.54027  1.0000
  S   S340      1.0  0.61062  0.54611  0.59851  1.0000
  Fe  Fe168     1.0  0.61924  0.58050  0.60554  1.0000
  H   H2722     1.0  0.59731  0.60626  0.64683  1.0000
  Fe  Fe169     1.0  0.57941  0.53590  0.62110  1.0000
  C   C1510     1.0  0.39049  0.00120  0.54671  1.0000
  C   C1511     1.0  0.36727  0.98967  0.55509  1.0000
  S   S341      1.0  0.59181  0.63960  0.52664  1.0000
  H   H2723     1.0  0.57297  0.97557  0.70705  1.0000
  C   C1512     1.0  0.62308  0.62296  0.57118  1.0000
  C   C1513     1.0  0.60172  0.60835  0.57168  1.0000
  C   C1514     1.0  0.59190  0.61366  0.55806  1.0000
  C   C1515     1.0  0.60353  0.63332  0.54397  1.0000
  C   C1516     1.0  0.62483  0.64781  0.54360  1.0000
  C   C1517     1.0  0.63448  0.64278  0.55723  1.0000
  H   H2724     1.0  0.59285  0.59304  0.58252  1.0000
  H   H2725     1.0  0.57541  0.60261  0.55834  1.0000
  H   H2726     1.0  0.63400  0.66295  0.53281  1.0000
  H   H2727     1.0  0.43178  0.93405  0.53710  1.0000
  H   H2728     1.0  0.57499  0.59394  0.52009  1.0000
  H   H2729     1.0  0.60544  0.68796  0.62569  1.0000
  C   C1518     1.0  0.64681  0.80218  0.69370  1.0000
  C   C1519     1.0  0.63419  0.64510  0.62483  1.0000
  C   C1520     1.0  0.49140  0.90497  0.61425  1.0000
  C   C1521     1.0  0.51113  0.89843  0.61657  1.0000
  C   C1522     1.0  0.52786  0.91314  0.62168  1.0000
  C   C1523     1.0  0.52473  0.93430  0.62483  1.0000
  C   C1524     1.0  0.50494  0.94083  0.62255  1.0000
  C   C1525     1.0  0.48840  0.92633  0.61707  1.0000
  H   H2730     1.0  0.51341  0.88182  0.61453  1.0000
  H   H2731     1.0  0.54279  0.90774  0.62373  1.0000
  H   H2732     1.0  0.50240  0.95715  0.62504  1.0000
  H   H2733     1.0  0.47320  0.93147  0.61533  1.0000
  C   C1526     1.0  0.56156  0.60439  0.65473  1.0000
  C   C1527     1.0  0.35728  0.87278  0.52886  1.0000
  C   C1528     1.0  0.37896  0.87519  0.53214  1.0000
  C   C1529     1.0  0.38126  0.87505  0.54863  1.0000
  C   C1530     1.0  0.36173  0.87206  0.56189  1.0000
  C   C1531     1.0  0.64810  0.90203  0.65751  1.0000
  H   H2734     1.0  0.35565  0.87312  0.51607  1.0000
  H   H2735     1.0  0.39398  0.87742  0.52185  1.0000
  H   H2736     1.0  0.36328  0.87160  0.57468  1.0000
  C   C1532     1.0  0.43572  0.93647  0.52301  1.0000
  C   C1533     1.0  0.64241  0.59548  0.51453  1.0000
  H   H2737     1.0  0.64955  0.78467  0.69874  1.0000
  C   C1534     1.0  0.59089  0.94976  0.71548  1.0000
  C   C1535     1.0  0.40162  0.98014  0.57058  1.0000
  C   C1536     1.0  0.37845  0.96802  0.57871  1.0000
  C   C1537     1.0  0.36127  0.97311  0.57112  1.0000
  C   C1538     1.0  0.34802  0.89113  0.68344  1.0000
  H   H2738     1.0  0.35575  0.91819  0.54322  1.0000
  H   H2739     1.0  0.37375  0.95502  0.59102  1.0000
  H   H2740     1.0  0.62345  0.55696  0.50494  1.0000
  C   C1539     1.0  0.51700  0.51549  0.52440  1.0000
  H   H2741     1.0  0.56526  0.53129  0.51518  1.0000
  H   H2742     1.0  0.58051  0.65120  0.64016  1.0000
  H   H2743     1.0  0.60133  0.68225  0.68361  1.0000
  H   H2744     1.0  0.60299  0.70865  0.59709  1.0000
  H   H2745     1.0  0.59832  0.96009  0.72360  1.0000
  N   N87       1.0  0.61762  0.65727  0.63275  1.0000
  S   S342      1.0  0.54292  0.51575  0.62282  1.0000
  C   C1540     1.0  0.34526  0.85833  0.67058  1.0000
  C   C1541     1.0  0.35625  0.87417  0.65435  1.0000
  C   C1542     1.0  0.36358  0.89847  0.65269  1.0000
  H   H2746     1.0  0.36505  0.92576  0.66597  1.0000
  C   C1543     1.0  0.65118  0.89783  0.56994  1.0000
  H   H2747     1.0  0.37200  0.91078  0.64016  1.0000
  H   H2748     1.0  0.54073  0.57362  0.57650  1.0000
  H   H2749     1.0  0.50899  0.53763  0.54100  1.0000
  C   C1544     1.0  0.65783  0.54491  0.51889  1.0000
  C   C1545     1.0  0.58695  0.61787  0.65095  1.0000
  H   H2750     1.0  0.64791  0.59642  0.64860  1.0000
  H   H2751     1.0  0.59453  0.87590  0.72387  1.0000
  C   C1546     1.0  0.61711  0.59695  0.68751  1.0000
  H   H2752     1.0  0.39466  0.92236  0.54867  1.0000
  H   H2753     1.0  0.60102  0.58747  0.69711  1.0000
  H   H2754     1.0  0.61259  0.65705  0.68427  1.0000
  N   N88       1.0  0.54616  0.54703  0.53244  1.0000
  C   C1547     1.0  0.64108  0.91512  0.57454  1.0000
  H   H2755     1.0  0.41800  0.98651  0.51934  1.0000
  C   C1548     1.0  0.60049  0.91523  0.51662  1.0000
  H   H2756     1.0  0.52067  0.51500  0.54955  1.0000
  H   H2757     1.0  0.56274  0.55817  0.57746  1.0000
  H   H2758     1.0  0.63653  0.59593  0.54906  1.0000
  C   C1549     1.0  0.62674  0.80476  0.70684  1.0000
  H   H2759     1.0  0.63743  0.91610  0.58768  1.0000
  C   C1550     1.0  0.46228  0.94265  0.51687  1.0000
  H   H2760     1.0  0.64048  0.67483  0.64560  1.0000
  S   S343      1.0  0.63480  0.70471  0.50932  1.0000
  H   H2761     1.0  0.39775  0.95307  0.54707  1.0000
  H   H2762     1.0  0.57104  0.52086  0.55185  1.0000
  H   H2763     1.0  0.61865  0.70299  0.57818  1.0000
  H   H2764     1.0  0.61125  0.78968  0.70926  1.0000
  H   H2765     1.0  0.54485  0.55874  0.50606  1.0000
  C   C1551     1.0  0.56669  0.51497  0.54084  1.0000
  C   C1552     1.0  0.49070  0.90068  0.67100  1.0000
  C   C1553     1.0  0.60622  0.67171  0.65987  1.0000
  H   H2766     1.0  0.65669  0.86461  0.63543  1.0000
  C   C1554     1.0  0.54696  0.56616  0.51700  1.0000
  C   C1555     1.0  0.36397  0.93261  0.54822  1.0000
  H   H2767     1.0  0.61308  0.97491  0.69224  1.0000
  C   C1556     1.0  0.62267  0.58963  0.67255  1.0000
  H   H2768     1.0  0.61338  0.90659  0.68638  1.0000
  H   H2769     1.0  0.37186  0.99543  0.61541  1.0000
  H   H2770     1.0  0.63874  0.98572  0.66629  1.0000
  H   H2771     1.0  0.63422  0.71808  0.59068  1.0000
  C   C1557     1.0  0.54933  0.55862  0.54671  1.0000
  H   H2772     1.0  0.58995  0.90870  0.70234  1.0000
  C   C1558     1.0  0.40760  0.99703  0.55470  1.0000
  S   S344      1.0  0.34305  0.90213  0.70142  1.0000
  H   H2773     1.0  0.59600  0.58631  0.72662  1.0000
  H   H2774     1.0  0.64023  0.91544  0.70458  1.0000
  H   H2775     1.0  0.64441  0.74274  0.52781  1.0000
  H   H2776     1.0  0.65206  0.73185  0.55273  1.0000
  H   H2777     1.0  0.63513  0.76747  0.74266  1.0000
  H   H2778     1.0  0.34016  0.83947  0.67192  1.0000
  H   H2779     1.0  0.48969  0.92658  0.52050  1.0000
  C   C1559     1.0  0.58547  0.50427  0.53346  1.0000
  H   H2780     1.0  0.66051  0.79660  0.52300  1.0000
  H   H2781     1.0  0.43534  0.97502  0.53143  1.0000
  H   H2782     1.0  0.64949  0.57269  0.54597  1.0000
  Fe  Fe170     1.0  0.61965  0.92760  0.63055  1.0000
  C   C1560     1.0  0.62039  0.76314  0.52629  1.0000
  H   H2783     1.0  0.64602  0.53486  0.51296  1.0000
  H   H2784     1.0  0.63302  0.60728  0.50851  1.0000
  C   C1561     1.0  0.61899  0.67997  0.60203  1.0000
  C   C1562     1.0  0.61964  0.68065  0.62057  1.0000
  H   H2785     1.0  0.35795  0.92683  0.56245  1.0000
  H   H2786     1.0  0.61853  0.87353  0.70822  1.0000
  Fe  Fe171     1.0  0.61879  0.66921  0.50612  1.0000
  S   S345      1.0  0.64684  0.95476  0.60845  1.0000
  H   H2787     1.0  0.58674  0.61286  0.72273  1.0000
  C   C1563     1.0  0.43210  0.97770  0.51853  1.0000
  C   C1564     1.0  0.62475  0.57790  0.53106  1.0000
  C   C1565     1.0  0.63327  0.57793  0.54709  1.0000
  C   C1566     1.0  0.54415  0.55602  0.57846  1.0000
  S   S346      1.0  0.62571  0.89635  0.64765  1.0000
  C   C1567     1.0  0.66009  0.77860  0.53038  1.0000
  Fe  Fe172     1.0  0.63087  0.98078  0.61848  1.0000
  H   H2788     1.0  0.59017  0.86726  0.70498  1.0000
  C   C1568     1.0  0.38098  0.85914  0.71494  1.0000
  C   C1569     1.0  0.63622  0.93136  0.56200  1.0000
  H   H2789     1.0  0.55031  0.61461  0.66006  1.0000
  H   H2790     1.0  0.63264  0.86985  0.67795  1.0000
  C   C1570     1.0  0.39014  0.93812  0.54237  1.0000
  C   C1571     1.0  0.65370  0.77209  0.73801  1.0000
  H   H2791     1.0  0.39227  0.92736  0.51888  1.0000
  H   H2792     1.0  0.47009  0.95758  0.52163  1.0000
  H   H2793     1.0  0.63438  0.67565  0.59530  1.0000
  S   S347      1.0  0.59685  0.52138  0.64036  1.0000
  C   C1572     1.0  0.65578  0.89653  0.55294  1.0000
  Fe  Fe173     1.0  0.61905  0.95145  0.59484  1.0000
  H   H2794     1.0  0.58843  0.65971  0.66402  1.0000
  C   C1573     1.0  0.65824  0.62182  0.66241  1.0000
  Fe  Fe174     1.0  0.66140  0.89815  0.74506  1.0000
  C   C1574     1.0  0.53676  0.54356  0.56545  1.0000
  C   C1575     1.0  0.58224  0.59447  0.73108  1.0000
  Fe  Fe175     1.0  0.62860  0.53420  0.61812  1.0000
  S   S348      1.0  0.63635  0.61642  0.58746  1.0000
  H   H2795     1.0  0.38990  0.95669  0.51751  1.0000
  H   H2796     1.0  0.33260  0.85457  0.69761  1.0000
  H   H2797     1.0  0.53054  0.50707  0.52003  1.0000
  C   C1576     1.0  0.64053  0.92977  0.54515  1.0000
  H   H2798     1.0  0.55749  0.60091  0.64293  1.0000
  H   H2799     1.0  0.56561  0.58423  0.72987  1.0000
  H   H2800     1.0  0.55382  0.98392  0.56986  1.0000
  H   H2801     1.0  0.56795  0.56516  0.54589  1.0000
  N   N89       1.0  0.65440  0.58523  0.50127  1.0000
  H   H2802     1.0  0.62948  0.63981  0.61370  1.0000
  H   H2803     1.0  0.59031  0.63637  0.62505  1.0000
  H   H2804     1.0  0.55784  0.58705  0.66434  1.0000
  H   H2805     1.0  0.36351  0.96076  0.50386  1.0000
  S   S349      1.0  0.62445  0.95359  0.56705  1.0000
  H   H2806     1.0  0.63274  0.62811  0.63396  1.0000
  H   H2807     1.0  0.51495  0.52764  0.51309  1.0000
  H   H2808     1.0  0.63354  0.95454  0.72209  1.0000
  H   H2809     1.0  0.61994  0.56545  0.55854  1.0000
  H   H2810     1.0  0.59966  0.94777  0.68894  1.0000
  H   H2811     1.0  0.58983  0.62071  0.66319  1.0000
  H   H2812     1.0  0.65102  0.65406  0.55679  1.0000
  H   H2813     1.0  0.62732  0.62248  0.70133  1.0000
  H   H2814     1.0  0.49220  0.88379  0.67861  1.0000
  C   C1577     1.0  0.35955  0.90693  0.66726  1.0000
  C   C1578     1.0  0.39882  0.94388  0.52258  1.0000
  H   H2815     1.0  0.58583  0.93067  0.72240  1.0000
  H   H2816     1.0  0.56041  0.94589  0.70590  1.0000
  N   N90       1.0  0.55810  0.90937  0.56083  1.0000
  C   C1579     1.0  0.53618  0.90516  0.55526  1.0000
  C   C1580     1.0  0.57821  0.91952  0.54494  1.0000
  C   C1581     1.0  0.55917  0.88612  0.57143  1.0000
  C   C1582     1.0  0.55879  0.92668  0.57162  1.0000
  C   C1583     1.0  0.55544  0.95095  0.56353  1.0000
  C   C1584     1.0  0.51330  0.89789  0.56964  1.0000
  C   C1585     1.0  0.58167  0.88675  0.57703  1.0000
  C   C1586     1.0  0.58287  0.90222  0.53393  1.0000
  H   H2817     1.0  0.65232  0.76613  0.50866  1.0000
  C   C1587     1.0  0.55586  0.96648  0.57593  1.0000
  C   C1588     1.0  0.49272  0.89487  0.56203  1.0000
  C   C1589     1.0  0.58156  0.86204  0.58661  1.0000
  H   H2818     1.0  0.53491  0.89075  0.54875  1.0000
  H   H2819     1.0  0.53631  0.92109  0.54548  1.0000
  H   H2820     1.0  0.57570  0.93510  0.53635  1.0000
  H   H2821     1.0  0.59432  0.92675  0.54828  1.0000
  H   H2822     1.0  0.55638  0.87217  0.56455  1.0000
  H   H2823     1.0  0.54487  0.87955  0.58349  1.0000
  H   H2824     1.0  0.54586  0.91862  0.58434  1.0000
  H   H2825     1.0  0.57566  0.93082  0.57462  1.0000
  H   H2826     1.0  0.53871  0.94882  0.56034  1.0000
  H   H2827     1.0  0.56952  0.96066  0.55169  1.0000
  H   H2828     1.0  0.51118  0.88079  0.57895  1.0000
  H   H2829     1.0  0.51247  0.91153  0.57672  1.0000
  H   H2830     1.0  0.58363  0.89824  0.58578  1.0000
  H   H2831     1.0  0.59707  0.89346  0.56587  1.0000
  H   H2832     1.0  0.58971  0.88850  0.54066  1.0000
  H   H2833     1.0  0.56702  0.89305  0.53119  1.0000
  S   S350      1.0  0.63992  0.56941  0.62322  1.0000
  H   H2834     1.0  0.63682  0.94239  0.53548  1.0000
  H   H2835     1.0  0.51783  0.54059  0.56780  1.0000
  H   H2836     1.0  0.63574  0.69419  0.61966  1.0000
  H   H2837     1.0  0.54152  0.95791  0.58783  1.0000
  H   H2838     1.0  0.65331  0.84325  0.66490  1.0000
  H   H2839     1.0  0.49306  0.91215  0.55378  1.0000
  H   H2840     1.0  0.49282  0.88174  0.55441  1.0000
  H   H2841     1.0  0.47639  0.88835  0.57245  1.0000
  H   H2842     1.0  0.59778  0.86317  0.59054  1.0000
  H   H2843     1.0  0.56678  0.85467  0.59832  1.0000
  H   H2844     1.0  0.58052  0.84991  0.57821  1.0000
  C   C1590     1.0  0.61872  0.70396  0.59140  1.0000
  C   C1591     1.0  0.62323  0.66183  0.64881  1.0000
  H   H2845     1.0  0.64800  0.54386  0.53192  1.0000
  H   H2846     1.0  0.61764  0.91740  0.72072  1.0000
  H   H2847     1.0  0.60879  0.58373  0.53315  1.0000
  C   C1592     1.0  0.59337  0.64149  0.63669  1.0000
  H   H2848     1.0  0.34903  0.92961  0.51411  1.0000
  H   H2849     1.0  0.48788  0.91244  0.67944  1.0000
  C   C1593     1.0  0.60682  0.90475  0.70025  1.0000
  H   H2850     1.0  0.63108  0.68648  0.67277  1.0000
  S   S351      1.0  0.65795  0.87777  0.72582  1.0000
  C   C1594     1.0  0.64957  0.91191  0.54077  1.0000
  N   N91       1.0  0.42662  0.87789  0.66973  1.0000
  C   C1595     1.0  0.44771  0.88295  0.67629  1.0000
  C   C1596     1.0  0.40515  0.86526  0.68451  1.0000
  C   C1597     1.0  0.42984  0.86149  0.65845  1.0000
  C   C1598     1.0  0.42383  0.90008  0.65896  1.0000
  C   C1599     1.0  0.42180  0.92010  0.66769  1.0000
  C   C1600     1.0  0.47105  0.89593  0.66257  1.0000
  C   C1601     1.0  0.40913  0.85235  0.65145  1.0000
  C   C1602     1.0  0.40452  0.87118  0.70194  1.0000
  C   C1603     1.0  0.65247  0.62941  0.67725  1.0000
  C   C1604     1.0  0.42255  0.94265  0.65466  1.0000
  C   C1605     1.0  0.41312  0.83347  0.64232  1.0000
  H   H2851     1.0  0.44943  0.86601  0.68379  1.0000
  H   H2852     1.0  0.44599  0.89395  0.68540  1.0000
  H   H2853     1.0  0.38955  0.86831  0.68078  1.0000
  H   H2854     1.0  0.40234  0.84567  0.68759  1.0000
  H   H2855     1.0  0.43407  0.84576  0.66547  1.0000
  H   H2856     1.0  0.44465  0.87041  0.64686  1.0000
  H   H2857     1.0  0.43812  0.90744  0.64689  1.0000
  H   H2858     1.0  0.40793  0.89584  0.65468  1.0000
  H   H2859     1.0  0.43602  0.92474  0.67363  1.0000
  H   H2860     1.0  0.40502  0.91466  0.67761  1.0000
  H   H2861     1.0  0.47551  0.88521  0.65369  1.0000
  H   H2862     1.0  0.47058  0.91333  0.65503  1.0000
  H   H2863     1.0  0.40696  0.86709  0.64194  1.0000
  H   H2864     1.0  0.39273  0.84445  0.66175  1.0000
  H   H2865     1.0  0.61060  0.75181  0.51975  1.0000
  H   H2866     1.0  0.40833  0.89048  0.70053  1.0000
  S   S352      1.0  0.65121  0.63822  0.73014  1.0000
  H   H2867     1.0  0.38134  0.86309  0.72740  1.0000
  H   H2868     1.0  0.63321  0.50523  0.55563  1.0000
  H   H2869     1.0  0.42018  0.95651  0.66129  1.0000
  H   H2870     1.0  0.43943  0.94949  0.64475  1.0000
  H   H2871     1.0  0.40856  0.93912  0.64827  1.0000
  H   H2872     1.0  0.42910  0.84074  0.63151  1.0000
  H   H2873     1.0  0.41452  0.81772  0.65139  1.0000
  H   H2874     1.0  0.39836  0.82780  0.63704  1.0000
  H   H2875     1.0  0.63411  0.94334  0.67239  1.0000
  H   H2876     1.0  0.60343  0.66655  0.60205  1.0000
  H   H2877     1.0  0.62477  0.64544  0.65709  1.0000
  H   H2878     1.0  0.54313  0.57482  0.54528  1.0000
  H   H2879     1.0  0.37646  0.83960  0.71708  1.0000
  H   H2880     1.0  0.46861  0.98949  0.50302  1.0000
  C   C1606     1.0  0.60850  0.95537  0.69776  1.0000
  S   S353      1.0  0.65046  0.69227  0.71133  1.0000
  C   C1607     1.0  0.34098  0.86681  0.68510  1.0000
  H   H2881     1.0  0.50725  0.90965  0.66095  1.0000
  H   H2882     1.0  0.42835  0.91869  0.52127  1.0000
  C   C1608     1.0  0.56965  0.58686  0.50982  1.0000
  H   H2883     1.0  0.34334  0.96399  0.57760  1.0000
  C   C1609     1.0  0.60229  0.87880  0.70996  1.0000
  C   C1610     1.0  0.64343  0.60199  0.66009  1.0000
  C   C1611     1.0  0.61330  0.67455  0.67607  1.0000
  H   H2884     1.0  0.36743  0.86591  0.71044  1.0000
  N   N92       1.0  0.42454  0.95401  0.51482  1.0000
  H   H2885     1.0  0.62007  0.78169  0.52129  1.0000
  H   H2886     1.0  0.58386  0.58073  0.50322  1.0000
  C   C1612     1.0  0.63197  0.61671  0.68991  1.0000
  H   H2887     1.0  0.60604  0.68938  0.65258  1.0000
  H   H2888     1.0  0.53410  0.54522  0.59164  1.0000
  H   H2889     1.0  0.58242  0.54983  0.52421  1.0000
  S   S354      1.0  0.34549  0.99606  0.54596  1.0000
  C   C1613     1.0  0.34750  0.94646  0.50645  1.0000
  H   H2890     1.0  0.64190  0.99404  0.51265  1.0000
  H   H2891     1.0  0.46881  0.94736  0.50273  1.0000
  H   H2892     1.0  0.64145  0.80216  0.68178  1.0000
  C   C1614     1.0  0.64713  0.88560  0.67256  1.0000
  H   H2893     1.0  0.61934  0.55950  0.53035  1.0000
  H   H2894     1.0  0.54015  0.52607  0.56812  1.0000
  H   H2895     1.0  0.46423  0.90640  0.51900  1.0000
  H   H2896     1.0  0.65163  0.90999  0.52797  1.0000
  H   H2897     1.0  0.65567  0.88573  0.57947  1.0000
  H   H2898     1.0  0.60363  0.90232  0.50923  1.0000
  H   H2899     1.0  0.55674  0.95247  0.72636  1.0000
  H   H2900     1.0  0.55393  0.61521  0.50278  1.0000
  H   H2901     1.0  0.64396  0.98006  0.70447  1.0000
  H   H2902     1.0  0.39625  0.51566  0.50670  1.0000
  S   S355      1.0  0.65215  0.51097  0.61527  1.0000
  C   C1615     1.0  0.64514  0.76146  0.52274  1.0000
  H   H2903     1.0  0.65400  0.83370  0.63712  1.0000
  H   H2904     1.0  0.61718  0.92430  0.51833  1.0000
  H   H2905     1.0  0.46405  0.91563  0.53834  1.0000
  Fe  Fe176     1.0  0.63690  0.66682  0.73774  1.0000
  C   C1616     1.0  0.33779  0.86993  0.54212  1.0000
  C   C1617     1.0  0.66008  0.65926  0.61926  1.0000
  H   H2906     1.0  0.57084  0.50871  0.59241  1.0000
  C   C1618     1.0  0.64301  0.96089  0.70820  1.0000
  C   C1619     1.0  0.56895  0.95636  0.71351  1.0000
  H   H2907     1.0  0.65044  0.77620  0.54388  1.0000
  C   C1620     1.0  0.64419  0.95264  0.67985  1.0000
  C   C1621     1.0  0.34005  0.86944  0.55865  1.0000
  N   N93       1.0  0.62996  0.94758  0.69808  1.0000
  H   H2908     1.0  0.65507  0.60746  0.51877  1.0000
  C   C1622     1.0  0.45351  0.99648  0.50542  1.0000
  H   H2909     1.0  0.62678  0.51853  0.57293  1.0000
  C   C1623     1.0  0.65318  0.97917  0.66944  1.0000
  H   H2910     1.0  0.65911  0.94518  0.67957  1.0000
  H   H2911     1.0  0.66159  0.99053  0.67654  1.0000
  S   S356      1.0  0.65337  0.81323  0.74697  1.0000
  C   C1624     1.0  0.57536  0.93617  0.76302  1.0000
  H   H2912     1.0  0.54217  0.55335  0.81438  1.0000
  H   H2913     1.0  0.56724  0.66645  0.83946  1.0000
  H   H2914     1.0  0.57801  0.95539  0.75742  1.0000
  H   H2915     1.0  0.62644  0.53181  0.80437  1.0000
  S   S357      1.0  0.63437  0.69611  0.90430  1.0000
  C   C1625     1.0  0.55733  0.92768  0.78041  1.0000
  S   S358      1.0  0.34850  0.98612  0.77873  1.0000
  H   H2916     1.0  0.55252  0.59377  0.78141  1.0000
  H   H2917     1.0  0.61712  0.54653  0.94428  1.0000
  C   C1626     1.0  0.34890  0.83838  0.78180  1.0000
  H   H2918     1.0  0.55608  0.58427  0.81053  1.0000
  Fe  Fe177     1.0  0.62253  0.89199  0.88066  1.0000
  C   C1627     1.0  0.63825  0.58323  0.93317  1.0000
  S   S359      1.0  0.59016  0.87042  0.87701  1.0000
  Fe  Fe178     1.0  0.59601  0.58198  0.87382  1.0000
  S   S360      1.0  0.60525  0.55161  0.86484  1.0000
  S   S361      1.0  0.61038  0.59184  0.89521  1.0000
  Fe  Fe179     1.0  0.57498  0.59494  0.84457  1.0000
  S   S362      1.0  0.58310  0.56652  0.83292  1.0000
  S   S363      1.0  0.55782  0.61961  0.83146  1.0000
  Fe  Fe180     1.0  0.57027  0.54312  0.85980  1.0000
  H   H2919     1.0  0.58132  0.79502  0.87613  1.0000
  Fe  Fe181     1.0  0.61691  0.57717  0.83884  1.0000
  H   H2920     1.0  0.58754  0.56107  0.75663  1.0000
  S   S364      1.0  0.55962  0.57103  0.87149  1.0000
  S   S365      1.0  0.61004  0.60794  0.84786  1.0000
  H   H2921     1.0  0.55312  0.89136  0.77868  1.0000
  H   H2922     1.0  0.35884  0.86491  0.75760  1.0000
  C   C1628     1.0  0.53744  0.86820  0.81528  1.0000
  Fe  Fe182     1.0  0.39380  0.86380  0.85566  1.0000
  S   S366      1.0  0.42473  0.88286  0.86227  1.0000
  S   S367      1.0  0.36175  0.84340  0.87705  1.0000
  Fe  Fe183     1.0  0.41719  0.87947  0.81757  1.0000
  S   S368      1.0  0.45028  0.90002  0.82101  1.0000
  S   S369      1.0  0.41445  0.88142  0.79060  1.0000
  Fe  Fe184     1.0  0.44491  0.86873  0.84318  1.0000
  S   S370      1.0  0.47435  0.85389  0.84764  1.0000
  Fe  Fe185     1.0  0.42749  0.91257  0.83973  1.0000
  H   H2923     1.0  0.64011  0.77107  0.92624  1.0000
  S   S371      1.0  0.41356  0.84687  0.83824  1.0000
  S   S372      1.0  0.39488  0.89476  0.83458  1.0000
  H   H2924     1.0  0.55285  0.81604  0.81328  1.0000
  C   C1629     1.0  0.36317  0.85899  0.76941  1.0000
  H   H2925     1.0  0.58507  0.53737  0.78310  1.0000
  H   H2926     1.0  0.61974  0.81349  0.87843  1.0000
  H   H2927     1.0  0.49830  0.97311  0.85819  1.0000
  H   H2928     1.0  0.65032  0.81093  0.81836  1.0000
  C   C1630     1.0  0.39664  0.95878  0.84018  1.0000
  H   H2929     1.0  0.36481  0.96715  0.83872  1.0000
  H   H2930     1.0  0.39285  0.94347  0.83531  1.0000
  C   C1631     1.0  0.35529  0.83043  0.79677  1.0000
  C   C1632     1.0  0.37526  0.84356  0.79973  1.0000
  C   C1633     1.0  0.38933  0.86437  0.78742  1.0000
  C   C1634     1.0  0.54282  0.84851  0.80698  1.0000
  H   H2931     1.0  0.37998  0.83742  0.81137  1.0000
  C   C1635     1.0  0.63490  0.67841  0.85449  1.0000
  H   H2932     1.0  0.36722  0.96570  0.90594  1.0000
  N   N94       1.0  0.57179  0.56790  0.78041  1.0000
  H   H2933     1.0  0.35103  0.89909  0.97539  1.0000
  H   H2934     1.0  0.62082  0.80535  0.78215  1.0000
  H   H2935     1.0  0.49675  0.51400  0.82889  1.0000
  C   C1636     1.0  0.35327  0.90176  0.89128  1.0000
  C   C1637     1.0  0.36113  0.88682  0.88204  1.0000
  C   C1638     1.0  0.35198  0.86225  0.88845  1.0000
  H   H2936     1.0  0.65580  0.86768  0.80304  1.0000
  H   H2937     1.0  0.54181  0.94972  0.82088  1.0000
  H   H2938     1.0  0.36046  0.92075  0.88620  1.0000
  H   H2939     1.0  0.37435  0.89439  0.87000  1.0000
  H   H2940     1.0  0.63256  0.60159  0.79049  1.0000
  S   S373      1.0  0.64280  0.87457  0.89648  1.0000
  C   C1639     1.0  0.57083  0.63233  0.80939  1.0000
  C   C1640     1.0  0.59431  0.63550  0.80199  1.0000
  C   C1641     1.0  0.60382  0.64538  0.78414  1.0000
  C   C1642     1.0  0.58960  0.65097  0.77373  1.0000
  C   C1643     1.0  0.56632  0.64803  0.78126  1.0000
  C   C1644     1.0  0.55709  0.63918  0.79902  1.0000
  H   H2941     1.0  0.60506  0.63035  0.80999  1.0000
  C   C1645     1.0  0.55035  0.57471  0.78739  1.0000
  H   H2942     1.0  0.55528  0.65246  0.77329  1.0000
  H   H2943     1.0  0.53904  0.63698  0.80469  1.0000
  C   C1646     1.0  0.38325  0.96594  0.89676  1.0000
  H   H2944     1.0  0.33556  0.94705  0.88673  1.0000
  H   H2945     1.0  0.59234  0.68453  0.84282  1.0000
  H   H2946     1.0  0.37479  0.92496  0.96749  1.0000
  C   C1647     1.0  0.50206  0.89595  0.78743  1.0000
  H   H2947     1.0  0.34435  0.92632  0.85625  1.0000
  C   C1648     1.0  0.58314  0.79878  0.88840  1.0000
  H   H2948     1.0  0.63166  0.98109  0.89755  1.0000
  H   H2949     1.0  0.33123  0.95315  0.93361  1.0000
  H   H2950     1.0  0.49736  0.86715  0.80969  1.0000
  H   H2951     1.0  0.61927  0.58155  0.76172  1.0000
  H   H2952     1.0  0.37305  0.94511  0.77643  1.0000
  C   C1649     1.0  0.65070  0.88670  0.91267  1.0000
  C   C1650     1.0  0.33604  0.89220  0.90685  1.0000
  C   C1651     1.0  0.36163  0.91334  0.97947  1.0000
  H   H2953     1.0  0.52339  0.92068  0.80714  1.0000
  H   H2954     1.0  0.56950  0.89971  0.79254  1.0000
  H   H2955     1.0  0.33857  0.92588  0.80124  1.0000
  C   C1652     1.0  0.52204  0.88830  0.87642  1.0000
  C   C1653     1.0  0.50186  0.89488  0.87563  1.0000
  C   C1654     1.0  0.48702  0.88445  0.86689  1.0000
  C   C1655     1.0  0.49174  0.86648  0.85961  1.0000
  C   C1656     1.0  0.51121  0.85891  0.86134  1.0000
  C   C1657     1.0  0.52660  0.87015  0.86934  1.0000
  H   H2956     1.0  0.63450  0.65264  0.95983  1.0000
  H   H2957     1.0  0.47204  0.89036  0.86573  1.0000
  H   H2958     1.0  0.51463  0.84452  0.85626  1.0000
  H   H2959     1.0  0.54191  0.86463  0.87015  1.0000
  C   C1658     1.0  0.62864  0.66775  0.90057  1.0000
  C   C1659     1.0  0.64462  0.65462  0.90069  1.0000
  C   C1660     1.0  0.63913  0.63165  0.89847  1.0000
  C   C1661     1.0  0.61787  0.62181  0.89570  1.0000
  C   C1662     1.0  0.60218  0.63526  0.89500  1.0000
  C   C1663     1.0  0.60749  0.65807  0.89756  1.0000
  H   H2960     1.0  0.58814  0.51389  0.82443  1.0000
  C   C1664     1.0  0.34529  0.94653  0.97280  1.0000
  H   H2961     1.0  0.58562  0.62776  0.89307  1.0000
  H   H2962     1.0  0.59503  0.66814  0.89739  1.0000
  C   C1665     1.0  0.47992  0.88290  0.78407  1.0000
  C   C1666     1.0  0.64103  0.58779  0.95046  1.0000
  H   H2963     1.0  0.55805  0.55939  0.75986  1.0000
  H   H2964     1.0  0.54627  0.52302  0.77798  1.0000
  C   C1667     1.0  0.40644  0.99868  0.85258  1.0000
  H   H2965     1.0  0.39583  0.98367  0.89352  1.0000
  H   H2966     1.0  0.52771  0.83908  0.80346  1.0000
  H   H2967     1.0  0.63105  0.91205  0.91086  1.0000
  H   H2968     1.0  0.58139  0.68312  0.80848  1.0000
  S   S374      1.0  0.59968  0.66084  0.75124  1.0000
  H   H2969     1.0  0.66011  0.63318  0.96750  1.0000
  H   H2970     1.0  0.53372  0.82092  0.83106  1.0000
  H   H2971     1.0  0.56951  0.92638  0.75408  1.0000
  H   H2972     1.0  0.63663  0.61790  0.76861  1.0000
  H   H2973     1.0  0.63879  0.83184  0.92098  1.0000
  H   H2974     1.0  0.64598  0.57927  0.98350  1.0000
  Fe  Fe186     1.0  0.57826  0.90322  0.87553  1.0000
  S   S375      1.0  0.60911  0.92353  0.88201  1.0000
  H   H2975     1.0  0.65136  0.62143  0.89897  1.0000
  H   H2976     1.0  0.57021  0.78451  0.89913  1.0000
  H   H2977     1.0  0.62801  0.79300  0.84915  1.0000
  H   H2978     1.0  0.49785  0.90932  0.79397  1.0000
  H   H2979     1.0  0.49803  0.90843  0.88149  1.0000
  H   H2980     1.0  0.56222  0.91930  0.81596  1.0000
  H   H2981     1.0  0.54143  0.93184  0.77842  1.0000
  H   H2982     1.0  0.59485  0.66134  0.83229  1.0000
  C   C1668     1.0  0.57031  0.54287  0.78962  1.0000
  C   C1669     1.0  0.38079  0.97222  0.84207  1.0000
  H   H2983     1.0  0.57214  0.54180  0.80282  1.0000
  H   H2984     1.0  0.62464  0.57768  0.96052  1.0000
  C   C1670     1.0  0.58156  0.71632  0.76258  1.0000
  H   H2985     1.0  0.53251  0.52677  0.79822  1.0000
  C   C1671     1.0  0.59222  0.58456  0.78286  1.0000
  C   C1672     1.0  0.33656  0.82424  0.84529  1.0000
  N   N95       1.0  0.34666  0.92725  0.98727  1.0000
  C   C1673     1.0  0.42254  0.98581  0.85014  1.0000
  H   H2986     1.0  0.39442  0.88764  0.76245  1.0000
  H   H2987     1.0  0.33825  0.91151  0.78433  1.0000
  H   H2988     1.0  0.61097  0.61176  0.95702  1.0000
  C   C1674     1.0  0.61212  0.90132  0.80518  1.0000
  H   H2989     1.0  0.51998  0.59370  0.80599  1.0000
  C   C1675     1.0  0.54864  0.82970  0.81955  1.0000
  H   H2990     1.0  0.56373  0.83778  0.82371  1.0000
  C   C1676     1.0  0.54433  0.91347  0.82438  1.0000
  H   H2991     1.0  0.35118  0.82211  0.85066  1.0000
  C   C1677     1.0  0.60891  0.87684  0.81044  1.0000
  S   S376      1.0  0.54144  0.90308  0.88611  1.0000
  H   H2992     1.0  0.33720  0.85822  0.84926  1.0000
  C   C1678     1.0  0.53950  0.93386  0.83148  1.0000
  H   H2993     1.0  0.64385  0.77727  0.78458  1.0000
  H   H2994     1.0  0.50975  0.89571  0.82472  1.0000
  H   H2995     1.0  0.65155  0.70413  0.77387  1.0000
  C   C1679     1.0  0.64913  0.91408  0.93036  1.0000
  C   C1680     1.0  0.32922  0.91516  0.85373  1.0000
  H   H2996     1.0  0.52254  0.85949  0.82682  1.0000
  H   H2997     1.0  0.37338  0.87037  0.98127  1.0000
  H   H2998     1.0  0.38116  0.93278  0.79525  1.0000
  C   C1681     1.0  0.41764  0.96571  0.84411  1.0000
  H   H2999     1.0  0.57583  0.71258  0.78959  1.0000
  H   H3000     1.0  0.60744  0.84495  0.80226  1.0000
  H   H3001     1.0  0.54336  0.89889  0.83547  1.0000
  H   H3002     1.0  0.61421  0.78877  0.80424  1.0000
  S   S377      1.0  0.43831  0.94993  0.84174  1.0000
  C   C1682     1.0  0.52647  0.90481  0.81480  1.0000
  Fe  Fe187     1.0  0.60712  0.88665  0.84899  1.0000
  H   H3003     1.0  0.51594  0.57443  0.82688  1.0000
  S   S378      1.0  0.59320  0.91809  0.84715  1.0000
  C   C1683     1.0  0.64944  0.61520  0.96842  1.0000
  C   C1684     1.0  0.63553  0.60047  0.77706  1.0000
  H   H3004     1.0  0.47280  0.89588  0.77678  1.0000
  H   H3005     1.0  0.52164  0.92850  0.83998  1.0000
  H   H3006     1.0  0.55161  0.93862  0.83917  1.0000
  H   H3007     1.0  0.36254  0.95973  0.96681  1.0000
  H   H3008     1.0  0.39827  0.89516  0.96913  1.0000
  C   C1685     1.0  0.62097  0.81966  0.95461  1.0000
  C   C1686     1.0  0.62100  0.90032  0.77547  1.0000
  N   N96       1.0  0.42697  0.92762  0.89836  1.0000
  C   C1687     1.0  0.44766  0.92992  0.88399  1.0000
  C   C1688     1.0  0.41010  0.90343  0.90228  1.0000
  C   C1689     1.0  0.41501  0.94567  0.89189  1.0000
  C   C1690     1.0  0.43343  0.93196  0.91423  1.0000
  C   C1691     1.0  0.45469  0.92436  0.91805  1.0000
  C   C1692     1.0  0.46475  0.95518  0.87623  1.0000
  C   C1693     1.0  0.39304  0.94644  0.90472  1.0000
  C   C1694     1.0  0.41847  0.88159  0.90855  1.0000
  C   C1695     1.0  0.40022  0.85857  0.91054  1.0000
  C   C1696     1.0  0.45623  0.92499  0.93610  1.0000
  C   C1697     1.0  0.48790  0.95474  0.86548  1.0000
  H   H3009     1.0  0.48535  0.94421  0.85616  1.0000
  H   H3010     1.0  0.44193  0.92446  0.87324  1.0000
  H   H3011     1.0  0.45756  0.91749  0.88795  1.0000
  H   H3012     1.0  0.39439  0.90137  0.91251  1.0000
  H   H3013     1.0  0.40410  0.90152  0.89075  1.0000
  H   H3014     1.0  0.41028  0.94281  0.88007  1.0000
  H   H3015     1.0  0.42677  0.96395  0.88808  1.0000
  H   H3016     1.0  0.43740  0.95123  0.91350  1.0000
  H   H3017     1.0  0.41840  0.92317  0.92571  1.0000
  H   H3018     1.0  0.47086  0.93664  0.90890  1.0000
  H   H3019     1.0  0.45444  0.90635  0.91687  1.0000
  H   H3020     1.0  0.45757  0.96635  0.86757  1.0000
  C   C1698     1.0  0.64052  0.98113  0.79329  1.0000
  H   H3021     1.0  0.39689  0.94996  0.91657  1.0000
  H   H3022     1.0  0.37918  0.92962  0.90840  1.0000
  H   H3023     1.0  0.43451  0.88170  0.89948  1.0000
  H   H3024     1.0  0.42125  0.88092  0.92139  1.0000
  H   H3025     1.0  0.39684  0.85770  0.89803  1.0000
  H   H3026     1.0  0.40641  0.84311  0.91530  1.0000
  H   H3027     1.0  0.38379  0.85720  0.91980  1.0000
  H   H3028     1.0  0.63233  0.61334  0.97714  1.0000
  H   H3029     1.0  0.44097  0.91203  0.94588  1.0000
  H   H3030     1.0  0.47194  0.92020  0.93823  1.0000
  H   H3031     1.0  0.49770  0.94715  0.87389  1.0000
  Fe  Fe188     1.0  0.33548  0.99918  0.80124  1.0000
  C   C1699     1.0  0.33502  0.85266  0.90414  1.0000
  H   H3032     1.0  0.46785  0.96407  0.88629  1.0000
  C   C1700     1.0  0.65268  0.81231  0.89655  1.0000
  H   H3033     1.0  0.63762  0.81956  0.95760  1.0000
  H   H3034     1.0  0.65481  0.74810  0.77413  1.0000
  H   H3035     1.0  0.62509  0.73060  0.76517  1.0000
  H   H3036     1.0  0.34600  0.92683  0.95286  1.0000
  H   H3037     1.0  0.65414  0.66254  0.81376  1.0000
  H   H3038     1.0  0.61230  0.70100  0.77755  1.0000
  H   H3039     1.0  0.34884  0.89628  0.84053  1.0000
  C   C1701     1.0  0.61677  0.87572  0.78076  1.0000
  N   N97       1.0  0.53253  0.88867  0.80395  1.0000
  H   H3040     1.0  0.60188  0.65240  0.93648  1.0000
  H   H3041     1.0  0.61688  0.66742  0.86092  1.0000
  C   C1702     1.0  0.60454  0.75772  0.92631  1.0000
  C   C1703     1.0  0.38344  0.87176  0.77213  1.0000
  C   C1704     1.0  0.61284  0.78746  0.79132  1.0000
  C   C1705     1.0  0.61620  0.80378  0.94284  1.0000
  H   H3042     1.0  0.34466  0.81412  0.80612  1.0000
  C   C1706     1.0  0.60528  0.73259  0.93421  1.0000
  H   H3043     1.0  0.65656  0.73985  0.79563  1.0000
  H   H3044     1.0  0.53539  0.56481  0.78384  1.0000
  C   C1707     1.0  0.38684  0.88541  0.98218  1.0000
  H   H3045     1.0  0.59504  0.79752  0.91682  1.0000
  C   C1708     1.0  0.51175  0.87833  0.79825  1.0000
  H   H3046     1.0  0.64261  0.92804  0.93406  1.0000
  C   C1709     1.0  0.52091  0.51047  0.84400  1.0000
  C   C1710     1.0  0.60745  0.65570  0.94785  1.0000
  C   C1711     1.0  0.33851  0.95946  0.94351  1.0000
  C   C1712     1.0  0.61120  0.80627  0.90642  1.0000
  H   H3047     1.0  0.59435  0.75665  0.91684  1.0000
  H   H3048     1.0  0.59506  0.76377  0.93662  1.0000
  H   H3049     1.0  0.50613  0.56220  0.81077  1.0000
  S   S379      1.0  0.64964  0.58363  0.81868  1.0000
  C   C1713     1.0  0.61609  0.58105  0.77548  1.0000
  H   H3050     1.0  0.59045  0.58284  0.79669  1.0000
  H   H3051     1.0  0.59917  0.80412  0.94076  1.0000
  H   H3052     1.0  0.61546  0.78554  0.94974  1.0000
  H   H3053     1.0  0.64779  0.55004  0.93683  1.0000
  H   H3054     1.0  0.34734  0.92299  0.82716  1.0000
  H   H3055     1.0  0.61277  0.82560  0.90419  1.0000
  H   H3056     1.0  0.58747  0.72074  0.94010  1.0000
  H   H3057     1.0  0.61411  0.72545  0.92422  1.0000
  H   H3058     1.0  0.61455  0.73250  0.94432  1.0000
  H   H3059     1.0  0.33677  0.81495  0.83508  1.0000
  S   S380      1.0  0.64056  0.90553  0.85253  1.0000
  H   H3060     1.0  0.59274  0.60325  0.77742  1.0000
  H   H3061     1.0  0.33364  0.95659  0.97774  1.0000
  H   H3062     1.0  0.58955  0.74212  0.77606  1.0000
  H   H3063     1.0  0.63378  0.83180  0.81641  1.0000
  C   C1714     1.0  0.37205  0.92832  0.78567  1.0000
  H   H3064     1.0  0.61010  0.67484  0.94708  1.0000
  S   S381      1.0  0.60502  0.86228  0.83193  1.0000
  H   H3065     1.0  0.46661  0.87290  0.79632  1.0000
  H   H3066     1.0  0.65120  0.80974  0.92959  1.0000
  H   H3067     1.0  0.62522  0.62274  0.93478  1.0000
  H   H3068     1.0  0.65533  0.55909  0.85120  1.0000
  C   C1715     1.0  0.64619  0.51747  0.82127  1.0000
  H   H3069     1.0  0.62363  0.76925  0.77268  1.0000
  H   H3070     1.0  0.58113  0.70636  0.81906  1.0000
  C   C1716     1.0  0.62923  0.77451  0.91743  1.0000
  H   H3071     1.0  0.64143  0.65248  0.84158  1.0000
  H   H3072     1.0  0.38087  0.91770  0.77854  1.0000
  C   C1717     1.0  0.62142  0.80421  0.84000  1.0000
  H   H3073     1.0  0.35879  0.89292  0.81307  1.0000
  H   H3074     1.0  0.63485  0.69184  0.84306  1.0000
  C   C1718     1.0  0.60354  0.51413  0.82933  1.0000
  H   H3075     1.0  0.35669  0.85867  0.82942  1.0000
  H   H3076     1.0  0.55258  0.87462  0.82003  1.0000
  H   H3077     1.0  0.61060  0.78237  0.88945  1.0000
  C   C1719     1.0  0.54333  0.57141  0.80703  1.0000
  H   H3078     1.0  0.65406  0.83143  0.89138  1.0000
  C   C1720     1.0  0.60753  0.79976  0.88987  1.0000
  C   C1721     1.0  0.34453  0.89046  0.80689  1.0000
  H   H3079     1.0  0.62159  0.83821  0.94845  1.0000
  H   H3080     1.0  0.61116  0.91140  0.81450  1.0000
  H   H3081     1.0  0.59361  0.64516  0.95968  1.0000
  C   C1722     1.0  0.51988  0.57572  0.81294  1.0000
  H   H3082     1.0  0.37885  0.96294  0.88494  1.0000
  C   C1723     1.0  0.62751  0.62316  0.94764  1.0000
  H   H3083     1.0  0.62188  0.64795  0.77836  1.0000
  H   H3084     1.0  0.59414  0.72715  0.75020  1.0000
  C   C1724     1.0  0.63557  0.81237  0.92582  1.0000
  H   H3085     1.0  0.64149  0.68759  0.86351  1.0000
  H   H3086     1.0  0.34827  0.87850  0.79877  1.0000
  Fe  Fe189     1.0  0.62518  0.93561  0.85355  1.0000
  C   C1725     1.0  0.62992  0.64926  0.94818  1.0000
  N   N98       1.0  0.62286  0.72525  0.79230  1.0000
  C   C1726     1.0  0.61550  0.74500  0.79852  1.0000
  C   C1727     1.0  0.61598  0.70349  0.80734  1.0000
  H   H3087     1.0  0.61122  0.81403  0.84693  1.0000
  C   C1728     1.0  0.61322  0.71965  0.77783  1.0000
  C   C1729     1.0  0.58918  0.72326  0.77763  1.0000
  C   C1730     1.0  0.62528  0.76999  0.78561  1.0000
  H   H3088     1.0  0.64347  0.66152  0.93677  1.0000
  C   C1731     1.0  0.58990  0.69286  0.81647  1.0000
  C   C1732     1.0  0.58598  0.67524  0.83379  1.0000
  H   H3089     1.0  0.62133  0.93208  0.78357  1.0000
  H   H3090     1.0  0.48337  0.87031  0.77647  1.0000
  C   C1733     1.0  0.64970  0.66252  0.84934  1.0000
  H   H3091     1.0  0.62083  0.74646  0.81037  1.0000
  H   H3092     1.0  0.59649  0.74116  0.80241  1.0000
  H   H3093     1.0  0.62143  0.68861  0.80333  1.0000
  H   H3094     1.0  0.62511  0.70741  0.81708  1.0000
  C   C1734     1.0  0.62432  0.51591  0.81484  1.0000
  C   C1735     1.0  0.33631  0.93822  0.95828  1.0000
  H   H3095     1.0  0.65096  0.80401  0.88594  1.0000
  H   H3096     1.0  0.62827  0.99202  0.79244  1.0000
  H   H3097     1.0  0.52509  0.52885  0.84420  1.0000
  C   C1736     1.0  0.54818  0.52355  0.79090  1.0000
  C   C1737     1.0  0.55344  0.90089  0.78881  1.0000
  C   C1738     1.0  0.57433  0.56961  0.76165  1.0000
  S   S382      1.0  0.63412  0.91546  0.75389  1.0000
  H   H3098     1.0  0.63106  0.55420  0.92166  1.0000
  H   H3099     1.0  0.60705  0.81306  0.96683  1.0000
  H   H3100     1.0  0.59438  0.78183  0.79157  1.0000
  H   H3101     1.0  0.56367  0.93842  0.78869  1.0000
  H   H3102     1.0  0.64076  0.97172  0.78313  1.0000
  C   C1739     1.0  0.64417  0.97577  0.88848  1.0000
  C   C1740     1.0  0.34681  0.91461  0.79448  1.0000
  H   H3103     1.0  0.35689  0.96956  0.93748  1.0000
  H   H3104     1.0  0.57953  0.81602  0.88861  1.0000
  H   H3105     1.0  0.63608  0.76798  0.90632  1.0000
  N   N99       1.0  0.63172  0.80081  0.91179  1.0000
  H   H3106     1.0  0.45737  0.94306  0.93772  1.0000
  H   H3107     1.0  0.34760  0.96024  0.75339  1.0000
  C   C1741     1.0  0.63327  0.55684  0.93415  1.0000
  H   H3108     1.0  0.59208  0.93344  0.76447  1.0000
  C   C1742     1.0  0.61034  0.86394  0.79825  1.0000
  H   H3109     1.0  0.63966  0.97812  0.87608  1.0000
  C   C1743     1.0  0.61783  0.91303  0.78767  1.0000
  C   C1744     1.0  0.38563  0.99205  0.84843  1.0000
  H   H3110     1.0  0.55770  0.85606  0.79536  1.0000
  H   H3111     1.0  0.61917  0.86585  0.77134  1.0000
  H   H3112     1.0  0.60978  0.79251  0.83481  1.0000
  H   H3113     1.0  0.51458  0.90493  0.77471  1.0000
  H   H3114     1.0  0.51566  0.86639  0.79020  1.0000
  H   H3115     1.0  0.60703  0.52956  0.83468  1.0000
  S   S383      1.0  0.64462  0.97364  0.83952  1.0000
  H   H3116     1.0  0.65229  0.59655  0.77320  1.0000
  H   H3117     1.0  0.62365  0.58898  0.92969  1.0000
  H   H3118     1.0  0.61734  0.56382  0.78271  1.0000
  C   C1745     1.0  0.64261  0.90507  0.91722  1.0000
  N   N100      1.0  0.64720  0.61343  0.95085  1.0000
  H   H3119     1.0  0.64809  0.53221  0.82754  1.0000
  C   C1746     1.0  0.64892  0.73302  0.78599  1.0000
  H   H3120     1.0  0.65424  0.59256  0.92268  1.0000
  H   H3121     1.0  0.65095  0.64058  0.79261  1.0000
  H   H3122     1.0  0.56448  0.71930  0.76260  1.0000
  H   H3123     1.0  0.43885  0.99149  0.85294  1.0000
  H   H3124     1.0  0.64278  0.95673  0.89363  1.0000
  H   H3125     1.0  0.63430  0.96791  0.80607  1.0000
  H   H3126     1.0  0.64695  0.84638  0.84024  1.0000
  H   H3127     1.0  0.56715  0.60409  0.75338  1.0000
  H   H3128     1.0  0.34211  0.98673  0.88866  1.0000
  C   C1747     1.0  0.64132  0.82156  0.82530  1.0000
  H   H3129     1.0  0.64921  0.64961  0.86122  1.0000
  H   H3130     1.0  0.57999  0.69732  0.76364  1.0000
  C   C1748     1.0  0.33713  0.90698  0.83778  1.0000
  C   C1749     1.0  0.33911  0.85061  0.83816  1.0000
  H   H3131     1.0  0.65844  0.63372  0.82101  1.0000
  H   H3132     1.0  0.65410  0.57907  0.95376  1.0000
  C   C1750     1.0  0.66043  0.71381  0.78167  1.0000
  C   C1751     1.0  0.65790  0.83821  0.83219  1.0000
  H   H3133     1.0  0.37511  0.95093  0.99190  1.0000
  C   C1752     1.0  0.37575  0.90197  0.99052  1.0000
  H   H3134     1.0  0.39736  0.87808  0.99008  1.0000
  H   H3135     1.0  0.38987  0.91606  0.99177  1.0000
  C   C1753     1.0  0.58044  0.59508  0.74961  1.0000
  H   H3136     1.0  0.65677  0.88203  0.81945  1.0000
  C   C1754     1.0  0.33129  0.95310  0.76317  1.0000
  H   H3137     1.0  0.59733  0.60616  0.74971  1.0000
  C   C1755     1.0  0.65922  0.59678  0.97851  1.0000
  H   H3138     1.0  0.65975  0.70090  0.79365  1.0000
  H   H3139     1.0  0.66110  0.66204  0.90267  1.0000
  S   S384      1.0  0.55049  0.50442  0.86453  1.0000
  H   H3140     1.0  0.33024  0.79046  0.88007  1.0000
  H   H3141     1.0  0.66088  0.54209  0.78650  1.0000
  H   H3142     1.0  0.64324  0.50469  0.78565  1.0000
  H   H3143     1.0  0.95896  0.24446  0.21361  1.0000
  H   H3144     1.0  0.96634  0.15405  0.03159  1.0000
  C   C1756     1.0  0.72058  0.10643  0.19425  1.0000
  H   H3145     1.0  0.92544  0.16443  0.21142  1.0000
  H   H3146     1.0  0.85116  0.03315  0.10704  1.0000
  H   H3147     1.0  0.94923  0.10383  0.05915  1.0000
  S   S385      1.0  0.97774  0.36166  0.16447  1.0000
  Fe  Fe190     1.0  0.96857  0.37946  0.14149  1.0000
  C   C1757     1.0  0.83507  0.02171  0.24579  1.0000
  H   H3148     1.0  0.92650  0.11917  0.00948  1.0000
  H   H3149     1.0  0.68878  0.03249  0.13095  1.0000
  H   H3150     1.0  0.68155  0.39668  0.24590  1.0000
  H   H3151     1.0  0.87842  0.10726  0.15900  1.0000
  S   S386      1.0  0.94659  0.34553  0.13919  1.0000
  C   C1758     1.0  0.69319  0.48951  0.19771  1.0000
  C   C1759     1.0  0.97622  0.31089  0.21378  1.0000
  C   C1760     1.0  0.88138  0.18312  0.23769  1.0000
  H   H3152     1.0  0.98536  0.39852  0.22942  1.0000
  H   H3153     1.0  0.95747  0.34640  0.23458  1.0000
  Fe  Fe191     1.0  0.95857  0.32764  0.16086  1.0000
  S   S387      1.0  0.93457  0.29827  0.18336  1.0000
  S   S388      1.0  0.67369  0.03532  0.16483  1.0000
  N   N101      1.0  0.96901  0.39184  0.20961  1.0000
  Fe  Fe192     1.0  0.80257  0.03722  0.03086  1.0000
  S   S389      1.0  0.83759  0.05301  0.03400  1.0000
  H   H3154     1.0  0.92716  0.34846  0.18905  1.0000
  Fe  Fe193     1.0  0.77824  0.03217  0.06786  1.0000
  S   S390      1.0  0.81075  0.04709  0.07453  1.0000
  C   C1761     1.0  0.71708  0.12689  0.14254  1.0000
  Fe  Fe194     1.0  0.82033  0.07416  0.04909  1.0000
  S   S391      1.0  0.83700  0.11254  0.04741  1.0000
  Fe  Fe195     1.0  0.82560  0.02499  0.05915  1.0000
  S   S392      1.0  0.78611  0.06119  0.04370  1.0000
  C   C1762     1.0  0.69097  0.45154  0.21671  1.0000
  Fe  Fe196     1.0  0.94129  0.20797  0.09378  1.0000
  S   S393      1.0  0.93300  0.17034  0.10945  1.0000
  S   S394      1.0  0.92079  0.23075  0.10425  1.0000
  H   H3155     1.0  0.98731  0.36914  0.19885  1.0000
  C   C1763     1.0  0.95905  0.26916  0.08941  1.0000
  Fe  Fe197     1.0  0.94006  0.16159  0.08420  1.0000
  S   S395      1.0  0.92024  0.12696  0.08106  1.0000
  H   H3156     1.0  0.91205  0.11960  0.03023  1.0000
  S   S396      1.0  0.94467  0.19864  0.06865  1.0000
  C   C1764     1.0  0.86109  0.11728  0.05573  1.0000
  C   C1765     1.0  0.87038  0.13951  0.05815  1.0000
  C   C1766     1.0  0.88896  0.14311  0.06554  1.0000
  C   C1767     1.0  0.89849  0.12454  0.07028  1.0000
  C   C1768     1.0  0.88990  0.10278  0.06707  1.0000
  C   C1769     1.0  0.87108  0.09901  0.06006  1.0000
  H   H3157     1.0  0.86283  0.15380  0.05467  1.0000
  H   H3158     1.0  0.89560  0.16005  0.06784  1.0000
  H   H3159     1.0  0.89773  0.08867  0.07015  1.0000
  H   H3160     1.0  0.86437  0.08195  0.05794  1.0000
  C   C1770     1.0  0.94559  0.29703  0.20121  1.0000
  C   C1771     1.0  0.93239  0.28190  0.21728  1.0000
  C   C1772     1.0  0.94142  0.28076  0.23150  1.0000
  C   C1773     1.0  0.96331  0.29540  0.22973  1.0000
  H   H3161     1.0  0.93599  0.12794  0.21411  1.0000
  C   C1774     1.0  0.96766  0.31115  0.19947  1.0000
  H   H3162     1.0  0.91531  0.27090  0.21866  1.0000
  H   H3163     1.0  0.86900  0.12358  0.00516  1.0000
  S   S397      1.0  0.81288  0.11173  0.20722  1.0000
  H   H3164     1.0  0.72510  0.08029  0.23351  1.0000
  C   C1775     1.0  0.93805  0.25933  0.10209  1.0000
  C   C1776     1.0  0.93082  0.27232  0.11330  1.0000
  C   C1777     1.0  0.94499  0.29465  0.11232  1.0000
  H   H3165     1.0  0.67233  0.49306  0.24694  1.0000
  H   H3166     1.0  0.68460  0.03314  0.09190  1.0000
  H   H3167     1.0  0.96930  0.42315  0.19090  1.0000
  H   H3168     1.0  0.91441  0.26502  0.12290  1.0000
  H   H3169     1.0  0.93949  0.30444  0.12118  1.0000
  H   H3170     1.0  0.72594  0.04770  0.18751  1.0000
  C   C1778     1.0  0.88626  0.03983  0.09285  1.0000
  C   C1779     1.0  0.68911  0.07048  0.20814  1.0000
  C   C1780     1.0  0.70045  0.09016  0.19403  1.0000
  H   H3171     1.0  0.69337  0.09308  0.18317  1.0000
  H   H3172     1.0  0.72907  0.12192  0.18349  1.0000
  C   C1781     1.0  0.70754  0.06396  0.11040  1.0000
  C   C1782     1.0  0.72472  0.07330  0.09478  1.0000
  C   C1783     1.0  0.73655  0.05860  0.08783  1.0000
  C   C1784     1.0  0.73113  0.03459  0.09654  1.0000
  C   C1785     1.0  0.71422  0.02541  0.11225  1.0000
  C   C1786     1.0  0.70222  0.03996  0.11906  1.0000
  H   H3173     1.0  0.72888  0.09186  0.08802  1.0000
  H   H3174     1.0  0.74956  0.06572  0.07563  1.0000
  Fe  Fe198     1.0  0.77750  0.10799  0.22317  1.0000
  C   C1787     1.0  0.93401  0.17184  0.02022  1.0000
  H   H3175     1.0  0.89670  0.48850  0.23028  1.0000
  H   H3176     1.0  0.95080  0.45479  0.15077  1.0000
  H   H3177     1.0  0.96995  0.09235  0.04722  1.0000
  H   H3178     1.0  0.85174  0.21452  0.21306  1.0000
  C   C1788     1.0  0.71964  0.49917  0.18936  1.0000
  C   C1789     1.0  0.77691  0.01155  0.22346  1.0000
  H   H3179     1.0  0.67347  0.02667  0.07480  1.0000
  H   H3180     1.0  0.88755  0.11868  0.23785  1.0000
  H   H3181     1.0  0.71556  0.48540  0.22518  1.0000
  H   H3182     1.0  0.92830  0.12095  0.23734  1.0000
  H   H3183     1.0  0.99265  0.15312  0.22376  1.0000
  C   C1790     1.0  0.74129  0.06327  0.14525  1.0000
  H   H3184     1.0  0.87655  0.10374  0.02110  1.0000
  C   C1791     1.0  0.80342  0.01689  0.14765  1.0000
  C   C1792     1.0  0.95046  0.21100  0.20681  1.0000
  H   H3185     1.0  0.99312  0.32222  0.21228  1.0000
  H   H3186     1.0  0.89484  0.08580  0.15875  1.0000
  H   H3187     1.0  0.71072  0.08922  0.14821  1.0000
  H   H3188     1.0  0.77611  0.02019  0.23368  1.0000
  Fe  Fe199     1.0  0.98202  0.20398  0.06814  1.0000
  H   H3189     1.0  0.93714  0.20225  0.20137  1.0000
  H   H3190     1.0  0.69266  0.01878  0.21800  1.0000
  C   C1793     1.0  0.94697  0.37589  0.20859  1.0000
  H   H3191     1.0  0.82126  0.02834  0.24149  1.0000
  C   C1794     1.0  0.94953  0.44970  0.20747  1.0000
  H   H3192     1.0  0.98500  0.18747  0.20964  1.0000
  C   C1795     1.0  0.95768  0.11767  0.03136  1.0000
  H   H3193     1.0  0.98959  0.49439  0.12557  1.0000
  C   C1796     1.0  0.95316  0.19264  0.02139  1.0000
  H   H3194     1.0  0.97315  0.48272  0.16345  1.0000
  C   C1797     1.0  0.92055  0.36394  0.19026  1.0000
  H   H3195     1.0  0.88864  0.19439  0.22474  1.0000
  C   C1798     1.0  0.96943  0.41760  0.20455  1.0000
  H   H3196     1.0  0.88861  0.02487  0.10212  1.0000
  H   H3197     1.0  0.82585  0.05296  0.11854  1.0000
  Fe  Fe200     1.0  0.97942  0.34321  0.12268  1.0000
  Fe  Fe201     1.0  0.82559  0.12051  0.22920  1.0000
  H   H3198     1.0  0.93236  0.37366  0.21982  1.0000
  H   H3199     1.0  0.68634  0.47924  0.18932  1.0000
  H   H3200     1.0  0.70172  0.12532  0.15295  1.0000
  H   H3201     1.0  0.83898  0.18839  0.20733  1.0000
  H   H3202     1.0  0.92903  0.20907  0.03419  1.0000
  C   C1799     1.0  0.96653  0.45220  0.15354  1.0000
  C   C1800     1.0  0.73467  0.04020  0.19682  1.0000
  H   H3203     1.0  0.91542  0.37030  0.17843  1.0000
  H   H3204     1.0  0.88213  0.03358  0.08190  1.0000
  S   S398      1.0  0.76988  0.06911  0.23570  1.0000
  C   C1801     1.0  0.86666  0.04862  0.10146  1.0000
  C   C1802     1.0  0.96428  0.10851  0.04776  1.0000
  H   H3205     1.0  0.79275  0.02531  0.15558  1.0000
  C   C1803     1.0  0.98897  0.38836  0.19733  1.0000
  Fe  Fe202     1.0  0.97107  0.17821  0.10605  1.0000
  C   C1804     1.0  0.69797  0.06711  0.22242  1.0000
  H   H3206     1.0  0.95510  0.38652  0.23677  1.0000
  N   N102      1.0  0.89157  0.19790  0.16328  1.0000
  C   C1805     1.0  0.90250  0.18178  0.17333  1.0000
  C   C1806     1.0  0.86984  0.19905  0.17510  1.0000
  C   C1807     1.0  0.88459  0.18644  0.14987  1.0000
  C   C1808     1.0  0.90779  0.22249  0.15448  1.0000
  C   C1809     1.0  0.92561  0.23237  0.16379  1.0000
  C   C1810     1.0  0.92265  0.17533  0.16232  1.0000
  C   C1811     1.0  0.86996  0.19802  0.13946  1.0000
  C   C1812     1.0  0.87265  0.20975  0.19018  1.0000
  C   C1813     1.0  0.84920  0.20731  0.20211  1.0000
  C   C1814     1.0  0.93746  0.25881  0.15568  1.0000
  C   C1815     1.0  0.93763  0.16620  0.17309  1.0000
  C   C1816     1.0  0.86621  0.18621  0.12524  1.0000
  H   H3207     1.0  0.88933  0.16476  0.18097  1.0000
  H   H3208     1.0  0.90878  0.18935  0.18311  1.0000
  H   H3209     1.0  0.86109  0.21029  0.16793  1.0000
  H   H3210     1.0  0.85745  0.18095  0.18051  1.0000
  H   H3211     1.0  0.87470  0.16744  0.15590  1.0000
  H   H3212     1.0  0.90017  0.18650  0.14018  1.0000
  H   H3213     1.0  0.91816  0.22324  0.14151  1.0000
  H   H3214     1.0  0.89774  0.23545  0.15193  1.0000
  H   H3215     1.0  0.93924  0.22309  0.16302  1.0000
  H   H3216     1.0  0.91780  0.22999  0.17754  1.0000
  H   H3217     1.0  0.91561  0.16112  0.15661  1.0000
  H   H3218     1.0  0.93387  0.19078  0.15162  1.0000
  H   H3219     1.0  0.87854  0.21725  0.13356  1.0000
  H   H3220     1.0  0.85255  0.19575  0.14773  1.0000
  H   H3221     1.0  0.88227  0.20080  0.19796  1.0000
  H   H3222     1.0  0.88161  0.22902  0.18525  1.0000
  H   H3223     1.0  0.97617  0.45582  0.08657  1.0000
  H   H3224     1.0  0.96653  0.46260  0.20531  1.0000
  H   H3225     1.0  0.97370  0.42971  0.10299  1.0000
  H   H3226     1.0  0.94699  0.26213  0.14210  1.0000
  H   H3227     1.0  0.92466  0.26917  0.15641  1.0000
  H   H3228     1.0  0.95003  0.26524  0.16261  1.0000
  C   C1817     1.0  0.97056  0.17122  0.21195  1.0000
  H   H3229     1.0  0.97841  0.32192  0.18704  1.0000
  H   H3230     1.0  0.94649  0.18055  0.17789  1.0000
  H   H3231     1.0  0.85644  0.19537  0.11760  1.0000
  H   H3232     1.0  0.88292  0.18736  0.11645  1.0000
  H   H3233     1.0  0.85625  0.16726  0.13083  1.0000
  N   N103      1.0  0.85661  0.07200  0.12371  1.0000
  C   C1818     1.0  0.86375  0.07798  0.13897  1.0000
  C   C1819     1.0  0.83235  0.05584  0.12971  1.0000
  C   C1820     1.0  0.87336  0.06030  0.11536  1.0000
  C   C1821     1.0  0.85721  0.09406  0.11071  1.0000
  C   C1822     1.0  0.84251  0.10963  0.11751  1.0000
  C   C1823     1.0  0.88650  0.09814  0.13473  1.0000
  H   H3234     1.0  0.69455  0.43952  0.24255  1.0000
  C   C1824     1.0  0.82875  0.03127  0.14214  1.0000
  H   H3235     1.0  0.72763  0.48445  0.18898  1.0000
  C   C1825     1.0  0.84743  0.13329  0.10420  1.0000
  C   C1826     1.0  0.89236  0.10212  0.15109  1.0000
  S   S399      1.0  0.97890  0.21641  0.09203  1.0000
  H   H3236     1.0  0.86618  0.06213  0.14731  1.0000
  H   H3237     1.0  0.84981  0.08261  0.14736  1.0000
  H   H3238     1.0  0.82053  0.06432  0.13659  1.0000
  C   C1827     1.0  0.98564  0.44696  0.09467  1.0000
  H   H3239     1.0  0.97861  0.12214  0.04922  1.0000
  H   H3240     1.0  0.89053  0.07352  0.10913  1.0000
  H   H3241     1.0  0.87524  0.10530  0.10474  1.0000
  H   H3242     1.0  0.85107  0.08948  0.09984  1.0000
  H   H3243     1.0  0.84593  0.11370  0.12930  1.0000
  H   H3244     1.0  0.82395  0.10039  0.12036  1.0000
  H   H3245     1.0  0.90118  0.09377  0.12706  1.0000
  H   H3246     1.0  0.88518  0.11526  0.12737  1.0000
  H   H3247     1.0  0.86282  0.06117  0.09139  1.0000
  H   H3248     1.0  0.96447  0.25952  0.08041  1.0000
  H   H3249     1.0  0.90272  0.05424  0.08780  1.0000
  H   H3250     1.0  0.92871  0.23235  0.21561  1.0000
  C   C1828     1.0  0.92460  0.13012  0.22560  1.0000
  H   H3251     1.0  0.72982  0.00498  0.19391  1.0000
  H   H3252     1.0  0.90863  0.11665  0.14765  1.0000
  H   H3253     1.0  0.84330  0.13034  0.09230  1.0000
  H   H3254     1.0  0.83669  0.14407  0.10933  1.0000
  H   H3255     1.0  0.86586  0.14347  0.10107  1.0000
  H   H3256     1.0  0.96819  0.19861  0.00991  1.0000
  H   H3257     1.0  0.73076  0.14301  0.14160  1.0000
  H   H3258     1.0  0.75331  0.04405  0.19043  1.0000
  H   H3259     1.0  0.72824  0.05891  0.13817  1.0000
  H   H3260     1.0  0.95795  0.22820  0.02443  1.0000
  C   C1829     1.0  0.94650  0.23491  0.20779  1.0000
  S   S400      1.0  0.75514  0.12319  0.20824  1.0000
  H   H3261     1.0  0.92618  0.17941  0.01031  1.0000
  H   H3262     1.0  0.89525  0.12589  0.21467  1.0000
  C   C1830     1.0  0.86535  0.16092  0.24090  1.0000
  H   H3263     1.0  0.76089  0.04371  0.15898  1.0000
  H   H3264     1.0  0.72311  0.01486  0.14668  1.0000
  H   H3265     1.0  0.70987  0.45459  0.21189  1.0000
  H   H3266     1.0  0.93801  0.13792  0.04389  1.0000
  S   S401      1.0  0.69305  0.08239  0.11919  1.0000
  C   C1831     1.0  0.71841  0.08301  0.22244  1.0000
  S   S402      1.0  0.81455  0.04950  0.20430  1.0000
  N   N104      1.0  0.95024  0.17051  0.22612  1.0000
  C   C1832     1.0  0.96600  0.30445  0.09966  1.0000
  Fe  Fe203     1.0  0.66739  0.06249  0.14459  1.0000
  H   H3267     1.0  0.71214  0.12877  0.13030  1.0000
  H   H3268     1.0  0.95912  0.18741  0.03297  1.0000
  H   H3269     1.0  0.92012  0.16624  0.03250  1.0000
  H   H3270     1.0  0.93330  0.19606  0.23368  1.0000
  C   C1833     1.0  0.68626  0.48410  0.24569  1.0000
  C   C1834     1.0  0.72538  0.10478  0.14663  1.0000
  H   H3271     1.0  0.67527  0.40180  0.22541  1.0000
  H   H3272     1.0  0.76265  0.03999  0.13777  1.0000
  H   H3273     1.0  0.89166  0.14661  0.01992  1.0000
  S   S403      1.0  0.85798  0.15112  0.22357  1.0000
  H   H3274     1.0  0.96921  0.13301  0.22032  1.0000
  H   H3275     1.0  0.98867  0.39540  0.18392  1.0000
  C   C1835     1.0  0.97386  0.43275  0.15030  1.0000
  C   C1836     1.0  0.75114  0.04181  0.14932  1.0000
  H   H3276     1.0  0.92702  0.15074  0.18401  1.0000
  H   H3277     1.0  0.87642  0.04639  0.12514  1.0000
  H   H3278     1.0  0.95264  0.42407  0.22853  1.0000
  S   S404      1.0  0.82215  0.08237  0.24149  1.0000
  S   S405      1.0  0.95729  0.41264  0.14192  1.0000
  C   C1837     1.0  0.94936  0.19576  0.22482  1.0000
  H   H3279     1.0  0.90511  0.35823  0.20144  1.0000
  H   H3280     1.0  0.75345  0.08350  0.17031  1.0000
  H   H3281     1.0  0.93619  0.45477  0.21602  1.0000
  S   S406      1.0  0.74416  0.01526  0.08778  1.0000
  C   C1838     1.0  0.94987  0.42452  0.21568  1.0000
  Fe  Fe204     1.0  0.80602  0.07344  0.22093  1.0000
  S   S407      1.0  0.97510  0.29401  0.24717  1.0000
  H   H3282     1.0  0.89806  0.09866  0.22699  1.0000
  H   H3283     1.0  0.68844  0.06973  0.07093  1.0000
  H   H3284     1.0  0.95099  0.16054  0.16503  1.0000
  C   C1839     1.0  0.72977  0.10272  0.20835  1.0000
  H   H3285     1.0  0.96761  0.21460  0.19767  1.0000
  H   H3286     1.0  0.93199  0.39915  0.19274  1.0000
  H   H3287     1.0  0.72931  0.10326  0.15907  1.0000
  H   H3288     1.0  0.94538  0.45072  0.19498  1.0000
  H   H3289     1.0  0.73122  0.06411  0.15774  1.0000
  H   H3290     1.0  0.68911  0.05208  0.23346  1.0000
  C   C1840     1.0  0.69821  0.48838  0.22638  1.0000
  H   H3291     1.0  0.93268  0.41236  0.21744  1.0000
  C   C1841     1.0  0.92076  0.13118  0.01694  1.0000
  N   N105      1.0  0.94132  0.15052  0.01685  1.0000
  H   H3292     1.0  0.95369  0.38962  0.18048  1.0000
  H   H3293     1.0  0.94863  0.35761  0.20941  1.0000
  C   C1842     1.0  0.73181  0.01859  0.15663  1.0000
  C   C1843     1.0  0.79340  0.02260  0.20766  1.0000
  C   C1844     1.0  0.92782  0.15679  0.22410  1.0000
  N   N106      1.0  0.75861  0.08678  0.13530  1.0000
  C   C1845     1.0  0.90108  0.13898  0.01052  1.0000
  C   C1846     1.0  0.74639  0.10580  0.13209  1.0000
  C   C1847     1.0  0.77040  0.08407  0.11813  1.0000
  C   C1848     1.0  0.77701  0.09357  0.14416  1.0000
  C   C1849     1.0  0.76901  0.09749  0.16205  1.0000
  C   C1850     1.0  0.78386  0.10740  0.10384  1.0000
  C   C1851     1.0  0.93917  0.38390  0.19221  1.0000
  C   C1852     1.0  0.95074  0.14094  0.03140  1.0000
  C   C1853     1.0  0.78771  0.09773  0.17152  1.0000
  C   C1854     1.0  0.79785  0.10230  0.08821  1.0000
  H   H3294     1.0  0.83378  0.03330  0.15391  1.0000
  H   H3295     1.0  0.75889  0.12372  0.12855  1.0000
  H   H3296     1.0  0.73922  0.10489  0.12092  1.0000
  H   H3297     1.0  0.75762  0.07385  0.11283  1.0000
  H   H3298     1.0  0.78288  0.07354  0.11957  1.0000
  H   H3299     1.0  0.78673  0.08010  0.14534  1.0000
  H   H3300     1.0  0.79006  0.11039  0.13625  1.0000
  H   H3301     1.0  0.83933  0.21733  0.19516  1.0000
  H   H3302     1.0  0.76532  0.11496  0.16063  1.0000
  C   C1855     1.0  0.97926  0.46813  0.16061  1.0000
  S   S408      1.0  0.97784  0.16624  0.08203  1.0000
  H   H3303     1.0  0.79586  0.11960  0.10839  1.0000
  H   H3304     1.0  0.77183  0.11686  0.09936  1.0000
  S   S409      1.0  0.98201  0.16780  0.13015  1.0000
  C   C1856     1.0  0.68649  0.40926  0.23293  1.0000
  C   C1857     1.0  0.97292  0.36007  0.23451  1.0000
  C   C1858     1.0  0.89986  0.11765  0.22631  1.0000
  C   C1859     1.0  0.67016  0.03368  0.08607  1.0000
  H   H3305     1.0  0.78144  0.10090  0.18417  1.0000
  H   H3306     1.0  0.79170  0.08039  0.17383  1.0000
  H   H3307     1.0  0.80366  0.11211  0.16414  1.0000
  H   H3308     1.0  0.78640  0.09073  0.08278  1.0000
  H   H3309     1.0  0.80694  0.11924  0.07814  1.0000
  H   H3310     1.0  0.81096  0.09360  0.09157  1.0000
  C   C1860     1.0  0.97283  0.29183  0.08804  1.0000
  S   S410      1.0  0.98395  0.33241  0.09806  1.0000
  H   H3311     1.0  0.96574  0.17267  0.19966  1.0000
  H   H3312     1.0  0.83903  0.02078  0.13613  1.0000
  S   S411      1.0  0.79585  0.03138  0.00596  1.0000
  N   N107      1.0  0.68536  0.47476  0.21622  1.0000
  C   C1861     1.0  0.87943  0.49158  0.23355  1.0000
  H   H3313     1.0  0.71882  0.01944  0.16781  1.0000
  H   H3314     1.0  0.91302  0.15852  0.23351  1.0000
  H   H3315     1.0  0.73311  0.04891  0.20736  1.0000
  H   H3316     1.0  0.80771  0.01910  0.18266  1.0000
  H   H3317     1.0  0.69153  0.01226  0.19826  1.0000
  H   H3318     1.0  0.87266  0.49251  0.22212  1.0000
  H   H3319     1.0  0.96424  0.23448  0.13008  1.0000
  H   H3320     1.0  0.94343  0.10340  0.03054  1.0000
  H   H3321     1.0  0.94873  0.24616  0.19473  1.0000
  C   C1862     1.0  0.97072  0.38539  0.22778  1.0000
  H   H3322     1.0  0.66519  0.43054  0.24118  1.0000
  H   H3323     1.0  0.98579  0.42924  0.20515  1.0000
  C   C1863     1.0  0.88360  0.11784  0.00875  1.0000
  C   C1864     1.0  0.79467  0.01091  0.19473  1.0000
  H   H3324     1.0  0.70473  0.41095  0.22659  1.0000
  H   H3325     1.0  0.90757  0.15249  0.99796  1.0000
  H   H3326     1.0  0.85210  0.03390  0.23789  1.0000
  H   H3327     1.0  0.97886  0.46489  0.11411  1.0000
  H   H3328     1.0  0.96381  0.20557  0.22897  1.0000
  C   C1865     1.0  0.94420  0.21404  0.02285  1.0000
  C   C1866     1.0  0.98188  0.15064  0.21476  1.0000
  H   H3329     1.0  0.66835  0.06769  0.09075  1.0000
  S   S412      1.0  0.98974  0.32255  0.14425  1.0000
  S   S413      1.0  0.79234  0.00746  0.05476  1.0000
  H   H3330     1.0  0.98829  0.35720  0.22652  1.0000
  H   H3331     1.0  0.93931  0.22120  0.01109  1.0000
  H   H3332     1.0  0.68343  0.44293  0.20774  1.0000
  H   H3333     1.0  0.97289  0.12082  0.02039  1.0000
  C   C1867     1.0  0.68351  0.43334  0.23452  1.0000
  C   C1868     1.0  0.95354  0.16070  0.24350  1.0000
  H   H3334     1.0  0.79695  0.01533  0.13631  1.0000
  H   H3335     1.0  0.95585  0.14270  0.24502  1.0000
  H   H3336     1.0  0.85256  0.00837  0.21780  1.0000
  C   C1869     1.0  0.67115  0.05977  0.07978  1.0000
  C   C1870     1.0  0.99422  0.42953  0.15387  1.0000
  H   H3337     1.0  0.96984  0.17174  0.24473  1.0000
  H   H3338     1.0  0.86783  0.47640  0.24431  1.0000
  C   C1871     1.0  0.99419  0.46228  0.10585  1.0000
  H   H3339     1.0  0.98705  0.14595  0.18895  1.0000
  H   H3340     1.0  0.93135  0.26877  0.24384  1.0000
  H   H3341     1.0  0.71021  0.00690  0.11908  1.0000
  S   S414      1.0  0.79060  0.12017  0.24413  1.0000
  C   C1872     1.0  0.72402  0.01349  0.20401  1.0000
  C   C1873     1.0  0.98192  0.23767  0.13173  1.0000
  H   H3342     1.0  0.98885  0.29953  0.07802  1.0000
  H   H3343     1.0  0.98122  0.23812  0.14514  1.0000
  H   H3344     1.0  0.96487  0.14091  0.99802  1.0000
  H   H3345     1.0  0.89172  0.11038  0.99867  1.0000
  H   H3346     1.0  0.97623  0.16866  0.00118  1.0000
  H   H3347     1.0  0.98851  0.22270  0.12914  1.0000
  H   H3348     1.0  0.99005  0.27555  0.12210  1.0000
  H   H3349     1.0  0.86431  0.01152  0.16224  1.0000
  C   C1874     1.0  0.96010  0.15696  0.00031  1.0000
  H   H3350     1.0  0.84411  0.01222  0.19102  1.0000
  C   C1875     1.0  0.69727  0.00696  0.20995  1.0000
  H   H3351     1.0  0.73127  0.00793  0.21475  1.0000
  S   S415      1.0  0.66385  0.04980  0.20836  1.0000
  H   H3352     1.0  0.71721  0.50362  0.16297  1.0000
  S   S416      1.0  0.84899  0.00464  0.06811  1.0000
  S   S417      1.0  0.69827  0.04152  0.37536  1.0000
  H   H3353     1.0  0.95965  0.35762  0.26160  1.0000
  C   C1876     1.0  0.98938  0.48916  0.34595  1.0000
  C   C1877     1.0  0.83021  0.07830  0.48400  1.0000
  H   H3354     1.0  0.74148  0.12160  0.35452  1.0000
  H   H3355     1.0  0.84408  0.12931  0.26038  1.0000
  H   H3356     1.0  0.98809  0.45368  0.45007  1.0000
  S   S418      1.0  0.76911  0.07719  0.48853  1.0000
  S   S419      1.0  0.70332  0.06799  0.48257  1.0000
  H   H3357     1.0  0.83319  0.02193  0.25937  1.0000
  C   C1878     1.0  0.93375  0.15872  0.25929  1.0000
  H   H3358     1.0  0.98061  0.41118  0.43585  1.0000
  H   H3359     1.0  0.92528  0.14888  0.28706  1.0000
  H   H3360     1.0  0.76529  0.03847  0.47262  1.0000
  H   H3361     1.0  0.98910  0.35444  0.49045  1.0000
  C   C1879     1.0  0.74734  0.02689  0.41359  1.0000
  H   H3362     1.0  0.96967  0.49601  0.37602  1.0000
  S   S420      1.0  0.77540  0.06325  0.28365  1.0000
  C   C1880     1.0  0.76448  0.02531  0.45029  1.0000
  Fe  Fe205     1.0  0.66751  0.01093  0.39040  1.0000
  H   H3363     1.0  0.81920  0.09034  0.48203  1.0000
  H   H3364     1.0  0.72868  0.09139  0.35509  1.0000
  H   H3365     1.0  0.95533  0.46384  0.34927  1.0000
  C   C1881     1.0  0.96294  0.50379  0.36537  1.0000
  Fe  Fe206     1.0  0.95700  0.25989  0.26750  1.0000
  H   H3366     1.0  0.87538  0.22039  0.47781  1.0000
  H   H3367     1.0  0.90109  0.32613  0.35381  1.0000
  Fe  Fe207     1.0  0.94257  0.24024  0.30593  1.0000
  S   S421      1.0  0.93618  0.20275  0.30402  1.0000
  S   S422      1.0  0.93994  0.24754  0.33191  1.0000
  H   H3368     1.0  0.91172  0.27565  0.36057  1.0000
  Fe  Fe208     1.0  0.91913  0.21364  0.28342  1.0000
  S   S423      1.0  0.88611  0.18588  0.28556  1.0000
  S   S424      1.0  0.92273  0.25042  0.28712  1.0000
  C   C1882     1.0  0.85623  0.14653  0.25775  1.0000
  S   S425      1.0  0.93979  0.29357  0.41582  1.0000
  C   C1883     1.0  0.91861  0.28979  0.47241  1.0000
  C   C1884     1.0  0.91688  0.26911  0.46704  1.0000
  C   C1885     1.0  0.92241  0.27037  0.44958  1.0000
  C   C1886     1.0  0.93047  0.29242  0.43742  1.0000
  C   C1887     1.0  0.93169  0.31319  0.44265  1.0000
  C   C1888     1.0  0.92526  0.31181  0.46019  1.0000
  H   H3369     1.0  0.91114  0.25210  0.47627  1.0000
  H   H3370     1.0  0.92118  0.25427  0.44554  1.0000
  H   H3371     1.0  0.93749  0.33026  0.43323  1.0000
  H   H3372     1.0  0.92618  0.32782  0.46429  1.0000
  C   C1889     1.0  0.96052  0.27845  0.34759  1.0000
  H   H3373     1.0  0.95819  0.26282  0.35772  1.0000
  H   H3374     1.0  0.71576  0.02821  0.42942  1.0000
  Fe  Fe209     1.0  0.68444  0.06036  0.39408  1.0000
  H   H3375     1.0  0.85019  0.24332  0.41514  1.0000
  C   C1890     1.0  0.98916  0.46080  0.39276  1.0000
  C   C1891     1.0  0.87902  0.17649  0.26804  1.0000
  C   C1892     1.0  0.86318  0.15424  0.27122  1.0000
  H   H3376     1.0  0.96871  0.31774  0.46563  1.0000
  H   H3377     1.0  0.95196  0.24855  0.40587  1.0000
  H   H3378     1.0  0.85980  0.50224  0.30520  1.0000
  H   H3379     1.0  0.85632  0.14287  0.28418  1.0000
  H   H3380     1.0  0.73172  0.04679  0.39663  1.0000
  C   C1893     1.0  0.87880  0.23915  0.38610  1.0000
  H   H3381     1.0  0.73398  0.01895  0.39249  1.0000
  H   H3382     1.0  0.85404  0.27590  0.42986  1.0000
  H   H3383     1.0  0.87407  0.28133  0.39807  1.0000
  H   H3384     1.0  0.90681  0.31138  0.38212  1.0000
  C   C1894     1.0  0.85896  0.22439  0.48278  1.0000
  H   H3385     1.0  0.86569  0.19303  0.38255  1.0000
  S   S426      1.0  0.68339  0.06894  0.33150  1.0000
  H   H3386     1.0  0.89747  0.27987  0.40704  1.0000
  S   S427      1.0  0.95176  0.22432  0.26200  1.0000
  C   C1895     1.0  0.95381  0.27607  0.33280  1.0000
  H   H3387     1.0  0.87561  0.20105  0.35948  1.0000
  H   H3388     1.0  0.90324  0.22428  0.37112  1.0000
  H   H3389     1.0  0.81924  0.05961  0.48885  1.0000
  C   C1896     1.0  0.70944  0.07777  0.42525  1.0000
  H   H3390     1.0  0.85283  0.21176  0.36969  1.0000
  C   C1897     1.0  0.70815  0.06569  0.31822  1.0000
  C   C1898     1.0  0.71283  0.07391  0.30033  1.0000
  C   C1899     1.0  0.73310  0.07263  0.28949  1.0000
  C   C1900     1.0  0.74884  0.06326  0.29655  1.0000
  C   C1901     1.0  0.74385  0.05449  0.31440  1.0000
  C   C1902     1.0  0.72357  0.05567  0.32521  1.0000
  H   H3391     1.0  0.70096  0.08167  0.29484  1.0000
  H   H3392     1.0  0.73680  0.07935  0.27572  1.0000
  H   H3393     1.0  0.75586  0.04703  0.31993  1.0000
  H   H3394     1.0  0.72008  0.04914  0.33894  1.0000
  H   H3395     1.0  0.98829  0.48255  0.42492  1.0000
  C   C1903     1.0  0.72883  0.08706  0.43058  1.0000
  C   C1904     1.0  0.72740  0.08395  0.44813  1.0000
  C   C1905     1.0  0.70644  0.07178  0.46043  1.0000
  H   H3396     1.0  0.74495  0.09689  0.42107  1.0000
  H   H3397     1.0  0.74235  0.09134  0.45212  1.0000
  S   S428      1.0  0.99499  0.19523  0.28241  1.0000
  S   S429      1.0  0.81027  0.13683  0.49045  1.0000
  H   H3398     1.0  0.75743  0.09984  0.35740  1.0000
  H   H3399     1.0  0.92962  0.34082  0.35440  1.0000
  C   C1906     1.0  0.95615  0.21634  0.45227  1.0000
  N   N108      1.0  0.78986  0.13783  0.30595  1.0000
  C   C1907     1.0  0.79666  0.11657  0.30192  1.0000
  C   C1908     1.0  0.77619  0.14668  0.29408  1.0000
  C   C1909     1.0  0.81183  0.15737  0.30250  1.0000
  C   C1910     1.0  0.77673  0.13264  0.32452  1.0000
  C   C1911     1.0  0.75460  0.11150  0.33130  1.0000
  C   C1912     1.0  0.81103  0.10565  0.31295  1.0000
  C   C1913     1.0  0.80888  0.18184  0.30420  1.0000
  C   C1914     1.0  0.75998  0.12790  0.28852  1.0000
  C   C1915     1.0  0.74512  0.13895  0.27855  1.0000
  C   C1916     1.0  0.81586  0.08377  0.30807  1.0000
  C   C1917     1.0  0.83227  0.20045  0.29895  1.0000
  H   H3400     1.0  0.80660  0.12128  0.28817  1.0000
  H   H3401     1.0  0.78133  0.10188  0.30330  1.0000
  H   H3402     1.0  0.76571  0.15731  0.29984  1.0000
  H   H3403     1.0  0.78805  0.15894  0.28176  1.0000
  H   H3404     1.0  0.82285  0.16026  0.28930  1.0000
  H   H3405     1.0  0.82221  0.15240  0.31138  1.0000
  H   H3406     1.0  0.78821  0.12984  0.33298  1.0000
  H   H3407     1.0  0.77111  0.14825  0.32690  1.0000
  H   H3408     1.0  0.75776  0.09515  0.32847  1.0000
  H   H3409     1.0  0.74090  0.11600  0.32564  1.0000
  H   H3410     1.0  0.82797  0.11837  0.31102  1.0000
  H   H3411     1.0  0.80167  0.10004  0.32678  1.0000
  H   H3412     1.0  0.80040  0.18071  0.31767  1.0000
  H   H3413     1.0  0.79850  0.18847  0.29591  1.0000
  H   H3414     1.0  0.77028  0.11984  0.28000  1.0000
  H   H3415     1.0  0.74839  0.11352  0.29962  1.0000
  S   S430      1.0  0.97293  0.41396  0.39422  1.0000
  H   H3416     1.0  0.73359  0.14632  0.28677  1.0000
  H   H3417     1.0  0.91938  0.50161  0.38539  1.0000
  H   H3418     1.0  0.82481  0.08825  0.29419  1.0000
  H   H3419     1.0  0.82699  0.07686  0.31556  1.0000
  H   H3420     1.0  0.79951  0.06956  0.31097  1.0000
  H   H3421     1.0  0.82983  0.21777  0.30032  1.0000
  H   H3422     1.0  0.84323  0.19511  0.30723  1.0000
  H   H3423     1.0  0.84138  0.20279  0.28536  1.0000
  C   C1918     1.0  0.93898  0.23199  0.40658  1.0000
  C   C1919     1.0  0.90126  0.28015  0.37146  1.0000
  C   C1920     1.0  0.98117  0.44527  0.34734  1.0000
  H   H3424     1.0  0.86242  0.24336  0.38498  1.0000
  H   H3425     1.0  0.88518  0.28206  0.36799  1.0000
  H   H3426     1.0  0.91053  0.24315  0.41806  1.0000
  C   C1921     1.0  0.99503  0.24670  0.44557  1.0000
  H   H3427     1.0  0.87650  0.26634  0.43783  1.0000
  N   N109      1.0  0.89536  0.26057  0.38788  1.0000
  H   H3428     1.0  0.84523  0.50399  0.25234  1.0000
  H   H3429     1.0  0.90316  0.21955  0.40799  1.0000
  C   C1922     1.0  0.91805  0.32357  0.35475  1.0000
  H   H3430     1.0  0.94511  0.22520  0.39550  1.0000
  H   H3431     1.0  0.96423  0.25205  0.43732  1.0000
  H   H3432     1.0  0.79213  0.04888  0.45604  1.0000
  S   S431      1.0  0.91330  0.28840  0.49427  1.0000
  H   H3433     1.0  0.97625  0.30226  0.36054  1.0000
  H   H3434     1.0  0.97062  0.28712  0.45010  1.0000
  C   C1923     1.0  0.86085  0.26051  0.43351  1.0000
  H   H3435     1.0  0.99243  0.31443  0.43931  1.0000
  C   C1924     1.0  0.96869  0.24261  0.44857  1.0000
  H   H3436     1.0  0.85913  0.50176  0.27577  1.0000
  C   C1925     1.0  0.93964  0.14991  0.27604  1.0000
  H   H3437     1.0  0.76864  0.06111  0.45320  1.0000
  H   H3438     1.0  0.98133  0.41592  0.45596  1.0000
  H   H3439     1.0  0.93726  0.21854  0.41859  1.0000
  H   H3440     1.0  0.69397  0.49276  0.26838  1.0000
  H   H3441     1.0  0.95974  0.20568  0.46355  1.0000
  C   C1926     1.0  0.96302  0.37055  0.46539  1.0000
  H   H3442     1.0  0.73425  0.12515  0.27435  1.0000
  H   H3443     1.0  0.87389  0.22405  0.39773  1.0000
  C   C1927     1.0  0.68712  0.06239  0.45509  1.0000
  H   H3444     1.0  0.89047  0.24280  0.35825  1.0000
  H   H3445     1.0  0.73100  0.01216  0.46782  1.0000
  H   H3446     1.0  0.97196  0.33449  0.31037  1.0000
  H   H3447     1.0  0.96161  0.20969  0.44100  1.0000
  C   C1928     1.0  0.98678  0.29879  0.45069  1.0000
  H   H3448     1.0  0.96172  0.24845  0.45993  1.0000
  H   H3449     1.0  0.97665  0.33777  0.25745  1.0000
  C   C1929     1.0  0.96875  0.31884  0.32079  1.0000
  H   H3450     1.0  0.93000  0.27183  0.39023  1.0000
  Fe  Fe210     1.0  0.96568  0.32803  0.40079  1.0000
  H   H3451     1.0  0.92600  0.25022  0.37906  1.0000
  H   H3452     1.0  0.96104  0.35146  0.47072  1.0000
  H   H3453     1.0  0.94956  0.37223  0.45857  1.0000
  H   H3454     1.0  0.66914  0.07340  0.27849  1.0000
  C   C1930     1.0  0.91527  0.30515  0.37145  1.0000
  C   C1931     1.0  0.86652  0.25006  0.41839  1.0000
  S   S432      1.0  0.95894  0.35504  0.38092  1.0000
  H   H3455     1.0  0.98232  0.23777  0.34673  1.0000
  C   C1932     1.0  0.77311  0.04470  0.45853  1.0000
  H   H3456     1.0  0.84229  0.08050  0.47141  1.0000
  H   H3457     1.0  0.96033  0.37855  0.47630  1.0000
  H   H3458     1.0  0.87280  0.23464  0.42279  1.0000
  C   C1933     1.0  0.88811  0.19092  0.25121  1.0000
  C   C1934     1.0  0.91566  0.23665  0.40667  1.0000
  C   C1935     1.0  0.91746  0.25549  0.39017  1.0000
  H   H3459     1.0  0.91753  0.14599  0.25956  1.0000
  C   C1936     1.0  0.99477  0.44079  0.38894  1.0000
  S   S433      1.0  0.97690  0.25228  0.28656  1.0000
  H   H3460     1.0  0.87337  0.24878  0.49549  1.0000
  H   H3461     1.0  0.93279  0.30515  0.37258  1.0000
  C   C1937     1.0  0.74510  0.10585  0.35075  1.0000
  C   C1938     1.0  0.86915  0.20749  0.37068  1.0000
  H   H3462     1.0  0.84755  0.24684  0.44438  1.0000
  S   S434      1.0  0.71154  0.08290  0.40313  1.0000
  H   H3463     1.0  0.93726  0.21391  0.45513  1.0000
  H   H3464     1.0  0.75923  0.04407  0.38622  1.0000
  C   C1939     1.0  0.74272  0.03460  0.39619  1.0000
  H   H3465     1.0  0.99134  0.21809  0.33491  1.0000
  C   C1940     1.0  0.73789  0.01901  0.45359  1.0000
  C   C1941     1.0  0.97534  0.32114  0.33570  1.0000
  C   C1942     1.0  0.88406  0.26910  0.40253  1.0000
  H   H3466     1.0  0.94225  0.13201  0.27724  1.0000
  H   H3467     1.0  0.77350  0.03145  0.43644  1.0000
  H   H3468     1.0  0.92579  0.31795  0.34349  1.0000
  S   S435      1.0  0.98659  0.35447  0.41093  1.0000
  C   C1943     1.0  0.98135  0.30749  0.46667  1.0000
  H   H3469     1.0  0.75885  0.01535  0.41214  1.0000
  H   H3470     1.0  0.67359  0.05807  0.43362  1.0000
  C   C1944     1.0  0.72457  0.01424  0.42787  1.0000
  Fe  Fe211     1.0  0.96890  0.21590  0.28283  1.0000
  H   H3471     1.0  0.85634  0.16612  0.48422  1.0000
  H   H3472     1.0  0.73320  0.03593  0.45018  1.0000
  H   H3473     1.0  0.96655  0.45920  0.36739  1.0000
  H   H3474     1.0  0.93044  0.17604  0.25930  1.0000
  H   H3475     1.0  0.69514  0.01790  0.46598  1.0000
  C   C1945     1.0  0.98703  0.38258  0.45304  1.0000
  Fe  Fe212     1.0  0.98305  0.38166  0.38912  1.0000
  H   H3476     1.0  0.95548  0.16238  0.27664  1.0000
  H   H3477     1.0  0.97369  0.29222  0.47827  1.0000
  Fe  Fe213     1.0  0.67501  0.05340  0.36026  1.0000
  C   C1946     1.0  0.68865  0.06515  0.43759  1.0000
  C   C1947     1.0  0.88724  0.22948  0.37065  1.0000
  C   C1948     1.0  0.95794  0.29635  0.31935  1.0000
  H   H3478     1.0  0.97143  0.45967  0.39861  1.0000
  H   H3479     1.0  0.98828  0.28553  0.42310  1.0000
  H   H3480     1.0  0.95275  0.29471  0.30788  1.0000
  H   H3481     1.0  0.93667  0.50007  0.34250  1.0000
  H   H3482     1.0  0.85712  0.23886  0.47282  1.0000
  Fe  Fe214     1.0  0.78621  0.08136  0.25526  1.0000
  H   H3483     1.0  0.71749  0.50083  0.33670  1.0000
  H   H3484     1.0  0.85379  0.10368  0.49121  1.0000
  H   H3485     1.0  0.96844  0.42759  0.35345  1.0000
  H   H3486     1.0  0.75646  0.04310  0.41643  1.0000
  H   H3487     1.0  0.94774  0.48969  0.36567  1.0000
  H   H3488     1.0  0.67842  0.46509  0.25249  1.0000
  C   C1949     1.0  0.97138  0.46434  0.35317  1.0000
  H   H3489     1.0  0.75612  0.15321  0.26695  1.0000
  H   H3490     1.0  0.95507  0.49008  0.32715  1.0000
  C   C1950     1.0  0.97106  0.30084  0.34910  1.0000
  C   C1951     1.0  0.97513  0.35593  0.25285  1.0000
  S   S436      1.0  0.97453  0.20771  0.49425  1.0000
  H   H3491     1.0  0.84454  0.20821  0.48527  1.0000
  S   S437      1.0  0.99011  0.34921  0.33697  1.0000
  H   H3492     1.0  0.99075  0.36882  0.25338  1.0000
  S   S438      1.0  0.66348  0.07494  0.37766  1.0000
  H   H3493     1.0  0.71651  0.48456  0.25532  1.0000
  H   H3494     1.0  0.98491  0.44863  0.33319  1.0000
  H   H3495     1.0  0.67084  0.05299  0.46453  1.0000
  C   C1952     1.0  0.70329  0.49435  0.25499  1.0000
  H   H3496     1.0  0.68178  0.01158  0.44953  1.0000
  Fe  Fe215     1.0  0.99087  0.35245  0.36361  1.0000
  C   C1953     1.0  0.99043  0.40949  0.44570  1.0000
  H   H3497     1.0  0.98877  0.37392  0.44244  1.0000
  H   H3498     1.0  0.76958  0.00955  0.45617  1.0000
  Fe  Fe216     1.0  0.73222  0.07827  0.49479  1.0000
  H   H3499     1.0  0.90006  0.20824  0.24866  1.0000
  H   H3500     1.0  0.99551  0.32198  0.28418  1.0000
  H   H3501     1.0  0.85625  0.07403  0.49703  1.0000
  C   C1954     1.0  0.84380  0.08467  0.49655  1.0000
  Fe  Fe217     1.0  0.73270  0.08493  0.52993  1.0000
  S   S439      1.0  0.76907  0.08363  0.52715  1.0000
  C   C1955     1.0  0.67546  0.05980  0.60117  1.0000
  C   C1956     1.0  0.82529  0.14754  0.50451  1.0000
  C   C1957     1.0  0.83591  0.23588  0.50731  1.0000
  H   H3502     1.0  0.76535  0.24919  0.53317  1.0000
  N   N110      1.0  0.83917  0.08030  0.52893  1.0000
  S   S440      1.0  0.72236  0.05268  0.52099  1.0000
  H   H3503     1.0  0.71373  0.01614  0.72808  1.0000
  H   H3504     1.0  0.86350  0.21837  0.50827  1.0000
  H   H3505     1.0  0.97077  0.18418  0.55328  1.0000
  Fe  Fe218     1.0  0.89902  0.20548  0.53108  1.0000
  S   S441      1.0  0.90129  0.24057  0.53729  1.0000
  S   S442      1.0  0.86563  0.17535  0.54038  1.0000
  C   C1958     1.0  0.82761  0.08084  0.51460  1.0000
  Fe  Fe219     1.0  0.93623  0.24017  0.54087  1.0000
  S   S443      1.0  0.95050  0.24941  0.56255  1.0000
  H   H3506     1.0  0.86953  0.30783  0.52563  1.0000
  S   S444      1.0  0.93212  0.20322  0.53761  1.0000
  H   H3507     1.0  0.98676  0.33137  0.50908  1.0000
  C   C1959     1.0  0.67660  0.02928  0.58634  1.0000
  C   C1960     1.0  0.86071  0.17055  0.50862  1.0000
  H   H3508     1.0  0.87449  0.09198  0.54449  1.0000
  H   H3509     1.0  0.98140  0.49918  0.58121  1.0000
  C   C1961     1.0  0.68884  0.07708  0.58609  1.0000
  Fe  Fe220     1.0  0.75958  0.05389  0.51532  1.0000
  C   C1962     1.0  0.85873  0.10291  0.52363  1.0000
  C   C1963     1.0  0.76662  0.23101  0.53822  1.0000
  C   C1964     1.0  0.80130  0.05831  0.55330  1.0000
  C   C1965     1.0  0.98070  0.32569  0.56502  1.0000
  C   C1966     1.0  0.98262  0.30620  0.57670  1.0000
  C   C1967     1.0  0.97311  0.28299  0.57586  1.0000
  C   C1968     1.0  0.96194  0.27900  0.56319  1.0000
  C   C1969     1.0  0.96046  0.29854  0.55128  1.0000
  C   C1970     1.0  0.96967  0.32174  0.55227  1.0000
  H   H3510     1.0  0.96337  0.22263  0.59473  1.0000
  H   H3511     1.0  0.97432  0.26806  0.58517  1.0000
  H   H3512     1.0  0.95194  0.29576  0.54145  1.0000
  H   H3513     1.0  0.96804  0.33670  0.54321  1.0000
  H   H3514     1.0  0.73558  0.00654  0.50707  1.0000
  S   S445      1.0  0.91589  0.22140  0.50309  1.0000
  H   H3515     1.0  0.67111  0.04626  0.52629  1.0000
  H   H3516     1.0  0.86018  0.11470  0.54680  1.0000
  H   H3517     1.0  0.98859  0.27541  0.52887  1.0000
  H   H3518     1.0  0.83642  0.27413  0.54483  1.0000
  H   H3519     1.0  0.84487  0.19968  0.56771  1.0000
  H   H3520     1.0  0.85031  0.05524  0.54577  1.0000
  H   H3521     1.0  0.99098  0.30897  0.58661  1.0000
  H   H3522     1.0  0.90170  0.13172  0.53980  1.0000
  H   H3523     1.0  0.82247  0.21969  0.50792  1.0000
  C   C1971     1.0  0.85283  0.27053  0.53940  1.0000
  H   H3524     1.0  0.85302  0.27697  0.51257  1.0000
  C   C1972     1.0  0.81501  0.14200  0.52216  1.0000
  C   C1973     1.0  0.82758  0.15062  0.53297  1.0000
  C   C1974     1.0  0.85044  0.16506  0.52626  1.0000
  H   H3525     1.0  0.86940  0.25801  0.51955  1.0000
  H   H3526     1.0  0.67488  0.00826  0.54570  1.0000
  H   H3527     1.0  0.79733  0.13121  0.52748  1.0000
  H   H3528     1.0  0.81947  0.14616  0.54659  1.0000
  H   H3529     1.0  0.68218  0.48446  0.60457  1.0000
  H   H3530     1.0  0.76911  0.04612  0.57347  1.0000
  S   S446      1.0  0.71268  0.09348  0.55255  1.0000
  H   H3531     1.0  0.69957  0.13290  0.50075  1.0000
  H   H3532     1.0  0.89135  0.14388  0.52218  1.0000
  H   H3533     1.0  0.80146  0.20801  0.55803  1.0000
  H   H3534     1.0  0.98176  0.20105  0.53113  1.0000
  C   C1975     1.0  0.82026  0.21397  0.55653  1.0000
  H   H3535     1.0  0.86674  0.06359  0.52415  1.0000
  H   H3536     1.0  0.69640  0.04164  0.55965  1.0000
  H   H3537     1.0  0.83061  0.08255  0.55522  1.0000
  H   H3538     1.0  0.81324  0.06456  0.51743  1.0000
  N   N111      1.0  0.83304  0.24045  0.52479  1.0000
  H   H3539     1.0  0.99386  0.49037  0.61157  1.0000
  H   H3540     1.0  0.67415  0.13358  0.51578  1.0000
  H   H3541     1.0  0.90627  0.12137  0.52080  1.0000
  H   H3542     1.0  0.75175  0.21804  0.53675  1.0000
  H   H3543     1.0  0.80682  0.24910  0.54235  1.0000
  C   C1976     1.0  0.98497  0.18818  0.54146  1.0000
  H   H3544     1.0  0.69008  0.08955  0.51175  1.0000
  H   H3545     1.0  0.81152  0.26374  0.52063  1.0000
  H   H3546     1.0  0.80721  0.04318  0.55914  1.0000
  H   H3547     1.0  0.76560  0.22772  0.55209  1.0000
  C   C1977     1.0  0.98379  0.16527  0.53608  1.0000
  H   H3548     1.0  0.67167  0.01082  0.58642  1.0000
  H   H3549     1.0  0.66223  0.43792  0.62300  1.0000
  H   H3550     1.0  0.73961  0.01791  0.73505  1.0000
  C   C1978     1.0  0.69653  0.07066  0.57112  1.0000
  C   C1979     1.0  0.87209  0.29353  0.53534  1.0000
  C   C1980     1.0  0.78391  0.06233  0.56772  1.0000
  H   H3551     1.0  0.70980  0.48902  0.57699  1.0000
  H   H3552     1.0  0.77718  0.07727  0.56271  1.0000
  C   C1981     1.0  0.99451  0.12134  0.72639  1.0000
  H   H3553     1.0  0.81552  0.09641  0.54205  1.0000
  Fe  Fe221     1.0  0.77654  0.10723  0.50077  1.0000
  C   C1982     1.0  0.83544  0.03587  0.52947  1.0000
  C   C1983     1.0  0.98953  0.11478  0.74593  1.0000
  H   H3554     1.0  0.78875  0.23025  0.51475  1.0000
  H   H3555     1.0  0.69718  0.12483  0.52342  1.0000
  C   C1984     1.0  0.87104  0.10810  0.53747  1.0000
  H   H3556     1.0  0.87838  0.18130  0.50328  1.0000
  H   H3557     1.0  0.67185  0.08243  0.54095  1.0000
  H   H3558     1.0  0.88917  0.29078  0.53038  1.0000
  C   C1985     1.0  0.97780  0.21672  0.59852  1.0000
  H   H3559     1.0  0.66738  0.09814  0.50435  1.0000
  H   H3560     1.0  0.79208  0.05323  0.54400  1.0000
  Fe  Fe222     1.0  0.92029  0.25631  0.50943  1.0000
  C   C1986     1.0  0.69966  0.50145  0.57796  1.0000
  C   C1987     1.0  0.66911  0.03593  0.60136  1.0000
  H   H3561     1.0  0.81612  0.19128  0.58179  1.0000
  H   H3562     1.0  0.82204  0.17762  0.56461  1.0000
  H   H3563     1.0  0.66969  0.06501  0.61270  1.0000
  H   H3564     1.0  0.78954  0.20948  0.53351  1.0000
  H   H3565     1.0  0.81926  0.09548  0.51346  1.0000
  C   C1988     1.0  0.99308  0.21167  0.56893  1.0000
  C   C1989     1.0  0.89399  0.12742  0.52950  1.0000
  H   H3566     1.0  0.96705  0.15920  0.53322  1.0000
  C   C1990     1.0  0.85254  0.26177  0.52317  1.0000
  C   C1991     1.0  0.83392  0.21873  0.53750  1.0000
  H   H3567     1.0  0.82729  0.20229  0.53377  1.0000
  H   H3568     1.0  0.98234  0.22543  0.60838  1.0000
  H   H3569     1.0  0.85215  0.21942  0.53714  1.0000
  C   C1992     1.0  0.68740  0.12396  0.51365  1.0000
  C   C1993     1.0  0.84878  0.05927  0.53238  1.0000
  C   C1994     1.0  0.69057  0.04669  0.57122  1.0000
  H   H3570     1.0  0.69335  0.09555  0.58607  1.0000
  H   H3571     1.0  0.79199  0.06629  0.57793  1.0000
  H   H3572     1.0  0.81674  0.03086  0.53564  1.0000
  C   C1995     1.0  0.81047  0.24639  0.52934  1.0000
  C   C1996     1.0  0.84436  0.01512  0.53643  1.0000
  C   C1997     1.0  0.72125  0.00767  0.73793  1.0000
  C   C1998     1.0  0.82214  0.08063  0.54486  1.0000
  S   S447      1.0  0.99146  0.35522  0.56600  1.0000
  H   H3573     1.0  0.98963  0.19232  0.57490  1.0000
  H   H3574     1.0  0.83756  0.03768  0.51559  1.0000
  C   C1999     1.0  0.78910  0.22793  0.52835  1.0000
  C   C2000     1.0  0.82623  0.19444  0.56833  1.0000
  H   H3575     1.0  0.66965  0.01362  0.51073  1.0000
  H   H3576     1.0  0.82361  0.22989  0.56127  1.0000
  H   H3577     1.0  0.85638  0.25723  0.54923  1.0000
  Fe  Fe223     1.0  0.94916  0.22182  0.50981  1.0000
  H   H3578     1.0  0.87230  0.10294  0.51240  1.0000
  H   H3579     1.0  0.97615  0.21383  0.56737  1.0000
  S   S448      1.0  0.77401  0.02290  0.52101  1.0000
  H   H3580     1.0  0.84148  0.01165  0.55054  1.0000
  S   S449      1.0  0.74052  0.11086  0.50421  1.0000
  H   H3581     1.0  0.87216  0.29934  0.54718  1.0000
  S   S450      1.0  0.95539  0.25838  0.51330  1.0000
  H   H3582     1.0  0.85252  0.11853  0.51921  1.0000
  H   H3583     1.0  0.97201  0.19721  0.60426  1.0000
  H   H3584     1.0  0.97832  0.12080  0.72251  1.0000
  H   H3585     1.0  0.98521  0.15116  0.54653  1.0000
  C   C2001     1.0  0.84819  0.16182  0.49783  1.0000
  H   H3586     1.0  0.86304  0.01889  0.53018  1.0000
  C   C2002     1.0  0.68399  0.49885  0.59358  1.0000
  H   H3587     1.0  0.98745  0.23466  0.53995  1.0000
  C   C2003     1.0  0.67615  0.09816  0.51464  1.0000
  C   C2004     1.0  0.85931  0.23205  0.49918  1.0000
  H   H3588     1.0  0.83345  0.25083  0.49798  1.0000
  S   S451      1.0  0.93317  0.10869  0.83055  1.0000
  H   H3589     1.0  0.90496  0.06349  0.83118  1.0000
  H   H3590     1.0  0.80246  0.08878  0.85132  1.0000
  S   S452      1.0  0.85162  0.07975  0.79670  1.0000
  S   S453      1.0  0.74501  0.02250  0.84268  1.0000
  H   H3591     1.0  0.91840  0.26540  0.81841  1.0000
  Fe  Fe224     1.0  0.77588  0.01798  0.82496  1.0000
  C   C2005     1.0  0.87233  0.08734  0.80795  1.0000
  C   C2006     1.0  0.88225  0.11136  0.80657  1.0000
  C   C2007     1.0  0.90015  0.11812  0.81416  1.0000
  C   C2008     1.0  0.90873  0.10096  0.82277  1.0000
  C   C2009     1.0  0.89842  0.07691  0.82454  1.0000
  C   C2010     1.0  0.88015  0.07010  0.81732  1.0000
  H   H3592     1.0  0.87622  0.12483  0.79944  1.0000
  H   H3593     1.0  0.90758  0.13660  0.81310  1.0000
  H   H3594     1.0  0.87281  0.05158  0.81832  1.0000
  H   H3595     1.0  0.95042  0.20932  0.91698  1.0000
  H   H3596     1.0  0.74689  0.02604  0.88312  1.0000
  S   S454      1.0  0.93433  0.22417  0.82432  1.0000
  H   H3597     1.0  0.70276  0.49173  0.85134  1.0000
  C   C2011     1.0  0.70253  0.02151  0.83828  1.0000
  H   H3598     1.0  0.67006  0.00972  0.77797  1.0000
  C   C2012     1.0  0.94769  0.25392  0.82283  1.0000
  H   H3599     1.0  0.70829  0.04059  0.83581  1.0000
  H   H3600     1.0  0.90288  0.06784  0.77841  1.0000
  Fe  Fe225     1.0  0.82619  0.04304  0.80361  1.0000
  C   C2013     1.0  0.95468  0.10291  0.78098  1.0000
  C   C2014     1.0  0.70783  0.00745  0.75574  1.0000
  H   H3601     1.0  0.93550  0.10343  0.76108  1.0000
  S   S455      1.0  0.98761  0.20522  0.83571  1.0000
  H   H3602     1.0  0.81747  0.06883  0.89586  1.0000
  H   H3603     1.0  0.87327  0.10114  0.86064  1.0000
  H   H3604     1.0  0.97824  0.21741  0.90188  1.0000
  H   H3605     1.0  0.89237  0.18124  0.89391  1.0000
  H   H3606     1.0  0.66898  0.02137  0.83489  1.0000
  H   H3607     1.0  0.94085  0.20061  0.89390  1.0000
  H   H3608     1.0  0.69675  0.01338  0.92235  1.0000
  H   H3609     1.0  0.66965  0.00956  0.87963  1.0000
  H   H3610     1.0  0.91794  0.06344  0.79465  1.0000
  C   C2015     1.0  0.97576  0.24541  0.78398  1.0000
  C   C2016     1.0  0.97010  0.26114  0.82438  1.0000
  N   N112      1.0  0.95236  0.23873  0.88281  1.0000
  C   C2017     1.0  0.80882  0.05578  0.86335  1.0000
  H   H3611     1.0  0.88220  0.06402  0.86295  1.0000
  H   H3612     1.0  0.85834  0.04032  0.85071  1.0000
  S   S456      1.0  0.98016  0.33164  0.81893  1.0000
  H   H3613     1.0  0.75611  0.06947  0.78638  1.0000
  H   H3614     1.0  0.92550  0.25637  0.88416  1.0000
  C   C2018     1.0  0.90608  0.18253  0.88240  1.0000
  H   H3615     1.0  0.97877  0.10616  0.80576  1.0000
  C   C2019     1.0  0.71091  0.02015  0.78995  1.0000
  H   H3616     1.0  0.89779  0.17769  0.87250  1.0000
  C   C2020     1.0  0.80453  0.04046  0.91905  1.0000
  H   H3617     1.0  0.74717  0.03554  0.77429  1.0000
  Fe  Fe226     1.0  0.95439  0.19750  0.82860  1.0000
  H   H3618     1.0  0.97126  0.28654  0.85780  1.0000
  C   C2021     1.0  0.80212  0.07115  0.84909  1.0000
  H   H3619     1.0  0.96426  0.13401  0.74781  1.0000
  C   C2022     1.0  0.92222  0.20776  0.87528  1.0000
  C   C2023     1.0  0.93691  0.17491  0.77450  1.0000
  H   H3620     1.0  0.96871  0.23949  0.85691  1.0000
  C   C2024     1.0  0.97890  0.48405  0.84574  1.0000
  H   H3621     1.0  0.95889  0.16779  0.75390  1.0000
  H   H3622     1.0  0.83169  0.02057  0.86379  1.0000
  H   H3623     1.0  0.68509  0.49624  0.79816  1.0000
  C   C2025     1.0  0.74186  0.06049  0.87453  1.0000
  H   H3624     1.0  0.98656  0.38102  0.89711  1.0000
  H   H3625     1.0  0.93649  0.30757  0.81601  1.0000
  C   C2026     1.0  0.92020  0.07096  0.78077  1.0000
  H   H3626     1.0  0.93483  0.29601  0.85438  1.0000
  S   S457      1.0  0.93766  0.16409  0.84997  1.0000
  H   H3627     1.0  0.92915  0.29962  0.87587  1.0000
  N   N113      1.0  0.84488  0.05044  0.87345  1.0000
  H   H3628     1.0  0.70346  0.03102  0.78134  1.0000
  C   C2027     1.0  0.89521  0.10057  0.87746  1.0000
  C   C2028     1.0  0.82349  0.05443  0.90259  1.0000
  C   C2029     1.0  0.93565  0.27078  0.81980  1.0000
  S   S458      1.0  0.80982  0.02448  0.83122  1.0000
  H   H3629     1.0  0.97542  0.16149  0.77811  1.0000
  C   C2030     1.0  0.96589  0.22438  0.90972  1.0000
  C   C2031     1.0  0.82929  0.03807  0.89124  1.0000
  H   H3630     1.0  0.98345  0.16241  0.96682  1.0000
  H   H3631     1.0  0.94133  0.15539  0.98082  1.0000
  H   H3632     1.0  0.90987  0.09855  0.86807  1.0000
  H   H3633     1.0  0.97353  0.26063  0.89464  1.0000
  H   H3634     1.0  0.91978  0.21547  0.89986  1.0000
  H   H3635     1.0  0.95423  0.31897  0.85939  1.0000
  C   C2032     1.0  0.94286  0.30049  0.86448  1.0000
  Fe  Fe227     1.0  0.97199  0.17068  0.85585  1.0000
  H   H3636     1.0  0.70870  0.02229  0.87604  1.0000
  H   H3637     1.0  0.97382  0.21815  0.87258  1.0000
  C   C2033     1.0  0.96136  0.14620  0.77808  1.0000
  C   C2034     1.0  0.93234  0.09757  0.77516  1.0000
  H   H3638     1.0  0.95064  0.18959  0.77550  1.0000
  H   H3639     1.0  0.97124  0.23013  0.77861  1.0000
  H   H3640     1.0  0.99460  0.33125  0.77930  1.0000
  H   H3641     1.0  0.91589  0.16969  0.88586  1.0000
  H   H3642     1.0  0.72775  0.05956  0.80113  1.0000
  H   H3643     1.0  0.69838  0.03360  0.89345  1.0000
  H   H3644     1.0  0.89794  0.11975  0.87651  1.0000
  C   C2035     1.0  0.96803  0.30169  0.82051  1.0000
  H   H3645     1.0  0.83715  0.02581  0.89848  1.0000
  C   C2036     1.0  0.97582  0.17714  0.96842  1.0000
  S   S459      1.0  0.83070  0.00994  0.79621  1.0000
  H   H3646     1.0  0.94876  0.09990  0.79512  1.0000
  H   H3647     1.0  0.74352  0.02620  0.79712  1.0000
  H   H3648     1.0  0.96530  0.47851  0.83940  1.0000
  H   H3649     1.0  0.80953  0.02550  0.92624  1.0000
  H   H3650     1.0  0.84508  0.07325  0.84945  1.0000
  C   C2037     1.0  0.94202  0.25746  0.87501  1.0000
  C   C2038     1.0  0.97222  0.23655  0.86965  1.0000
  H   H3651     1.0  0.80151  0.05227  0.92741  1.0000
  C   C2039     1.0  0.73485  0.03613  0.88747  1.0000
  C   C2040     1.0  0.71751  0.00796  0.84163  1.0000
  H   H3652     1.0  0.96427  0.28887  0.87955  1.0000
  C   C2041     1.0  0.83424  0.06653  0.86304  1.0000
  H   H3653     1.0  0.95018  0.13926  0.79154  1.0000
  C   C2042     1.0  0.87242  0.09062  0.87366  1.0000
  H   H3654     1.0  0.67827  0.48597  0.83163  1.0000
  H   H3655     1.0  0.78093  0.01619  0.97859  1.0000
  C   C2043     1.0  0.95703  0.28360  0.86936  1.0000
  H   H3656     1.0  0.94452  0.24808  0.90675  1.0000
  H   H3657     1.0  0.98127  0.13716  0.80311  1.0000
  H   H3658     1.0  0.73131  0.06939  0.77822  1.0000
  H   H3659     1.0  0.94818  0.18420  0.98496  1.0000
  H   H3660     1.0  0.92709  0.18264  0.76614  1.0000
  H   H3661     1.0  0.73009  0.07108  0.87841  1.0000
  H   H3662     1.0  0.93325  0.14392  0.76523  1.0000
  H   H3663     1.0  0.70151  0.01936  0.80318  1.0000
  C   C2044     1.0  0.84833  0.03169  0.86433  1.0000
  H   H3664     1.0  0.75961  0.07027  0.87395  1.0000
  H   H3665     1.0  0.87522  0.02250  0.87652  1.0000
  H   H3666     1.0  0.89501  0.09133  0.89062  1.0000
  H   H3667     1.0  0.92490  0.16582  0.78740  1.0000
  C   C2045     1.0  0.73782  0.05977  0.78827  1.0000
  H   H3668     1.0  0.96344  0.08894  0.77936  1.0000
  H   H3669     1.0  0.93758  0.25421  0.86322  1.0000
  H   H3670     1.0  0.85851  0.09349  0.88312  1.0000
  H   H3671     1.0  0.83398  0.08264  0.86743  1.0000
  H   H3672     1.0  0.87271  0.05502  0.88569  1.0000
  H   H3673     1.0  0.74146  0.05865  0.86154  1.0000
  H   H3674     1.0  0.96130  0.25363  0.78526  1.0000
  C   C2046     1.0  0.86841  0.06403  0.87409  1.0000
  H   H3675     1.0  0.96391  0.23849  0.93198  1.0000
  H   H3676     1.0  0.73699  0.03942  0.89978  1.0000
  S   S460      1.0  0.97328  0.17018  0.88298  1.0000
  C   C2047     1.0  0.93375  0.21533  0.88892  1.0000
  H   H3677     1.0  0.91160  0.21951  0.87146  1.0000
  C   C2048     1.0  0.94590  0.29463  0.81843  1.0000
  S   S461      1.0  0.96625  0.17882  0.80905  1.0000
  N   N114      1.0  0.97141  0.12724  0.77271  1.0000
  C   C2049     1.0  0.73625  0.03448  0.78706  1.0000
  C   C2050     1.0  0.99282  0.12786  0.77886  1.0000
  C   C2051     1.0  0.94739  0.15748  0.76682  1.0000
  H   H3678     1.0  0.98703  0.17663  0.91298  1.0000
  C   C2052     1.0  0.95903  0.24422  0.89834  1.0000
  H   H3679     1.0  0.71986  0.50342  0.82932  1.0000
  Fe  Fe228     1.0  0.95202  0.14569  0.83118  1.0000
  H   H3680     1.0  0.83899  0.06238  0.90637  1.0000
  H   H3681     1.0  0.93536  0.20835  0.86365  1.0000
  S   S462      1.0  0.79189  0.03950  0.79766  1.0000
  H   H3682     1.0  0.78450  0.06228  0.84876  1.0000
  C   C2053     1.0  0.98017  0.28493  0.82349  1.0000
  H   H3683     1.0  0.80544  0.03762  0.86188  1.0000
  H   H3684     1.0  0.97763  0.09657  0.75100  1.0000
  C   C2054     1.0  0.97667  0.23342  0.92292  1.0000
  H   H3685     1.0  0.97286  0.47370  0.85945  1.0000
  C   C2055     1.0  0.70958  0.02253  0.88929  1.0000
  H   H3686     1.0  0.92027  0.10648  0.78121  1.0000
  H   H3687     1.0  0.79707  0.05471  0.87583  1.0000
  H   H3688     1.0  0.97982  0.24850  0.82597  1.0000
  C   C2056     1.0  0.95446  0.16860  0.98379  1.0000
  H   H3689     1.0  0.97104  0.18393  0.95653  1.0000
  H   H3690     1.0  0.81409  0.07369  0.83636  1.0000
  C   C2057     1.0  0.68024  0.01061  0.83785  1.0000
  H   H3691     1.0  0.93033  0.06152  0.77340  1.0000
  H   H3692     1.0  0.99185  0.24909  0.91650  1.0000
  S   S463      1.0  0.98527  0.14943  0.83892  1.0000
  H   H3693     1.0  0.81291  0.02636  0.89064  1.0000
  H   H3694     1.0  0.67122  0.46933  0.77995  1.0000
  H   H3695     1.0  0.70887  0.02610  0.75571  1.0000
  C   C2058     1.0  0.66770  0.49918  0.80131  1.0000
  H   H3696     1.0  0.66320  0.00764  0.80042  1.0000
  H   H3697     1.0  0.97807  0.23854  0.79684  1.0000
  H   H3698     1.0  0.98900  0.19172  0.97012  1.0000
  C   C2059     1.0  0.86047  0.01387  0.87229  1.0000
  H   H3699     1.0  0.98243  0.21928  0.93030  1.0000
  H   H3700     1.0  0.78816  0.03327  0.91601  1.0000
  H   H3701     1.0  0.88386  0.01393  0.84858  1.0000
  C   C2060     1.0  0.97884  0.13271  0.75338  1.0000
  H   H3702     1.0  0.98991  0.29485  0.77580  1.0000
  C   C2061     1.0  0.98955  0.12437  0.79841  1.0000
  C   C2062     1.0  0.68389  0.50384  0.83358  1.0000
  H   H3703     1.0  0.99163  0.15057  0.74791  1.0000
  H   H3704     1.0  0.98168  0.50315  0.84517  1.0000
  H   H3705     1.0  0.72267  0.00470  0.91785  1.0000
  Fe  Fe229     1.0  0.79490  0.00486  0.79242  1.0000
  H   H3706     1.0  0.74628  0.88541  0.10628  1.0000
  C   C2063     1.0  0.77958  0.98841  0.19745  1.0000
  Fe  Fe230     1.0  0.69247  0.74124  0.16724  1.0000
  S   S464      1.0  0.71824  0.72651  0.17805  1.0000
  S   S465      1.0  0.69437  0.78015  0.15938  1.0000
  H   H3707     1.0  0.72505  0.90494  0.08962  1.0000
  S   S466      1.0  0.68641  0.67365  0.17971  1.0000
  Fe  Fe231     1.0  0.68736  0.69857  0.19632  1.0000
  S   S467      1.0  0.67970  0.68532  0.22492  1.0000
  Fe  Fe232     1.0  0.71467  0.70324  0.16026  1.0000
  S   S468      1.0  0.74495  0.69388  0.14585  1.0000
  H   H3708     1.0  0.72930  0.76265  0.24602  1.0000
  S   S469      1.0  0.69074  0.71978  0.14823  1.0000
  S   S470      1.0  0.95330  0.56337  0.18537  1.0000
  Fe  Fe233     1.0  0.75728  0.64757  0.04975  1.0000
  S   S471      1.0  0.74969  0.68158  0.03904  1.0000
  S   S472      1.0  0.72537  0.61628  0.06062  1.0000
  Fe  Fe234     1.0  0.80892  0.67158  0.04032  1.0000
  S   S473      1.0  0.80518  0.70750  0.02917  1.0000
  S   S474      1.0  0.84358  0.66399  0.03831  1.0000
  Fe  Fe235     1.0  0.77470  0.69761  0.05215  1.0000
  S   S475      1.0  0.76341  0.72381  0.06534  1.0000
  Fe  Fe236     1.0  0.78040  0.68847  0.01694  1.0000
  H   H3709     1.0  0.71795  0.79682  0.20903  1.0000
  S   S476      1.0  0.78024  0.66307  0.06459  1.0000
  S   S477      1.0  0.78618  0.65302  0.02637  1.0000
  Fe  Fe237     1.0  0.95983  0.70813  0.05635  1.0000
  H   H3710     1.0  0.69406  0.96479  0.12051  1.0000
  S   S478      1.0  0.92841  0.72203  0.05821  1.0000
  H   H3711     1.0  0.67810  0.75999  0.11170  1.0000
  C   C2064     1.0  0.81958  0.99124  0.10063  1.0000
  H   H3712     1.0  0.80795  0.71027  0.17385  1.0000
  S   S479      1.0  0.97380  0.69998  0.07925  1.0000
  S   S480      1.0  0.95720  0.67261  0.05154  1.0000
  Fe  Fe238     1.0  0.75632  0.89000  0.18119  1.0000
  S   S481      1.0  0.78018  0.91859  0.18780  1.0000
  S   S482      1.0  0.75839  0.85215  0.18706  1.0000
  Fe  Fe239     1.0  0.73416  0.92436  0.16365  1.0000
  S   S483      1.0  0.75637  0.95639  0.16795  1.0000
  S   S484      1.0  0.70628  0.92293  0.15004  1.0000
  Fe  Fe240     1.0  0.78521  0.94017  0.16105  1.0000
  S   S485      1.0  0.82240  0.95988  0.14811  1.0000
  Fe  Fe241     1.0  0.75009  0.93300  0.19438  1.0000
  S   S486      1.0  0.74450  0.94866  0.21692  1.0000
  S   S487      1.0  0.76379  0.91053  0.15379  1.0000
  S   S488      1.0  0.72531  0.90189  0.19078  1.0000
  H   H3713     1.0  0.67183  0.59039  0.00112  1.0000
  H   H3714     1.0  0.77029  0.73412  0.01841  1.0000
  C   C2065     1.0  0.82912  0.97181  0.12589  1.0000
  C   C2066     1.0  0.85059  0.97287  0.11562  1.0000
  C   C2067     1.0  0.96430  0.52390  0.11809  1.0000
  H   H3715     1.0  0.68902  0.64171  0.11962  1.0000
  H   H3716     1.0  0.80153  0.99878  0.15548  1.0000
  H   H3717     1.0  0.76482  0.92619  0.24323  1.0000
  H   H3718     1.0  0.86268  0.96591  0.12139  1.0000
  C   C2068     1.0  0.96240  0.64865  0.20655  1.0000
  H   H3719     1.0  0.92621  0.63329  0.03895  1.0000
  Fe  Fe242     1.0  0.97333  0.66545  0.07303  1.0000
  C   C2069     1.0  0.76317  0.97723  0.21323  1.0000
  H   H3720     1.0  0.72830  0.93929  0.04442  1.0000
  C   C2070     1.0  0.68561  0.93761  0.15591  1.0000
  H   H3721     1.0  0.80762  0.99840  0.09487  1.0000
  H   H3722     1.0  0.81763  0.92267  0.07544  1.0000
  C   C2071     1.0  0.97336  0.63208  0.18244  1.0000
  H   H3723     1.0  0.76290  0.76261  0.18628  1.0000
  H   H3724     1.0  0.78409  0.70725  0.19188  1.0000
  C   C2072     1.0  0.88697  0.60840  0.22438  1.0000
  C   C2073     1.0  0.72487  0.51423  0.17088  1.0000
  H   H3725     1.0  0.70859  0.96774  0.20378  1.0000
  H   H3726     1.0  0.83876  0.95823  0.19961  1.0000
  H   H3727     1.0  0.78819  0.55100  0.23718  1.0000
  C   C2074     1.0  0.86720  0.68263  0.04224  1.0000
  C   C2075     1.0  0.88920  0.67986  0.03652  1.0000
  C   C2076     1.0  0.90813  0.69232  0.04095  1.0000
  C   C2077     1.0  0.90523  0.70761  0.05129  1.0000
  C   C2078     1.0  0.88335  0.71101  0.05658  1.0000
  C   C2079     1.0  0.86437  0.69860  0.05205  1.0000
  H   H3728     1.0  0.89156  0.66772  0.02879  1.0000
  H   H3729     1.0  0.92496  0.69009  0.03633  1.0000
  H   H3730     1.0  0.88099  0.72298  0.06445  1.0000
  H   H3731     1.0  0.84747  0.70088  0.05653  1.0000
  H   H3732     1.0  0.69861  0.55259  0.24613  1.0000
  C   C2080     1.0  0.69718  0.55210  0.23344  1.0000
  H   H3733     1.0  0.95291  0.53104  0.11097  1.0000
  C   C2081     1.0  0.69304  0.54985  0.20079  1.0000
  C   C2082     1.0  0.85089  0.99683  0.18986  1.0000
  C   C2083     1.0  0.81361  0.98093  0.11841  1.0000
  H   H3734     1.0  0.68218  0.79485  0.23221  1.0000
  C   C2084     1.0  0.93634  0.56625  0.21764  1.0000
  H   H3735     1.0  0.97049  0.53666  0.12514  1.0000
  H   H3736     1.0  0.93176  0.58160  0.21153  1.0000
  C   C2085     1.0  0.75071  0.70271  0.12341  1.0000
  C   C2086     1.0  0.76629  0.69418  0.11325  1.0000
  C   C2087     1.0  0.77038  0.70055  0.09534  1.0000
  C   C2088     1.0  0.75915  0.71574  0.08758  1.0000
  C   C2089     1.0  0.74405  0.72470  0.09771  1.0000
  C   C2090     1.0  0.73980  0.71810  0.11555  1.0000
  H   H3737     1.0  0.77498  0.68240  0.11922  1.0000
  H   H3738     1.0  0.78241  0.69394  0.08754  1.0000
  H   H3739     1.0  0.73531  0.73640  0.09173  1.0000
  H   H3740     1.0  0.72825  0.72512  0.12318  1.0000
  H   H3741     1.0  0.97635  0.64708  0.22889  1.0000
  S   S489      1.0  0.98977  0.53467  0.15496  1.0000
  C   C2091     1.0  0.77821  0.91665  0.24136  1.0000
  H   H3742     1.0  0.72874  0.69953  0.20958  1.0000
  C   C2092     1.0  0.99412  0.66856  0.11867  1.0000
  C   C2093     1.0  0.71311  0.80059  0.16615  1.0000
  C   C2094     1.0  0.73208  0.79540  0.17105  1.0000
  C   C2095     1.0  0.74646  0.81175  0.17683  1.0000
  C   C2096     1.0  0.74193  0.83336  0.17773  1.0000
  C   C2097     1.0  0.72356  0.83901  0.17209  1.0000
  C   C2098     1.0  0.70922  0.82266  0.16629  1.0000
  H   H3743     1.0  0.73568  0.77884  0.17035  1.0000
  H   H3744     1.0  0.76093  0.80755  0.18086  1.0000
  H   H3745     1.0  0.72003  0.85572  0.17262  1.0000
  H   H3746     1.0  0.69476  0.82693  0.16226  1.0000
  C   C2099     1.0  0.71128  0.56406  0.11319  1.0000
  C   C2100     1.0  0.73345  0.57962  0.10520  1.0000
  C   C2101     1.0  0.73812  0.59579  0.08902  1.0000
  C   C2102     1.0  0.72076  0.59600  0.08062  1.0000
  C   C2103     1.0  0.69884  0.58001  0.08845  1.0000
  C   C2104     1.0  0.69396  0.56443  0.10481  1.0000
  H   H3747     1.0  0.74695  0.57931  0.11159  1.0000
  H   H3748     1.0  0.75515  0.60793  0.08299  1.0000
  H   H3749     1.0  0.68560  0.57964  0.08179  1.0000
  H   H3750     1.0  0.72826  0.51060  0.19636  1.0000
  H   H3751     1.0  0.78120  0.97943  0.18749  1.0000
  H   H3752     1.0  0.72364  0.76305  0.20113  1.0000
  H   H3753     1.0  0.67462  0.61217  0.16670  1.0000
  C   C2105     1.0  0.73547  0.89545  0.11236  1.0000
  C   C2106     1.0  0.87348  0.58746  0.23997  1.0000
  C   C2107     1.0  0.85273  0.99485  0.17159  1.0000
  H   H3754     1.0  0.75925  0.73452  0.20132  1.0000
  Fe  Fe243     1.0  0.98643  0.55662  0.17358  1.0000
  C   C2108     1.0  0.68487  0.75246  0.22744  1.0000
  H   H3755     1.0  0.69488  0.93234  0.19149  1.0000
  H   H3756     1.0  0.95139  0.65881  0.20111  1.0000
  H   H3757     1.0  0.97348  0.60841  0.21752  1.0000
  H   H3758     1.0  0.73705  0.67186  0.00539  1.0000
  H   H3759     1.0  0.74738  0.73381  0.99751  1.0000
  C   C2109     1.0  0.75719  0.95402  0.11323  1.0000
  N   N115      1.0  0.75455  0.79954  0.11011  1.0000
  C   C2110     1.0  0.76752  0.82439  0.10937  1.0000
  C   C2111     1.0  0.76456  0.79379  0.09375  1.0000
  C   C2112     1.0  0.72988  0.79941  0.11075  1.0000
  C   C2113     1.0  0.75463  0.78109  0.12566  1.0000
  C   C2114     1.0  0.77639  0.78565  0.13243  1.0000
  C   C2115     1.0  0.75670  0.83453  0.12385  1.0000
  C   C2116     1.0  0.71410  0.77645  0.10911  1.0000
  C   C2117     1.0  0.78985  0.79280  0.09026  1.0000
  C   C2118     1.0  0.79811  0.78878  0.07265  1.0000
  C   C2119     1.0  0.77719  0.76319  0.14473  1.0000
  C   C2120     1.0  0.77381  0.85602  0.12552  1.0000
  C   C2121     1.0  0.68580  0.95557  0.11217  1.0000
  H   H3760     1.0  0.76881  0.83694  0.09696  1.0000
  H   H3761     1.0  0.78566  0.82570  0.10940  1.0000
  H   H3762     1.0  0.75473  0.77598  0.09362  1.0000
  H   H3763     1.0  0.76298  0.80664  0.08249  1.0000
  H   H3764     1.0  0.72940  0.81443  0.10043  1.0000
  H   H3765     1.0  0.72129  0.80228  0.12307  1.0000
  H   H3766     1.0  0.73977  0.77878  0.13678  1.0000
  H   H3767     1.0  0.75184  0.76340  0.12307  1.0000
  H   H3768     1.0  0.77626  0.79938  0.13950  1.0000
  H   H3769     1.0  0.79264  0.79194  0.12205  1.0000
  H   H3770     1.0  0.74168  0.84023  0.12108  1.0000
  H   H3771     1.0  0.75052  0.82100  0.13638  1.0000
  H   H3772     1.0  0.71575  0.76053  0.11776  1.0000
  H   H3773     1.0  0.71868  0.77513  0.09572  1.0000
  H   H3774     1.0  0.80168  0.80946  0.09053  1.0000
  H   H3775     1.0  0.79123  0.77757  0.09985  1.0000
  H   H3776     1.0  0.79762  0.80364  0.06230  1.0000
  H   H3777     1.0  0.81613  0.78767  0.07055  1.0000
  H   H3778     1.0  0.78719  0.77186  0.07184  1.0000
  H   H3779     1.0  0.77783  0.74892  0.13817  1.0000
  H   H3780     1.0  0.79280  0.76703  0.14939  1.0000
  H   H3781     1.0  0.76183  0.75688  0.15594  1.0000
  H   H3782     1.0  0.78048  0.87018  0.11319  1.0000
  H   H3783     1.0  0.76507  0.86322  0.13554  1.0000
  H   H3784     1.0  0.78846  0.85083  0.12945  1.0000
  C   C2122     1.0  0.73811  0.66480  0.24408  1.0000
  H   H3785     1.0  0.84751  0.94214  0.22538  1.0000
  H   H3786     1.0  0.68266  0.77618  0.12717  1.0000
  C   C2123     1.0  0.93825  0.53974  0.24346  1.0000
  C   C2124     1.0  0.66253  0.59616  0.19432  1.0000
  H   H3787     1.0  0.69349  0.62407  0.17848  1.0000
  H   H3788     1.0  0.77370  0.94372  0.02335  1.0000
  H   H3789     1.0  0.74744  0.63350  0.10619  1.0000
  C   C2125     1.0  0.66578  0.66986  0.10640  1.0000
  H   H3790     1.0  0.67791  0.99378  0.09483  1.0000
  C   C2126     1.0  0.69183  0.96049  0.15800  1.0000
  C   C2127     1.0  0.85026  0.96004  0.22756  1.0000
  C   C2128     1.0  0.67832  0.76216  0.21078  1.0000
  N   N116      1.0  0.88202  0.63045  0.08525  1.0000
  C   C2129     1.0  0.90056  0.65037  0.08683  1.0000
  C   C2130     1.0  0.89019  0.62502  0.06841  1.0000
  C   C2131     1.0  0.86117  0.63945  0.08460  1.0000
  C   C2132     1.0  0.87512  0.60843  0.10014  1.0000
  C   C2133     1.0  0.89427  0.60301  0.10852  1.0000
  C   C2134     1.0  0.89331  0.66122  0.10181  1.0000
  C   C2135     1.0  0.84090  0.62305  0.08063  1.0000
  C   C2136     1.0  0.91130  0.61505  0.06619  1.0000
  C   C2137     1.0  0.92039  0.61494  0.04756  1.0000
  C   C2138     1.0  0.88575  0.57873  0.12167  1.0000
  C   C2139     1.0  0.91420  0.67632  0.10535  1.0000
  C   C2140     1.0  0.81909  0.63119  0.08436  1.0000
  H   H3791     1.0  0.90666  0.66523  0.07484  1.0000
  H   H3792     1.0  0.91617  0.64480  0.08800  1.0000
  H   H3793     1.0  0.87642  0.61154  0.06622  1.0000
  H   H3794     1.0  0.89411  0.64123  0.05766  1.0000
  H   H3795     1.0  0.86627  0.65690  0.07484  1.0000
  H   H3796     1.0  0.85387  0.64278  0.09703  1.0000
  H   H3797     1.0  0.86115  0.60931  0.11075  1.0000
  H   H3798     1.0  0.86749  0.59257  0.09614  1.0000
  H   H3799     1.0  0.89975  0.61638  0.11532  1.0000
  H   H3800     1.0  0.90979  0.60313  0.09900  1.0000
  H   H3801     1.0  0.88250  0.67302  0.09844  1.0000
  H   H3802     1.0  0.88319  0.64725  0.11378  1.0000
  H   H3803     1.0  0.83683  0.60442  0.08836  1.0000
  H   H3804     1.0  0.84530  0.62363  0.06682  1.0000
  H   H3805     1.0  0.92573  0.62553  0.06976  1.0000
  H   H3806     1.0  0.90622  0.59641  0.07418  1.0000
  H   H3807     1.0  0.93536  0.60748  0.04635  1.0000
  H   H3808     1.0  0.90682  0.60392  0.04340  1.0000
  H   H3809     1.0  0.67067  0.59009  0.20444  1.0000
  H   H3810     1.0  0.89972  0.57559  0.12757  1.0000
  H   H3811     1.0  0.87060  0.57791  0.13197  1.0000
  H   H3812     1.0  0.88102  0.56448  0.11537  1.0000
  H   H3813     1.0  0.92371  0.69147  0.09392  1.0000
  H   H3814     1.0  0.90846  0.68353  0.11627  1.0000
  H   H3815     1.0  0.92593  0.66558  0.10862  1.0000
  H   H3816     1.0  0.81270  0.62934  0.09828  1.0000
  H   H3817     1.0  0.82258  0.65001  0.07710  1.0000
  H   H3818     1.0  0.80538  0.62020  0.08029  1.0000
  H   H3819     1.0  0.70051  0.72571  0.00037  1.0000
  H   H3820     1.0  0.72862  0.74885  0.00698  1.0000
  C   C2141     1.0  0.68182  0.60768  0.17770  1.0000
  H   H3821     1.0  0.76516  0.97314  0.08661  1.0000
  H   H3822     1.0  0.67109  0.99461  0.11644  1.0000
  S   S490      1.0  0.99518  0.72539  0.03793  1.0000
  H   H3823     1.0  0.90480  0.60737  0.21960  1.0000
  H   H3824     1.0  0.81296  0.92260  0.22666  1.0000
  H   H3825     1.0  0.71459  0.70679  0.04572  1.0000
  C   C2142     1.0  0.89163  0.96134  0.22709  1.0000
  C   C2143     1.0  0.76573  0.75037  0.02041  1.0000
  H   H3826     1.0  0.95213  0.51083  0.23973  1.0000
  H   H3827     1.0  0.90995  0.97074  0.22012  1.0000
  H   H3828     1.0  0.96337  0.61434  0.19128  1.0000
  N   N117      1.0  0.68512  0.66271  0.09628  1.0000
  H   H3829     1.0  0.82303  0.53677  0.23193  1.0000
  H   H3830     1.0  0.88834  0.94250  0.22679  1.0000
  H   H3831     1.0  0.95058  0.63047  0.21279  1.0000
  C   C2144     1.0  0.82154  0.54844  0.24056  1.0000
  C   C2145     1.0  0.72492  0.75499  0.21406  1.0000
  H   H3832     1.0  0.76003  0.78163  0.00627  1.0000
  H   H3833     1.0  0.79608  0.96612  0.23160  1.0000
  C   C2146     1.0  0.66255  0.92654  0.15755  1.0000
  H   H3834     1.0  0.94244  0.64332  0.17983  1.0000
  H   H3835     1.0  0.99437  0.53889  0.09699  1.0000
  H   H3836     1.0  0.75646  0.97239  0.13311  1.0000
  H   H3837     1.0  0.87285  0.98305  0.08990  1.0000
  C   C2147     1.0  0.76409  0.76547  0.00364  1.0000
  C   C2148     1.0  0.67314  0.69161  0.11333  1.0000
  C   C2149     1.0  0.85801  0.52011  0.24307  1.0000
  C   C2150     1.0  0.83438  0.97384  0.20322  1.0000
  S   S491      1.0  0.74451  0.56412  0.22352  1.0000
  H   H3838     1.0  0.93734  0.60519  0.17239  1.0000
  H   H3839     1.0  0.68761  0.63938  0.07953  1.0000
  H   H3840     1.0  0.96327  0.61750  0.15475  1.0000
  N   N118      1.0  0.70957  0.76247  0.22733  1.0000
  C   C2151     1.0  0.75392  0.97506  0.12012  1.0000
  H   H3841     1.0  0.68683  0.70644  0.10365  1.0000
  C   C2152     1.0  0.94784  0.66186  0.23295  1.0000
  H   H3842     1.0  0.78344  0.75941  0.19846  1.0000
  Fe  Fe244     1.0  0.99337  0.68890  0.03480  1.0000
  H   H3843     1.0  0.66516  0.93213  0.19352  1.0000
  H   H3844     1.0  0.97748  0.50955  0.09787  1.0000
  C   C2153     1.0  0.71627  0.78923  0.22281  1.0000
  C   C2154     1.0  0.95757  0.64030  0.17162  1.0000
  H   H3845     1.0  0.88799  0.62521  0.22814  1.0000
  H   H3846     1.0  0.67695  0.55226  0.11070  1.0000
  H   H3847     1.0  0.98671  0.58014  0.13229  1.0000
  N   N119      1.0  0.76800  0.63794  0.18658  1.0000
  C   C2155     1.0  0.76169  0.63813  0.16993  1.0000
  C   C2156     1.0  0.78177  0.66250  0.18607  1.0000
  C   C2157     1.0  0.78317  0.62155  0.18843  1.0000
  C   C2158     1.0  0.74708  0.62849  0.20191  1.0000
  C   C2159     1.0  0.72744  0.64033  0.20134  1.0000
  C   C2160     1.0  0.74802  0.61389  0.16857  1.0000
  C   C2161     1.0  0.79406  0.62100  0.20368  1.0000
  C   C2162     1.0  0.77615  0.68410  0.17563  1.0000
  C   C2163     1.0  0.78903  0.70737  0.17819  1.0000
  C   C2164     1.0  0.70642  0.62733  0.21661  1.0000
  C   C2165     1.0  0.74079  0.61678  0.15192  1.0000
  C   C2166     1.0  0.80871  0.60362  0.20445  1.0000
  H   H3848     1.0  0.77759  0.64504  0.15898  1.0000
  H   H3849     1.0  0.75130  0.65062  0.16733  1.0000
  H   H3850     1.0  0.78045  0.66426  0.19935  1.0000
  H   H3851     1.0  0.80047  0.66534  0.18016  1.0000
  H   H3852     1.0  0.79750  0.62627  0.17648  1.0000
  H   H3853     1.0  0.77324  0.60288  0.19025  1.0000
  H   H3854     1.0  0.73963  0.60910  0.20419  1.0000
  H   H3855     1.0  0.75195  0.63031  0.21384  1.0000
  H   H3856     1.0  0.72178  0.64044  0.18957  1.0000
  H   H3857     1.0  0.73317  0.65874  0.20204  1.0000
  H   H3858     1.0  0.75867  0.60130  0.16855  1.0000
  H   H3859     1.0  0.73214  0.60586  0.17934  1.0000
  H   H3860     1.0  0.78038  0.61511  0.21590  1.0000
  H   H3861     1.0  0.80526  0.63868  0.20277  1.0000
  H   H3862     1.0  0.78172  0.68546  0.16172  1.0000
  H   H3863     1.0  0.75755  0.68272  0.17913  1.0000
  H   H3864     1.0  0.78455  0.72234  0.17054  1.0000
  H   H3865     1.0  0.69275  0.63645  0.21608  1.0000
  H   H3866     1.0  0.69963  0.60866  0.21648  1.0000
  H   H3867     1.0  0.75396  0.75313  0.22543  1.0000
  H   H3868     1.0  0.75618  0.62426  0.14064  1.0000
  H   H3869     1.0  0.73114  0.59923  0.15116  1.0000
  H   H3870     1.0  0.72943  0.62870  0.15144  1.0000
  H   H3871     1.0  0.82306  0.60893  0.19253  1.0000
  C   C2167     1.0  0.87216  0.56348  0.23554  1.0000
  H   H3872     1.0  0.79796  0.58535  0.20618  1.0000
  C   C2168     1.0  0.95204  0.53322  0.21568  1.0000
  H   H3873     1.0  0.74952  0.98020  0.23863  1.0000
  H   H3874     1.0  0.67689  0.61005  0.10705  1.0000
  C   C2169     1.0  0.70408  0.71477  0.05414  1.0000
  H   H3875     1.0  0.67613  0.68279  0.06477  1.0000
  H   H3876     1.0  0.71094  0.97055  0.23082  1.0000
  H   H3877     1.0  0.74157  0.97054  0.04124  1.0000
  C   C2170     1.0  0.69975  0.65581  0.10779  1.0000
  H   H3878     1.0  0.85983  0.97996  0.16948  1.0000
  C   C2171     1.0  0.72046  0.64786  0.09932  1.0000
  H   H3879     1.0  0.80849  0.95109  0.24641  1.0000
  C   C2172     1.0  0.73133  0.63684  0.11270  1.0000
  H   H3880     1.0  0.78884  0.98348  0.02744  1.0000
  C   C2173     1.0  0.76489  0.75405  0.19893  1.0000
  H   H3881     1.0  0.70733  0.67107  0.11240  1.0000
  H   H3882     1.0  0.71154  0.69640  0.08501  1.0000
  C   C2174     1.0  0.69471  0.97540  0.23487  1.0000
  H   H3883     1.0  0.73367  0.79632  0.22441  1.0000
  H   H3884     1.0  0.73389  0.66336  0.08997  1.0000
  H   H3885     1.0  0.98731  0.55221  0.24405  1.0000
  C   C2175     1.0  0.93221  0.55943  0.23547  1.0000
  C   C2176     1.0  0.98465  0.52091  0.10547  1.0000
  H   H3886     1.0  0.73564  0.64899  0.12063  1.0000
  H   H3887     1.0  0.71930  0.61967  0.12109  1.0000
  S   S492      1.0  0.95713  0.63218  0.09465  1.0000
  H   H3888     1.0  0.98184  0.67675  0.21579  1.0000
  C   C2177     1.0  0.78370  0.98205  0.01597  1.0000
  H   H3889     1.0  0.98696  0.66331  0.10841  1.0000
  H   H3890     1.0  0.96711  0.65699  0.16147  1.0000
  C   C2178     1.0  0.71221  0.75318  0.24498  1.0000
  H   H3891     1.0  0.70972  0.96912  0.15652  1.0000
  C   C2179     1.0  0.94667  0.55344  0.20771  1.0000
  H   H3892     1.0  0.82273  0.00378  0.22087  1.0000
  H   H3893     1.0  0.81727  0.97340  0.20087  1.0000
  H   H3894     1.0  0.87824  0.60869  0.21397  1.0000
  H   H3895     1.0  0.68710  0.75610  0.20011  1.0000
  H   H3896     1.0  0.71572  0.72789  0.05838  1.0000
  H   H3897     1.0  0.95942  0.52286  0.20806  1.0000
  C   C2180     1.0  0.72503  0.68740  0.22209  1.0000
  H   H3898     1.0  0.69443  0.72420  0.04655  1.0000
  C   C2181     1.0  0.70012  0.68282  0.08098  1.0000
  C   C2182     1.0  0.73187  0.91486  0.09826  1.0000
  H   H3899     1.0  0.95832  0.60120  0.12557  1.0000
  H   H3900     1.0  0.93858  0.62858  0.15427  1.0000
  C   C2183     1.0  0.84095  0.99194  0.09033  1.0000
  C   C2184     1.0  0.85632  0.98252  0.09784  1.0000
  H   H3901     1.0  0.81613  0.60355  0.21553  1.0000
  H   H3902     1.0  0.70379  0.86836  0.11509  1.0000
  N   N120      1.0  0.98235  0.64863  0.19240  1.0000
  C   C2185     1.0  0.71494  0.55652  0.20355  1.0000
  H   H3903     1.0  0.69149  0.54911  0.18814  1.0000
  C   C2186     1.0  0.83564  0.99578  0.22536  1.0000
  H   H3904     1.0  0.76067  0.68921  0.22057  1.0000
  H   H3905     1.0  0.89018  0.56281  0.23174  1.0000
  H   H3906     1.0  0.71105  0.62744  0.22881  1.0000
  C   C2187     1.0  0.77518  0.95952  0.01360  1.0000
  H   H3907     1.0  0.88003  0.97227  0.20501  1.0000
  H   H3908     1.0  0.68733  0.93116  0.22335  1.0000
  H   H3909     1.0  0.70810  0.83356  0.21342  1.0000
  H   H3910     1.0  0.71531  0.63464  0.09240  1.0000
  H   H3911     1.0  0.74918  0.74523  0.03051  1.0000
  H   H3912     1.0  0.71566  0.86425  0.13325  1.0000
  H   H3913     1.0  0.71880  0.73555  0.21578  1.0000
  C   C2188     1.0  0.96896  0.65909  0.22101  1.0000
  C   C2189     1.0  0.68987  0.96623  0.20771  1.0000
  H   H3914     1.0  0.69667  0.83518  0.23487  1.0000
  C   C2190     1.0  0.75096  0.76174  0.21321  1.0000
  H   H3915     1.0  0.77495  0.95287  0.11258  1.0000
  H   H3916     1.0  0.67967  0.98996  0.16309  1.0000
  H   H3917     1.0  0.75810  0.78119  0.21047  1.0000
  C   C2191     1.0  0.67486  0.97230  0.16161  1.0000
  H   H3918     1.0  0.96120  0.70785  0.99749  1.0000
  H   H3919     1.0  0.86846  0.00098  0.19153  1.0000
  H   H3920     1.0  0.88882  0.96217  0.24061  1.0000
  C   C2192     1.0  0.68877  0.77624  0.11355  1.0000
  S   S493      1.0  0.70552  0.54394  0.13347  1.0000
  H   H3921     1.0  0.73024  0.56064  0.19304  1.0000
  C   C2193     1.0  0.94767  0.52626  0.23359  1.0000
  C   C2194     1.0  0.71704  0.55744  0.21993  1.0000
  C   C2195     1.0  0.74301  0.68145  0.22823  1.0000
  H   H3922     1.0  0.69954  0.79520  0.24712  1.0000
  H   H3923     1.0  0.82956  0.56713  0.23279  1.0000
  H   H3924     1.0  0.79565  0.93666  0.21546  1.0000
  C   C2196     1.0  0.97691  0.61657  0.09892  1.0000
  H   H3925     1.0  0.98049  0.66101  0.13099  1.0000
  H   H3926     1.0  0.94095  0.67537  0.22601  1.0000
  H   H3927     1.0  0.69710  0.96237  0.09884  1.0000
  H   H3928     1.0  0.69197  0.59509  0.17529  1.0000
  N   N121      1.0  0.83288  0.97172  0.22199  1.0000
  C   C2197     1.0  0.70226  0.67749  0.23214  1.0000
  H   H3929     1.0  0.67189  0.90759  0.20604  1.0000
  H   H3930     1.0  0.77939  0.76054  0.02497  1.0000
  H   H3931     1.0  0.89403  0.52895  0.22769  1.0000
  H   H3932     1.0  0.69963  0.99130  0.23966  1.0000
  N   N122      1.0  0.68508  0.98135  0.21966  1.0000
  H   H3933     1.0  0.73617  0.97662  0.12111  1.0000
  C   C2198     1.0  0.98947  0.59070  0.11936  1.0000
  H   H3934     1.0  0.74380  0.52088  0.16505  1.0000
  H   H3935     1.0  0.68072  0.73292  0.22950  1.0000
  H   H3936     1.0  0.79722  0.98031  0.12645  1.0000
  C   C2199     1.0  0.80010  0.93276  0.22784  1.0000
  H   H3937     1.0  0.79872  0.96489  0.07978  1.0000
  H   H3938     1.0  0.71229  0.67632  0.07246  1.0000
  H   H3939     1.0  0.74492  0.93804  0.12254  1.0000
  H   H3940     1.0  0.67281  0.75495  0.23850  1.0000
  C   C2200     1.0  0.75255  0.95665  0.09548  1.0000
  H   H3941     1.0  0.73563  0.96047  0.09689  1.0000
  H   H3942     1.0  0.86634  0.56410  0.22368  1.0000
  H   H3943     1.0  0.81953  0.93802  0.09196  1.0000
  H   H3944     1.0  0.83426  0.95322  0.06983  1.0000
  C   C2201     1.0  0.79727  0.94800  0.07620  1.0000
  C   C2202     1.0  0.81838  0.93984  0.07856  1.0000
  H   H3945     1.0  0.76510  0.95884  0.06199  1.0000
  H   H3946     1.0  0.79814  0.95144  0.06235  1.0000
  H   H3947     1.0  0.72802  0.96659  0.07188  1.0000
  C   C2203     1.0  0.68719  0.69556  0.06960  1.0000
  C   C2204     1.0  0.99238  0.61491  0.21203  1.0000
  H   H3948     1.0  0.71261  0.93586  0.07600  1.0000
  C   C2205     1.0  0.97335  0.60257  0.11555  1.0000
  H   H3949     1.0  0.68396  0.93633  0.11683  1.0000
  H   H3950     1.0  0.71076  0.95878  0.04855  1.0000
  C   C2206     1.0  0.71254  0.87764  0.12319  1.0000
  N   N123      1.0  0.75258  0.93583  0.08805  1.0000
  C   C2207     1.0  0.72724  0.95487  0.04943  1.0000
  C   C2208     1.0  0.77469  0.92885  0.08724  1.0000
  C   C2209     1.0  0.75065  0.94313  0.06992  1.0000
  H   H3951     1.0  0.71737  0.92110  0.10438  1.0000
  H   H3952     1.0  0.77698  0.92329  0.10027  1.0000
  C   C2210     1.0  0.94870  0.62173  0.16274  1.0000
  C   C2211     1.0  0.72836  0.95004  0.06804  1.0000
  H   H3953     1.0  0.75209  0.92870  0.06358  1.0000
  H   H3954     1.0  0.77383  0.91313  0.08205  1.0000
  H   H3955     1.0  0.74407  0.90290  0.12121  1.0000
  H   H3956     1.0  0.99495  0.59621  0.19199  1.0000
  H   H3957     1.0  0.70104  0.88675  0.12969  1.0000
  C   C2212     1.0  0.76196  0.98881  0.22629  1.0000
  H   H3958     1.0  0.99245  0.57866  0.21291  1.0000
  H   H3959     1.0  0.85611  0.58961  0.24457  1.0000
  H   H3960     1.0  0.97954  0.68135  0.17706  1.0000
  H   H3961     1.0  0.76657  0.99181  0.11167  1.0000
  H   H3962     1.0  0.83547  0.99178  0.16917  1.0000
  H   H3963     1.0  0.85238  0.52202  0.23110  1.0000
  H   H3964     1.0  0.67625  0.70441  0.07688  1.0000
  H   H3965     1.0  0.72605  0.83424  0.22799  1.0000
  C   C2213     1.0  0.67533  0.54501  0.23075  1.0000
  C   C2214     1.0  0.70000  0.80038  0.23336  1.0000
  C   C2215     1.0  0.66413  0.98636  0.10710  1.0000
  C   C2216     1.0  0.70826  0.82746  0.22701  1.0000
  H   H3966     1.0  0.88033  0.99189  0.21886  1.0000
  H   H3967     1.0  0.68306  0.78179  0.20671  1.0000
  Fe  Fe245     1.0  0.66845  0.53348  0.14906  1.0000
  H   H3968     1.0  0.98773  0.62840  0.17380  1.0000
  H   H3969     1.0  0.72222  0.72084  0.24210  1.0000
  C   C2217     1.0  0.67321  0.54353  0.21450  1.0000
  H   H3970     1.0  0.68630  0.79197  0.10516  1.0000
  H   H3971     1.0  0.95268  0.66768  0.24387  1.0000
  C   C2218     1.0  0.83300  0.99646  0.24425  1.0000
  C   C2219     1.0  0.99296  0.67375  0.18117  1.0000
  C   C2220     1.0  0.67461  0.64224  0.08987  1.0000
  C   C2221     1.0  0.80914  0.95616  0.23256  1.0000
  C   C2222     1.0  0.87594  0.97313  0.21852  1.0000
  C   C2223     1.0  0.67748  0.92715  0.20060  1.0000
  C   C2224     1.0  0.76868  0.95732  0.99863  1.0000
  H   H3972     1.0  0.84767  0.95676  0.24165  1.0000
  H   H3973     1.0  0.77122  0.90092  0.23706  1.0000
  H   H3974     1.0  0.93411  0.64473  0.23817  1.0000
  H   H3975     1.0  0.68614  0.50508  0.19639  1.0000
  C   C2225     1.0  0.67775  0.93932  0.21497  1.0000
  C   C2226     1.0  0.88167  0.51475  0.23870  1.0000
  H   H3976     1.0  0.95406  0.50660  0.12739  1.0000
  H   H3977     1.0  0.68578  0.97297  0.19545  1.0000
  H   H3978     1.0  0.71788  0.52977  0.17051  1.0000
  H   H3979     1.0  0.92375  0.56907  0.24307  1.0000
  H   H3980     1.0  0.67969  0.68632  0.12463  1.0000
  C   C2227     1.0  0.78564  0.00263  0.00343  1.0000
  H   H3981     1.0  0.73909  0.00374  0.16078  1.0000
  H   H3982     1.0  0.70156  0.50778  0.22091  1.0000
  Fe  Fe246     1.0  0.66272  0.69186  0.16905  1.0000
  C   C2228     1.0  0.66334  0.61797  0.10360  1.0000
  H   H3983     1.0  0.66293  0.98139  0.07566  1.0000
  C   C2229     1.0  0.97883  0.61295  0.43657  1.0000
  C   C2230     1.0  0.66916  0.57530  0.35186  1.0000
  S   S494      1.0  0.77379  0.61914  0.49279  1.0000
  H   H3984     1.0  0.94760  0.63545  0.32897  1.0000
  H   H3985     1.0  0.70682  0.54710  0.34860  1.0000
  H   H3986     1.0  0.86541  0.55539  0.27049  1.0000
  C   C2231     1.0  0.93416  0.51462  0.38691  1.0000
  H   H3987     1.0  0.92468  0.58198  0.43492  1.0000
  H   H3988     1.0  0.82206  0.52499  0.26401  1.0000
  S   S495      1.0  0.68261  0.55002  0.30357  1.0000
  H   H3989     1.0  0.97169  0.59241  0.47938  1.0000
  Fe  Fe247     1.0  0.92261  0.60813  0.27745  1.0000
  S   S496      1.0  0.91378  0.57153  0.29500  1.0000
  S   S497      1.0  0.89578  0.62572  0.27055  1.0000
  Fe  Fe248     1.0  0.97444  0.61299  0.26846  1.0000
  C   C2232     1.0  0.72426  0.54416  0.34610  1.0000
  Fe  Fe249     1.0  0.93978  0.56551  0.27439  1.0000
  H   H3990     1.0  0.73007  0.72803  0.26894  1.0000
  S   S498      1.0  0.95123  0.62394  0.28813  1.0000
  S   S499      1.0  0.74492  0.59621  0.28901  1.0000
  H   H3991     1.0  0.93324  0.56596  0.45242  1.0000
  Fe  Fe250     1.0  0.76732  0.57578  0.27758  1.0000
  C   C2233     1.0  0.94395  0.51932  0.31622  1.0000
  Fe  Fe251     1.0  0.75075  0.61686  0.26180  1.0000
  S   S500      1.0  0.94185  0.57729  0.33232  1.0000
  N   N124      1.0  0.66406  0.65432  0.39598  1.0000
  H   H3992     1.0  0.92831  0.50783  0.31452  1.0000
  C   C2234     1.0  0.82582  0.66346  0.47001  1.0000
  H   H3993     1.0  0.80803  0.66528  0.47254  1.0000
  C   C2235     1.0  0.79591  0.54554  0.24778  1.0000
  Fe  Fe252     1.0  0.74427  0.57378  0.24841  1.0000
  S   S501      1.0  0.79187  0.56272  0.29128  1.0000
  C   C2236     1.0  0.83864  0.67459  0.48145  1.0000
  H   H3994     1.0  0.70399  0.68389  0.34423  1.0000
  H   H3995     1.0  0.88653  0.54330  0.26094  1.0000
  H   H3996     1.0  0.96962  0.68952  0.45173  1.0000
  S   S502      1.0  0.73821  0.54879  0.27423  1.0000
  S   S503      1.0  0.70511  0.83860  0.47799  1.0000
  H   H3997     1.0  0.69922  0.64908  0.36835  1.0000
  C   C2237     1.0  0.86326  0.55596  0.47677  1.0000
  H   H3998     1.0  0.67459  0.76561  0.46358  1.0000
  H   H3999     1.0  0.67869  0.87097  0.45271  1.0000
  S   S504      1.0  0.72990  0.59757  0.46931  1.0000
  S   S505      1.0  0.96927  0.57669  0.28525  1.0000
  C   C2238     1.0  0.95364  0.52406  0.37027  1.0000
  H   H4000     1.0  0.69724  0.55148  0.40566  1.0000
  H   H4001     1.0  0.94031  0.50606  0.39761  1.0000
  C   C2239     1.0  0.95927  0.65313  0.32117  1.0000
  C   C2240     1.0  0.68820  0.58331  0.32158  1.0000
  C   C2241     1.0  0.71383  0.57487  0.46271  1.0000
  C   C2242     1.0  0.71113  0.55087  0.47003  1.0000
  H   H4002     1.0  0.85629  0.63401  0.25998  1.0000
  C   C2243     1.0  0.68806  0.53998  0.45088  1.0000
  C   C2244     1.0  0.69076  0.56399  0.44371  1.0000
  C   C2245     1.0  0.70351  0.58131  0.44965  1.0000
  C   C2246     1.0  0.68778  0.79838  0.46938  1.0000
  H   H4003     1.0  0.76994  0.53388  0.33740  1.0000
  H   H4004     1.0  0.69735  0.57742  0.39004  1.0000
  H   H4005     1.0  0.70540  0.59982  0.44412  1.0000
  H   H4006     1.0  0.98932  0.59498  0.31141  1.0000
  H   H4007     1.0  0.92812  0.52957  0.39021  1.0000
  H   H4008     1.0  0.83041  0.55621  0.30361  1.0000
  C   C2247     1.0  0.73090  0.96427  0.43469  1.0000
  C   C2248     1.0  0.97502  0.61283  0.45385  1.0000
  H   H4009     1.0  0.74099  0.97431  0.45608  1.0000
  H   H4010     1.0  0.70525  0.86481  0.41892  1.0000
  H   H4011     1.0  0.71036  0.69933  0.27246  1.0000
  S   S506      1.0  0.97135  0.63833  0.45977  1.0000
  H   H4012     1.0  0.96496  0.70479  0.46808  1.0000
  S   S507      1.0  0.82747  0.59787  0.48996  1.0000
  C   C2249     1.0  0.70361  0.64301  0.47380  1.0000
  H   H4013     1.0  0.71963  0.65301  0.47600  1.0000
  C   C2250     1.0  0.70928  0.72610  0.25080  1.0000
  H   H4014     1.0  0.88593  0.55521  0.44506  1.0000
  C   C2251     1.0  0.84523  0.55614  0.46624  1.0000
  H   H4015     1.0  0.75444  0.54063  0.36471  1.0000
  C   C2252     1.0  0.90189  0.56968  0.48002  1.0000
  Fe  Fe253     1.0  0.69736  0.86949  0.48693  1.0000
  H   H4016     1.0  0.79352  0.55682  0.25662  1.0000
  C   C2253     1.0  0.74027  0.98358  0.44317  1.0000
  S   S508      1.0  0.67455  0.97538  0.39631  1.0000
  H   H4017     1.0  0.88264  0.58872  0.25003  1.0000
  H   H4018     1.0  0.84663  0.99035  0.24914  1.0000
  H   H4019     1.0  0.69179  0.94142  0.41547  1.0000
  H   H4020     1.0  0.69185  0.71571  0.25118  1.0000
  S   S509      1.0  0.76057  0.65631  0.25107  1.0000
  C   C2254     1.0  0.72831  0.53947  0.32812  1.0000
  H   H4021     1.0  0.84930  0.54843  0.45536  1.0000
  H   H4022     1.0  0.73179  0.78923  0.48201  1.0000
  C   C2255     1.0  0.66309  0.54423  0.33751  1.0000
  C   C2256     1.0  0.68683  0.00352  0.46099  1.0000
  H   H4023     1.0  0.71275  0.63446  0.42093  1.0000
  C   C2257     1.0  0.97435  0.59251  0.46608  1.0000
  H   H4024     1.0  0.70405  0.97676  0.46850  1.0000
  C   C2258     1.0  0.66956  0.60597  0.48634  1.0000
  H   H4025     1.0  0.69925  0.59559  0.30965  1.0000
  S   S510      1.0  0.67219  0.51793  0.44348  1.0000
  Fe  Fe254     1.0  0.71625  0.57071  0.28399  1.0000
  H   H4026     1.0  0.71296  0.00193  0.42297  1.0000
  H   H4027     1.0  0.87492  0.62419  0.48171  1.0000
  C   C2259     1.0  0.86656  0.60880  0.27723  1.0000
  C   C2260     1.0  0.85064  0.61706  0.26956  1.0000
  C   C2261     1.0  0.82755  0.60327  0.27395  1.0000
  C   C2262     1.0  0.82023  0.58122  0.28617  1.0000
  C   C2263     1.0  0.83598  0.57321  0.29412  1.0000
  C   C2264     1.0  0.85903  0.58697  0.28970  1.0000
  H   H4028     1.0  0.91311  0.61720  0.46694  1.0000
  H   H4029     1.0  0.81551  0.60967  0.26781  1.0000
  H   H4030     1.0  0.87093  0.58066  0.29597  1.0000
  H   H4031     1.0  0.96732  0.53751  0.37251  1.0000
  H   H4032     1.0  0.80838  0.54277  0.46986  1.0000
  C   C2265     1.0  0.67363  0.66703  0.37711  1.0000
  H   H4033     1.0  0.69997  0.54285  0.37789  1.0000
  C   C2266     1.0  0.85668  0.51760  0.27992  1.0000
  H   H4034     1.0  0.67976  0.65372  0.25602  1.0000
  C   C2267     1.0  0.97740  0.57232  0.46104  1.0000
  H   H4035     1.0  0.81598  0.54818  0.48872  1.0000
  C   C2268     1.0  0.67785  0.94445  0.42428  1.0000
  H   H4036     1.0  0.70560  0.79927  0.46406  1.0000
  H   H4037     1.0  0.68336  0.56933  0.43342  1.0000
  C   C2269     1.0  0.69276  0.94866  0.26359  1.0000
  H   H4038     1.0  0.95171  0.57813  0.36437  1.0000
  Fe  Fe255     1.0  0.94412  0.58653  0.30414  1.0000
  H   H4039     1.0  0.98565  0.59327  0.41807  1.0000
  S   S511      1.0  0.71978  0.59348  0.25781  1.0000
  N   N125      1.0  0.98132  0.51051  0.34856  1.0000
  H   H4040     1.0  0.69932  0.75703  0.25478  1.0000
  C   C2270     1.0  0.68388  0.59100  0.33646  1.0000
  H   H4041     1.0  0.70091  0.96432  0.26753  1.0000
  C   C2271     1.0  0.96791  0.58447  0.35447  1.0000
  S   S512      1.0  0.93433  0.53225  0.26571  1.0000
  C   C2272     1.0  0.79906  0.54649  0.34623  1.0000
  H   H4042     1.0  0.81075  0.54147  0.33636  1.0000
  H   H4043     1.0  0.82514  0.64442  0.47222  1.0000
  H   H4044     1.0  0.83163  0.55530  0.26288  1.0000
  H   H4045     1.0  0.71147  0.64186  0.26634  1.0000
  H   H4046     1.0  0.72810  0.97205  0.42220  1.0000
  C   C2273     1.0  0.71286  0.51543  0.32876  1.0000
  C   C2274     1.0  0.96807  0.58590  0.33737  1.0000
  H   H4047     1.0  0.67091  0.93935  0.24777  1.0000
  C   C2275     1.0  0.71566  0.55426  0.37959  1.0000
  H   H4048     1.0  0.89539  0.57975  0.48893  1.0000
  H   H4049     1.0  0.71448  0.95206  0.44334  1.0000
  C   C2276     1.0  0.70788  0.56557  0.39386  1.0000
  C   C2277     1.0  0.67142  0.93228  0.44173  1.0000
  N   N126      1.0  0.74163  0.56465  0.34832  1.0000
  C   C2278     1.0  0.75005  0.58491  0.33215  1.0000
  C   C2279     1.0  0.68243  0.81607  0.47673  1.0000
  C   C2280     1.0  0.72951  0.57345  0.36251  1.0000
  C   C2281     1.0  0.76121  0.55674  0.35365  1.0000
  C   C2282     1.0  0.77838  0.55057  0.33995  1.0000
  C   C2283     1.0  0.76745  0.60755  0.33271  1.0000
  H   H4050     1.0  0.97907  0.72164  0.44615  1.0000
  H   H4051     1.0  0.88922  0.51307  0.24973  1.0000
  C   C2284     1.0  0.66480  0.98868  0.47484  1.0000
  H   H4052     1.0  0.72299  0.57593  0.39691  1.0000
  C   C2285     1.0  0.77669  0.62563  0.31508  1.0000
  H   H4053     1.0  0.82050  0.52253  0.48191  1.0000
  H   H4054     1.0  0.73508  0.59019  0.32874  1.0000
  H   H4055     1.0  0.75841  0.57944  0.32103  1.0000
  N   N127      1.0  0.85775  0.54163  0.24967  1.0000
  H   H4056     1.0  0.72736  0.64217  0.39830  1.0000
  C   C2286     1.0  0.82110  0.54148  0.47741  1.0000
  H   H4057     1.0  0.74211  0.58693  0.36578  1.0000
  H   H4058     1.0  0.77132  0.57038  0.35847  1.0000
  H   H4059     1.0  0.72244  0.52744  0.35583  1.0000
  H   H4060     1.0  0.78532  0.56496  0.32782  1.0000
  H   H4061     1.0  0.67865  0.65109  0.41772  1.0000
  H   H4062     1.0  0.75908  0.61623  0.34180  1.0000
  H   H4063     1.0  0.78248  0.60336  0.33660  1.0000
  C   C2287     1.0  0.71314  0.62906  0.40887  1.0000
  Fe  Fe256     1.0  0.67305  0.90788  0.48442  1.0000
  C   C2288     1.0  0.89600  0.55517  0.45467  1.0000
  H   H4064     1.0  0.89242  0.53612  0.46148  1.0000
  H   H4065     1.0  0.69946  0.72280  0.27827  1.0000
  H   H4066     1.0  0.71664  0.61149  0.41062  1.0000
  H   H4067     1.0  0.69912  0.66601  0.39776  1.0000
  H   H4068     1.0  0.66881  0.98161  0.48702  1.0000
  H   H4069     1.0  0.78663  0.52677  0.25487  1.0000
  H   H4070     1.0  0.66401  0.88362  0.40845  1.0000
  H   H4071     1.0  0.76237  0.63092  0.31066  1.0000
  H   H4072     1.0  0.78896  0.64173  0.31582  1.0000
  H   H4073     1.0  0.78599  0.61812  0.30553  1.0000
  H   H4074     1.0  0.70202  0.84658  0.44018  1.0000
  H   H4075     1.0  0.94567  0.55565  0.42502  1.0000
  H   H4076     1.0  0.76404  0.96055  0.42195  1.0000
  C   C2289     1.0  0.71249  0.71874  0.26874  1.0000
  C   C2290     1.0  0.78118  0.97314  0.49605  1.0000
  C   C2291     1.0  0.97325  0.52124  0.33356  1.0000
  H   H4077     1.0  0.73985  0.93487  0.42633  1.0000
  H   H4078     1.0  0.71916  0.54577  0.48007  1.0000
  H   H4079     1.0  0.92684  0.53042  0.44191  1.0000
  H   H4080     1.0  0.72407  0.55328  0.31913  1.0000
  S   S513      1.0  0.66405  0.58528  0.37026  1.0000
  H   H4081     1.0  0.89656  0.64272  0.44807  1.0000
  C   C2292     1.0  0.88924  0.59364  0.45739  1.0000
  H   H4082     1.0  0.88585  0.59376  0.44471  1.0000
  H   H4083     1.0  0.75850  0.99219  0.43581  1.0000
  H   H4084     1.0  0.70854  0.63607  0.46260  1.0000
  H   H4085     1.0  0.95777  0.52467  0.30399  1.0000
  C   C2293     1.0  0.92153  0.56447  0.44406  1.0000
  H   H4086     1.0  0.68120  0.88802  0.43137  1.0000
  H   H4087     1.0  0.71703  0.87768  0.43407  1.0000
  H   H4088     1.0  0.86130  0.53696  0.48272  1.0000
  Fe  Fe257     1.0  0.74435  0.59023  0.49198  1.0000
  C   C2294     1.0  0.90193  0.54544  0.49114  1.0000
  H   H4089     1.0  0.95852  0.66584  0.32908  1.0000
  S   S514      1.0  0.77572  0.59865  0.25074  1.0000
  H   H4090     1.0  0.84436  0.57443  0.46107  1.0000
  H   H4091     1.0  0.72816  0.97521  0.49180  1.0000
  C   C2295     1.0  0.67770  0.55994  0.32207  1.0000
  H   H4092     1.0  0.92763  0.65084  0.44126  1.0000
  H   H4093     1.0  0.75134  0.94145  0.44357  1.0000
  S   S515      1.0  0.94688  0.60114  0.25609  1.0000
  S   S516      1.0  0.75691  0.94622  0.47974  1.0000
  H   H4094     1.0  0.87522  0.59972  0.46434  1.0000
  H   H4095     1.0  0.66515  0.96201  0.25771  1.0000
  H   H4096     1.0  0.79409  0.96408  0.49284  1.0000
  H   H4097     1.0  0.92734  0.60902  0.44890  1.0000
  Fe  Fe258     1.0  0.96737  0.63596  0.48770  1.0000
  H   H4098     1.0  0.71714  0.58266  0.35814  1.0000
  C   C2296     1.0  0.67903  0.95557  0.25098  1.0000
  C   C2297     1.0  0.69011  0.62740  0.40459  1.0000
  H   H4099     1.0  0.74735  0.76880  0.48918  1.0000
  H   H4100     1.0  0.91123  0.63466  0.42975  1.0000
  H   H4101     1.0  0.80892  0.56296  0.34838  1.0000
  C   C2298     1.0  0.66769  0.69373  0.40488  1.0000
  H   H4102     1.0  0.69185  0.60916  0.33602  1.0000
  H   H4103     1.0  0.68025  0.91977  0.44629  1.0000
  C   C2299     1.0  0.74762  0.94942  0.43146  1.0000
  C   C2300     1.0  0.86757  0.54054  0.26491  1.0000
  C   C2301     1.0  0.70237  0.86438  0.43268  1.0000
  C   C2302     1.0  0.91166  0.61367  0.45452  1.0000
  H   H4104     1.0  0.68109  0.93493  0.27522  1.0000
  C   C2303     1.0  0.98383  0.65126  0.31564  1.0000
  H   H4105     1.0  0.92026  0.57965  0.47383  1.0000
  H   H4106     1.0  0.85673  0.67398  0.47746  1.0000
  C   C2304     1.0  0.67989  0.87020  0.43930  1.0000
  H   H4107     1.0  0.69146  0.62239  0.39242  1.0000
  H   H4108     1.0  0.69368  0.97571  0.45016  1.0000
  C   C2305     1.0  0.69831  0.53345  0.46407  1.0000
  H   H4109     1.0  0.74632  0.53997  0.32250  1.0000
  N   N128      1.0  0.88812  0.56878  0.46700  1.0000
  C   C2306     1.0  0.91165  0.63686  0.44265  1.0000
  S   S517      1.0  0.70597  0.90527  0.46829  1.0000
  H   H4110     1.0  0.83891  0.69347  0.47855  1.0000
  H   H4111     1.0  0.68782  0.68326  0.37510  1.0000
  H   H4112     1.0  0.98836  0.59067  0.37202  1.0000
  C   C2307     1.0  0.71529  0.65467  0.25405  1.0000
  H   H4113     1.0  0.81587  0.98530  0.25266  1.0000
  C   C2308     1.0  0.97711  0.70509  0.45602  1.0000
  H   H4114     1.0  0.79336  0.53194  0.35832  1.0000
  C   C2309     1.0  0.70296  0.98807  0.45631  1.0000
  C   C2310     1.0  0.98182  0.57269  0.44369  1.0000
  H   H4115     1.0  0.88654  0.52092  0.29023  1.0000
  H   H4116     1.0  0.93975  0.53532  0.31909  1.0000
  H   H4117     1.0  0.91609  0.54501  0.42509  1.0000
  H   H4118     1.0  0.69796  0.65636  0.33840  1.0000
  C   C2311     1.0  0.98906  0.59403  0.32461  1.0000
  C   C2312     1.0  0.92777  0.54779  0.43341  1.0000
  H   H4119     1.0  0.90893  0.53487  0.48298  1.0000
  H   H4120     1.0  0.71516  0.51334  0.31556  1.0000
  C   C2313     1.0  0.98861  0.59149  0.35882  1.0000
  C   C2314     1.0  0.68332  0.65086  0.40403  1.0000
  H   H4121     1.0  0.94674  0.53277  0.36012  1.0000
  H   H4122     1.0  0.72600  0.54272  0.38418  1.0000
  H   H4123     1.0  0.97038  0.53863  0.33440  1.0000
  H   H4124     1.0  0.95302  0.65902  0.30982  1.0000
  H   H4125     1.0  0.83489  0.67263  0.45632  1.0000
  C   C2315     1.0  0.67023  0.77922  0.46918  1.0000
  H   H4126     1.0  0.86169  0.70343  0.49508  1.0000
  H   H4127     1.0  0.69333  0.65546  0.47074  1.0000
  H   H4128     1.0  0.86512  0.53399  0.29973  1.0000
  C   C2316     1.0  0.83309  0.54236  0.25518  1.0000
  H   H4129     1.0  0.78198  0.91048  0.25379  1.0000
  C   C2317     1.0  0.68356  0.65282  0.36535  1.0000
  C   C2318     1.0  0.86920  0.61578  0.49532  1.0000
  H   H4130     1.0  0.85770  0.56361  0.48757  1.0000
  H   H4131     1.0  0.68098  0.69102  0.41163  1.0000
  H   H4132     1.0  0.69446  0.51415  0.33413  1.0000
  C   C2319     1.0  0.69067  0.66690  0.34649  1.0000
  H   H4133     1.0  0.80990  0.70124  0.49460  1.0000
  H   H4134     1.0  0.67683  0.61277  0.41482  1.0000
  C   C2320     1.0  0.69740  0.66138  0.24822  1.0000
  C   C2321     1.0  0.95141  0.50578  0.33086  1.0000
  H   H4135     1.0  0.67781  0.59961  0.47564  1.0000
  H   H4136     1.0  0.97692  0.55663  0.47051  1.0000
  H   H4137     1.0  0.89981  0.70246  0.48037  1.0000
  C   C2322     1.0  0.68986  0.62288  0.48990  1.0000
  H   H4138     1.0  0.67073  0.63600  0.36660  1.0000
  H   H4139     1.0  0.98694  0.52547  0.32136  1.0000
  H   H4140     1.0  0.98906  0.64568  0.32749  1.0000
  C   C2323     1.0  0.76062  0.96748  0.49137  1.0000
  N   N129      1.0  0.72688  0.00150  0.44490  1.0000
  H   H4141     1.0  0.98330  0.63704  0.30904  1.0000
  C   C2324     1.0  0.74403  0.97941  0.49547  1.0000
  S   S518      1.0  0.67007  0.71548  0.47095  1.0000
  C   C2325     1.0  0.98242  0.59298  0.43147  1.0000
  H   H4142     1.0  0.70641  0.94128  0.25764  1.0000
  H   H4143     1.0  0.69639  0.51490  0.46963  1.0000
  H   H4144     1.0  0.67649  0.70519  0.39168  1.0000
  H   H4145     1.0  0.71869  0.75761  0.48733  1.0000
  H   H4146     1.0  0.99264  0.66985  0.25569  1.0000
  Fe  Fe259     1.0  0.72219  0.91937  0.48721  1.0000
  C   C2326     1.0  0.90125  0.69427  0.49329  1.0000
  H   H4147     1.0  0.67549  0.67062  0.34251  1.0000
  H   H4148     1.0  0.70183  0.61320  0.49411  1.0000
  H   H4149     1.0  0.91443  0.68450  0.49167  1.0000
  H   H4150     1.0  0.83797  0.51505  0.28510  1.0000
  C   C2327     1.0  0.73006  0.77183  0.49085  1.0000
  C   C2328     1.0  0.86776  0.51885  0.29464  1.0000
  H   H4151     1.0  0.66507  0.72415  0.41457  1.0000
  C   C2329     1.0  0.66638  0.96065  0.41822  1.0000
  H   H4152     1.0  0.97938  0.62864  0.42707  1.0000
  H   H4153     1.0  0.66538  0.61640  0.44704  1.0000
  S   S519      1.0  0.98689  0.54792  0.43734  1.0000
  H   H4154     1.0  0.93510  0.55836  0.49606  1.0000
  H   H4155     1.0  0.99468  0.67751  0.29139  1.0000
  H   H4156     1.0  0.66236  0.84760  0.42589  1.0000
  H   H4157     1.0  0.71210  0.51340  0.24851  1.0000
  H   H4158     1.0  0.97092  0.59951  0.56162  1.0000
  S   S520      1.0  0.69754  0.92033  0.73137  1.0000
  C   C2330     1.0  0.78500  0.99012  0.50515  1.0000
  H   H4159     1.0  0.98118  0.67933  0.54803  1.0000
  S   S521      1.0  0.70918  0.87071  0.72695  1.0000
  H   H4160     1.0  0.84839  0.58855  0.54452  1.0000
  C   C2331     1.0  0.67884  0.97215  0.71836  1.0000
  H   H4161     1.0  0.91045  0.55916  0.51203  1.0000
  Fe  Fe260     1.0  0.69485  0.89788  0.71294  1.0000
  S   S522      1.0  0.70540  0.91503  0.68433  1.0000
  H   H4162     1.0  0.73906  0.53055  0.58441  1.0000
  H   H4163     1.0  0.78310  0.71037  0.71377  1.0000
  C   C2332     1.0  0.98540  0.53675  0.57012  1.0000
  C   C2333     1.0  0.67333  0.53338  0.58077  1.0000
  H   H4164     1.0  0.69402  0.78678  0.50195  1.0000
  H   H4165     1.0  0.68146  0.63240  0.55172  1.0000
  S   S523      1.0  0.71656  0.88323  0.50447  1.0000
  H   H4166     1.0  0.66533  0.69727  0.56278  1.0000
  S   S524      1.0  0.70156  0.74396  0.71511  1.0000
  H   H4167     1.0  0.71263  0.97043  0.53576  1.0000
  S   S525      1.0  0.69965  0.68057  0.71099  1.0000
  H   H4168     1.0  0.74829  0.91736  0.51843  1.0000
  H   H4169     1.0  0.96756  0.67959  0.56940  1.0000
  H   H4170     1.0  0.74762  0.68250  0.54240  1.0000
  H   H4171     1.0  0.88434  0.53509  0.49918  1.0000
  C   C2334     1.0  0.71251  0.67096  0.50995  1.0000
  Fe  Fe261     1.0  0.74259  0.55907  0.52599  1.0000
  H   H4172     1.0  0.68385  0.63123  0.49995  1.0000
  H   H4173     1.0  0.67729  0.00180  0.64554  1.0000
  H   H4174     1.0  0.87713  0.68334  0.71565  1.0000
  H   H4175     1.0  0.69464  0.58003  0.57590  1.0000
  H   H4176     1.0  0.98462  0.54393  0.58142  1.0000
  H   H4177     1.0  0.67818  0.58028  0.51639  1.0000
  H   H4178     1.0  0.97926  0.50588  0.63551  1.0000
  H   H4179     1.0  0.67116  0.62762  0.61766  1.0000
  H   H4180     1.0  0.66329  0.67708  0.61053  1.0000
  H   H4181     1.0  0.72623  0.64098  0.50934  1.0000
  H   H4182     1.0  0.70316  0.81433  0.51713  1.0000
  Fe  Fe262     1.0  0.75518  0.61203  0.52029  1.0000
  H   H4183     1.0  0.69898  0.79753  0.69192  1.0000
  H   H4184     1.0  0.70299  0.66822  0.50072  1.0000
  H   H4185     1.0  0.77728  0.65343  0.58212  1.0000
  H   H4186     1.0  0.69905  0.60878  0.60321  1.0000
  S   S526      1.0  0.96139  0.63883  0.53466  1.0000
  H   H4187     1.0  0.72393  0.89820  0.53575  1.0000
  S   S527      1.0  0.77239  0.58478  0.52970  1.0000
  C   C2335     1.0  0.73790  0.67923  0.53333  1.0000
  H   H4188     1.0  0.98236  0.63595  0.74457  1.0000
  H   H4189     1.0  0.83493  0.99890  0.53373  1.0000
  C   C2336     1.0  0.72503  0.69452  0.52831  1.0000
  C   C2337     1.0  0.98009  0.67252  0.56180  1.0000
  C   C2338     1.0  0.67675  0.71536  0.56068  1.0000
  C   C2339     1.0  0.73838  0.65991  0.52652  1.0000
  C   C2340     1.0  0.81017  0.62026  0.55512  1.0000
  C   C2341     1.0  0.87820  0.67707  0.50445  1.0000
  C   C2342     1.0  0.84619  0.60237  0.50299  1.0000
  C   C2343     1.0  0.66411  0.75631  0.73126  1.0000
  C   C2344     1.0  0.81749  0.70864  0.50398  1.0000
  H   H4190     1.0  0.71760  0.82435  0.55228  1.0000
  H   H4191     1.0  0.71540  0.79968  0.53228  1.0000
  H   H4192     1.0  0.78572  0.98541  0.54679  1.0000
  C   C2345     1.0  0.68354  0.90967  0.67387  1.0000
  C   C2346     1.0  0.68498  0.92572  0.65843  1.0000
  C   C2347     1.0  0.69619  0.80197  0.67896  1.0000
  H   H4193     1.0  0.67280  0.72758  0.53562  1.0000
  C   C2348     1.0  0.84579  0.69458  0.72112  1.0000
  C   C2349     1.0  0.72031  0.77176  0.50943  1.0000
  H   H4194     1.0  0.69971  0.94121  0.65288  1.0000
  H   H4195     1.0  0.71093  0.76329  0.67373  1.0000
  Fe  Fe263     1.0  0.68239  0.65627  0.73732  1.0000
  C   C2350     1.0  0.67587  0.53163  0.52104  1.0000
  S   S528      1.0  0.95040  0.60356  0.50987  1.0000
  H   H4196     1.0  0.66616  0.66145  0.63064  1.0000
  H   H4197     1.0  0.70345  0.75850  0.54380  1.0000
  C   C2351     1.0  0.68804  0.76259  0.72464  1.0000
  C   C2352     1.0  0.70149  0.78452  0.72504  1.0000
  C   C2353     1.0  0.69107  0.80020  0.73191  1.0000
  H   H4198     1.0  0.71499  0.84567  0.53432  1.0000
  H   H4199     1.0  0.97489  0.59499  0.59131  1.0000
  H   H4200     1.0  0.72003  0.78940  0.71996  1.0000
  H   H4201     1.0  0.70157  0.81697  0.73230  1.0000
  S   S529      1.0  0.75487  0.64129  0.53312  1.0000
  C   C2354     1.0  0.98723  0.59879  0.56417  1.0000
  C   C2355     1.0  0.67090  0.98266  0.65255  1.0000
  H   H4202     1.0  0.67415  0.63145  0.65263  1.0000
  H   H4203     1.0  0.68588  0.97656  0.65491  1.0000
  H   H4204     1.0  0.80040  0.67676  0.52354  1.0000
  C   C2356     1.0  0.71781  0.80183  0.66551  1.0000
  H   H4205     1.0  0.69650  0.90586  0.58779  1.0000
  C   C2357     1.0  0.82763  0.66121  0.50080  1.0000
  H   H4206     1.0  0.71102  0.56677  0.62385  1.0000
  C   C2358     1.0  0.87718  0.60958  0.52308  1.0000
  S   S530      1.0  0.69021  0.92523  0.50167  1.0000
  C   C2359     1.0  0.76873  0.00236  0.50902  1.0000
  C   C2360     1.0  0.70025  0.61790  0.56865  1.0000
  C   C2361     1.0  0.79578  0.70775  0.73655  1.0000
  H   H4207     1.0  0.97780  0.51079  0.60564  1.0000
  C   C2362     1.0  0.67052  0.73313  0.54759  1.0000
  C   C2363     1.0  0.83044  0.67071  0.73377  1.0000
  C   C2364     1.0  0.72532  0.77956  0.67114  1.0000
  H   H4208     1.0  0.66705  0.98073  0.54011  1.0000
  H   H4209     1.0  0.67910  0.96652  0.69372  1.0000
  H   H4210     1.0  0.78413  0.71117  0.51740  1.0000
  C   C2365     1.0  0.67499  0.64626  0.60996  1.0000
  C   C2366     1.0  0.71215  0.69030  0.51674  1.0000
  C   C2367     1.0  0.96115  0.53080  0.56774  1.0000
  Fe  Fe264     1.0  0.68136  0.70567  0.72034  1.0000
  C   C2368     1.0  0.74332  0.56800  0.57298  1.0000
  H   H4211     1.0  0.86270  0.70037  0.51643  1.0000
  H   H4212     1.0  0.69658  0.84059  0.55548  1.0000
  C   C2369     1.0  0.69494  0.77277  0.51272  1.0000
  S   S531      1.0  0.89588  0.61496  0.53597  1.0000
  C   C2370     1.0  0.76195  0.65793  0.57894  1.0000
  C   C2371     1.0  0.68658  0.61589  0.55542  1.0000
  C   C2372     1.0  0.80902  0.63979  0.54044  1.0000
  Fe  Fe265     1.0  0.93367  0.62781  0.52186  1.0000
  C   C2373     1.0  0.70826  0.84587  0.67426  1.0000
  H   H4213     1.0  0.68786  0.54020  0.52758  1.0000
  H   H4214     1.0  0.85936  0.67879  0.70118  1.0000
  H   H4215     1.0  0.79158  0.67459  0.72926  1.0000
  H   H4216     1.0  0.94887  0.51755  0.57937  1.0000
  S   S532      1.0  0.72403  0.58600  0.51890  1.0000
  H   H4217     1.0  0.79033  0.97567  0.56757  1.0000
  H   H4218     1.0  0.73993  0.77913  0.66090  1.0000
  Fe  Fe266     1.0  0.78913  0.59006  0.50193  1.0000
  H   H4219     1.0  0.75603  0.60886  0.58841  1.0000
  C   C2374     1.0  0.68970  0.53647  0.56515  1.0000
  H   H4220     1.0  0.88078  0.66885  0.51698  1.0000
  C   C2375     1.0  0.71259  0.58608  0.62006  1.0000
  C   C2376     1.0  0.74026  0.63723  0.58784  1.0000
  H   H4221     1.0  0.73723  0.56906  0.59920  1.0000
  H   H4222     1.0  0.66917  0.96404  0.73209  1.0000
  Fe  Fe267     1.0  0.67215  0.85208  0.74115  1.0000
  H   H4223     1.0  0.70671  0.99743  0.55545  1.0000
  H   H4224     1.0  0.67919  0.99112  0.71468  1.0000
  H   H4225     1.0  0.76274  0.54424  0.56541  1.0000
  C   C2377     1.0  0.74827  0.99717  0.50405  1.0000
  H   H4226     1.0  0.67981  0.58100  0.63841  1.0000
  H   H4227     1.0  0.75151  0.90900  0.53976  1.0000
  C   C2378     1.0  0.91693  0.54888  0.50336  1.0000
  C   C2379     1.0  0.85911  0.68990  0.50721  1.0000
  C   C2380     1.0  0.72574  0.65577  0.51476  1.0000
  C   C2381     1.0  0.69805  0.59163  0.63522  1.0000
  C   C2382     1.0  0.77801  0.98148  0.56083  1.0000
  C   C2383     1.0  0.70429  0.59227  0.60367  1.0000
  H   H4228     1.0  0.71483  0.63422  0.56293  1.0000
  H   H4229     1.0  0.73088  0.59584  0.61789  1.0000
  H   H4230     1.0  0.73761  0.63418  0.60188  1.0000
  C   C2384     1.0  0.68533  0.75877  0.54466  1.0000
  Fe  Fe268     1.0  0.66720  0.66472  0.70438  1.0000
  H   H4231     1.0  0.68802  0.57827  0.60561  1.0000
  Fe  Fe269     1.0  0.97945  0.61735  0.52068  1.0000
  H   H4232     1.0  0.68594  0.53118  0.50837  1.0000
  H   H4233     1.0  0.73113  0.77955  0.68294  1.0000
  H   H4234     1.0  0.67217  0.91601  0.61136  1.0000
  H   H4235     1.0  0.79976  0.63142  0.53221  1.0000
  C   C2385     1.0  0.74036  0.86603  0.68544  1.0000
  H   H4236     1.0  0.67817  0.79936  0.55591  1.0000
  S   S533      1.0  0.69639  0.71001  0.51073  1.0000
  C   C2386     1.0  0.80195  0.72282  0.51107  1.0000
  H   H4237     1.0  0.99281  0.54534  0.52883  1.0000
  H   H4238     1.0  0.68366  0.57105  0.49741  1.0000
  H   H4239     1.0  0.74862  0.86421  0.69612  1.0000
  C   C2387     1.0  0.70304  0.52053  0.56381  1.0000
  H   H4240     1.0  0.72547  0.64285  0.58474  1.0000
  H   H4241     1.0  0.72127  0.75524  0.51793  1.0000
  H   H4242     1.0  0.69205  0.55115  0.55422  1.0000
  H   H4243     1.0  0.70447  0.58697  0.64666  1.0000
  C   C2388     1.0  0.69266  0.98301  0.55460  1.0000
  H   H4244     1.0  0.73815  0.94390  0.74352  1.0000
  H   H4245     1.0  0.67943  0.97616  0.56719  1.0000
  H   H4246     1.0  0.79887  0.65040  0.54645  1.0000
  H   H4247     1.0  0.68501  0.75581  0.51131  1.0000
  H   H4248     1.0  0.68173  0.93874  0.57942  1.0000
  H   H4249     1.0  0.81690  0.60680  0.55007  1.0000
  H   H4250     1.0  0.68105  0.86494  0.65530  1.0000
  C   C2389     1.0  0.69866  0.80106  0.52988  1.0000
  C   C2390     1.0  0.70368  0.92240  0.59116  1.0000
  H   H4251     1.0  0.69444  0.00223  0.52876  1.0000
  H   H4252     1.0  0.73267  0.81731  0.66356  1.0000
  H   H4253     1.0  0.69714  0.61339  0.54368  1.0000
  H   H4254     1.0  0.69350  0.65527  0.60786  1.0000
  H   H4255     1.0  0.68865  0.61981  0.58011  1.0000
  H   H4256     1.0  0.80872  0.73108  0.52043  1.0000
  C   C2391     1.0  0.74283  0.61447  0.58252  1.0000
  C   C2392     1.0  0.83868  0.59259  0.52075  1.0000
  S   S534      1.0  0.94875  0.65941  0.49894  1.0000
  H   H4257     1.0  0.91647  0.53135  0.51135  1.0000
  Fe  Fe270     1.0  0.97832  0.66819  0.51037  1.0000
  H   H4258     1.0  0.71204  0.55559  0.59383  1.0000
  H   H4259     1.0  0.80077  0.99398  0.50899  1.0000
  H   H4260     1.0  0.82106  0.58196  0.52676  1.0000
  S   S535      1.0  0.67022  0.65595  0.67875  1.0000
  H   H4261     1.0  0.73325  0.56456  0.56375  1.0000
  H   H4262     1.0  0.67960  0.76350  0.55677  1.0000
  C   C2393     1.0  0.72780  0.57107  0.58920  1.0000
  N   N130      1.0  0.68444  0.77722  0.52949  1.0000
  H   H4263     1.0  0.95538  0.54716  0.56564  1.0000
  C   C2394     1.0  0.81848  0.68824  0.51849  1.0000
  C   C2395     1.0  0.83343  0.65562  0.52976  1.0000
  H   H4264     1.0  0.85334  0.70711  0.72784  1.0000
  C   C2396     1.0  0.85417  0.59623  0.53077  1.0000
  H   H4265     1.0  0.71398  0.80206  0.65300  1.0000
  H   H4266     1.0  0.69908  0.61080  0.63230  1.0000
  H   H4267     1.0  0.83184  0.64395  0.50252  1.0000
  H   H4268     1.0  0.70177  0.86177  0.67404  1.0000
  H   H4269     1.0  0.84371  0.64331  0.52662  1.0000
  H   H4270     1.0  0.72163  0.85068  0.66181  1.0000
  H   H4271     1.0  0.87636  0.70820  0.69946  1.0000
  C   C2397     1.0  0.99445  0.51729  0.62490  1.0000
  C   C2398     1.0  0.68157  0.99419  0.54146  1.0000
  N   N131      1.0  0.83471  0.67386  0.51363  1.0000
  H   H4272     1.0  0.82259  0.69573  0.52905  1.0000
  H   H4273     1.0  0.84131  0.66445  0.53852  1.0000
  Fe  Fe271     1.0  0.68301  0.88782  0.51768  1.0000
  N   N132      1.0  0.68891  0.82446  0.67577  1.0000
  H   H4274     1.0  0.72037  0.98929  0.73711  1.0000
  H   H4275     1.0  0.76516  0.55048  0.58539  1.0000
  C   C2399     1.0  0.79321  0.68069  0.74085  1.0000
  H   H4276     1.0  0.98919  0.66776  0.73868  1.0000
  H   H4277     1.0  0.76099  0.70408  0.73361  1.0000
  H   H4278     1.0  0.69384  0.90397  0.61830  1.0000
  H   H4279     1.0  0.70827  0.84167  0.70128  1.0000
  H   H4280     1.0  0.73177  0.78715  0.51162  1.0000
  H   H4281     1.0  0.80850  0.65618  0.50330  1.0000
  H   H4282     1.0  0.66781  0.93498  0.63887  1.0000
  H   H4283     1.0  0.73379  0.98486  0.56346  1.0000
  H   H4284     1.0  0.97364  0.65284  0.56576  1.0000
  C   C2400     1.0  0.98945  0.59610  0.58099  1.0000
  H   H4285     1.0  0.73395  0.88195  0.68465  1.0000
  H   H4286     1.0  0.83560  0.70273  0.71335  1.0000
  H   H4287     1.0  0.81340  0.71848  0.72897  1.0000
  C   C2401     1.0  0.68735  0.81249  0.54339  1.0000
  S   S536      1.0  0.99464  0.70575  0.51037  1.0000
  H   H4288     1.0  0.82133  0.62771  0.56268  1.0000
  H   H4289     1.0  0.67463  0.82076  0.53875  1.0000
  H   H4290     1.0  0.75103  0.61968  0.56845  1.0000
  H   H4291     1.0  0.79266  0.61131  0.56383  1.0000
  H   H4292     1.0  0.99115  0.53079  0.51210  1.0000
  H   H4293     1.0  0.75994  0.67381  0.58324  1.0000
  H   H4294     1.0  0.76475  0.66236  0.56480  1.0000
  H   H4295     1.0  0.72127  0.59664  0.56057  1.0000
  C   C2402     1.0  0.68217  0.82781  0.65914  1.0000
  N   N133      1.0  0.72123  0.59409  0.58708  1.0000
  C   C2403     1.0  0.66907  0.82233  0.69071  1.0000
  C   C2404     1.0  0.75314  0.54703  0.57740  1.0000
  H   H4296     1.0  0.72501  0.70963  0.53341  1.0000
  S   S537      1.0  0.76105  0.56148  0.49885  1.0000
  H   H4297     1.0  0.75793  0.58406  0.56649  1.0000
  H   H4298     1.0  0.77532  0.99796  0.56387  1.0000
  C   C2405     1.0  0.70941  0.59605  0.57288  1.0000
  H   H4299     1.0  0.90241  0.62960  0.49925  1.0000
  N   N134      1.0  0.71500  0.95164  0.56043  1.0000
  C   C2406     1.0  0.71905  0.93037  0.55466  1.0000
  C   C2407     1.0  0.70037  0.94399  0.57886  1.0000
  C   C2408     1.0  0.70177  0.96282  0.54925  1.0000
  C   C2409     1.0  0.73724  0.97012  0.55815  1.0000
  C   C2410     1.0  0.75519  0.96186  0.56652  1.0000
  C   C2411     1.0  0.73271  0.93541  0.53567  1.0000
  H   H4300     1.0  0.66731  0.51307  0.52892  1.0000
  C   C2412     1.0  0.72050  0.84380  0.68881  1.0000
  H   H4301     1.0  0.69757  0.93543  0.61383  1.0000
  H   H4302     1.0  0.96092  0.52374  0.55643  1.0000
  C   C2413     1.0  0.73947  0.91358  0.53226  1.0000
  H   H4303     1.0  0.82316  0.66003  0.72576  1.0000
  H   H4304     1.0  0.70220  0.91720  0.55664  1.0000
  H   H4305     1.0  0.72819  0.92083  0.56261  1.0000
  H   H4306     1.0  0.70264  0.95919  0.58466  1.0000
  S   S538      1.0  0.72424  0.52347  0.54496  1.0000
  H   H4307     1.0  0.68665  0.94907  0.54880  1.0000
  C   C2414     1.0  0.66713  0.79404  0.73836  1.0000
  H   H4308     1.0  0.74578  0.97870  0.54432  1.0000
  H   H4309     1.0  0.79808  0.62623  0.74095  1.0000
  H   H4310     1.0  0.75902  0.94614  0.56295  1.0000
  H   H4311     1.0  0.74892  0.95783  0.58067  1.0000
  H   H4312     1.0  0.72198  0.94010  0.52703  1.0000
  H   H4313     1.0  0.74881  0.95001  0.53218  1.0000
  C   C2415     1.0  0.69101  0.91934  0.60977  1.0000
  H   H4314     1.0  0.67455  0.71987  0.57312  1.0000
  H   H4315     1.0  0.90708  0.70839  0.49943  1.0000
  H   H4316     1.0  0.72203  0.92405  0.59047  1.0000
  H   H4317     1.0  0.75357  0.86859  0.67330  1.0000
  H   H4318     1.0  0.69483  0.71514  0.55582  1.0000
  H   H4319     1.0  0.67413  0.81910  0.70289  1.0000
  C   C2416     1.0  0.77905  0.71421  0.72642  1.0000
  C   C2417     1.0  0.70530  0.83194  0.54651  1.0000
  H   H4320     1.0  0.69686  0.97119  0.71677  1.0000
  H   H4321     1.0  0.72790  0.82855  0.68998  1.0000
  C   C2418     1.0  0.86584  0.69089  0.70862  1.0000
  C   C2419     1.0  0.66782  0.95882  0.70703  1.0000
  H   H4322     1.0  0.84178  0.66099  0.73917  1.0000
  H   H4323     1.0  0.66766  0.94000  0.71125  1.0000
  H   H4324     1.0  0.66459  0.83938  0.68954  1.0000
  C   C2420     1.0  0.66944  0.57118  0.50820  1.0000
  H   H4325     1.0  0.78047  0.73342  0.72424  1.0000
  H   H4326     1.0  0.67180  0.64641  0.59727  1.0000
  H   H4327     1.0  0.69769  0.83217  0.64812  1.0000
  C   C2421     1.0  0.66463  0.88955  0.68081  1.0000
  Fe  Fe272     1.0  0.66850  0.69853  0.49817  1.0000
  C   C2422     1.0  0.67016  0.84759  0.65527  1.0000
  C   C2423     1.0  0.88474  0.61912  0.50529  1.0000
  H   H4328     1.0  0.75794  0.98307  0.74627  1.0000
  H   H4329     1.0  0.67081  0.81098  0.65853  1.0000
  S   S539      1.0  0.67070  0.87697  0.54650  1.0000
  C   C2424     1.0  0.67093  0.51485  0.59510  1.0000
  H   H4330     1.0  0.99366  0.53593  0.62283  1.0000
  C   C2425     1.0  0.66699  0.92221  0.65048  1.0000
  H   H4331     1.0  0.67075  0.60076  0.56097  1.0000
  H   H4332     1.0  0.66292  0.54552  0.58183  1.0000
  H   H4333     1.0  0.68208  0.78657  0.67926  1.0000
  C   C2426     1.0  0.66545  0.85044  0.63770  1.0000
  H   H4334     1.0  0.68181  0.85560  0.62737  1.0000
  H   H4335     1.0  0.66297  0.97288  0.64433  1.0000
  H   H4336     1.0  0.66371  0.87676  0.69235  1.0000
  H   H4337     1.0  0.87347  0.66277  0.49828  1.0000
  Fe  Fe273     1.0  0.70824  0.89137  0.74680  1.0000
  H   H4338     1.0  0.80123  0.73712  0.50040  1.0000
  H   H4339     1.0  0.83473  0.72123  0.49732  1.0000
  C   C2427     1.0  0.99416  0.50930  0.60862  1.0000
  C   C2428     1.0  0.99487  0.51485  0.57198  1.0000
  S   S540      1.0  0.66311  0.87089  0.50169  1.0000
  Fe  Fe274     1.0  0.74892  0.89627  0.94517  1.0000
  Fe  Fe275     1.0  0.75731  0.94961  0.93388  1.0000
  S   S541      1.0  0.73261  0.95023  0.95762  1.0000
  S   S542      1.0  0.77335  0.98305  0.91247  1.0000
  Fe  Fe276     1.0  0.74873  0.92513  0.97146  1.0000
  H   H4340     1.0  0.68681  0.70925  0.97805  1.0000
  Fe  Fe277     1.0  0.70973  0.91801  0.95409  1.0000
  S   S543      1.0  0.77546  0.92685  0.94772  1.0000
  S   S544      1.0  0.73328  0.91944  0.92918  1.0000
  C   C2429     1.0  0.68702  0.97210  0.84525  1.0000
  C   C2430     1.0  0.76078  0.70440  0.96382  1.0000
  H   H4341     1.0  0.99475  0.73211  0.97171  1.0000
  H   H4342     1.0  0.95457  0.63359  0.77153  1.0000
  H   H4343     1.0  0.77033  0.73346  0.85010  1.0000
  S   S545      1.0  0.81969  0.96426  0.84325  1.0000
  H   H4344     1.0  0.76211  0.84654  0.97385  1.0000
  H   H4345     1.0  0.68392  0.87991  0.94037  1.0000
  N   N135      1.0  0.81141  0.67204  0.74797  1.0000
  H   H4346     1.0  0.83036  0.66277  0.77762  1.0000
  C   C2431     1.0  0.67237  0.98595  0.84129  1.0000
  C   C2432     1.0  0.98770  0.74105  0.93682  1.0000
  H   H4347     1.0  0.68706  0.95225  0.89297  1.0000
  Fe  Fe278     1.0  0.78199  0.64695  0.84738  1.0000
  S   S546      1.0  0.79427  0.61530  0.84462  1.0000
  S   S547      1.0  0.77713  0.65387  0.87319  1.0000
  Fe  Fe279     1.0  0.77572  0.65788  0.81141  1.0000
  S   S548      1.0  0.78747  0.62698  0.80571  1.0000
  S   S549      1.0  0.76455  0.68325  0.79274  1.0000
  Fe  Fe280     1.0  0.76557  0.60698  0.83235  1.0000
  S   S550      1.0  0.73885  0.57168  0.84057  1.0000
  Fe  Fe281     1.0  0.81507  0.63854  0.81850  1.0000
  S   S551      1.0  0.85211  0.64055  0.80673  1.0000
  S   S552      1.0  0.75174  0.63695  0.83710  1.0000
  S   S553      1.0  0.80502  0.67110  0.82221  1.0000
  H   H4348     1.0  0.71499  0.65379  0.92110  1.0000
  C   C2433     1.0  0.78656  0.62899  0.75210  1.0000
  S   S554      1.0  0.97192  0.65162  0.84644  1.0000
  H   H4349     1.0  0.97808  0.57616  0.80780  1.0000
  C   C2434     1.0  0.69575  0.59296  0.81444  1.0000
  S   S555      1.0  0.97867  0.68574  0.80799  1.0000
  Fe  Fe282     1.0  0.96123  0.68324  0.83518  1.0000
  S   S556      1.0  0.92377  0.68194  0.84506  1.0000
  C   C2435     1.0  0.68197  0.61135  0.87126  1.0000
  H   H4350     1.0  0.67478  0.59436  0.97050  1.0000
  H   H4351     1.0  0.72110  0.97259  0.84824  1.0000
  C   C2436     1.0  0.74621  0.66994  0.78179  1.0000
  C   C2437     1.0  0.74200  0.64579  0.78309  1.0000
  C   C2438     1.0  0.72868  0.63543  0.77347  1.0000
  H   H4352     1.0  0.97962  0.66034  0.92609  1.0000
  C   C2439     1.0  0.77583  0.60487  0.76540  1.0000
  C   C2440     1.0  0.73641  0.68368  0.77117  1.0000
  H   H4353     1.0  0.74939  0.63518  0.79133  1.0000
  C   C2441     1.0  0.66430  0.90523  0.93857  1.0000
  C   C2442     1.0  0.67249  0.88703  0.93391  1.0000
  H   H4354     1.0  0.72045  0.89929  0.84121  1.0000
  C   C2443     1.0  0.90417  0.67041  0.83418  1.0000
  C   C2444     1.0  0.88058  0.66736  0.84090  1.0000
  C   C2445     1.0  0.86447  0.65822  0.83260  1.0000
  C   C2446     1.0  0.87191  0.65205  0.81745  1.0000
  C   C2447     1.0  0.89549  0.65498  0.81074  1.0000
  C   C2448     1.0  0.91157  0.66404  0.81911  1.0000
  H   H4355     1.0  0.87479  0.67183  0.85267  1.0000
  H   H4356     1.0  0.84631  0.65590  0.83793  1.0000
  H   H4357     1.0  0.90135  0.65041  0.79896  1.0000
  H   H4358     1.0  0.92966  0.66625  0.81380  1.0000
  H   H4359     1.0  0.71059  0.56032  0.78824  1.0000
  H   H4360     1.0  0.73239  0.59851  0.81012  1.0000
  N   N136      1.0  0.74345  0.76334  0.97948  1.0000
  C   C2449     1.0  0.77003  0.94781  0.77894  1.0000
  H   H4361     1.0  0.67638  0.66545  0.78396  1.0000
  H   H4362     1.0  0.66449  0.82688  0.84131  1.0000
  C   C2450     1.0  0.75674  0.72100  0.87756  1.0000
  C   C2451     1.0  0.75308  0.70256  0.89219  1.0000
  C   C2452     1.0  0.75931  0.68198  0.89066  1.0000
  C   C2453     1.0  0.76885  0.67956  0.87448  1.0000
  C   C2454     1.0  0.77285  0.69810  0.85980  1.0000
  C   C2455     1.0  0.76713  0.71902  0.86139  1.0000
  H   H4363     1.0  0.74576  0.70429  0.90476  1.0000
  H   H4364     1.0  0.75675  0.66790  0.90204  1.0000
  H   H4365     1.0  0.78061  0.69644  0.84730  1.0000
  C   C2456     1.0  0.69380  0.97648  0.93354  1.0000
  C   C2457     1.0  0.79002  0.78345  0.93541  1.0000
  H   H4366     1.0  0.75728  0.75706  0.94419  1.0000
  H   H4367     1.0  0.78788  0.64811  0.77137  1.0000
  C   C2458     1.0  0.77934  0.00040  0.98841  1.0000
  Fe  Fe283     1.0  0.68633  0.74881  0.92922  1.0000
  C   C2459     1.0  0.78539  0.97603  0.89382  1.0000
  C   C2460     1.0  0.77829  0.98305  0.87914  1.0000
  C   C2461     1.0  0.78759  0.97754  0.86414  1.0000
  C   C2462     1.0  0.80551  0.96688  0.86318  1.0000
  C   C2463     1.0  0.81278  0.95987  0.87786  1.0000
  S   S557      1.0  0.69748  0.67299  0.96000  1.0000
  H   H4368     1.0  0.66922  0.87234  0.84908  1.0000
  C   C2464     1.0  0.96069  0.65009  0.76086  1.0000
  C   C2465     1.0  0.68671  0.63970  0.84243  1.0000
  S   S558      1.0  0.74760  0.74606  0.87958  1.0000
  C   C2466     1.0  0.74132  0.82403  0.92970  1.0000
  H   H4369     1.0  0.75902  0.82481  0.92415  1.0000
  H   H4370     1.0  0.71678  0.80234  0.80328  1.0000
  C   C2467     1.0  0.88007  0.62683  0.88091  1.0000
  H   H4371     1.0  0.73407  0.94490  0.89478  1.0000
  H   H4372     1.0  0.85742  0.71547  0.76708  1.0000
  H   H4373     1.0  0.80588  0.68802  0.76888  1.0000
  C   C2468     1.0  0.73852  0.67901  0.99195  1.0000
  H   H4374     1.0  0.72586  0.61675  0.77435  1.0000
  H   H4375     1.0  0.94807  0.64972  0.75311  1.0000
  H   H4376     1.0  0.68796  0.60133  0.93714  1.0000
  H   H4377     1.0  0.69379  0.71043  0.76941  1.0000
  H   H4378     1.0  0.73968  0.70247  0.77004  1.0000
  H   H4379     1.0  0.81310  0.63939  0.76429  1.0000
  C   C2469     1.0  0.87148  0.53201  0.88394  1.0000
  C   C2470     1.0  0.68752  0.52364  0.81703  1.0000
  H   H4380     1.0  0.69023  0.54074  0.82051  1.0000
  H   H4381     1.0  0.66309  0.60462  0.87321  1.0000
  H   H4382     1.0  0.96090  0.67996  0.99246  1.0000
  C   C2471     1.0  0.74793  0.82972  0.97876  1.0000
  H   H4383     1.0  0.70930  0.92330  0.89369  1.0000
  H   H4384     1.0  0.66263  0.90754  0.78168  1.0000
  C   C2472     1.0  0.96383  0.70909  0.97056  1.0000
  H   H4385     1.0  0.72656  0.78939  0.96979  1.0000
  C   C2473     1.0  0.67210  0.56793  0.84229  1.0000
  H   H4386     1.0  0.68060  0.98507  0.87660  1.0000
  C   C2474     1.0  0.66832  0.64826  0.79391  1.0000
  H   H4387     1.0  0.66884  0.62892  0.84431  1.0000
  N   N137      1.0  0.67750  0.85729  0.81882  1.0000
  H   H4388     1.0  0.70368  0.53756  0.77762  1.0000
  H   H4389     1.0  0.87656  0.98716  0.86578  1.0000
  C   C2475     1.0  0.72252  0.67317  0.76183  1.0000
  C   C2476     1.0  0.69519  0.81754  0.88310  1.0000
  H   H4390     1.0  0.85325  0.67825  0.75830  1.0000
  H   H4391     1.0  0.67820  0.96734  0.78785  1.0000
  H   H4392     1.0  0.72364  0.94933  0.87594  1.0000
  H   H4393     1.0  0.78909  0.78679  0.92191  1.0000
  H   H4394     1.0  0.80041  0.77080  0.93759  1.0000
  H   H4395     1.0  0.76001  0.90952  0.78552  1.0000
  H   H4396     1.0  0.73662  0.00335  0.76598  1.0000
  H   H4397     1.0  0.67575  0.96729  0.93461  1.0000
  H   H4398     1.0  0.67104  0.86277  0.91835  1.0000
  C   C2477     1.0  0.83836  0.67992  0.76762  1.0000
  N   N138      1.0  0.78032  0.88685  0.87017  1.0000
  C   C2478     1.0  0.76132  0.88801  0.88452  1.0000
  C   C2479     1.0  0.80325  0.89659  0.87336  1.0000
  C   C2480     1.0  0.77962  0.90320  0.85377  1.0000
  C   C2481     1.0  0.77770  0.86211  0.86798  1.0000
  C   C2482     1.0  0.76652  0.84106  0.88443  1.0000
  C   C2483     1.0  0.73706  0.88279  0.88143  1.0000
  C   C2484     1.0  0.79881  0.90606  0.83737  1.0000
  C   C2485     1.0  0.80783  0.88313  0.88983  1.0000
  C   C2486     1.0  0.82950  0.89730  0.89309  1.0000
  C   C2487     1.0  0.76733  0.81737  0.88072  1.0000
  C   C2488     1.0  0.71787  0.87430  0.89811  1.0000
  C   C2489     1.0  0.79386  0.91946  0.82132  1.0000
  H   H4399     1.0  0.76517  0.90596  0.88680  1.0000
  H   H4400     1.0  0.76024  0.87582  0.89694  1.0000
  H   H4401     1.0  0.81772  0.89693  0.86269  1.0000
  H   H4402     1.0  0.80539  0.91537  0.87360  1.0000
  H   H4403     1.0  0.78028  0.92128  0.85540  1.0000
  H   H4404     1.0  0.76305  0.89691  0.85073  1.0000
  H   H4405     1.0  0.76697  0.85890  0.85902  1.0000
  H   H4406     1.0  0.79479  0.86029  0.86173  1.0000
  H   H4407     1.0  0.74815  0.83986  0.88973  1.0000
  H   H4408     1.0  0.77524  0.84302  0.89456  1.0000
  H   H4409     1.0  0.73503  0.89928  0.87359  1.0000
  H   H4410     1.0  0.73454  0.86903  0.87444  1.0000
  H   H4411     1.0  0.80029  0.88859  0.83571  1.0000
  H   H4412     1.0  0.81574  0.91645  0.83795  1.0000
  H   H4413     1.0  0.79353  0.87973  0.90141  1.0000
  H   H4414     1.0  0.81073  0.86603  0.88833  1.0000
  H   H4415     1.0  0.82696  0.91398  0.89583  1.0000
  H   H4416     1.0  0.83303  0.88672  0.90444  1.0000
  H   H4417     1.0  0.84466  0.90162  0.88184  1.0000
  H   H4418     1.0  0.78544  0.81705  0.87608  1.0000
  H   H4419     1.0  0.75884  0.80270  0.89266  1.0000
  H   H4420     1.0  0.75805  0.81413  0.87097  1.0000
  H   H4421     1.0  0.71971  0.88727  0.90582  1.0000
  H   H4422     1.0  0.70114  0.87229  0.89492  1.0000
  H   H4423     1.0  0.71803  0.85685  0.90584  1.0000
  H   H4424     1.0  0.80814  0.92191  0.80984  1.0000
  H   H4425     1.0  0.77756  0.90947  0.81948  1.0000
  H   H4426     1.0  0.79259  0.93728  0.82233  1.0000
  H   H4427     1.0  0.68166  0.82334  0.90734  1.0000
  S   S559      1.0  0.67283  0.91676  0.95474  1.0000
  C   C2490     1.0  0.69451  0.86799  0.82765  1.0000
  C   C2491     1.0  0.66531  0.87748  0.92128  1.0000
  C   C2492     1.0  0.68983  0.84735  0.80556  1.0000
  C   C2493     1.0  0.69961  0.82682  0.81255  1.0000
  H   H4428     1.0  0.84796  0.00026  0.88364  1.0000
  C   C2494     1.0  0.68549  0.89748  0.79644  1.0000
  C   C2495     1.0  0.68589  0.88266  0.83963  1.0000
  H   H4429     1.0  0.72523  0.78474  0.99177  1.0000
  C   C2496     1.0  0.70938  0.81663  0.79814  1.0000
  H   H4430     1.0  0.71754  0.57891  0.75784  1.0000
  C   C2497     1.0  0.69944  0.57138  0.76590  1.0000
  N   N139      1.0  0.70717  0.99532  0.78790  1.0000
  C   C2498     1.0  0.72477  0.74626  0.97538  1.0000
  H   H4431     1.0  0.69965  0.85379  0.83562  1.0000
  H   H4432     1.0  0.71084  0.87948  0.81810  1.0000
  H   H4433     1.0  0.68541  0.60997  0.88399  1.0000
  H   H4434     1.0  0.96378  0.74958  0.91201  1.0000
  C   C2499     1.0  0.66882  0.62832  0.93710  1.0000
  H   H4435     1.0  0.70495  0.86137  0.79637  1.0000
  H   H4436     1.0  0.98498  0.75584  0.94243  1.0000
  H   H4437     1.0  0.71387  0.83339  0.81805  1.0000
  H   H4438     1.0  0.97933  0.67696  0.95049  1.0000
  C   C2500     1.0  0.71983  0.67193  0.98526  1.0000
  H   H4439     1.0  0.69444  0.89204  0.78563  1.0000
  H   H4440     1.0  0.69851  0.90648  0.80193  1.0000
  C   C2501     1.0  0.71764  0.99531  0.76974  1.0000
  H   H4441     1.0  0.67963  0.62114  0.98931  1.0000
  H   H4442     1.0  0.69700  0.90186  0.85720  1.0000
  C   C2502     1.0  0.74744  0.92397  0.76444  1.0000
  C   C2503     1.0  0.70056  0.73818  0.98836  1.0000
  Fe  Fe284     1.0  0.99128  0.65565  0.81956  1.0000
  H   H4443     1.0  0.73381  0.83214  0.97285  1.0000
  H   H4444     1.0  0.72326  0.83067  0.78785  1.0000
  C   C2504     1.0  0.84773  0.69818  0.77658  1.0000
  H   H4445     1.0  0.98369  0.59821  0.85939  1.0000
  H   H4446     1.0  0.76507  0.81489  0.96018  1.0000
  H   H4447     1.0  0.68293  0.64823  0.86743  1.0000
  H   H4448     1.0  0.80789  0.95855  0.90470  1.0000
  N   N140      1.0  0.91513  0.59232  0.85536  1.0000
  C   C2505     1.0  0.90896  0.60795  0.86665  1.0000
  C   C2506     1.0  0.93895  0.58941  0.85506  1.0000
  C   C2507     1.0  0.91579  0.60482  0.83733  1.0000
  C   C2508     1.0  0.89741  0.56848  0.86067  1.0000
  C   C2509     1.0  0.89228  0.55372  0.87945  1.0000
  C   C2510     1.0  0.92313  0.59241  0.82330  1.0000
  C   C2511     1.0  0.94693  0.58914  0.87165  1.0000
  C   C2512     1.0  0.97028  0.58395  0.86978  1.0000
  C   C2513     1.0  0.72668  0.94453  0.81392  1.0000
  C   C2514     1.0  0.92515  0.60775  0.80554  1.0000
  H   H4449     1.0  0.94075  0.57301  0.85137  1.0000
  H   H4450     1.0  0.95244  0.60406  0.84487  1.0000
  H   H4451     1.0  0.92772  0.62316  0.83339  1.0000
  H   H4452     1.0  0.89862  0.60694  0.83657  1.0000
  H   H4453     1.0  0.88091  0.57050  0.85807  1.0000
  H   H4454     1.0  0.90295  0.55701  0.85267  1.0000
  H   H4455     1.0  0.88845  0.56408  0.88872  1.0000
  H   H4456     1.0  0.90719  0.54707  0.88121  1.0000
  H   H4457     1.0  0.88270  0.62099  0.85616  1.0000
  H   H4458     1.0  0.87094  0.59456  0.87377  1.0000
  H   H4459     1.0  0.91012  0.57531  0.82537  1.0000
  H   H4460     1.0  0.94001  0.58892  0.82312  1.0000
  H   H4461     1.0  0.94905  0.60675  0.87428  1.0000
  H   H4462     1.0  0.93446  0.57577  0.88300  1.0000
  H   H4463     1.0  0.95629  0.72425  0.96842  1.0000
  H   H4464     1.0  0.77040  0.80754  0.98076  1.0000
  S   S560      1.0  0.68643  0.74813  0.90223  1.0000
  H   H4465     1.0  0.67813  0.82029  0.95108  1.0000
  H   H4466     1.0  0.67331  0.64683  0.93817  1.0000
  Fe  Fe285     1.0  0.81152  0.99109  0.82384  1.0000
  H   H4467     1.0  0.93106  0.59884  0.79571  1.0000
  H   H4468     1.0  0.90816  0.61034  0.80470  1.0000
  H   H4469     1.0  0.93785  0.62532  0.80279  1.0000
  N   N141      1.0  0.69099  0.66478  0.83175  1.0000
  C   C2515     1.0  0.68980  0.66409  0.81383  1.0000
  C   C2516     1.0  0.71532  0.67841  0.83035  1.0000
  S   S561      1.0  0.66255  0.71193  0.94060  1.0000
  H   H4470     1.0  0.69061  0.55359  0.85938  1.0000
  C   C2517     1.0  0.72391  0.70437  0.81876  1.0000
  C   C2518     1.0  0.74498  0.75177  0.99709  1.0000
  C   C2519     1.0  0.80229  0.96391  0.89334  1.0000
  H   H4471     1.0  0.89320  0.64440  0.87629  1.0000
  C   C2520     1.0  0.74578  0.71815  0.82199  1.0000
  H   H4472     1.0  0.69459  0.68227  0.80513  1.0000
  H   H4473     1.0  0.70270  0.65547  0.80830  1.0000
  H   H4474     1.0  0.72770  0.66899  0.82539  1.0000
  H   H4475     1.0  0.71728  0.67941  0.84323  1.0000
  H   H4476     1.0  0.97791  0.77760  0.91510  1.0000
  S   S562      1.0  0.78254  0.99719  0.76963  1.0000
  H   H4477     1.0  0.69721  0.83578  0.87554  1.0000
  H   H4478     1.0  0.71087  0.71414  0.82107  1.0000
  H   H4479     1.0  0.72809  0.70461  0.80501  1.0000
  S   S563      1.0  0.66646  0.68238  0.74730  1.0000
  H   H4480     1.0  0.86284  0.62975  0.88163  1.0000
  H   H4481     1.0  0.69081  0.60006  0.86491  1.0000
  C   C2521     1.0  0.76597  0.76664  0.96655  1.0000
  C   C2522     1.0  0.71357  0.84126  0.94378  1.0000
  C   C2523     1.0  0.67619  0.81091  0.89984  1.0000
  H   H4482     1.0  0.88041  0.61780  0.89397  1.0000
  H   H4483     1.0  0.75927  0.70867  0.82053  1.0000
  H   H4484     1.0  0.75262  0.73596  0.81264  1.0000
  H   H4485     1.0  0.74187  0.72044  0.83513  1.0000
  N   N142      1.0  0.83306  0.70171  0.88384  1.0000
  C   C2524     1.0  0.83540  0.70046  0.86558  1.0000
  C   C2525     1.0  0.81946  0.67768  0.89595  1.0000
  C   C2526     1.0  0.81913  0.71891  0.88685  1.0000
  C   C2527     1.0  0.85607  0.71023  0.88739  1.0000
  C   C2528     1.0  0.87678  0.70338  0.87748  1.0000
  C   C2529     1.0  0.84494  0.72465  0.85169  1.0000
  C   C2530     1.0  0.81074  0.71954  0.90573  1.0000
  C   C2531     1.0  0.82886  0.65633  0.89395  1.0000
  C   C2532     1.0  0.81169  0.63303  0.90548  1.0000
  C   C2533     1.0  0.89778  0.70964  0.88431  1.0000
  C   C2534     1.0  0.85307  0.72141  0.83382  1.0000
  C   C2535     1.0  0.80059  0.74031  0.90686  1.0000
  H   H4486     1.0  0.81838  0.69174  0.86406  1.0000
  H   H4487     1.0  0.84630  0.68898  0.86219  1.0000
  H   H4488     1.0  0.81802  0.67794  0.90951  1.0000
  H   H4489     1.0  0.80149  0.67332  0.89485  1.0000
  H   H4490     1.0  0.80355  0.71495  0.88210  1.0000
  H   H4491     1.0  0.82917  0.73734  0.87928  1.0000
  H   H4492     1.0  0.86164  0.72995  0.88434  1.0000
  H   H4493     1.0  0.85441  0.70400  0.90136  1.0000
  H   H4494     1.0  0.88203  0.71311  0.86366  1.0000
  H   H4495     1.0  0.87272  0.68428  0.87832  1.0000
  H   H4496     1.0  0.83113  0.73370  0.85150  1.0000
  H   H4497     1.0  0.85956  0.73648  0.85428  1.0000
  H   H4498     1.0  0.82510  0.72117  0.91187  1.0000
  H   H4499     1.0  0.79683  0.70308  0.91322  1.0000
  H   H4500     1.0  0.83199  0.65472  0.88065  1.0000
  H   H4501     1.0  0.84492  0.65790  0.89805  1.0000
  H   H4502     1.0  0.80809  0.63322  0.91915  1.0000
  H   H4503     1.0  0.79524  0.63004  0.90177  1.0000
  H   H4504     1.0  0.81892  0.61801  0.90406  1.0000
  H   H4505     1.0  0.91236  0.70499  0.87669  1.0000
  H   H4506     1.0  0.90318  0.72895  0.88316  1.0000
  H   H4507     1.0  0.89390  0.69950  0.89794  1.0000
  H   H4508     1.0  0.85887  0.73888  0.82409  1.0000
  H   H4509     1.0  0.86775  0.71353  0.83304  1.0000
  H   H4510     1.0  0.83879  0.70969  0.83076  1.0000
  H   H4511     1.0  0.78629  0.73948  0.90065  1.0000
  H   H4512     1.0  0.79357  0.73944  0.92054  1.0000
  H   H4513     1.0  0.81404  0.75748  0.90056  1.0000
  S   S564      1.0  0.72344  0.89234  0.97013  1.0000
  H   H4514     1.0  0.69682  0.62308  0.94838  1.0000
  C   C2536     1.0  0.88460  0.61170  0.86859  1.0000
  H   H4515     1.0  0.77668  0.71686  0.95545  1.0000
  H   H4516     1.0  0.71172  0.81669  0.88605  1.0000
  S   S565      1.0  0.67795  0.77758  0.94089  1.0000
  S   S566      1.0  0.75925  0.86669  0.93535  1.0000
  C   C2537     1.0  0.74202  0.69754  0.95718  1.0000
  H   H4517     1.0  0.68101  0.95301  0.84800  1.0000
  H   H4518     1.0  0.74356  0.70457  0.94373  1.0000
  H   H4519     1.0  0.69520  0.94618  0.80790  1.0000
  H   H4520     1.0  0.97342  0.69679  0.93343  1.0000
  C   C2538     1.0  0.71383  0.57597  0.83528  1.0000
  C   C2539     1.0  0.73644  0.84253  0.93629  1.0000
  Fe  Fe286     1.0  0.69509  0.70073  0.93798  1.0000
  C   C2540     1.0  0.71379  0.95523  0.80198  1.0000
  H   H4521     1.0  0.92177  0.62582  0.86172  1.0000
  H   H4522     1.0  0.91001  0.60094  0.87985  1.0000
  H   H4523     1.0  0.74537  0.95326  0.80882  1.0000
  C   C2541     1.0  0.72143  0.68140  0.96793  1.0000
  H   H4524     1.0  0.70424  0.52473  0.80819  1.0000
  C   C2542     1.0  0.98063  0.76289  0.90951  1.0000
  H   H4525     1.0  0.72738  0.79007  0.92558  1.0000
  S   S567      1.0  0.69600  0.69560  0.91183  1.0000
  H   H4526     1.0  0.72055  0.94648  0.82700  1.0000
  C   C2543     1.0  0.72345  0.80427  0.93065  1.0000
  H   H4527     1.0  0.72239  0.75423  0.96270  1.0000
  C   C2544     1.0  0.71564  0.59027  0.81915  1.0000
  C   C2545     1.0  0.98432  0.65173  0.74963  1.0000
  C   C2546     1.0  0.86973  0.00117  0.85941  1.0000
  H   H4528     1.0  0.76616  0.97649  0.97437  1.0000
  H   H4529     1.0  0.87454  0.52059  0.87525  1.0000
  H   H4530     1.0  0.85573  0.53753  0.88291  1.0000
  C   C2547     1.0  0.66616  0.65153  0.81187  1.0000
  H   H4531     1.0  0.69631  0.94717  0.91215  1.0000
  H   H4532     1.0  0.78018  0.78022  0.96806  1.0000
  H   H4533     1.0  0.97013  0.72936  0.93909  1.0000
  S   S568      1.0  0.67194  0.87056  0.76199  1.0000
  H   H4534     1.0  0.73823  0.98966  0.79410  1.0000
  H   H4535     1.0  0.67371  0.69228  0.82930  1.0000
  H   H4536     1.0  0.72989  0.72994  0.97426  1.0000
  C   C2548     1.0  0.70223  0.95547  0.89816  1.0000
  H   H4537     1.0  0.66378  0.92130  0.79904  1.0000
  S   S569      1.0  0.71869  0.73776  0.92862  1.0000
  H   H4538     1.0  0.68631  0.81212  0.82265  1.0000
  H   H4539     1.0  0.85960  0.69183  0.78360  1.0000
  H   H4540     1.0  0.68867  0.56392  0.75812  1.0000
  H   H4541     1.0  0.69539  0.73460  0.77919  1.0000
  C   C2549     1.0  0.76570  0.77319  0.94750  1.0000
  H   H4542     1.0  0.75596  0.78633  0.94516  1.0000
  Fe  Fe287     1.0  0.71689  0.73384  0.90258  1.0000
  H   H4543     1.0  0.70967  0.85544  0.94893  1.0000
  H   H4544     1.0  0.69786  0.63054  0.83550  1.0000
  H   H4545     1.0  0.69524  0.75353  0.99151  1.0000
  H   H4546     1.0  0.72046  0.98883  0.87964  1.0000
  C   C2550     1.0  0.70602  0.50572  0.83925  1.0000
  C   C2551     1.0  0.99433  0.67558  0.92502  1.0000
  H   H4547     1.0  0.69330  0.58594  0.76981  1.0000
  H   H4548     1.0  0.68730  0.93115  0.77958  1.0000
  H   H4549     1.0  0.96151  0.66560  0.76623  1.0000
  H   H4550     1.0  0.83344  0.70074  0.78599  1.0000
  C   C2552     1.0  0.70063  0.80273  0.93853  1.0000
  H   H4551     1.0  0.68762  0.73686  0.75915  1.0000
  H   H4552     1.0  0.79862  0.80053  0.93746  1.0000
  H   H4553     1.0  0.70985  0.64272  0.85920  1.0000
  H   H4554     1.0  0.70558  0.63308  0.90927  1.0000
  H   H4555     1.0  0.77919  0.94886  0.78863  1.0000
  C   C2553     1.0  0.71838  0.94252  0.89013  1.0000
  C   C2554     1.0  0.66560  0.60419  0.99381  1.0000
  H   H4556     1.0  0.71925  0.95096  0.78966  1.0000
  H   H4557     1.0  0.68153  0.68595  0.84883  1.0000
  S   S570      1.0  0.98618  0.62416  0.80895  1.0000
  H   H4558     1.0  0.85587  0.99276  0.85423  1.0000
  C   C2555     1.0  0.67350  0.54337  0.79420  1.0000
  H   H4559     1.0  0.66586  0.62990  0.92421  1.0000
  C   C2556     1.0  0.99049  0.57936  0.81508  1.0000
  C   C2557     1.0  0.69204  0.56469  0.84686  1.0000
  H   H4560     1.0  0.82690  0.95197  0.87716  1.0000
  H   H4561     1.0  0.70400  0.65936  0.99362  1.0000
  C   C2558     1.0  0.69109  0.63715  0.86041  1.0000
  H   H4562     1.0  0.95715  0.69672  0.96346  1.0000
  H   H4563     1.0  0.69560  0.80906  0.79253  1.0000
  H   H4564     1.0  0.71200  0.52324  0.84167  1.0000
  H   H4565     1.0  0.69710  0.60339  0.80177  1.0000
  C   C2559     1.0  0.70970  0.98316  0.84529  1.0000
  C   C2560     1.0  0.76940  0.96868  0.76795  1.0000
  C   C2561     1.0  0.68237  0.72504  0.98114  1.0000
  S   S571      1.0  0.73456  0.89574  0.76221  1.0000
  H   H4566     1.0  0.66798  0.97024  0.91063  1.0000
  H   H4567     1.0  0.68103  0.73689  0.96936  1.0000
  Fe  Fe288     1.0  0.66549  0.70999  0.91348  1.0000
  C   C2562     1.0  0.71045  0.63481  0.92120  1.0000
  H   H4568     1.0  0.96959  0.56665  0.86685  1.0000
  H   H4569     1.0  0.93583  0.69073  0.99369  1.0000
  H   H4570     1.0  0.70454  0.96415  0.93201  1.0000
  S   S572      1.0  0.77642  0.98334  0.81946  1.0000
  H   H4571     1.0  0.82846  0.70616  0.75101  1.0000
  C   C2563     1.0  0.69573  0.82134  0.94497  1.0000
  H   H4572     1.0  0.86849  0.52139  0.89733  1.0000
  H   H4573     1.0  0.72596  0.62845  0.92136  1.0000
  C   C2564     1.0  0.68585  0.72468  0.77178  1.0000
  S   S573      1.0  0.78221  0.70589  0.98940  1.0000
  C   C2565     1.0  0.71868  0.64897  0.76297  1.0000
  H   H4574     1.0  0.72408  0.92552  0.81462  1.0000
  H   H4575     1.0  0.71496  0.98558  0.81213  1.0000
  C   C2566     1.0  0.69082  0.62020  0.93709  1.0000
  H   H4576     1.0  0.73042  0.98403  0.89823  1.0000
  C   C2567     1.0  0.67472  0.67748  0.83949  1.0000
  H   H4577     1.0  0.67119  0.55801  0.79998  1.0000
  C   C2568     1.0  0.77092  0.97790  0.98600  1.0000
  C   C2569     1.0  0.82048  0.68745  0.75866  1.0000
  C   C2570     1.0  0.67399  0.91549  0.78884  1.0000
  H   H4578     1.0  0.67851  0.84158  0.79753  1.0000
  C   C2571     1.0  0.66766  0.87565  0.80994  1.0000
  C   C2572     1.0  0.69392  0.98223  0.95064  1.0000
  H   H4579     1.0  0.68745  0.96554  0.96122  1.0000
  C   C2573     1.0  0.67399  0.58182  0.82593  1.0000
  H   H4580     1.0  0.76551  0.99266  0.87926  1.0000
  H   H4581     1.0  0.71533  0.97683  0.76878  1.0000
  C   C2574     1.0  0.69812  0.55225  0.78176  1.0000
  C   C2575     1.0  0.75899  0.69539  0.98126  1.0000
  H   H4582     1.0  0.67871  0.63578  0.79174  1.0000
  H   H4583     1.0  0.67510  0.79275  0.90693  1.0000
  C   C2576     1.0  0.75684  0.80944  0.97422  1.0000
  C   C2577     1.0  0.73690  0.78621  0.97912  1.0000
  H   H4584     1.0  0.68365  0.89914  0.83205  1.0000
  H   H4585     1.0  0.77150  0.75010  0.96888  1.0000
  H   H4586     1.0  0.97537  0.58336  0.88190  1.0000
  C   C2578     1.0  0.95498  0.69615  0.98970  1.0000
  C   C2579     1.0  0.70292  0.88990  0.84981  1.0000
  N   N143      1.0  0.66852  0.52071  0.80813  1.0000
  H   H4587     1.0  0.70373  0.87405  0.85904  1.0000
  C   C2580     1.0  0.75915  0.92555  0.77715  1.0000
  H   H4588     1.0  0.69115  0.80490  0.87541  1.0000
  S   S574      1.0  0.75767  0.92866  0.99623  1.0000
  C   C2581     1.0  0.71443  0.98239  0.89392  1.0000
  C   C2582     1.0  0.71917  0.98245  0.79927  1.0000
  H   H4589     1.0  0.74146  0.82613  0.99288  1.0000
  H   H4590     1.0  0.78103  0.98202  0.85322  1.0000
  C   C2583     1.0  0.68171  0.98229  0.79377  1.0000
  C   C2584     1.0  0.99055  0.71837  0.96480  1.0000
  H   H4591     1.0  0.67623  0.97397  0.80788  1.0000
  H   H4592     1.0  0.76385  0.60641  0.77689  1.0000
  C   C2585     1.0  0.66460  0.99715  0.79088  1.0000
  C   C2586     1.0  0.98694  0.68958  0.93752  1.0000
  H   H4593     1.0  0.77234  0.63478  0.74791  1.0000
  H   H4594     1.0  0.98795  0.77023  0.89540  1.0000
  H   H4595     1.0  0.77590  0.67263  0.75021  1.0000
  H   H4596     1.0  0.78943  0.59760  0.76945  1.0000
  C   C2587     1.0  0.75798  0.96704  0.75512  1.0000
  C   C2588     1.0  0.80011  0.64729  0.75972  1.0000
  C   C2589     1.0  0.74674  0.94484  0.75353  1.0000
  H   H4597     1.0  0.68966  0.99742  0.75769  1.0000
  C   C2590     1.0  0.67530  0.98898  0.90286  1.0000
  H   H4598     1.0  0.71166  0.99138  0.95059  1.0000
  C   C2591     1.0  0.66871  0.99089  0.88569  1.0000
  H   H4599     1.0  0.71501  0.68380  0.75362  1.0000
  H   H4600     1.0  0.68247  0.99364  0.95321  1.0000
  H   H4601     1.0  0.66530  0.71902  0.99077  1.0000
  S   S575      1.0  0.70135  0.63490  0.75169  1.0000
  H   H4602     1.0  0.67261  0.51224  0.77352  1.0000
  H   H4603     1.0  0.76591  0.59222  0.75980  1.0000
  S   S576      1.0  0.99132  0.70908  0.83863  1.0000
  H   H4604     1.0  0.66569  0.99907  0.91005  1.0000
  N   N144      1.0  0.70074  0.99765  0.90119  1.0000
  H   H4605     1.0  0.78132  0.77045  0.99440  1.0000
  H   H4606     1.0  0.99349  0.54376  0.81984  1.0000
  C   C2592     1.0  0.70401  0.99931  0.91849  1.0000
  H   H4607     1.0  0.79174  0.71307  0.74866  1.0000
  H   H4608     1.0  0.67064  0.50552  0.84428  1.0000
