data_image0
_chemical_formula_structural       H4FeS2FeS2FeS2FeSFeS3FeS3FeS2FeSFeSFeS3FeSFeS2FeSFeCS2HSHC6H6CH2C6H5C6H4C6H5C3HC6H4C2HNC9H20NC12H34CHC2H4CHC2H5NHC2H5CH3C2HC4H3C3H7C2H5SFeH8FeH4SHNCH2C2HC2H2SCH5CH3C3H2C3H10C2HC2H5C2HNC2H2CH9CH4CHCH3CH2CH2CHCHCH3CH5NHCH3CH2FeHC2HCHC4HCHCH2SCHC2H2SHNH2CFeS2HCHFeS2FeS2FeSFeS3FeS2HFeS2FeSFeSFeS3FeS2FeSFeSFeS3C9H4C2H2CH2C6H4C6H4C6H6CH2C6H6NC6H16CHCH2CH7C2H2C2H6C2H2CHCH5CH3NH3NC12H28SH4CH3C2H5CHNH2C2HC4H8CHFeH2NC3H2C4H2CH2FeH4CH3C2H2C2H2CFeH2CH4CHC2H4NHC2H2NCH2CH2CH7CHCH4C3SHCHC2H2CH6CH5CH2SHCH3CHCHSCHC2HCH2SH2CH4CHCHSHSHCHCHC2H6CHC3H4NCH5CFeSFeS2FeCFeS3FeSHFeS2FeSFeS2HFeS2FeS2FeS2FeSFeS3H3SFeS2FeH2C6H4C2H2C7H5CH3C6H6C2HC6H4CH2C8H3CH2FeHCH2C3H9CH7CH3C2NC2HNH3NC12H29C2H2SHSH4CH5CH5CH4NC2HC2H2C2H4FeH5CHCH2CH2SH2CSH4SH2CNC2HC6H6CH6SHCH6CHCH2CH2CNH3CHC2HC2H2C2H2CH4CH2CHCH3C2H4C2HNSCH2C2H2C2HCH4CHCH3C3HCH4CH4C2H3CH2CHCH6CH2FeS2FeS2Fe2S3FeS2FeS2FeSFeS2FeS2Fe2S2FeS2FeSFeS3H4FeS2CHC7H9C6H4C6H9CHC6H4C6H4C3H4CHFeSCH2SH4NH3CHC3HNH8CH5CH2NHCHC2H3C2H7CH4C2H2CH6C3SH2C2H2CH3CH11CHCHCH3CH4CH3CHCHNC9H16C4H3FeHCHCHNH2CHC2H2SH5CHCHC2HCNC6H3CH11CHCSH5C2H3C2HCH3C2H5CH5CH5CH2C2HCH7SCNC10H3CH8CH5CHFeH9CHC3HCH3SHFeS2HNFeS2H3FeS2FeS2FeSFeS3HFeS2FeS2FeSFeS3C6H6CH3C7H4C6H4C3SC2H2SH2C4H6C6H4C6HFeH2CH4SH6CH11NC12H28C2H4C4H2C3HCH2NC4H2CH3CH2CHNC11H4C2H24C2HCH2C6H2CH2C3H3CH2C2H4SHCH7C3HSH3CH2CH4CHC3HCH5C3H2CH3CH2CHCH3CH2FeNH4CH4CHC3H3CH3NH3CH7FeH3NHCH2C3HFeS2FeHSFeS2H4FeS2FeS2FeSFeS3CHCFeS2FeS2FeSFeS3C7H4C3SC2H4C6H6C4H5CH2C2HC4HSH2CHC6H4C6H3CH2CH6CH3CH2C2H4CH2FeHCH4CHCH2NHCH6CHNCN2H2CHC2H3CH2CH2CH4CH4CH4CFeHC3H3C3H3CH2CH6CHCH9NHNHC3H2C3HCH6CHNC2H3CHCH2CHCH4CNC5HC6H25C2H2C7H3C2H3CH2SCHCH4C2HCHCH3SH4CHCHCH2CHC2HCH4CH3CH2CH2CH2CHCH2CH8CH3C2H2CH3CH4FeS2H2CH3S2CH3C7H5C2HCH2CH3CH2CHCHC3H6SH5C2HCHCHCH4CH3CH3CSH3CFeCH3CHCHCH2CHCHC3HNHSH3SNCH2CHCFeH2CH7CH4CHCHCFeH9CH5FeS2FeS2FeH2CH3C2SC6H6CH2C2H3CHCHCSCHCHC2H6CH4NCH2NH4CHC2HCHSH2CH4C2NH3C2HCHCH2SH5C2H3CH2C2H3CHCHC2H3CH14CHFeHCS2HCH2CHCH2CNHCHFeCSHCH3FeS2HSH3C2H3C6H8CH3NC5HC2HCHCH8CH9SH4C2H6C2H2CH3CH4NHCHCHCFeH2CH2CSC5H8CH5CH5CSHCH4C2NH3CH2C3HCH2CHCH5FeS2H3CHFeS2H7CH4NHC6H12CH2CHSCH6CH2CHC2H2CH4CHCH2CH2CH2CH3C2HC2HCNH2SCH2CHC3HCHCHC2H2CHCH5C2H6NH2CNH3CHCH3CHCH2CH6C2H2CH2C2H2FeS2FeS2FeSFeS3H2FeS2FeS2FeSFeS3HC2HSHFeS2H2CH2C7H6C3HC2H3C6HC2H2C3HC2HCH2C6H6C6H4C6H3NC12H28C2HC4H2SH7CHCHCH9C2H9CHCH2CH10CHCH2CHCHCH3CFeCSH5CH2FeH2CH6SHCH2N2H3CH4CNHC2HCHC2H8CH6CHFeCH5C2HCNC3HCH4SHSCHC3HCH2CH4CH5SHCHCH2CH5C2H2C2HNH5CHC2H2CH2C5H3C2HC2HSCHCHCHCHCH2CHC2HSHFeS2FeS2FeSFeS3CHFeS2FeS2FeSFeS3H2CS2FeS2FeS2C8H4NHC6H2CH2CH2NC6H4C2H3C2H2C6H4C3HC2H2CHCHC8H3CHFeH2C2H4CHCH3CH7CH4CH3CHNH3NCH5CHCHCH2CHCH4CHSH6C2NC2H2CH2C2H2CH7C3H2CHCFeCH3CH3CHC2H2CHC2HCH2C3HCH4CH7CHCH3CHC2H2CHCH6CHCH3CH2C3H6CH2CHCH2CH2C3H4CH4NH3NH2CHC3H2C2H5CHC3HNHCH3C2H6SH2CH5C3H4CH4CHC2FeSHFeS2HFeS2FeS2FeSFeS3FeSFeS2FeSFeCS2FeS2FeSFeSFeHS2H3CSC8H4CH2C6H4C2H3C6H4CHC4H2SC8H7CNC12H27NC12H28NC7H2C3H3CH9C3H11SCHC3HC2SNHSC2HC2H3NC9HCH20CH3C2H4CH4SH3CHCSCH2CH4CHCH9CH6CH5C2H2CHSHCH2CHCH7C2NH2CH6C2H3CH8C2H5CH4FeCHSH3FeS2HFeS2FeS2FeSFeS3FeS2FeSFeSFeS3FeS2FeS2Fe2S3HC2H3C10H4CHC7H6C2HC6H4C2H2C2H2CH3C6H4SH2SCH5NC11H25NC12H29CH3CHCH5CHCH2CH2C2H3CH3NC10HCH19CH8CH5NSHFeCHCHC2HCHCHCH3SH2C2HCH5C2HCH2SH4CH3NH4SH7CH3CNCHCHCHCH5C3HFeHCSHCH3CH3SH2C4H3C2H2Fe2SFeS2FeHFeS3FeS2FeSCFe2S3H2S2HS2HCFeS2FeS2FeSFeS3C2H2C7H4CHNC6H5C4H2CHCH2C6H4C6H4CHCNHC2HCHCHFeH3CH6NC9H18CH3CH9CH4SHCHCHC2H5C2H3CSHNC12H29CH5SH2C2HC4HCHCH2C2H2CHCH3CS2H5NC4HC4HC2H8CH19NHCH2CH4C4HC2H12CHCHC3H3FeCH3C2H3CH2CHCFeH3CNH4FeSFeS2FeSFeS3FeS2FeS2FeSFeS2H2SCHCH2S2FeS2FeS2FeSFeS3CHCH2C6H6C7H4FeC2H2CSHCHCH2C6H4C6H4CH2CH2NC7H2C3H16CHCHCH6NC3H2CHC2H2CH2CH2C2H8NH2CHCH9C2SH2CH9C2H3NHC3H2C3HCH5CH5FeH8C5H3SHCHC2NHCH2NC10H26CH11CHC2H3C3HC2HCHC3H11SC3H3CH2CHCH7CHCHC2HC2H4
_chemical_formula_sum              "H3072 Fe192 S384 C1728 N96"
_cell_length_a       57.3204
_cell_length_b       57.0585
_cell_length_c       84.1176
_cell_angle_alpha    90.9677
_cell_angle_beta     90.9532
_cell_angle_gamma    117.461

_space_group_name_H-M_alt    "P 1"
_space_group_IT_number       1

loop_
  _space_group_symop_operation_xyz
  'x, y, z'

loop_
  _atom_site_type_symbol
  _atom_site_label
  _atom_site_symmetry_multiplicity
  _atom_site_fract_x
  _atom_site_fract_y
  _atom_site_fract_z
  _atom_site_occupancy
  H   H1        1.0  0.20870  0.36756  0.04532  1.0000
  H   H2        1.0  0.36152  0.05192  0.02481  1.0000
  H   H3        1.0  0.29827  0.39973  0.99580  1.0000
  H   H4        1.0  0.19693  0.02629  0.11432  1.0000
  Fe  Fe1       1.0  0.20553  0.01578  0.15286  1.0000
  S   S1        1.0  0.18877  0.04535  0.15284  1.0000
  S   S2        1.0  0.24833  0.02575  0.15401  1.0000
  Fe  Fe2       1.0  0.23238  0.25334  0.13186  1.0000
  S   S3        1.0  0.20106  0.21042  0.12972  1.0000
  S   S4        1.0  0.23954  0.27727  0.10891  1.0000
  Fe  Fe3       1.0  0.24220  0.24747  0.16758  1.0000
  S   S5        1.0  0.21228  0.20498  0.16747  1.0000
  S   S6        1.0  0.26474  0.26680  0.19070  1.0000
  Fe  Fe4       1.0  0.22879  0.20072  0.14435  1.0000
  S   S7        1.0  0.24300  0.16947  0.14050  1.0000
  Fe  Fe5       1.0  0.18728  0.21831  0.15322  1.0000
  S   S8        1.0  0.14813  0.20743  0.16437  1.0000
  S   S9        1.0  0.26086  0.24305  0.14503  1.0000
  S   S10       1.0  0.21647  0.26137  0.15453  1.0000
  Fe  Fe6       1.0  0.01842  0.20695  0.14342  1.0000
  S   S11       1.0  0.03822  0.24344  0.15882  1.0000
  S   S12       1.0  0.04248  0.19143  0.12995  1.0000
  S   S13       1.0  0.07471  0.47970  0.05938  1.0000
  Fe  Fe7       1.0  0.32705  0.41161  0.06199  1.0000
  S   S14       1.0  0.30220  0.38832  0.04112  1.0000
  S   S15       1.0  0.31880  0.39411  0.08692  1.0000
  Fe  Fe8       1.0  0.36172  0.45933  0.04136  1.0000
  S   S16       1.0  0.33761  0.43793  0.01922  1.0000
  Fe  Fe9       1.0  0.30141  0.42562  0.03398  1.0000
  S   S17       1.0  0.26165  0.41845  0.02286  1.0000
  Fe  Fe10      1.0  0.34009  0.40226  0.02808  1.0000
  S   S18       1.0  0.34261  0.36941  0.01341  1.0000
  S   S19       1.0  0.32493  0.44906  0.05559  1.0000
  S   S20       1.0  0.36558  0.42356  0.04954  1.0000
  Fe  Fe11      1.0  0.08289  0.44637  0.04907  1.0000
  S   S21       1.0  0.10746  0.44803  0.02813  1.0000
  Fe  Fe12      1.0  0.06908  0.38754  0.05511  1.0000
  S   S22       1.0  0.09227  0.38570  0.03410  1.0000
  S   S23       1.0  0.04507  0.34869  0.06813  1.0000
  Fe  Fe13      1.0  0.12364  0.42562  0.04290  1.0000
  S   S24       1.0  0.16730  0.43818  0.04915  1.0000
  Fe  Fe14      1.0  0.07399  0.40780  0.02101  1.0000
  C   C1        1.0  0.00230  0.42876  0.00425  1.0000
  S   S25       1.0  0.10098  0.42644  0.06451  1.0000
  S   S26       1.0  0.04889  0.40718  0.04131  1.0000
  H   H5        1.0  0.13114  0.35849  0.07699  1.0000
  S   S27       1.0  0.99399  0.22137  0.12952  1.0000
  H   H6        1.0  0.18530  0.24358  0.22590  1.0000
  C   C2        1.0  0.19287  0.43164  0.04177  1.0000
  C   C3        1.0  0.21765  0.44343  0.04970  1.0000
  C   C4        1.0  0.23879  0.43948  0.04419  1.0000
  C   C5        1.0  0.23544  0.42354  0.03066  1.0000
  C   C6        1.0  0.21059  0.41150  0.02282  1.0000
  C   C7        1.0  0.18942  0.41540  0.02835  1.0000
  H   H7        1.0  0.22066  0.45611  0.06005  1.0000
  H   H8        1.0  0.25779  0.44918  0.05025  1.0000
  H   H9        1.0  0.20772  0.39921  0.01230  1.0000
  H   H10       1.0  0.17056  0.40619  0.02208  1.0000
  H   H11       1.0  0.36413  0.31068  0.07980  1.0000
  H   H12       1.0  0.02913  0.42795  0.08367  1.0000
  C   C8        1.0  0.36472  0.37202  0.99818  1.0000
  H   H13       1.0  0.38983  0.03588  0.04182  1.0000
  H   H14       1.0  0.26821  0.05803  0.10462  1.0000
  C   C9        1.0  0.03842  0.31290  0.11792  1.0000
  C   C10       1.0  0.02428  0.29729  0.10472  1.0000
  C   C11       1.0  0.02718  0.30848  0.08957  1.0000
  C   C12       1.0  0.04447  0.33535  0.08729  1.0000
  C   C13       1.0  0.05928  0.35082  0.10041  1.0000
  C   C14       1.0  0.05603  0.33970  0.11563  1.0000
  H   H15       1.0  0.39273  0.32212  0.03126  1.0000
  H   H16       1.0  0.01557  0.29627  0.07956  1.0000
  H   H17       1.0  0.07268  0.37150  0.09892  1.0000
  H   H18       1.0  0.06701  0.35203  0.12575  1.0000
  H   H19       1.0  0.47067  0.45465  0.00904  1.0000
  C   C15       1.0  0.11944  0.20362  0.15426  1.0000
  C   C16       1.0  0.10016  0.20629  0.16303  1.0000
  C   C17       1.0  0.07653  0.20257  0.15565  1.0000
  C   C18       1.0  0.07189  0.19586  0.13945  1.0000
  C   C19       1.0  0.09110  0.19303  0.13064  1.0000
  C   C20       1.0  0.11495  0.19707  0.13801  1.0000
  H   H20       1.0  0.10344  0.21111  0.17563  1.0000
  H   H21       1.0  0.06175  0.20455  0.16255  1.0000
  H   H22       1.0  0.08751  0.18773  0.11810  1.0000
  H   H23       1.0  0.12960  0.19463  0.13123  1.0000
  C   C21       1.0  0.26167  0.31006  0.10328  1.0000
  C   C22       1.0  0.26050  0.31741  0.08748  1.0000
  C   C23       1.0  0.27767  0.34299  0.08232  1.0000
  C   C24       1.0  0.29612  0.36178  0.09294  1.0000
  C   C25       1.0  0.29712  0.35455  0.10877  1.0000
  C   C26       1.0  0.28011  0.32887  0.11391  1.0000
  H   H24       1.0  0.24627  0.30309  0.07916  1.0000
  H   H25       1.0  0.27670  0.34822  0.07013  1.0000
  H   H26       1.0  0.31133  0.36885  0.11712  1.0000
  H   H27       1.0  0.28129  0.32366  0.12610  1.0000
  H   H28       1.0  0.18871  0.38110  0.06121  1.0000
  C   C27       1.0  0.25111  0.25349  0.20924  1.0000
  C   C28       1.0  0.22714  0.23056  0.20992  1.0000
  C   C29       1.0  0.06162  0.43096  0.09810  1.0000
  H   H29       1.0  0.21590  0.22162  0.19915  1.0000
  C   C30       1.0  0.20482  0.08026  0.15065  1.0000
  C   C31       1.0  0.18993  0.09411  0.15169  1.0000
  C   C32       1.0  0.20134  0.12147  0.14891  1.0000
  C   C33       1.0  0.22781  0.13530  0.14494  1.0000
  C   C34       1.0  0.24276  0.12149  0.14408  1.0000
  C   C35       1.0  0.23144  0.09421  0.14706  1.0000
  H   H30       1.0  0.16931  0.08355  0.15444  1.0000
  H   H31       1.0  0.18955  0.13176  0.14956  1.0000
  H   H32       1.0  0.26326  0.13198  0.14105  1.0000
  H   H33       1.0  0.24319  0.08391  0.14631  1.0000
  C   C36       1.0  0.25542  0.25365  0.23831  1.0000
  C   C37       1.0  0.19919  0.08858  0.22488  1.0000
  H   H34       1.0  0.18504  0.40722  0.08266  1.0000
  N   N1        1.0  0.20907  0.37103  0.07986  1.0000
  C   C38       1.0  0.21663  0.35476  0.06871  1.0000
  C   C39       1.0  0.20246  0.35853  0.09604  1.0000
  C   C40       1.0  0.23021  0.39929  0.08145  1.0000
  C   C41       1.0  0.25772  0.40364  0.08717  1.0000
  C   C42       1.0  0.22462  0.36550  0.05177  1.0000
  C   C43       1.0  0.21741  0.34320  0.10175  1.0000
  C   C44       1.0  0.21322  0.33681  0.11936  1.0000
  C   C45       1.0  0.27751  0.43296  0.08720  1.0000
  C   C46       1.0  0.23096  0.34677  0.04169  1.0000
  H   H35       1.0  0.20015  0.33428  0.06749  1.0000
  H   H36       1.0  0.23358  0.35258  0.07357  1.0000
  H   H37       1.0  0.20526  0.37376  0.10539  1.0000
  H   H38       1.0  0.18124  0.34383  0.09635  1.0000
  H   H39       1.0  0.23238  0.40934  0.06997  1.0000
  H   H40       1.0  0.22439  0.41061  0.09000  1.0000
  H   H41       1.0  0.26530  0.39301  0.07934  1.0000
  H   H42       1.0  0.25709  0.39713  0.09956  1.0000
  H   H43       1.0  0.24244  0.38500  0.05238  1.0000
  H   H44       1.0  0.21012  0.32416  0.09491  1.0000
  H   H45       1.0  0.23886  0.35435  0.10014  1.0000
  H   H46       1.0  0.19199  0.32509  0.12173  1.0000
  H   H47       1.0  0.22340  0.32505  0.12282  1.0000
  H   H48       1.0  0.22161  0.35528  0.12680  1.0000
  H   H49       1.0  0.27885  0.44093  0.07512  1.0000
  H   H50       1.0  0.27169  0.44441  0.09563  1.0000
  H   H51       1.0  0.29727  0.43558  0.09097  1.0000
  H   H52       1.0  0.24715  0.34407  0.04734  1.0000
  H   H53       1.0  0.21333  0.32724  0.04005  1.0000
  H   H54       1.0  0.23731  0.35529  0.02982  1.0000
  N   N2        1.0  0.11298  0.27793  0.12668  1.0000
  C   C47       1.0  0.10026  0.27372  0.14266  1.0000
  C   C48       1.0  0.09257  0.26073  0.11428  1.0000
  C   C49       1.0  0.13366  0.26849  0.12773  1.0000
  C   C50       1.0  0.12591  0.30657  0.12200  1.0000
  C   C51       1.0  0.11316  0.32391  0.12789  1.0000
  C   C52       1.0  0.11949  0.28542  0.15723  1.0000
  C   C53       1.0  0.14659  0.26703  0.11194  1.0000
  C   C54       1.0  0.06829  0.26553  0.11183  1.0000
  C   C55       1.0  0.04859  0.24537  0.09985  1.0000
  C   C56       1.0  0.12436  0.35022  0.11944  1.0000
  C   C57       1.0  0.10508  0.28582  0.17227  1.0000
  C   C58       1.0  0.16975  0.26118  0.11502  1.0000
  H   H55       1.0  0.08844  0.25219  0.14462  1.0000
  H   H56       1.0  0.08583  0.28156  0.14308  1.0000
  H   H57       1.0  0.10138  0.26329  0.10237  1.0000
  H   H58       1.0  0.08528  0.23950  0.11708  1.0000
  H   H59       1.0  0.12521  0.24850  0.13290  1.0000
  H   H60       1.0  0.15004  0.28152  0.13604  1.0000
  H   H61       1.0  0.14666  0.31692  0.12656  1.0000
  H   H62       1.0  0.12723  0.30784  0.10881  1.0000
  H   H63       1.0  0.11716  0.32838  0.14084  1.0000
  H   H64       1.0  0.09158  0.31417  0.12605  1.0000
  H   H65       1.0  0.12943  0.27305  0.15968  1.0000
  H   H66       1.0  0.13483  0.30582  0.15507  1.0000
  H   H67       1.0  0.15384  0.28588  0.10557  1.0000
  H   H68       1.0  0.13227  0.25070  0.10409  1.0000
  H   H69       1.0  0.05782  0.26380  0.12306  1.0000
  H   H70       1.0  0.07428  0.28526  0.10682  1.0000
  H   H71       1.0  0.05773  0.24678  0.08814  1.0000
  H   H72       1.0  0.04132  0.22499  0.10420  1.0000
  H   H73       1.0  0.03143  0.24921  0.09820  1.0000
  H   H74       1.0  0.11905  0.34685  0.10655  1.0000
  H   H75       1.0  0.11589  0.36267  0.12446  1.0000
  H   H76       1.0  0.14608  0.36104  0.12111  1.0000
  H   H77       1.0  0.11949  0.29489  0.18232  1.0000
  H   H78       1.0  0.09427  0.29755  0.17055  1.0000
  H   H79       1.0  0.09101  0.26536  0.17545  1.0000
  H   H80       1.0  0.17861  0.26004  0.10357  1.0000
  H   H81       1.0  0.18524  0.27694  0.12264  1.0000
  H   H82       1.0  0.16308  0.24198  0.12098  1.0000
  H   H83       1.0  0.27961  0.35408  0.00504  1.0000
  H   H84       1.0  0.32272  0.00369  0.02380  1.0000
  H   H85       1.0  0.35816  0.02654  0.01050  1.0000
  H   H86       1.0  0.28361  0.28303  0.22318  1.0000
  H   H87       1.0  0.25676  0.07189  0.12023  1.0000
  H   H88       1.0  0.38960  0.37008  0.07338  1.0000
  C   C59       1.0  0.99478  0.37572  0.06804  1.0000
  H   H89       1.0  0.33679  0.05890  0.07714  1.0000
  C   C60       1.0  0.26956  0.14664  0.18384  1.0000
  C   C61       1.0  0.25084  0.05498  0.11165  1.0000
  H   H90       1.0  0.19118  0.06696  0.22259  1.0000
  H   H91       1.0  0.01383  0.45061  0.00504  1.0000
  H   H92       1.0  0.20457  0.08037  0.08549  1.0000
  H   H93       1.0  0.29858  0.30977  0.06940  1.0000
  C   C62       1.0  0.31173  0.31063  0.05963  1.0000
  H   H94       1.0  0.01594  0.39255  0.10691  1.0000
  C   C63       1.0  0.26506  0.26521  0.22355  1.0000
  C   C64       1.0  0.18278  0.03522  0.07110  1.0000
  H   H95       1.0  0.07211  0.41928  0.10099  1.0000
  H   H96       1.0  0.27553  0.11539  0.17259  1.0000
  H   H97       1.0  0.17232  0.07586  0.08841  1.0000
  H   H98       1.0  0.00944  0.36932  0.06409  1.0000
  H   H99       1.0  0.07559  0.44934  0.09228  1.0000
  N   N3        1.0  0.25861  0.17813  0.20165  1.0000
  H   H100      1.0  0.35919  0.34474  0.04479  1.0000
  C   C65       1.0  0.32808  0.29973  0.09270  1.0000
  C   C66       1.0  0.33153  0.27943  0.10275  1.0000
  H   H101      1.0  0.30666  0.29225  0.09047  1.0000
  H   H102      1.0  0.33548  0.31827  0.10000  1.0000
  H   H103      1.0  0.35264  0.28630  0.10584  1.0000
  H   H104      1.0  0.32069  0.27667  0.11397  1.0000
  H   H105      1.0  0.32347  0.26003  0.09628  1.0000
  C   C67       1.0  0.30453  0.22716  0.17056  1.0000
  H   H106      1.0  0.29727  0.21202  0.16074  1.0000
  H   H107      1.0  0.29603  0.24098  0.16905  1.0000
  H   H108      1.0  0.32624  0.23867  0.16994  1.0000
  C   C68       1.0  0.18942  0.07538  0.09463  1.0000
  C   C69       1.0  0.99776  0.24651  0.22085  1.0000
  H   H109      1.0  0.21071  0.00307  0.20496  1.0000
  C   C70       1.0  0.14553  0.23830  0.23125  1.0000
  C   C71       1.0  0.38668  0.39591  0.99499  1.0000
  C   C72       1.0  0.20344  0.04649  0.10987  1.0000
  C   C73       1.0  0.20078  0.09861  0.10706  1.0000
  H   H110      1.0  0.36865  0.32747  0.01982  1.0000
  H   H111      1.0  0.34316  0.01854  0.07836  1.0000
  H   H112      1.0  0.30510  0.03951  0.06716  1.0000
  C   C74       1.0  0.37186  0.31300  0.02704  1.0000
  C   C75       1.0  0.20893  0.12509  0.09916  1.0000
  C   C76       1.0  0.21263  0.14731  0.18866  1.0000
  H   H113      1.0  0.23578  0.07191  0.09438  1.0000
  H   H114      1.0  0.38330  0.02404  0.06934  1.0000
  H   H115      1.0  0.17999  0.99683  0.06456  1.0000
  H   H116      1.0  0.37862  0.00807  0.02855  1.0000
  H   H117      1.0  0.05509  0.43656  0.10925  1.0000
  H   H118      1.0  0.39480  0.06809  0.00357  1.0000
  H   H119      1.0  0.31213  0.99962  0.06850  1.0000
  C   C77       1.0  0.37276  0.02238  0.03412  1.0000
  C   C78       1.0  0.00716  0.22787  0.21979  1.0000
  H   H120      1.0  0.28655  0.16166  0.17750  1.0000
  H   H121      1.0  0.18605  0.09659  0.11602  1.0000
  H   H122      1.0  0.21851  0.09972  0.11322  1.0000
  H   H123      1.0  0.22227  0.15329  0.21338  1.0000
  H   H124      1.0  0.14263  0.22321  0.19924  1.0000
  S   S28       1.0  0.01389  0.21700  0.20138  1.0000
  Fe  Fe15      1.0  0.01241  0.25725  0.14574  1.0000
  H   H125      1.0  0.25534  0.36582  0.00399  1.0000
  H   H126      1.0  0.38889  0.45425  0.99423  1.0000
  H   H127      1.0  0.27288  0.32143  0.03104  1.0000
  H   H128      1.0  0.10826  0.01481  0.12394  1.0000
  H   H129      1.0  0.15961  0.21016  0.22330  1.0000
  H   H130      1.0  0.22466  0.03670  0.09175  1.0000
  H   H131      1.0  0.09645  0.23445  0.23851  1.0000
  H   H132      1.0  0.21681  0.14126  0.10837  1.0000
  Fe  Fe16      1.0  0.23558  0.99511  0.17311  1.0000
  H   H133      1.0  0.24461  0.03651  0.11832  1.0000
  H   H134      1.0  0.18634  0.09534  0.21851  1.0000
  H   H135      1.0  0.01096  0.35925  0.00985  1.0000
  H   H136      1.0  0.31717  0.32566  0.03520  1.0000
  S   S29       1.0  0.03410  0.30025  0.13753  1.0000
  H   H137      1.0  0.30488  0.28964  0.05582  1.0000
  N   N4        1.0  0.34861  0.00797  0.04398  1.0000
  C   C79       1.0  0.37042  0.03941  0.02057  1.0000
  H   H138      1.0  0.45425  0.48772  0.99979  1.0000
  H   H139      1.0  0.25985  0.18539  0.17625  1.0000
  C   C80       1.0  0.18342  0.13947  0.19021  1.0000
  C   C81       1.0  0.32936  0.01937  0.06925  1.0000
  H   H140      1.0  0.17590  0.12915  0.20151  1.0000
  C   C82       1.0  0.18463  0.37110  0.07282  1.0000
  C   C83       1.0  0.29721  0.21431  0.18671  1.0000
  H   H141      1.0  0.30387  0.23063  0.19581  1.0000
  H   H142      1.0  0.30833  0.20305  0.18882  1.0000
  S   S30       1.0  0.05788  0.40028  0.99515  1.0000
  C   C84       1.0  0.26785  0.15725  0.20071  1.0000
  H   H143      1.0  0.13575  0.99916  0.10894  1.0000
  H   H144      1.0  0.19989  0.20026  0.22478  1.0000
  H   H145      1.0  0.37728  0.35084  0.09088  1.0000
  H   H146      1.0  0.16916  0.35041  0.07029  1.0000
  H   H147      1.0  0.16997  0.37943  0.09543  1.0000
  C   C85       1.0  0.22904  0.16568  0.20272  1.0000
  H   H148      1.0  0.33586  0.28444  0.07093  1.0000
  H   H149      1.0  0.16877  0.25673  0.20189  1.0000
  H   H150      1.0  0.99295  0.33571  0.08249  1.0000
  C   C86       1.0  0.39731  0.05745  0.01388  1.0000
  C   C87       1.0  0.37394  0.36357  0.08230  1.0000
  C   C88       1.0  0.01852  0.38871  0.09420  1.0000
  H   H151      1.0  0.20910  0.05930  0.12077  1.0000
  H   H152      1.0  0.33113  0.03441  0.04541  1.0000
  C   C89       1.0  0.34300  0.30423  0.07686  1.0000
  C   C90       1.0  0.17237  0.38549  0.08288  1.0000
  C   C91       1.0  0.21797  0.21859  0.22454  1.0000
  H   H153      1.0  0.14899  0.02138  0.08538  1.0000
  H   H154      1.0  0.12553  0.22529  0.22612  1.0000
  H   H155      1.0  0.16712  0.05575  0.12332  1.0000
  H   H156      1.0  0.21445  0.12876  0.18861  1.0000
  H   H157      1.0  0.25502  0.14005  0.20790  1.0000
  H   H158      1.0  0.21923  0.09890  0.22002  1.0000
  H   H159      1.0  0.14947  0.25872  0.22826  1.0000
  H   H160      1.0  0.34510  0.36319  0.06552  1.0000
  H   H161      1.0  0.14414  0.04711  0.10710  1.0000
  H   H162      1.0  0.22459  0.12890  0.09047  1.0000
  C   C92       1.0  0.24457  0.00123  0.21495  1.0000
  C   C93       1.0  0.23202  0.22997  0.23879  1.0000
  H   H163      1.0  0.29098  0.12566  0.19205  1.0000
  C   C94       1.0  0.26708  0.19642  0.18775  1.0000
  C   C95       1.0  0.34312  0.02799  0.05302  1.0000
  H   H164      1.0  0.39715  0.39837  0.09725  1.0000
  H   H165      1.0  0.20451  0.04485  0.07177  1.0000
  H   H166      1.0  0.33136  0.34625  0.08300  1.0000
  H   H167      1.0  0.25564  0.10540  0.18993  1.0000
  H   H168      1.0  0.35681  0.28954  0.04767  1.0000
  C   C96       1.0  0.37723  0.38824  0.09153  1.0000
  C   C97       1.0  0.03814  0.41515  0.08683  1.0000
  H   H169      1.0  0.17206  0.12595  0.18013  1.0000
  N   N5        1.0  0.33997  0.32309  0.06565  1.0000
  C   C98       1.0  0.34632  0.34903  0.07402  1.0000
  C   C99       1.0  0.14527  0.37977  0.07611  1.0000
  H   H170      1.0  0.17642  0.23010  0.19758  1.0000
  H   H171      1.0  0.27136  0.29016  0.03605  1.0000
  C   C100      1.0  0.27317  0.12177  0.18475  1.0000
  H   H172      1.0  0.31068  0.03222  0.08719  1.0000
  H   H173      1.0  0.25792  0.20992  0.18829  1.0000
  H   H174      1.0  0.29215  0.20373  0.21666  1.0000
  H   H175      1.0  0.36170  0.04641  0.05572  1.0000
  H   H176      1.0  0.25187  0.14176  0.17634  1.0000
  H   H177      1.0  0.41009  0.07226  0.02305  1.0000
  H   H178      1.0  0.01048  0.27674  0.10627  1.0000
  H   H179      1.0  0.13757  0.39152  0.08286  1.0000
  H   H180      1.0  0.14654  0.38531  0.06343  1.0000
  C   C101      1.0  0.22858  0.05292  0.10053  1.0000
  H   H181      1.0  0.26393  0.30907  0.05078  1.0000
  H   H182      1.0  0.36243  0.38287  0.10097  1.0000
  H   H183      1.0  0.17678  0.04926  0.06558  1.0000
  H   H184      1.0  0.33301  0.29475  0.03612  1.0000
  C   C102      1.0  0.16291  0.23563  0.20410  1.0000
  H   H185      1.0  0.13176  0.02493  0.14051  1.0000
  C   C103      1.0  0.16460  0.23123  0.22186  1.0000
  H   H186      1.0  0.21874  0.15690  0.17708  1.0000
  H   H187      1.0  0.22287  0.18138  0.20423  1.0000
  H   H188      1.0  0.26598  0.21217  0.21678  1.0000
  C   C104      1.0  0.27033  0.19503  0.21657  1.0000
  H   H189      1.0  0.18016  0.15721  0.18987  1.0000
  H   H190      1.0  0.37494  0.40226  0.08342  1.0000
  C   C105      1.0  0.31997  0.03880  0.07550  1.0000
  H   H191      1.0  0.99839  0.42123  0.01651  1.0000
  H   H192      1.0  0.28789  0.16472  0.20625  1.0000
  C   C106      1.0  0.27664  0.31039  0.04067  1.0000
  H   H193      1.0  0.36790  0.29556  0.01927  1.0000
  C   C107      1.0  0.35342  0.30444  0.04109  1.0000
  H   H194      1.0  0.37916  0.33589  0.05692  1.0000
  C   C108      1.0  0.35868  0.32847  0.05219  1.0000
  H   H195      1.0  0.31036  0.34516  0.04956  1.0000
  H   H196      1.0  0.02945  0.37689  0.09433  1.0000
  H   H197      1.0  0.18209  0.01728  0.04801  1.0000
  C   C109      1.0  0.30567  0.32478  0.04582  1.0000
  H   H198      1.0  0.26217  0.16192  0.23259  1.0000
  H   H199      1.0  0.39811  0.99846  0.08658  1.0000
  H   H200      1.0  0.01905  0.20306  0.23314  1.0000
  H   H201      1.0  0.39672  0.00635  0.05808  1.0000
  H   H202      1.0  0.19177  0.12542  0.09304  1.0000
  N   N6        1.0  0.18120  0.04814  0.10098  1.0000
  H   H203      1.0  0.01429  0.42060  0.99839  1.0000
  C   C110      1.0  0.15943  0.04260  0.11256  1.0000
  H   H204      1.0  0.15172  0.00106  0.05845  1.0000
  H   H205      1.0  0.27614  0.00017  0.22870  1.0000
  H   H206      1.0  0.04594  0.41087  0.07579  1.0000
  C   C111      1.0  0.37967  0.00405  0.06522  1.0000
  H   H207      1.0  0.99426  0.25475  0.21012  1.0000
  H   H208      1.0  0.39099  0.41333  0.00225  1.0000
  Fe  Fe17      1.0  0.00516  0.22308  0.17560  1.0000
  H   H209      1.0  0.40709  0.04567  0.00971  1.0000
  C   C112      1.0  0.01173  0.21745  0.23385  1.0000
  C   C113      1.0  0.17027  0.02743  0.08766  1.0000
  H   H210      1.0  0.15887  0.00885  0.12544  1.0000
  C   C114      1.0  0.12339  0.01099  0.13013  1.0000
  H   H211      1.0  0.19083  0.00220  0.23097  1.0000
  C   C115      1.0  0.17350  0.01105  0.05989  1.0000
  C   C116      1.0  0.20956  0.00195  0.23055  1.0000
  C   C117      1.0  0.26150  0.18104  0.23265  1.0000
  C   C118      1.0  0.14509  0.01397  0.11878  1.0000
  H   H212      1.0  0.99476  0.42387  0.09666  1.0000
  C   C119      1.0  0.26804  0.36005  0.99681  1.0000
  H   H213      1.0  0.00291  0.39659  0.06453  1.0000
  C   C120      1.0  0.00579  0.36149  0.99775  1.0000
  H   H214      1.0  0.17116  0.00912  0.09126  1.0000
  H   H215      1.0  0.19104  0.28229  0.23849  1.0000
  S   S31       1.0  0.25826  0.99983  0.19643  1.0000
  C   C121      1.0  0.25755  0.00073  0.22919  1.0000
  H   H216      1.0  0.24115  0.17741  0.23517  1.0000
  C   C122      1.0  0.99362  0.25508  0.23590  1.0000
  C   C123      1.0  0.22071  0.00226  0.21575  1.0000
  H   H217      1.0  0.00491  0.34375  0.11070  1.0000
  H   H218      1.0  0.98691  0.26993  0.23665  1.0000
  S   S32       1.0  0.98708  0.18511  0.16094  1.0000
  H   H219      1.0  0.98930  0.35635  0.03670  1.0000
  N   N7        1.0  0.99200  0.37309  0.08583  1.0000
  H   H220      1.0  0.40746  0.99465  0.99656  1.0000
  H   H221      1.0  0.98684  0.15727  0.19508  1.0000
  C   C124      1.0  0.19986  0.09466  0.24271  1.0000
  Fe  Fe18      1.0  0.23431  0.03425  0.31736  1.0000
  S   S33       1.0  0.25808  0.02231  0.30099  1.0000
  S   S34       1.0  0.25128  0.07881  0.32165  1.0000
  H   H222      1.0  0.26756  0.23696  0.39564  1.0000
  C   C125      1.0  0.42053  0.44190  0.44009  1.0000
  H   H223      1.0  0.38089  0.01032  0.44878  1.0000
  Fe  Fe19      1.0  0.24639  0.25342  0.31530  1.0000
  S   S35       1.0  0.20875  0.22796  0.32748  1.0000
  S   S36       1.0  0.28080  0.28957  0.32727  1.0000
  Fe  Fe20      1.0  0.22511  0.22488  0.28253  1.0000
  S   S37       1.0  0.18625  0.19829  0.29300  1.0000
  S   S38       1.0  0.22066  0.21201  0.25637  1.0000
  Fe  Fe21      1.0  0.18898  0.23409  0.30573  1.0000
  S   S39       1.0  0.16006  0.25086  0.30415  1.0000
  Fe  Fe22      1.0  0.20955  0.19404  0.31344  1.0000
  S   S40       1.0  0.19353  0.15163  0.32181  1.0000
  S   S41       1.0  0.22649  0.26115  0.29416  1.0000
  S   S42       1.0  0.24861  0.21898  0.30252  1.0000
  Fe  Fe23      1.0  0.01193  0.20569  0.31308  1.0000
  S   S43       1.0  0.02343  0.24896  0.31081  1.0000
  S   S44       1.0  0.03795  0.18582  0.31624  1.0000
  H   H224      1.0  0.27259  0.18820  0.25779  1.0000
  Fe  Fe24      1.0  0.31126  0.39381  0.40471  1.0000
  S   S45       1.0  0.28977  0.39574  0.42658  1.0000
  S   S46       1.0  0.28580  0.35373  0.39166  1.0000
  Fe  Fe25      1.0  0.35728  0.45068  0.41241  1.0000
  S   S47       1.0  0.33692  0.45560  0.43388  1.0000
  Fe  Fe26      1.0  0.32935  0.41405  0.43933  1.0000
  S   S48       1.0  0.33699  0.40522  0.46479  1.0000
  Fe  Fe27      1.0  0.29890  0.43656  0.41916  1.0000
  S   S49       1.0  0.26824  0.45200  0.41633  1.0000
  S   S50       1.0  0.35031  0.40924  0.41828  1.0000
  S   S51       1.0  0.31976  0.43457  0.39695  1.0000
  Fe  Fe28      1.0  0.07429  0.40184  0.40326  1.0000
  S   S52       1.0  0.07428  0.38216  0.42621  1.0000
  S   S53       1.0  0.07191  0.38101  0.37905  1.0000
  Fe  Fe29      1.0  0.09582  0.45764  0.42046  1.0000
  S   S54       1.0  0.09864  0.44036  0.44388  1.0000
  Fe  Fe30      1.0  0.11473  0.41661  0.43039  1.0000
  S   S55       1.0  0.14830  0.40703  0.43741  1.0000
  Fe  Fe31      1.0  0.05814  0.40778  0.43749  1.0000
  S   S56       1.0  0.02470  0.40114  0.45451  1.0000
  S   S57       1.0  0.11489  0.43602  0.40759  1.0000
  S   S58       1.0  0.05517  0.42542  0.41401  1.0000
  C   C126      1.0  0.00925  0.38084  0.47096  1.0000
  C   C127      1.0  0.01358  0.35951  0.47518  1.0000
  C   C128      1.0  0.33406  0.03167  0.40970  1.0000
  C   C129      1.0  0.23469  0.43859  0.42198  1.0000
  C   C130      1.0  0.21912  0.45000  0.41618  1.0000
  C   C131      1.0  0.19257  0.44028  0.42046  1.0000
  C   C132      1.0  0.18137  0.41944  0.43098  1.0000
  C   C133      1.0  0.19686  0.40794  0.43668  1.0000
  C   C134      1.0  0.22323  0.41727  0.43214  1.0000
  H   H225      1.0  0.22767  0.46638  0.40823  1.0000
  H   H226      1.0  0.18078  0.44886  0.41562  1.0000
  H   H227      1.0  0.18846  0.39176  0.44479  1.0000
  H   H228      1.0  0.23486  0.40828  0.43675  1.0000
  C   C135      1.0  0.36545  0.37690  0.46114  1.0000
  C   C136      1.0  0.35542  0.38915  0.47160  1.0000
  H   H229      1.0  0.19558  0.39992  0.37736  1.0000
  H   H230      1.0  0.36223  0.37732  0.44851  1.0000
  C   C137      1.0  0.35927  0.04462  0.44448  1.0000
  H   H231      1.0  0.27655  0.99504  0.35536  1.0000
  H   H232      1.0  0.44995  0.05120  0.43749  1.0000
  C   C138      1.0  0.01568  0.29785  0.35788  1.0000
  C   C139      1.0  0.00887  0.30772  0.37153  1.0000
  C   C140      1.0  0.02615  0.33261  0.37850  1.0000
  C   C141      1.0  0.05048  0.34826  0.37178  1.0000
  C   C142      1.0  0.05760  0.33817  0.35831  1.0000
  C   C143      1.0  0.04051  0.31301  0.35153  1.0000
  H   H233      1.0  0.02029  0.34001  0.38881  1.0000
  H   H234      1.0  0.07637  0.35004  0.35300  1.0000
  H   H235      1.0  0.04631  0.30560  0.34123  1.0000
  H   H236      1.0  0.25641  0.99984  0.25492  1.0000
  C   C144      1.0  0.12615  0.23204  0.30717  1.0000
  C   C145      1.0  0.10987  0.24415  0.30527  1.0000
  C   C146      1.0  0.08281  0.23013  0.30799  1.0000
  C   C147      1.0  0.07182  0.20384  0.31258  1.0000
  C   C148      1.0  0.08809  0.19163  0.31435  1.0000
  C   C149      1.0  0.11522  0.20569  0.31165  1.0000
  H   H237      1.0  0.11823  0.26452  0.30175  1.0000
  H   H238      1.0  0.07045  0.23966  0.30652  1.0000
  H   H239      1.0  0.07969  0.17127  0.31789  1.0000
  H   H240      1.0  0.12766  0.19620  0.31309  1.0000
  C   C150      1.0  0.28450  0.33700  0.37329  1.0000
  C   C151      1.0  0.26432  0.31101  0.37076  1.0000
  C   C152      1.0  0.26261  0.29639  0.35669  1.0000
  C   C153      1.0  0.28131  0.30755  0.34494  1.0000
  C   C154      1.0  0.30172  0.33344  0.34756  1.0000
  C   C155      1.0  0.30324  0.34817  0.36157  1.0000
  H   H241      1.0  0.25018  0.30195  0.37991  1.0000
  H   H242      1.0  0.24713  0.27634  0.35503  1.0000
  H   H243      1.0  0.31645  0.34221  0.33863  1.0000
  H   H244      1.0  0.31902  0.36805  0.36334  1.0000
  H   H245      1.0  0.18928  0.49148  0.40101  1.0000
  H   H246      1.0  0.30987  0.00464  0.45383  1.0000
  C   C156      1.0  0.12991  0.19892  0.27009  1.0000
  H   H247      1.0  0.36295  0.05825  0.48553  1.0000
  H   H248      1.0  0.12988  0.39580  0.37904  1.0000
  C   C157      1.0  0.23451  0.09839  0.32101  1.0000
  C   C158      1.0  0.20722  0.08748  0.32239  1.0000
  C   C159      1.0  0.19499  0.10404  0.32254  1.0000
  C   C160      1.0  0.20974  0.13154  0.32090  1.0000
  C   C161      1.0  0.23690  0.14230  0.31898  1.0000
  C   C162      1.0  0.24921  0.12584  0.31922  1.0000
  H   H249      1.0  0.19566  0.06643  0.32382  1.0000
  H   H250      1.0  0.17398  0.09551  0.32407  1.0000
  H   H251      1.0  0.24853  0.16340  0.31776  1.0000
  H   H252      1.0  0.27032  0.13449  0.31814  1.0000
  H   H253      1.0  0.35065  0.02103  0.46617  1.0000
  H   H254      1.0  0.13041  0.24637  0.26960  1.0000
  N   N8        1.0  0.15523  0.37832  0.38520  1.0000
  C   C163      1.0  0.18445  0.38763  0.38733  1.0000
  C   C164      1.0  0.14207  0.36259  0.39963  1.0000
  C   C165      1.0  0.19337  0.36590  0.38902  1.0000
  C   C166      1.0  0.11248  0.35499  0.40142  1.0000
  C   C167      1.0  0.22339  0.37818  0.39043  1.0000
  C   C168      1.0  0.10137  0.33809  0.41598  1.0000
  H   H255      1.0  0.19200  0.40088  0.39810  1.0000
  H   H256      1.0  0.15252  0.37368  0.41073  1.0000
  H   H257      1.0  0.14336  0.34373  0.39969  1.0000
  H   H258      1.0  0.14504  0.34176  0.37206  1.0000
  H   H259      1.0  0.18552  0.35447  0.39992  1.0000
  H   H260      1.0  0.18685  0.35219  0.37851  1.0000
  H   H261      1.0  0.27246  0.23965  0.37449  1.0000
  H   H262      1.0  0.22957  0.36250  0.39169  1.0000
  H   H263      1.0  0.23261  0.38949  0.37968  1.0000
  H   H264      1.0  0.23094  0.39168  0.40106  1.0000
  H   H265      1.0  0.08016  0.33260  0.41686  1.0000
  H   H266      1.0  0.10332  0.31965  0.41502  1.0000
  H   H267      1.0  0.11175  0.34930  0.42702  1.0000
  H   H268      1.0  0.38447  0.35153  0.37615  1.0000
  H   H269      1.0  0.41236  0.44812  0.42978  1.0000
  H   H270      1.0  0.03239  0.34038  0.32195  1.0000
  C   C169      1.0  0.43038  0.03424  0.43949  1.0000
  H   H271      1.0  0.10041  0.34342  0.39096  1.0000
  C   C170      1.0  0.17018  0.42687  0.37627  1.0000
  H   H272      1.0  0.33790  0.05661  0.47167  1.0000
  H   H273      1.0  0.13547  0.26684  0.25320  1.0000
  C   C171      1.0  0.41360  0.40213  0.42293  1.0000
  H   H274      1.0  0.28905  0.06625  0.27453  1.0000
  H   H275      1.0  0.40304  0.42830  0.44668  1.0000
  H   H276      1.0  0.17674  0.38056  0.35453  1.0000
  H   H277      1.0  0.20320  0.04508  0.27196  1.0000
  H   H278      1.0  0.10966  0.37286  0.40296  1.0000
  H   H279      1.0  0.31409  0.26800  0.38964  1.0000
  H   H280      1.0  0.10407  0.15706  0.26511  1.0000
  C   C172      1.0  0.38114  0.01760  0.43660  1.0000
  C   C173      1.0  0.04221  0.32857  0.30001  1.0000
  H   H281      1.0  0.35890  0.28404  0.44333  1.0000
  H   H282      1.0  0.21413  0.06610  0.24760  1.0000
  C   C174      1.0  0.08296  0.24120  0.26085  1.0000
  C   C175      1.0  0.02190  0.32413  0.31301  1.0000
  H   H283      1.0  0.39632  0.38879  0.42978  1.0000
  H   H284      1.0  0.40693  0.40989  0.41274  1.0000
  H   H285      1.0  0.42319  0.39052  0.41821  1.0000
  H   H286      1.0  0.19712  0.47644  0.46528  1.0000
  H   H287      1.0  0.45036  0.43665  0.42625  1.0000
  H   H288      1.0  0.03046  0.13793  0.29460  1.0000
  C   C176      1.0  0.27213  0.25050  0.38551  1.0000
  C   C177      1.0  0.33952  0.32860  0.39480  1.0000
  H   H289      1.0  0.28869  0.32867  0.45555  1.0000
  H   H290      1.0  0.42302  0.44883  0.48347  1.0000
  C   C178      1.0  0.29719  0.33651  0.44387  1.0000
  H   H291      1.0  0.39176  0.44838  0.46835  1.0000
  C   C179      1.0  0.14382  0.35121  0.34108  1.0000
  H   H292      1.0  0.28687  0.08743  0.28995  1.0000
  H   H293      1.0  0.21465  0.29451  0.27243  1.0000
  H   H294      1.0  0.17395  0.46331  0.36637  1.0000
  H   H295      1.0  0.32666  0.33544  0.38848  1.0000
  H   H296      1.0  0.25638  0.25655  0.38404  1.0000
  C   C180      1.0  0.36371  0.04137  0.46239  1.0000
  H   H297      1.0  0.12224  0.35420  0.36946  1.0000
  H   H298      1.0  0.41577  0.42147  0.46974  1.0000
  H   H299      1.0  0.13110  0.01892  0.27642  1.0000
  N   N9        1.0  0.43846  0.46592  0.45013  1.0000
  H   H300      1.0  0.17742  0.42228  0.36516  1.0000
  H   H301      1.0  0.39861  0.38368  0.38587  1.0000
  H   H302      1.0  0.28858  0.29923  0.43336  1.0000
  N   N10       1.0  0.17284  0.28127  0.35394  1.0000
  C   C181      1.0  0.14763  0.28259  0.35722  1.0000
  C   C182      1.0  0.19217  0.29280  0.36789  1.0000
  C   C183      1.0  0.18499  0.29803  0.33968  1.0000
  C   C184      1.0  0.16793  0.25346  0.34991  1.0000
  C   C185      1.0  0.15263  0.23205  0.36207  1.0000
  C   C186      1.0  0.12623  0.27189  0.34369  1.0000
  C   C187      1.0  0.21305  0.30246  0.33550  1.0000
  C   C188      1.0  0.18075  0.28903  0.38482  1.0000
  C   C189      1.0  0.20236  0.29636  0.39766  1.0000
  C   C190      1.0  0.14603  0.20452  0.35542  1.0000
  C   C191      1.0  0.10099  0.27241  0.34880  1.0000
  C   C192      1.0  0.22249  0.31816  0.32035  1.0000
  H   H303      1.0  0.15212  0.30340  0.36003  1.0000
  H   H304      1.0  0.13815  0.27156  0.36796  1.0000
  H   H305      1.0  0.20678  0.28505  0.36765  1.0000
  H   H306      1.0  0.20399  0.31465  0.36693  1.0000
  H   H307      1.0  0.18609  0.31793  0.34139  1.0000
  H   H308      1.0  0.17251  0.28918  0.32881  1.0000
  H   H309      1.0  0.15762  0.24676  0.33813  1.0000
  H   H310      1.0  0.18685  0.25285  0.34850  1.0000
  H   H311      1.0  0.13377  0.23175  0.36512  1.0000
  H   H312      1.0  0.16493  0.23535  0.37301  1.0000
  H   H313      1.0  0.13297  0.28406  0.33297  1.0000
  H   H314      1.0  0.12099  0.25112  0.34036  1.0000
  H   H315      1.0  0.21359  0.28350  0.33343  1.0000
  H   H316      1.0  0.22748  0.31378  0.34516  1.0000
  H   H317      1.0  0.17139  0.30210  0.38665  1.0000
  H   H318      1.0  0.16572  0.26850  0.38676  1.0000
  H   H319      1.0  0.19404  0.29551  0.40960  1.0000
  H   H320      1.0  0.21071  0.28225  0.39722  1.0000
  H   H321      1.0  0.21844  0.31668  0.39608  1.0000
  H   H322      1.0  0.13317  0.19974  0.34456  1.0000
  H   H323      1.0  0.16425  0.20326  0.35244  1.0000
  H   H324      1.0  0.13544  0.18950  0.36441  1.0000
  H   H325      1.0  0.08623  0.26499  0.33880  1.0000
  H   H326      1.0  0.09246  0.25941  0.35906  1.0000
  H   H327      1.0  0.10485  0.29283  0.35210  1.0000
  H   H328      1.0  0.24257  0.32100  0.31777  1.0000
  H   H329      1.0  0.20926  0.30726  0.31006  1.0000
  H   H330      1.0  0.22326  0.33788  0.32180  1.0000
  S   S59       1.0  0.22736  0.00182  0.33467  1.0000
  H   H331      1.0  0.22724  0.28271  0.25618  1.0000
  H   H332      1.0  0.18757  0.43777  0.38437  1.0000
  H   H333      1.0  0.33681  0.24938  0.44030  1.0000
  H   H334      1.0  0.15004  0.33566  0.34281  1.0000
  C   C193      1.0  0.33868  0.04223  0.39284  1.0000
  H   H335      1.0  0.37966  0.00118  0.42860  1.0000
  H   H336      1.0  0.03389  0.31353  0.29021  1.0000
  H   H337      1.0  0.34136  0.04726  0.44311  1.0000
  C   C194      1.0  0.15879  0.44554  0.37210  1.0000
  C   C195      1.0  0.34237  0.30097  0.41606  1.0000
  H   H338      1.0  0.06209  0.23092  0.25661  1.0000
  H   H339      1.0  0.04066  0.47746  0.43858  1.0000
  H   H340      1.0  0.08073  0.33060  0.29746  1.0000
  H   H341      1.0  0.31382  0.35653  0.44588  1.0000
  H   H342      1.0  0.25127  0.06597  0.25981  1.0000
  C   C196      1.0  0.38358  0.36291  0.48360  1.0000
  H   H343      1.0  0.03562  0.10936  0.29149  1.0000
  N   N11       1.0  0.35774  0.02258  0.43366  1.0000
  H   H344      1.0  0.04940  0.34862  0.29522  1.0000
  H   H345      1.0  0.31940  0.31483  0.44450  1.0000
  C   C197      1.0  0.09909  0.23115  0.25124  1.0000
  C   C198      1.0  0.29886  0.29154  0.40297  1.0000
  H   H346      1.0  0.11838  0.19389  0.24507  1.0000
  C   C199      1.0  0.06630  0.32703  0.30694  1.0000
  C   C200      1.0  0.22214  0.00070  0.24473  1.0000
  C   C201      1.0  0.44612  0.42874  0.48705  1.0000
  C   C202      1.0  0.15503  0.37219  0.35449  1.0000
  H   H347      1.0  0.37529  0.06399  0.44095  1.0000
  H   H348      1.0  0.35513  0.06266  0.39281  1.0000
  H   H349      1.0  0.41038  0.01521  0.48204  1.0000
  H   H350      1.0  0.30293  0.28661  0.37735  1.0000
  H   H351      1.0  0.17946  0.08449  0.24689  1.0000
  H   H352      1.0  0.21247  0.15418  0.28825  1.0000
  H   H353      1.0  0.13781  0.44159  0.46915  1.0000
  H   H354      1.0  0.23727  0.17723  0.27577  1.0000
  C   C203      1.0  0.15881  0.44971  0.47294  1.0000
  H   H355      1.0  0.42880  0.01683  0.43251  1.0000
  Fe  Fe32      1.0  0.21942  0.99736  0.28824  1.0000
  H   H356      1.0  0.12198  0.34203  0.34054  1.0000
  H   H357      1.0  0.06060  0.30716  0.31173  1.0000
  N   N12       1.0  0.21820  0.08736  0.26990  1.0000
  C   C204      1.0  0.21181  0.10847  0.27645  1.0000
  C   C205      1.0  0.19878  0.06107  0.27623  1.0000
  C   C206      1.0  0.24515  0.09315  0.27636  1.0000
  H   H358      1.0  0.43935  0.41623  0.44348  1.0000
  H   H359      1.0  0.00985  0.46364  0.44893  1.0000
  C   C207      1.0  0.23285  0.13737  0.27398  1.0000
  C   C208      1.0  0.25422  0.07192  0.27261  1.0000
  C   C209      1.0  0.16946  0.05128  0.27160  1.0000
  C   C210      1.0  0.99145  0.38606  0.47985  1.0000
  H   H360      1.0  0.31637  0.25820  0.41681  1.0000
  H   H361      1.0  0.46423  0.45113  0.45980  1.0000
  C   C211      1.0  0.28329  0.08203  0.27705  1.0000
  H   H362      1.0  0.20891  0.10632  0.28951  1.0000
  H   H363      1.0  0.19277  0.10613  0.27156  1.0000
  Fe  Fe33      1.0  0.99060  0.24083  0.32763  1.0000
  H   H364      1.0  0.20066  0.06156  0.28949  1.0000
  H   H365      1.0  0.24620  0.09605  0.28952  1.0000
  H   H366      1.0  0.26043  0.11204  0.27171  1.0000
  H   H367      1.0  0.16627  0.04649  0.25866  1.0000
  C   C212      1.0  0.13624  0.20655  0.25248  1.0000
  H   H368      1.0  0.15256  0.45201  0.38299  1.0000
  H   H369      1.0  0.08372  0.23710  0.27365  1.0000
  H   H370      1.0  0.24931  0.14290  0.28282  1.0000
  C   C213      1.0  0.43313  0.42490  0.43357  1.0000
  C   C214      1.0  0.02606  0.11821  0.29921  1.0000
  H   H371      1.0  0.24304  0.05411  0.27969  1.0000
  H   H372      1.0  0.00817  0.33717  0.34191  1.0000
  C   C215      1.0  0.17652  0.46983  0.46110  1.0000
  C   C216      1.0  0.27925  0.19834  0.24639  1.0000
  H   H373      1.0  0.01797  0.30542  0.31903  1.0000
  H   H374      1.0  0.34327  0.02928  0.38484  1.0000
  C   C217      1.0  0.12204  0.16974  0.27236  1.0000
  Fe  Fe34      1.0  0.99188  0.23487  0.29139  1.0000
  H   H375      1.0  0.17320  0.45950  0.44945  1.0000
  H   H376      1.0  0.45407  0.41726  0.48025  1.0000
  C   C218      1.0  0.15198  0.02593  0.28016  1.0000
  H   H377      1.0  0.47415  0.47552  0.43724  1.0000
  H   H378      1.0  0.32921  0.04497  0.41714  1.0000
  H   H379      1.0  0.36142  0.26645  0.42583  1.0000
  H   H380      1.0  0.27842  0.21741  0.24719  1.0000
  C   C219      1.0  0.14971  0.40182  0.38459  1.0000
  H   H381      1.0  0.38678  0.35414  0.45895  1.0000
  C   C220      1.0  0.36617  0.35334  0.39840  1.0000
  C   C221      1.0  0.43170  0.43893  0.47588  1.0000
  H   H382      1.0  0.16267  0.06600  0.27477  1.0000
  H   H383      1.0  0.14869  0.40892  0.39688  1.0000
  H   H384      1.0  0.18584  0.24108  0.25293  1.0000
  H   H385      1.0  0.35347  0.29668  0.40667  1.0000
  N   N13       1.0  0.32558  0.31238  0.40890  1.0000
  H   H386      1.0  0.46353  0.47676  0.47138  1.0000
  C   C222      1.0  0.17346  0.25078  0.25609  1.0000
  C   C223      1.0  0.34756  0.26839  0.43418  1.0000
  H   H387      1.0  0.41151  0.05890  0.44146  1.0000
  H   H388      1.0  0.16172  0.45885  0.48505  1.0000
  N   N14       1.0  0.14596  0.23540  0.24903  1.0000
  C   C224      1.0  0.37989  0.36562  0.38302  1.0000
  H   H389      1.0  0.31238  0.34121  0.41468  1.0000
  H   H390      1.0  0.42902  0.02979  0.45236  1.0000
  C   C225      1.0  0.22143  0.15661  0.27640  1.0000
  H   H391      1.0  0.31433  0.27600  0.43401  1.0000
  H   H392      1.0  0.23857  0.09940  0.24760  1.0000
  C   C226      1.0  0.14366  0.36043  0.37069  1.0000
  H   H393      1.0  0.15128  0.36052  0.32951  1.0000
  H   H394      1.0  0.13826  0.16530  0.26892  1.0000
  H   H395      1.0  0.14925  0.38771  0.35150  1.0000
  H   H396      1.0  0.38435  0.04534  0.46474  1.0000
  H   H397      1.0  0.34363  0.31633  0.38596  1.0000
  H   H398      1.0  0.02712  0.35515  0.46847  1.0000
  H   H399      1.0  0.22700  0.31411  0.25510  1.0000
  C   C227      1.0  0.00714  0.22563  0.24884  1.0000
  H   H400      1.0  0.26659  0.26249  0.24920  1.0000
  C   C228      1.0  0.35874  0.06063  0.47287  1.0000
  H   H401      1.0  0.29577  0.09951  0.27001  1.0000
  H   H402      1.0  0.32065  0.04258  0.38809  1.0000
  H   H403      1.0  0.09040  0.26277  0.25940  1.0000
  H   H404      1.0  0.37560  0.04995  0.41476  1.0000
  C   C229      1.0  0.21849  0.08635  0.25191  1.0000
  C   C230      1.0  0.40872  0.04125  0.43432  1.0000
  C   C231      1.0  0.29885  0.27473  0.38826  1.0000
  S   S60       1.0  0.19621  0.01038  0.30413  1.0000
  H   H405      1.0  0.35776  0.31588  0.42424  1.0000
  C   C232      1.0  0.32199  0.33062  0.42072  1.0000
  H   H406      1.0  0.14158  0.43562  0.36375  1.0000
  C   C233      1.0  0.30642  0.31813  0.43584  1.0000
  C   C234      1.0  0.32797  0.27496  0.42523  1.0000
  H   H407      1.0  0.38248  0.45456  0.44912  1.0000
  H   H408      1.0  0.07591  0.34217  0.31662  1.0000
  C   C235      1.0  0.37934  0.36377  0.46711  1.0000
  H   H409      1.0  0.36721  0.37129  0.37555  1.0000
  H   H410      1.0  0.31701  0.01161  0.40894  1.0000
  H   H411      1.0  0.30361  0.01111  0.43397  1.0000
  H   H412      1.0  0.28809  0.27767  0.41240  1.0000
  H   H413      1.0  0.28627  0.30098  0.39970  1.0000
  H   H414      1.0  0.20628  0.15341  0.26704  1.0000
  C   C236      1.0  0.35987  0.38848  0.48804  1.0000
  H   H415      1.0  0.36300  0.36867  0.40484  1.0000
  H   H416      1.0  0.17810  0.29140  0.25550  1.0000
  H   H417      1.0  0.28191  0.33812  0.43633  1.0000
  H   H418      1.0  0.16368  0.43300  0.47340  1.0000
  H   H419      1.0  0.18062  0.48436  0.42917  1.0000
  C   C237      1.0  0.45074  0.45885  0.46407  1.0000
  H   H420      1.0  0.37953  0.34833  0.40563  1.0000
  H   H421      1.0  0.37186  0.08136  0.46965  1.0000
  S   S61       1.0  0.39993  0.48027  0.40558  1.0000
  H   H422      1.0  0.34131  0.34632  0.42528  1.0000
  C   C238      1.0  0.35856  0.03024  0.41650  1.0000
  H   H423      1.0  0.03462  0.12085  0.31146  1.0000
  H   H424      1.0  0.41164  0.04654  0.42161  1.0000
  H   H425      1.0  0.36164  0.01600  0.40861  1.0000
  C   C239      1.0  0.12866  0.24591  0.25636  1.0000
  H   H426      1.0  0.15755  0.01016  0.27718  1.0000
  C   C240      1.0  0.30802  0.99765  0.44125  1.0000
  H   H427      1.0  0.15381  0.02959  0.29326  1.0000
  S   S62       1.0  0.40082  0.34569  0.49055  1.0000
  C   C241      1.0  0.03161  0.47410  0.45046  1.0000
  H   H428      1.0  0.29993  0.20234  0.24477  1.0000
  C   C242      1.0  0.42375  0.48073  0.45554  1.0000
  C   C243      1.0  0.21603  0.29360  0.25931  1.0000
  H   H429      1.0  0.17305  0.25060  0.26931  1.0000
  C   C244      1.0  0.99845  0.24479  0.24995  1.0000
  H   H430      1.0  0.99301  0.08044  0.30298  1.0000
  H   H431      1.0  0.11789  0.16497  0.28508  1.0000
  S   S63       1.0  0.20555  0.99740  0.26273  1.0000
  H   H432      1.0  0.36266  0.46901  0.47029  1.0000
  H   H433      1.0  0.14722  0.21068  0.27796  1.0000
  C   C245      1.0  0.38371  0.48144  0.46759  1.0000
  H   H434      1.0  0.03782  0.46112  0.45708  1.0000
  H   H435      1.0  0.20677  0.11623  0.24422  1.0000
  H   H436      1.0  0.11336  0.20230  0.27415  1.0000
  H   H437      1.0  0.24104  0.13992  0.26192  1.0000
  C   C246      1.0  0.18855  0.28024  0.25152  1.0000
  H   H438      1.0  0.01938  0.34764  0.27871  1.0000
  C   C247      1.0  0.38975  0.00558  0.48485  1.0000
  H   H439      1.0  0.01097  0.21760  0.25955  1.0000
  S   S64       1.0  0.99168  0.26755  0.34873  1.0000
  H   H440      1.0  0.09054  0.20958  0.25294  1.0000
  S   S65       1.0  0.99422  0.25688  0.26867  1.0000
  H   H441      1.0  0.45239  0.48564  0.42780  1.0000
  C   C248      1.0  0.39460  0.46412  0.46001  1.0000
  H   H442      1.0  0.15682  0.48965  0.39939  1.0000
  C   C249      1.0  0.46047  0.48394  0.43966  1.0000
  H   H443      1.0  0.03262  0.39518  0.28472  1.0000
  C   C250      1.0  0.00006  0.34353  0.48798  1.0000
  C   C251      1.0  0.24642  0.00054  0.24406  1.0000
  H   H444      1.0  0.01731  0.36585  0.30768  1.0000
  H   H445      1.0  0.15265  0.48893  0.43097  1.0000
  H   H446      1.0  0.98981  0.29621  0.37662  1.0000
  H   H447      1.0  0.21807  0.48940  0.44284  1.0000
  H   H448      1.0  0.15117  0.20018  0.24899  1.0000
  H   H449      1.0  0.14908  0.48614  0.45897  1.0000
  C   C252      1.0  0.01333  0.38201  0.27884  1.0000
  H   H450      1.0  0.01551  0.38408  0.26577  1.0000
  C   C253      1.0  0.00454  0.35327  0.28310  1.0000
  C   C254      1.0  0.33356  0.99656  0.43634  1.0000
  C   C255      1.0  0.99635  0.10025  0.29911  1.0000
  H   H451      1.0  0.98965  0.10941  0.32270  1.0000
  H   H452      1.0  0.99635  0.35789  0.33256  1.0000
  H   H453      1.0  0.99853  0.38834  0.28254  1.0000
  H   H454      1.0  0.99316  0.30415  0.28458  1.0000
  N   N15       1.0  0.99615  0.32316  0.30771  1.0000
  C   C256      1.0  0.00034  0.34937  0.30128  1.0000
  H   H455      1.0  0.00342  0.32697  0.49101  1.0000
  H   H456      1.0  0.99115  0.13300  0.30880  1.0000
  H   H457      1.0  0.98888  0.09819  0.28670  1.0000
  H   H458      1.0  0.98787  0.40246  0.47671  1.0000
  H   H459      1.0  0.39459  0.49081  0.47889  1.0000
  C   C257      1.0  0.99066  0.33750  0.33640  1.0000
  Fe  Fe35      1.0  0.45522  0.10607  0.55132  1.0000
  S   S66       1.0  0.44103  0.11299  0.52756  1.0000
  Fe  Fe36      1.0  0.39857  0.08174  0.56461  1.0000
  S   S67       1.0  0.38108  0.08583  0.54123  1.0000
  S   S68       1.0  0.38018  0.07214  0.58940  1.0000
  Fe  Fe37      1.0  0.40777  0.07154  0.52958  1.0000
  C   C258      1.0  0.45462  0.03659  0.58463  1.0000
  Fe  Fe38      1.0  0.41560  0.12695  0.54091  1.0000
  S   S69       1.0  0.40438  0.15961  0.53400  1.0000
  S   S70       1.0  0.42289  0.06439  0.55308  1.0000
  S   S71       1.0  0.43209  0.12315  0.56456  1.0000
  Fe  Fe39      1.0  0.41303  0.34374  0.51647  1.0000
  S   S72       1.0  0.41685  0.37285  0.53586  1.0000
  H   H460      1.0  0.19360  0.15967  0.68757  1.0000
  Fe  Fe40      1.0  0.43615  0.31524  0.53842  1.0000
  S   S73       1.0  0.44188  0.34370  0.55889  1.0000
  S   S74       1.0  0.45225  0.28567  0.54327  1.0000
  Fe  Fe41      1.0  0.40114  0.33741  0.55200  1.0000
  S   S75       1.0  0.36368  0.32305  0.56665  1.0000
  Fe  Fe42      1.0  0.45743  0.37652  0.54099  1.0000
  S   S76       1.0  0.39518  0.30812  0.53202  1.0000
  S   S77       1.0  0.45364  0.34803  0.52103  1.0000
  H   H461      1.0  0.38768  0.19681  0.52261  1.0000
  Fe  Fe43      1.0  0.22914  0.03629  0.66309  1.0000
  S   S78       1.0  0.23852  0.07774  0.67129  1.0000
  S   S79       1.0  0.26241  0.02571  0.66482  1.0000
  Fe  Fe44      1.0  0.22295  0.24452  0.64995  1.0000
  S   S80       1.0  0.26112  0.26600  0.66408  1.0000
  S   S81       1.0  0.19644  0.26433  0.64849  1.0000
  Fe  Fe45      1.0  0.23412  0.19889  0.64117  1.0000
  S   S82       1.0  0.27258  0.21693  0.65454  1.0000
  S   S83       1.0  0.22094  0.15930  0.62864  1.0000
  Fe  Fe46      1.0  0.25110  0.22612  0.67380  1.0000
  S   S84       1.0  0.25448  0.21218  0.69853  1.0000
  Fe  Fe47      1.0  0.27957  0.25508  0.64351  1.0000
  S   S85       1.0  0.32212  0.28000  0.63591  1.0000
  S   S86       1.0  0.21185  0.20540  0.66099  1.0000
  S   S87       1.0  0.24205  0.23637  0.62867  1.0000
  H   H462      1.0  0.18077  0.24301  0.68510  1.0000
  H   H463      1.0  0.20084  0.20260  0.70111  1.0000
  H   H464      1.0  0.33496  0.17573  0.57213  1.0000
  S   S88       1.0  0.21417  0.01660  0.63917  1.0000
  Fe  Fe48      1.0  0.04045  0.22101  0.65358  1.0000
  S   S89       1.0  0.07197  0.20706  0.65528  1.0000
  S   S90       1.0  0.04130  0.26069  0.65715  1.0000
  Fe  Fe49      1.0  0.01113  0.24865  0.63680  1.0000
  H   H465      1.0  0.41128  0.01295  0.61564  1.0000
  H   H466      1.0  0.22631  0.05058  0.70421  1.0000
  C   C259      1.0  0.16206  0.24851  0.65146  1.0000
  C   C260      1.0  0.14807  0.26319  0.65006  1.0000
  C   C261      1.0  0.12049  0.25098  0.65139  1.0000
  C   C262      1.0  0.10668  0.22390  0.65405  1.0000
  C   C263      1.0  0.12073  0.20929  0.65556  1.0000
  C   C264      1.0  0.14828  0.22152  0.65439  1.0000
  H   H467      1.0  0.15857  0.28409  0.64778  1.0000
  H   H468      1.0  0.10990  0.26242  0.65018  1.0000
  H   H469      1.0  0.11016  0.18829  0.65757  1.0000
  H   H470      1.0  0.15877  0.20999  0.65549  1.0000
  C   C265      1.0  0.25544  0.22732  0.71720  1.0000
  C   C266      1.0  0.25819  0.25292  0.71866  1.0000
  H   H471      1.0  0.34717  0.28052  0.67649  1.0000
  H   H472      1.0  0.25966  0.26406  0.70811  1.0000
  C   C267      1.0  0.99539  0.20134  0.72855  1.0000
  C   C268      1.0  0.23296  0.09959  0.65910  1.0000
  C   C269      1.0  0.22353  0.09290  0.64336  1.0000
  C   C270      1.0  0.21959  0.11115  0.63407  1.0000
  C   C271      1.0  0.22519  0.13618  0.64045  1.0000
  C   C272      1.0  0.23437  0.14265  0.65622  1.0000
  C   C273      1.0  0.23832  0.12448  0.66547  1.0000
  H   H473      1.0  0.21906  0.07362  0.63842  1.0000
  H   H474      1.0  0.21191  0.10574  0.62201  1.0000
  H   H475      1.0  0.23813  0.16156  0.66140  1.0000
  H   H476      1.0  0.24532  0.12965  0.67768  1.0000
  H   H477      1.0  0.45132  0.19981  0.55160  1.0000
  C   C274      1.0  0.31965  0.12219  0.59338  1.0000
  H   H478      1.0  0.28922  0.06915  0.59517  1.0000
  H   H479      1.0  0.40786  0.00317  0.59490  1.0000
  H   H480      1.0  0.09510  0.43897  0.57801  1.0000
  C   C275      1.0  0.35288  0.31060  0.58594  1.0000
  C   C276      1.0  0.32569  0.29812  0.58873  1.0000
  C   C277      1.0  0.31595  0.28837  0.60383  1.0000
  C   C278      1.0  0.33334  0.29134  0.61648  1.0000
  C   C279      1.0  0.36055  0.30368  0.61369  1.0000
  C   C280      1.0  0.37027  0.31305  0.59850  1.0000
  H   H481      1.0  0.31205  0.29620  0.57915  1.0000
  H   H482      1.0  0.29502  0.27901  0.60575  1.0000
  H   H483      1.0  0.37422  0.30616  0.62337  1.0000
  H   H484      1.0  0.39122  0.32274  0.59660  1.0000
  H   H485      1.0  0.24068  0.13596  0.60310  1.0000
  H   H486      1.0  0.39070  0.26686  0.56290  1.0000
  C   C281      1.0  0.35059  0.24046  0.60355  1.0000
  C   C282      1.0  0.48194  0.13158  0.59955  1.0000
  H   H487      1.0  0.37697  0.37505  0.50672  1.0000
  C   C283      1.0  0.34781  0.05378  0.59676  1.0000
  C   C284      1.0  0.32627  0.03722  0.58699  1.0000
  C   C285      1.0  0.30129  0.02235  0.59357  1.0000
  C   C286      1.0  0.29735  0.02398  0.60997  1.0000
  C   C287      1.0  0.31880  0.04087  0.61970  1.0000
  C   C288      1.0  0.34383  0.05558  0.61314  1.0000
  H   H488      1.0  0.32895  0.03551  0.57439  1.0000
  H   H489      1.0  0.36188  0.16846  0.55117  1.0000
  H   H490      1.0  0.31624  0.04219  0.63234  1.0000
  H   H491      1.0  0.36031  0.06824  0.62085  1.0000
  C   C289      1.0  0.36330  0.21437  0.56344  1.0000
  H   H492      1.0  0.46901  0.24853  0.55492  1.0000
  H   H493      1.0  0.04926  0.37972  0.61550  1.0000
  C   C290      1.0  0.41808  0.19468  0.53698  1.0000
  C   C291      1.0  0.44105  0.20957  0.54614  1.0000
  C   C292      1.0  0.45102  0.23727  0.54802  1.0000
  C   C293      1.0  0.43810  0.25050  0.54096  1.0000
  C   C294      1.0  0.41493  0.23557  0.53200  1.0000
  C   C295      1.0  0.40517  0.20795  0.52995  1.0000
  C   C296      1.0  0.09119  0.43480  0.59082  1.0000
  C   C297      1.0  0.40853  0.25826  0.58306  1.0000
  H   H494      1.0  0.40490  0.24539  0.52631  1.0000
  H   H495      1.0  0.29373  0.09355  0.66036  1.0000
  H   H496      1.0  0.29786  0.14378  0.61342  1.0000
  C   C298      1.0  0.40937  0.26063  0.68173  1.0000
  H   H497      1.0  0.37028  0.01346  0.59176  1.0000
  H   H498      1.0  0.13203  0.18355  0.71662  1.0000
  Fe  Fe50      1.0  0.00617  0.23857  0.67251  1.0000
  H   H499      1.0  0.47675  0.13522  0.58739  1.0000
  C   C299      1.0  0.30468  0.09407  0.64949  1.0000
  H   H500      1.0  0.37935  0.21054  0.56832  1.0000
  H   H501      1.0  0.05476  0.43684  0.59025  1.0000
  C   C300      1.0  0.33753  0.23912  0.56772  1.0000
  C   C301      1.0  0.33862  0.24548  0.54982  1.0000
  C   C302      1.0  0.31774  0.25390  0.54519  1.0000
  H   H502      1.0  0.31782  0.22235  0.56980  1.0000
  H   H503      1.0  0.33762  0.25625  0.57433  1.0000
  H   H504      1.0  0.37404  0.11804  0.57787  1.0000
  H   H505      1.0  0.35800  0.26174  0.54694  1.0000
  H   H506      1.0  0.33648  0.24789  0.60016  1.0000
  H   H507      1.0  0.32100  0.27205  0.55202  1.0000
  H   H508      1.0  0.31904  0.25837  0.53234  1.0000
  H   H509      1.0  0.29773  0.23791  0.54746  1.0000
  H   H510      1.0  0.99778  0.28149  0.58312  1.0000
  C   C303      1.0  0.33864  0.11003  0.59069  1.0000
  H   H511      1.0  0.31197  0.12323  0.58132  1.0000
  H   H512      1.0  0.22833  0.28963  0.70157  1.0000
  H   H513      1.0  0.35520  0.21830  0.62321  1.0000
  H   H514      1.0  0.16662  0.18375  0.73165  1.0000
  H   H515      1.0  0.27220  0.08834  0.63415  1.0000
  H   H516      1.0  0.37206  0.14727  0.58431  1.0000
  H   H517      1.0  0.33182  0.14300  0.59775  1.0000
  C   C304      1.0  0.42359  0.04629  0.59941  1.0000
  H   H518      1.0  0.32693  0.15023  0.54729  1.0000
  H   H519      1.0  0.37019  0.25762  0.60584  1.0000
  H   H520      1.0  0.21760  0.02721  0.60221  1.0000
  C   C305      1.0  0.30868  0.10408  0.62004  1.0000
  C   C306      1.0  0.24916  0.07398  0.73400  1.0000
  N   N16       1.0  0.17271  0.21158  0.71291  1.0000
  C   C307      1.0  0.06970  0.25194  0.70875  1.0000
  C   C308      1.0  0.99927  0.23941  0.71410  1.0000
  H   H521      1.0  0.09934  0.42145  0.59468  1.0000
  N   N17       1.0  0.35925  0.23360  0.57413  1.0000
  H   H522      1.0  0.05119  0.24308  0.70142  1.0000
  H   H523      1.0  0.07843  0.27377  0.70803  1.0000
  H   H524      1.0  0.08336  0.24515  0.70363  1.0000
  N   N18       1.0  0.15392  0.22881  0.60300  1.0000
  C   C309      1.0  0.17189  0.25791  0.60603  1.0000
  C   C310      1.0  0.12657  0.22171  0.60868  1.0000
  C   C311      1.0  0.16479  0.21362  0.61257  1.0000
  C   C312      1.0  0.15320  0.22082  0.58574  1.0000
  C   C313      1.0  0.14385  0.23486  0.57352  1.0000
  C   C314      1.0  0.20128  0.26785  0.60220  1.0000
  C   C315      1.0  0.14659  0.18347  0.61400  1.0000
  C   C316      1.0  0.11660  0.24272  0.60691  1.0000
  C   C317      1.0  0.08709  0.23082  0.60972  1.0000
  C   C318      1.0  0.14762  0.22762  0.55650  1.0000
  C   C319      1.0  0.21708  0.29762  0.60541  1.0000
  C   C320      1.0  0.16044  0.17059  0.62343  1.0000
  H   H525      1.0  0.17107  0.26307  0.61875  1.0000
  H   H526      1.0  0.16515  0.27034  0.59937  1.0000
  H   H527      1.0  0.11186  0.20284  0.60284  1.0000
  H   H528      1.0  0.12542  0.21794  0.62167  1.0000
  H   H529      1.0  0.17010  0.22209  0.62488  1.0000
  H   H530      1.0  0.18343  0.21566  0.60750  1.0000
  H   H531      1.0  0.17284  0.22335  0.58222  1.0000
  H   H532      1.0  0.13979  0.19938  0.58388  1.0000
  H   H533      1.0  0.15488  0.25664  0.57489  1.0000
  H   H534      1.0  0.12251  0.22833  0.57477  1.0000
  H   H535      1.0  0.21027  0.25835  0.60982  1.0000
  H   H536      1.0  0.20358  0.26383  0.58953  1.0000
  H   H537      1.0  0.14103  0.17339  0.60215  1.0000
  H   H538      1.0  0.12833  0.17952  0.62029  1.0000
  H   H539      1.0  0.12684  0.25898  0.61590  1.0000
  H   H540      1.0  0.12027  0.25166  0.59508  1.0000
  H   H541      1.0  0.07575  0.21551  0.60043  1.0000
  H   H542      1.0  0.08238  0.22177  0.62158  1.0000
  H   H543      1.0  0.08079  0.24653  0.60931  1.0000
  H   H544      1.0  0.13653  0.20592  0.55427  1.0000
  H   H545      1.0  0.14021  0.23745  0.54795  1.0000
  H   H546      1.0  0.16881  0.23436  0.55433  1.0000
  H   H547      1.0  0.21586  0.30253  0.61812  1.0000
  H   H548      1.0  0.23809  0.30418  0.60279  1.0000
  H   H549      1.0  0.20966  0.30856  0.59777  1.0000
  H   H550      1.0  0.16574  0.17936  0.63566  1.0000
  H   H551      1.0  0.14722  0.14908  0.62432  1.0000
  H   H552      1.0  0.17858  0.17321  0.61744  1.0000
  H   H553      1.0  0.38237  0.27349  0.70350  1.0000
  C   C321      1.0  0.17957  0.20484  0.72906  1.0000
  C   C322      1.0  0.38199  0.25873  0.67977  1.0000
  H   H554      1.0  0.24253  0.07455  0.60910  1.0000
  H   H555      1.0  0.17516  0.20061  0.68835  1.0000
  S   S91       1.0  0.20052  0.00119  0.67641  1.0000
  H   H556      1.0  0.17930  0.25212  0.71593  1.0000
  S   S92       1.0  0.00250  0.25630  0.69619  1.0000
  H   H557      1.0  0.35222  0.39786  0.49626  1.0000
  H   H558      1.0  0.21774  0.28734  0.68108  1.0000
  H   H559      1.0  0.43717  0.29628  0.57451  1.0000
  H   H560      1.0  0.29489  0.12214  0.63855  1.0000
  C   C323      1.0  0.25914  0.26417  0.73387  1.0000
  H   H561      1.0  0.02120  0.38432  0.62113  1.0000
  H   H562      1.0  0.17138  0.15950  0.71282  1.0000
  H   H563      1.0  0.25902  0.11448  0.58527  1.0000
  H   H564      1.0  0.27323  0.08412  0.58444  1.0000
  H   H565      1.0  0.45685  0.08464  0.58094  1.0000
  C   C324      1.0  0.19761  0.25077  0.69369  1.0000
  H   H566      1.0  0.04988  0.25048  0.73034  1.0000
  H   H567      1.0  0.03719  0.36119  0.56082  1.0000
  H   H568      1.0  0.34819  0.10875  0.60199  1.0000
  H   H569      1.0  0.32865  0.12086  0.62247  1.0000
  H   H570      1.0  0.05886  0.41929  0.60663  1.0000
  C   C325      1.0  0.10212  0.19683  0.69777  1.0000
  H   H571      1.0  0.10113  0.24555  0.73144  1.0000
  H   H572      1.0  0.46384  0.01692  0.55600  1.0000
  H   H573      1.0  0.23025  0.03093  0.72947  1.0000
  H   H574      1.0  0.45482  0.02959  0.61593  1.0000
  N   N19       1.0  0.01779  0.37911  0.58730  1.0000
  C   C326      1.0  0.37698  0.01056  0.60371  1.0000
  C   C327      1.0  0.04647  0.39627  0.58370  1.0000
  H   H575      1.0  0.42063  0.05836  0.60893  1.0000
  C   C328      1.0  0.01987  0.34785  0.62806  1.0000
  C   C329      1.0  0.21094  0.28092  0.69328  1.0000
  H   H576      1.0  0.28620  0.99924  0.71372  1.0000
  H   H577      1.0  0.01496  0.33195  0.57071  1.0000
  C   C330      1.0  0.06168  0.42231  0.59372  1.0000
  C   C331      1.0  0.06373  0.24347  0.72598  1.0000
  H   H578      1.0  0.45739  0.05989  0.62309  1.0000
  H   H579      1.0  0.26637  0.09143  0.72927  1.0000
  H   H580      1.0  0.26719  0.11567  0.61535  1.0000
  H   H581      1.0  0.20006  0.20733  0.72922  1.0000
  Fe  Fe51      1.0  0.24610  0.00414  0.64131  1.0000
  H   H582      1.0  0.44840  0.28476  0.59128  1.0000
  H   H583      1.0  0.28220  0.18047  0.67777  1.0000
  H   H584      1.0  0.20820  0.24842  0.71766  1.0000
  H   H585      1.0  0.34156  0.24010  0.62850  1.0000
  H   H586      1.0  0.42533  0.29776  0.59410  1.0000
  C   C332      1.0  0.35163  0.22176  0.59030  1.0000
  H   H587      1.0  0.35207  0.12733  0.56753  1.0000
  C   C333      1.0  0.36889  0.25588  0.69612  1.0000
  H   H588      1.0  0.42233  0.27812  0.68933  1.0000
  H   H589      1.0  0.99442  0.18195  0.72842  1.0000
  C   C334      1.0  0.33903  0.18684  0.56095  1.0000
  H   H590      1.0  0.40387  0.24877  0.59475  1.0000
  H   H591      1.0  0.14347  0.15786  0.70158  1.0000
  S   S93       1.0  0.01121  0.27091  0.61429  1.0000
  H   H592      1.0  0.31164  0.08613  0.61918  1.0000
  H   H593      1.0  0.10147  0.45372  0.59776  1.0000
  C   C335      1.0  0.23518  0.03990  0.59535  1.0000
  S   S94       1.0  0.00682  0.19967  0.66999  1.0000
  H   H594      1.0  0.09199  0.17546  0.70043  1.0000
  H   H595      1.0  0.10084  0.27616  0.73438  1.0000
  H   H596      1.0  0.36524  0.27080  0.72788  1.0000
  H   H597      1.0  0.00003  0.27118  0.72873  1.0000
  S   S95       1.0  0.01354  0.21091  0.63209  1.0000
  H   H598      1.0  0.38127  0.27504  0.58113  1.0000
  H   H599      1.0  0.36491  0.21364  0.59445  1.0000
  C   C336      1.0  0.40597  0.01697  0.60361  1.0000
  N   N20       1.0  0.34163  0.25359  0.69559  1.0000
  C   C337      1.0  0.33078  0.24826  0.71211  1.0000
  C   C338      1.0  0.32349  0.23119  0.68456  1.0000
  H   H600      1.0  0.19690  0.28850  0.69652  1.0000
  C   C339      1.0  0.34319  0.27900  0.68946  1.0000
  C   C340      1.0  0.31829  0.28279  0.69155  1.0000
  C   C341      1.0  0.34602  0.27020  0.72494  1.0000
  C   C342      1.0  0.32190  0.20372  0.68761  1.0000
  C   C343      1.0  0.30227  0.18267  0.67602  1.0000
  C   C344      1.0  0.32150  0.30809  0.68377  1.0000
  H   H601      1.0  0.05369  0.22154  0.72589  1.0000
  H   H602      1.0  0.33061  0.23006  0.71672  1.0000
  H   H603      1.0  0.30977  0.24397  0.71185  1.0000
  H   H604      1.0  0.30316  0.22856  0.68529  1.0000
  H   H605      1.0  0.04845  0.40284  0.57114  1.0000
  H   H606      1.0  0.26135  0.28401  0.73496  1.0000
  C   C345      1.0  0.35426  0.00319  0.50095  1.0000
  H   H607      1.0  0.13464  0.19473  0.68692  1.0000
  H   H608      1.0  0.13979  0.21670  0.72117  1.0000
  H   H609      1.0  0.31442  0.28437  0.70430  1.0000
  H   H610      1.0  0.30075  0.26597  0.68608  1.0000
  H   H611      1.0  0.25196  0.19345  0.72997  1.0000
  H   H612      1.0  0.34980  0.29003  0.72098  1.0000
  S   S96       1.0  0.26554  0.00387  0.61763  1.0000
  H   H613      1.0  0.31514  0.19712  0.69976  1.0000
  C   C346      1.0  0.18924  0.24104  0.71081  1.0000
  H   H614      1.0  0.30787  0.18795  0.66351  1.0000
  H   H615      1.0  0.30176  0.16329  0.67823  1.0000
  H   H616      1.0  0.30374  0.31072  0.68578  1.0000
  H   H617      1.0  0.33885  0.32559  0.68900  1.0000
  H   H618      1.0  0.32387  0.30696  0.67073  1.0000
  H   H619      1.0  0.37381  0.02343  0.61256  1.0000
  C   C347      1.0  0.00186  0.33683  0.54760  1.0000
  H   H620      1.0  0.28492  0.00928  0.58591  1.0000
  C   C348      1.0  0.01624  0.34853  0.56347  1.0000
  H   H621      1.0  0.41835  0.26277  0.66990  1.0000
  H   H622      1.0  0.43218  0.41538  0.49578  1.0000
  C   C349      1.0  0.46374  0.10325  0.60426  1.0000
  H   H623      1.0  0.25887  0.05607  0.61643  1.0000
  H   H624      1.0  0.47820  0.06265  0.56610  1.0000
  C   C350      1.0  0.24759  0.04887  0.72556  1.0000
  N   N21       1.0  0.45246  0.05442  0.59748  1.0000
  H   H625      1.0  0.16507  0.15688  0.67639  1.0000
  H   H626      1.0  0.99757  0.20438  0.70307  1.0000
  H   H627      1.0  0.31185  0.26574  0.73810  1.0000
  C   C351      1.0  0.24486  0.04997  0.70755  1.0000
  H   H628      1.0  0.45282  0.01801  0.58982  1.0000
  C   C352      1.0  0.17931  0.19620  0.70055  1.0000
  C   C353      1.0  0.27862  0.00368  0.73835  1.0000
  H   H629      1.0  0.40815  0.24249  0.68715  1.0000
  C   C354      1.0  0.00511  0.39608  0.59227  1.0000
  C   C355      1.0  0.00381  0.36418  0.57216  1.0000
  H   H630      1.0  0.23170  0.07576  0.72964  1.0000
  H   H631      1.0  0.47996  0.14572  0.60796  1.0000
  C   C356      1.0  0.14379  0.20411  0.71256  1.0000
  C   C357      1.0  0.17199  0.15257  0.68787  1.0000
  H   H632      1.0  0.32807  0.08995  0.58517  1.0000
  H   H633      1.0  0.26559  0.04677  0.72791  1.0000
  C   C358      1.0  0.46553  0.08289  0.59251  1.0000
  H   H634      1.0  0.09791  0.20813  0.70718  1.0000
  H   H635      1.0  0.24512  0.02794  0.59182  1.0000
  H   H636      1.0  0.34717  0.01093  0.51050  1.0000
  H   H637      1.0  0.16226  0.13081  0.68922  1.0000
  C   C359      1.0  0.27128  0.99617  0.72231  1.0000
  H   H638      1.0  0.36016  0.29649  0.69509  1.0000
  H   H639      1.0  0.00406  0.35285  0.53948  1.0000
  C   C360      1.0  0.01486  0.35909  0.59961  1.0000
  H   H640      1.0  0.34125  0.20411  0.68609  1.0000
  C   C361      1.0  0.27894  0.08144  0.59671  1.0000
  H   H641      1.0  0.27144  0.16611  0.60388  1.0000
  H   H642      1.0  0.24739  0.12095  0.73814  1.0000
  H   H643      1.0  0.26179  0.06760  0.70287  1.0000
  C   C362      1.0  0.46345  0.05091  0.61317  1.0000
  C   C363      1.0  0.08929  0.25462  0.73646  1.0000
  H   H644      1.0  0.25250  0.15478  0.58549  1.0000
  H   H645      1.0  0.37036  0.22307  0.55165  1.0000
  H   H646      1.0  0.30268  0.07399  0.64719  1.0000
  H   H647      1.0  0.02560  0.33275  0.62374  1.0000
  C   C364      1.0  0.25389  0.21321  0.73100  1.0000
  C   C365      1.0  0.16514  0.16568  0.70177  1.0000
  H   H648      1.0  0.32575  0.10822  0.65168  1.0000
  N   N22       1.0  0.29723  0.10779  0.60450  1.0000
  S   S97       1.0  0.40418  0.04539  0.50756  1.0000
  C   C366      1.0  0.43119  0.28601  0.58592  1.0000
  H   H649      1.0  0.41532  0.05014  0.58826  1.0000
  H   H650      1.0  0.28928  0.14494  0.58430  1.0000
  C   C367      1.0  0.34387  0.17035  0.54819  1.0000
  C   C368      1.0  0.36046  0.12680  0.57943  1.0000
  H   H651      1.0  0.44340  0.10094  0.60418  1.0000
  H   H652      1.0  0.33170  0.20445  0.58960  1.0000
  C   C369      1.0  0.27307  0.13240  0.59211  1.0000
  C   C370      1.0  0.25863  0.14830  0.59647  1.0000
  H   H653      1.0  0.41575  0.24719  0.57529  1.0000
  C   C371      1.0  0.28387  0.12495  0.60720  1.0000
  H   H654      1.0  0.38425  0.27690  0.67389  1.0000
  H   H655      1.0  0.22855  0.04625  0.58451  1.0000
  H   H656      1.0  0.32133  0.20959  0.61780  1.0000
  H   H657      1.0  0.02366  0.34637  0.59549  1.0000
  C   C372      1.0  0.38444  0.25931  0.57503  1.0000
  H   H658      1.0  0.33504  0.22794  0.54227  1.0000
  C   C373      1.0  0.29334  0.10246  0.63541  1.0000
  H   H659      1.0  0.14048  0.22761  0.69310  1.0000
  H   H660      1.0  0.32862  0.23601  0.67190  1.0000
  H   H661      1.0  0.05751  0.38456  0.58463  1.0000
  C   C374      1.0  0.99877  0.25166  0.72866  1.0000
  C   C375      1.0  0.34162  0.22609  0.61919  1.0000
  C   C376      1.0  0.02751  0.37008  0.61622  1.0000
  H   H662      1.0  0.32119  0.18848  0.55728  1.0000
  C   C377      1.0  0.38097  0.01596  0.49737  1.0000
  H   H663      1.0  0.37026  0.24156  0.67168  1.0000
  H   H664      1.0  0.43791  0.03011  0.57581  1.0000
  H   H665      1.0  0.34613  0.17962  0.53644  1.0000
  H   H666      1.0  0.09389  0.19954  0.68632  1.0000
  C   C378      1.0  0.13175  0.20663  0.69650  1.0000
  H   H667      1.0  0.21207  0.24430  0.68948  1.0000
  H   H668      1.0  0.99832  0.33822  0.62990  1.0000
  H   H669      1.0  0.36893  0.23871  0.70220  1.0000
  H   H670      1.0  0.24444  0.03207  0.70185  1.0000
  C   C379      1.0  0.25368  0.06384  0.60567  1.0000
  C   C380      1.0  0.99733  0.21408  0.71413  1.0000
  H   H671      1.0  0.00233  0.37804  0.56348  1.0000
  H   H672      1.0  0.03006  0.35601  0.63971  1.0000
  H   H673      1.0  0.01479  0.40809  0.60316  1.0000
  C   C381      1.0  0.33061  0.26489  0.74026  1.0000
  H   H674      1.0  0.29922  0.01295  0.74192  1.0000
  H   H675      1.0  0.99918  0.20312  0.59550  1.0000
  C   C382      1.0  0.47946  0.04825  0.57433  1.0000
  H   H676      1.0  0.01029  0.32492  0.54180  1.0000
  C   C383      1.0  0.37391  0.37553  0.49402  1.0000
  H   H677      1.0  0.46242  0.44535  0.49372  1.0000
  H   H678      1.0  0.99379  0.34523  0.60115  1.0000
  H   H679      1.0  0.00782  0.41060  0.58286  1.0000
  H   H680      1.0  0.46949  0.10103  0.61655  1.0000
  H   H681      1.0  0.19752  0.04600  0.74146  1.0000
  H   H682      1.0  0.19105  0.24245  0.74252  1.0000
  C   C384      1.0  0.48130  0.02671  0.56418  1.0000
  H   H683      1.0  0.48275  0.01175  0.57184  1.0000
  H   H684      1.0  0.48666  0.08992  0.59016  1.0000
  Fe  Fe52      1.0  0.42056  0.34952  0.93778  1.0000
  S   S98       1.0  0.43890  0.37153  0.91558  1.0000
  S   S99       1.0  0.41806  0.37833  0.95635  1.0000
  Fe  Fe53      1.0  0.42517  0.29962  0.92551  1.0000
  S   S100      1.0  0.44604  0.32078  0.90374  1.0000
  S   S101      1.0  0.40782  0.25405  0.92618  1.0000
  Fe  Fe54      1.0  0.46898  0.35726  0.91943  1.0000
  Fe  Fe55      1.0  0.41395  0.33324  0.90193  1.0000
  S   S102      1.0  0.39357  0.32845  0.87737  1.0000
  S   S103      1.0  0.45056  0.33489  0.94160  1.0000
  S   S104      1.0  0.39315  0.31247  0.92371  1.0000
  Fe  Fe56      1.0  0.39901  0.06166  0.94121  1.0000
  S   S105      1.0  0.40960  0.04498  0.91969  1.0000
  S   S106      1.0  0.36872  0.03315  0.95843  1.0000
  Fe  Fe57      1.0  0.42798  0.11865  0.92910  1.0000
  S   S107      1.0  0.44025  0.10472  0.90704  1.0000
  S   S108      1.0  0.44495  0.16382  0.93299  1.0000
  Fe  Fe58      1.0  0.39862  0.07174  0.90543  1.0000
  S   S109      1.0  0.37874  0.06084  0.88046  1.0000
  Fe  Fe59      1.0  0.45054  0.07918  0.92295  1.0000
  S   S110      1.0  0.38587  0.08695  0.92668  1.0000
  S   S111      1.0  0.44043  0.09462  0.94536  1.0000
  Fe  Fe60      1.0  0.20664  0.01134  0.80812  1.0000
  S   S112      1.0  0.25015  0.02608  0.81008  1.0000
  S   S113      1.0  0.18853  0.03924  0.80782  1.0000
  Fe  Fe61      1.0  0.99813  0.21172  0.78642  1.0000
  Fe  Fe62      1.0  0.20385  0.20823  0.80971  1.0000
  S   S114      1.0  0.23229  0.25134  0.80992  1.0000
  S   S115      1.0  0.15944  0.19107  0.81295  1.0000
  Fe  Fe63      1.0  0.24815  0.19262  0.80502  1.0000
  S   S116      1.0  0.27950  0.23498  0.80462  1.0000
  S   S117      1.0  0.26313  0.16232  0.80292  1.0000
  Fe  Fe64      1.0  0.25902  0.24159  0.82552  1.0000
  S   S118      1.0  0.27501  0.26007  0.85039  1.0000
  Fe  Fe65      1.0  0.25008  0.24054  0.78903  1.0000
  S   S119      1.0  0.25864  0.26466  0.76659  1.0000
  S   S120      1.0  0.22915  0.19871  0.82660  1.0000
  S   S121      1.0  0.22024  0.19774  0.78811  1.0000
  H   H685      1.0  0.19897  0.29584  0.85213  1.0000
  H   H686      1.0  0.17716  0.24097  0.88334  1.0000
  H   H687      1.0  0.16029  0.20397  0.84603  1.0000
  H   H688      1.0  0.37184  0.33332  0.96894  1.0000
  Fe  Fe66      1.0  0.03973  0.22843  0.81306  1.0000
  S   S122      1.0  0.08476  0.24662  0.81484  1.0000
  S   S123      1.0  0.02508  0.25133  0.79769  1.0000
  C   C385      1.0  0.31116  0.07988  0.77753  1.0000
  H   H689      1.0  0.13616  0.25399  0.74570  1.0000
  C   C386      1.0  0.11216  0.26338  0.76248  1.0000
  C   C387      1.0  0.13871  0.20660  0.81197  1.0000
  C   C388      1.0  0.11176  0.19154  0.81493  1.0000
  C   C389      1.0  0.09480  0.20325  0.81535  1.0000
  C   C390      1.0  0.10470  0.23036  0.81308  1.0000
  C   C391      1.0  0.13158  0.24540  0.80993  1.0000
  C   C392      1.0  0.14841  0.23356  0.80910  1.0000
  H   H690      1.0  0.10397  0.17066  0.81710  1.0000
  H   H691      1.0  0.07420  0.19141  0.81782  1.0000
  H   H692      1.0  0.13945  0.26641  0.80824  1.0000
  H   H693      1.0  0.16900  0.24540  0.80661  1.0000
  H   H694      1.0  0.06851  0.25957  0.77413  1.0000
  H   H695      1.0  0.32280  0.34563  0.96063  1.0000
  H   H696      1.0  0.24531  0.09745  0.77107  1.0000
  H   H697      1.0  0.27577  0.13909  0.85048  1.0000
  H   H698      1.0  0.25357  0.21331  0.75670  1.0000
  C   C393      1.0  0.20912  0.07347  0.80616  1.0000
  C   C394      1.0  0.19848  0.09119  0.80739  1.0000
  C   C395      1.0  0.21472  0.11859  0.80634  1.0000
  C   C396      1.0  0.24172  0.12833  0.80418  1.0000
  C   C397      1.0  0.25230  0.11064  0.80303  1.0000
  C   C398      1.0  0.23603  0.08334  0.80380  1.0000
  H   H699      1.0  0.17761  0.08371  0.80914  1.0000
  H   H700      1.0  0.20639  0.13214  0.80723  1.0000
  H   H701      1.0  0.27318  0.11815  0.80137  1.0000
  H   H702      1.0  0.24433  0.06997  0.80250  1.0000
  C   C399      1.0  0.34552  0.04562  0.87298  1.0000
  C   C400      1.0  0.32419  0.03931  0.88286  1.0000
  C   C401      1.0  0.29820  0.02643  0.87654  1.0000
  C   C402      1.0  0.29308  0.02039  0.86015  1.0000
  C   C403      1.0  0.31441  0.02729  0.85016  1.0000
  C   C404      1.0  0.34042  0.03966  0.85657  1.0000
  H   H703      1.0  0.32777  0.04466  0.89532  1.0000
  H   H704      1.0  0.31090  0.02282  0.83753  1.0000
  H   H705      1.0  0.35673  0.04459  0.84874  1.0000
  H   H706      1.0  0.26485  0.41023  0.94419  1.0000
  H   H707      1.0  0.42416  0.30993  0.85616  1.0000
  H   H708      1.0  0.43648  0.28767  0.84907  1.0000
  H   H709      1.0  0.22206  0.13864  0.85395  1.0000
  H   H710      1.0  0.06137  0.34131  0.92995  1.0000
  H   H711      1.0  0.06847  0.17288  0.76803  1.0000
  C   C405      1.0  0.01774  0.38265  0.97245  1.0000
  H   H712      1.0  0.03223  0.39716  0.96499  1.0000
  C   C406      1.0  0.36042  0.30896  0.87022  1.0000
  C   C407      1.0  0.33915  0.29810  0.88041  1.0000
  C   C408      1.0  0.31326  0.28313  0.87414  1.0000
  C   C409      1.0  0.30823  0.27843  0.85762  1.0000
  C   C410      1.0  0.32953  0.28892  0.84745  1.0000
  C   C411      1.0  0.35535  0.30434  0.85371  1.0000
  H   H713      1.0  0.34263  0.30167  0.89310  1.0000
  H   H714      1.0  0.29700  0.27525  0.88214  1.0000
  H   H715      1.0  0.32606  0.28571  0.83473  1.0000
  H   H716      1.0  0.37156  0.31277  0.84568  1.0000
  C   C412      1.0  0.41899  0.22946  0.92733  1.0000
  C   C413      1.0  0.44525  0.23571  0.93071  1.0000
  C   C414      1.0  0.45273  0.21540  0.93225  1.0000
  C   C415      1.0  0.43425  0.18852  0.93022  1.0000
  C   C416      1.0  0.40810  0.18228  0.92646  1.0000
  C   C417      1.0  0.40055  0.20259  0.92515  1.0000
  H   H717      1.0  0.45971  0.25618  0.93248  1.0000
  H   H718      1.0  0.34810  0.41111  0.98829  1.0000
  H   H719      1.0  0.39358  0.16180  0.92491  1.0000
  H   H720      1.0  0.38016  0.19740  0.92264  1.0000
  C   C418      1.0  0.39774  0.37478  0.97277  1.0000
  C   C419      1.0  0.14945  0.24250  0.85414  1.0000
  C   C420      1.0  0.22874  0.05107  0.75907  1.0000
  H   H721      1.0  0.31363  0.19864  0.82437  1.0000
  H   H722      1.0  0.03703  0.28238  0.92982  1.0000
  H   H723      1.0  0.99397  0.41605  0.91924  1.0000
  H   H724      1.0  0.02284  0.39439  0.92324  1.0000
  C   C421      1.0  0.25953  0.99820  0.74988  1.0000
  H   H725      1.0  0.19096  0.00427  0.85969  1.0000
  Fe  Fe67      1.0  0.24121  0.99421  0.82772  1.0000
  S   S124      1.0  0.48588  0.07107  0.91754  1.0000
  C   C422      1.0  0.38342  0.46298  0.98402  1.0000
  H   H726      1.0  0.27004  0.06168  0.84534  1.0000
  H   H727      1.0  0.36321  0.45158  0.96134  1.0000
  S   S125      1.0  0.27006  0.00629  0.77005  1.0000
  H   H728      1.0  0.18347  0.22424  0.76921  1.0000
  H   H729      1.0  0.40174  0.47823  0.97887  1.0000
  H   H730      1.0  0.15999  0.01696  0.75705  1.0000
  H   H731      1.0  0.05500  0.37394  0.94821  1.0000
  N   N23       1.0  0.25104  0.07477  0.75197  1.0000
  H   H732      1.0  0.33174  0.43014  0.98377  1.0000
  H   H733      1.0  0.28536  0.11707  0.83230  1.0000
  H   H734      1.0  0.38066  0.43354  0.96695  1.0000
  C   C423      1.0  0.40302  0.39728  0.98232  1.0000
  H   H735      1.0  0.17212  0.26101  0.76470  1.0000
  C   C424      1.0  0.27647  0.07438  0.75658  1.0000
  C   C425      1.0  0.37611  0.35077  0.97618  1.0000
  C   C426      1.0  0.36818  0.01119  0.97344  1.0000
  H   H736      1.0  0.41974  0.41594  0.97980  1.0000
  N   N24       1.0  0.01969  0.32194  0.93483  1.0000
  H   H737      1.0  0.32619  0.24517  0.74485  1.0000
  H   H738      1.0  0.23709  0.04235  0.86390  1.0000
  H   H739      1.0  0.23010  0.05268  0.77229  1.0000
  H   H740      1.0  0.06198  0.29945  0.77875  1.0000
  H   H741      1.0  0.34491  0.36642  0.92775  1.0000
  H   H742      1.0  0.29010  0.08539  0.81381  1.0000
  H   H743      1.0  0.40620  0.99846  0.89897  1.0000
  H   H744      1.0  0.18268  0.00332  0.75538  1.0000
  C   C427      1.0  0.07521  0.28923  0.75675  1.0000
  H   H745      1.0  0.46329  0.45750  0.92800  1.0000
  H   H746      1.0  0.09884  0.37509  0.94722  1.0000
  H   H747      1.0  0.22054  0.05916  0.87248  1.0000
  H   H748      1.0  0.31246  0.06255  0.77226  1.0000
  H   H749      1.0  0.38724  0.18079  0.88955  1.0000
  C   C428      1.0  0.05815  0.29886  0.76572  1.0000
  H   H750      1.0  0.24082  0.14487  0.83607  1.0000
  H   H751      1.0  0.15194  0.26302  0.85474  1.0000
  N   N25       1.0  0.32377  0.39817  0.96672  1.0000
  H   H752      1.0  0.17900  0.28266  0.83435  1.0000
  C   C429      1.0  0.34384  0.99354  0.97974  1.0000
  H   H753      1.0  0.29001  0.42258  0.92936  1.0000
  C   C430      1.0  0.31088  0.41005  0.95602  1.0000
  C   C431      1.0  0.29019  0.39110  0.94369  1.0000
  H   H754      1.0  0.29651  0.03255  0.93230  1.0000
  H   H755      1.0  0.03298  0.39477  0.90301  1.0000
  H   H756      1.0  0.40239  0.00431  0.87836  1.0000
  C   C432      1.0  0.99204  0.21154  0.87246  1.0000
  C   C433      1.0  0.27584  0.40462  0.93544  1.0000
  H   H757      1.0  0.46315  0.43269  0.91442  1.0000
  H   H758      1.0  0.47808  0.46406  0.98061  1.0000
  H   H759      1.0  0.45141  0.30878  0.86639  1.0000
  H   H760      1.0  0.36224  0.35911  0.94346  1.0000
  H   H761      1.0  0.34934  0.40164  0.94720  1.0000
  H   H762      1.0  0.19688  0.06198  0.76013  1.0000
  H   H763      1.0  0.01282  0.35549  0.93974  1.0000
  C   C434      1.0  0.23720  0.11254  0.74935  1.0000
  H   H764      1.0  0.30161  0.41990  0.96323  1.0000
  H   H765      1.0  0.32590  0.42612  0.94904  1.0000
  H   H766      1.0  0.29321  0.09022  0.75036  1.0000
  H   H767      1.0  0.30007  0.38531  0.93431  1.0000
  C   C435      1.0  0.12644  0.22610  0.86517  1.0000
  C   C436      1.0  0.33180  0.00145  0.91669  1.0000
  H   H768      1.0  0.34143  0.01649  0.90757  1.0000
  H   H769      1.0  0.01408  0.24231  0.91251  1.0000
  C   C437      1.0  0.17741  0.22107  0.74349  1.0000
  H   H770      1.0  0.30646  0.35391  0.94508  1.0000
  H   H771      1.0  0.02643  0.34908  0.90498  1.0000
  H   H772      1.0  0.05259  0.31871  0.94554  1.0000
  H   H773      1.0  0.05230  0.21074  0.75137  1.0000
  H   H774      1.0  0.29317  0.09740  0.90081  1.0000
  H   H775      1.0  0.25868  0.13499  0.86877  1.0000
  C   C438      1.0  0.31453  0.03042  0.93023  1.0000
  C   C439      1.0  0.01294  0.26067  0.90957  1.0000
  C   C440      1.0  0.15822  0.26896  0.76748  1.0000
  S   S126      1.0  0.01353  0.18918  0.80128  1.0000
  H   H776      1.0  0.33270  0.33312  0.93453  1.0000
  H   H777      1.0  0.19919  0.05580  0.84408  1.0000
  C   C441      1.0  0.17003  0.21385  0.85756  1.0000
  C   C442      1.0  0.13198  0.25272  0.75856  1.0000
  H   H778      1.0  0.16721  0.28992  0.76393  1.0000
  H   H779      1.0  0.20463  0.21432  0.75868  1.0000
  C   C443      1.0  0.23625  0.13501  0.75905  1.0000
  H   H780      1.0  0.08667  0.21928  0.86987  1.0000
  H   H781      1.0  0.12445  0.23185  0.76200  1.0000
  H   H782      1.0  0.30933  0.07892  0.82876  1.0000
  C   C444      1.0  0.05732  0.18126  0.77466  1.0000
  H   H783      1.0  0.03689  0.17279  0.76965  1.0000
  H   H784      1.0  0.28356  0.09513  0.78008  1.0000
  H   H785      1.0  0.16884  0.00852  0.84591  1.0000
  H   H786      1.0  0.00970  0.29425  0.95400  1.0000
  H   H787      1.0  0.27303  0.11617  0.75948  1.0000
  H   H788      1.0  0.29539  0.00324  0.91082  1.0000
  H   H789      1.0  0.29037  0.35915  0.96887  1.0000
  H   H790      1.0  0.47299  0.22061  0.93522  1.0000
  H   H791      1.0  0.03005  0.31333  0.91161  1.0000
  H   H792      1.0  0.22474  0.12729  0.76995  1.0000
  H   H793      1.0  0.17538  0.02445  0.86531  1.0000
  C   C445      1.0  0.05722  0.35698  0.95287  1.0000
  H   H794      1.0  0.22661  0.14442  0.75184  1.0000
  C   C446      1.0  0.02489  0.38008  0.98818  1.0000
  H   H795      1.0  0.06284  0.31913  0.76204  1.0000
  C   C447      1.0  0.33992  0.38833  0.95726  1.0000
  H   H796      1.0  0.32630  0.09820  0.77227  1.0000
  H   H797      1.0  0.05640  0.17545  0.78726  1.0000
  H   H798      1.0  0.09192  0.38352  0.96674  1.0000
  C   C448      1.0  0.25475  0.22439  0.74616  1.0000
  H   H799      1.0  0.37181  0.47276  0.98843  1.0000
  H   H800      1.0  0.00222  0.26544  0.93319  1.0000
  H   H801      1.0  0.04579  0.35044  0.96385  1.0000
  H   H802      1.0  0.31162  0.08018  0.89548  1.0000
  C   C449      1.0  0.39105  0.01116  0.97947  1.0000
  H   H803      1.0  0.32156  0.11133  0.82052  1.0000
  H   H804      1.0  0.99974  0.37258  0.90810  1.0000
  H   H805      1.0  0.09051  0.21880  0.77969  1.0000
  C   C450      1.0  0.04819  0.33403  0.94026  1.0000
  H   H806      1.0  0.26861  0.05887  0.88194  1.0000
  C   C451      1.0  0.36767  0.44172  0.97132  1.0000
  H   H807      1.0  0.32408  0.03128  0.94194  1.0000
  N   N26       1.0  0.36584  0.23677  0.87151  1.0000
  C   C452      1.0  0.34024  0.22619  0.86200  1.0000
  C   C453      1.0  0.36336  0.24869  0.88724  1.0000
  C   C454      1.0  0.38665  0.25833  0.86200  1.0000
  C   C455      1.0  0.37462  0.21591  0.87415  1.0000
  C   C456      1.0  0.35637  0.19191  0.88389  1.0000
  C   C457      1.0  0.41361  0.27521  0.87061  1.0000
  C   C458      1.0  0.33597  0.23574  0.89505  1.0000
  C   C459      1.0  0.33738  0.24656  0.91196  1.0000
  C   C460      1.0  0.43249  0.29665  0.85983  1.0000
  H   H808      1.0  0.33400  0.24200  0.86110  1.0000
  H   H809      1.0  0.32415  0.20978  0.86812  1.0000
  H   H810      1.0  0.37839  0.24931  0.89606  1.0000
  H   H811      1.0  0.36786  0.26970  0.88586  1.0000
  H   H812      1.0  0.37933  0.27226  0.85787  1.0000
  H   H813      1.0  0.39102  0.24991  0.85111  1.0000
  H   H814      1.0  0.39380  0.22459  0.88080  1.0000
  H   H815      1.0  0.33612  0.18190  0.87870  1.0000
  H   H816      1.0  0.35599  0.19839  0.89636  1.0000
  H   H817      1.0  0.42321  0.26308  0.87420  1.0000
  H   H818      1.0  0.41118  0.28518  0.88135  1.0000
  H   H819      1.0  0.32186  0.24010  0.88809  1.0000
  H   H820      1.0  0.32757  0.21403  0.89560  1.0000
  H   H821      1.0  0.34382  0.26810  0.91183  1.0000
  H   H822      1.0  0.31765  0.23674  0.91725  1.0000
  H   H823      1.0  0.35131  0.24281  0.91954  1.0000
  C   C461      1.0  0.17995  0.01992  0.76055  1.0000
  C   C462      1.0  0.30716  0.00405  0.92161  1.0000
  C   C463      1.0  0.01736  0.27764  0.92469  1.0000
  C   C464      1.0  0.02900  0.36077  0.91614  1.0000
  H   H824      1.0  0.35374  0.23239  0.83728  1.0000
  H   H825      1.0  0.26156  0.39085  0.92637  1.0000
  H   H826      1.0  0.17044  0.19102  0.76113  1.0000
  Fe  Fe68      1.0  0.99408  0.24281  0.81630  1.0000
  H   H827      1.0  0.40992  0.02472  0.97488  1.0000
  C   C465      1.0  0.28369  0.07739  0.77463  1.0000
  H   H828      1.0  0.30599  0.22018  0.83668  1.0000
  C   C466      1.0  0.25229  0.10020  0.75865  1.0000
  H   H829      1.0  0.26963  0.05974  0.78094  1.0000
  N   N27       1.0  0.08562  0.24960  0.75403  1.0000
  H   H830      1.0  0.15602  0.20282  0.86692  1.0000
  H   H831      1.0  0.23386  0.09813  0.83923  1.0000
  C   C467      1.0  0.08618  0.36726  0.95767  1.0000
  H   H832      1.0  0.15543  0.26807  0.78051  1.0000
  C   C468      1.0  0.07084  0.21137  0.77384  1.0000
  C   C469      1.0  0.02056  0.38192  0.91246  1.0000
  H   H833      1.0  0.12206  0.28469  0.75966  1.0000
  H   H834      1.0  0.48393  0.36118  0.97276  1.0000
  S   S127      1.0  0.01074  0.22304  0.83241  1.0000
  H   H835      1.0  0.05924  0.21875  0.78082  1.0000
  H   H836      1.0  0.25640  0.15035  0.76257  1.0000
  H   H837      1.0  0.10992  0.26301  0.77564  1.0000
  H   H838      1.0  0.09614  0.22718  0.84957  1.0000
  H   H839      1.0  0.23037  0.03280  0.75616  1.0000
  C   C470      1.0  0.01544  0.30321  0.92092  1.0000
  H   H840      1.0  0.10879  0.25286  0.86497  1.0000
  C   C471      1.0  0.01226  0.34276  0.92951  1.0000
  H   H841      1.0  0.31924  0.11121  0.88658  1.0000
  C   C472      1.0  0.36673  0.17157  0.88461  1.0000
  C   C473      1.0  0.35968  0.34944  0.98880  1.0000
  H   H842      1.0  0.25344  0.16756  0.85282  1.0000
  C   C474      1.0  0.32589  0.35932  0.95070  1.0000
  N   N28       1.0  0.17537  0.24236  0.85768  1.0000
  C   C475      1.0  0.19357  0.25637  0.84436  1.0000
  C   C476      1.0  0.18599  0.25555  0.87379  1.0000
  C   C477      1.0  0.21642  0.26944  0.87643  1.0000
  C   C478      1.0  0.19672  0.28437  0.84093  1.0000
  C   C479      1.0  0.19386  0.20859  0.86056  1.0000
  C   C480      1.0  0.22413  0.27712  0.89394  1.0000
  H   H843      1.0  0.22092  0.09528  0.85849  1.0000
  H   H844      1.0  0.18650  0.24438  0.83310  1.0000
  H   H845      1.0  0.21345  0.25804  0.84645  1.0000
  C   C481      1.0  0.10316  0.23179  0.86219  1.0000
  H   H846      1.0  0.17978  0.27106  0.87631  1.0000
  H   H847      1.0  0.22560  0.28784  0.86958  1.0000
  H   H848      1.0  0.22551  0.25699  0.87254  1.0000
  H   H849      1.0  0.28598  0.11435  0.86880  1.0000
  H   H850      1.0  0.00506  0.32214  0.95839  1.0000
  H   H851      1.0  0.21005  0.21973  0.85243  1.0000
  H   H852      1.0  0.20118  0.21401  0.87305  1.0000
  H   H853      1.0  0.20339  0.17591  0.86026  1.0000
  H   H854      1.0  0.21651  0.25923  0.90129  1.0000
  H   H855      1.0  0.24593  0.28752  0.89533  1.0000
  H   H856      1.0  0.21632  0.29056  0.89828  1.0000
  C   C482      1.0  0.00289  0.30781  0.94863  1.0000
  H   H857      1.0  0.21705  0.29118  0.81857  1.0000
  C   C483      1.0  0.20063  0.04635  0.75451  1.0000
  S   S128      1.0  0.25973  0.00410  0.85301  1.0000
  H   H858      1.0  0.27400  0.38974  0.97983  1.0000
  H   H859      1.0  0.13267  0.23060  0.87788  1.0000
  H   H860      1.0  0.25895  0.09725  0.88118  1.0000
  H   H861      1.0  0.99603  0.29733  0.91492  1.0000
  H   H862      1.0  0.36621  0.16296  0.87259  1.0000
  C   C484      1.0  0.18437  0.21203  0.75904  1.0000
  C   C485      1.0  0.07284  0.22018  0.75636  1.0000
  H   H863      1.0  0.27600  0.05543  0.75274  1.0000
  H   H864      1.0  0.04721  0.24760  0.75729  1.0000
  H   H865      1.0  0.11911  0.20462  0.86271  1.0000
  C   C486      1.0  0.28640  0.38357  0.98714  1.0000
  C   C487      1.0  0.22040  0.30021  0.83071  1.0000
  H   H866      1.0  0.22310  0.32068  0.82965  1.0000
  C   C488      1.0  0.34033  0.21607  0.84477  1.0000
  H   H867      1.0  0.08953  0.35132  0.96296  1.0000
  H   H868      1.0  0.29427  0.07403  0.86774  1.0000
  H   H869      1.0  0.21672  0.09790  0.74622  1.0000
  C   C489      1.0  0.25735  0.24993  0.74768  1.0000
  C   C490      1.0  0.34250  0.35429  0.93837  1.0000
  H   H870      1.0  0.34636  0.20019  0.84465  1.0000
  H   H871      1.0  0.30510  0.11124  0.84722  1.0000
  H   H872      1.0  0.15713  0.21847  0.74455  1.0000
  H   H873      1.0  0.34630  0.00828  0.92683  1.0000
  H   H874      1.0  0.03697  0.28574  0.76305  1.0000
  C   C491      1.0  0.18597  0.17922  0.85815  1.0000
  H   H875      1.0  0.29871  0.18752  0.84324  1.0000
  H   H876      1.0  0.28191  0.02135  0.88440  1.0000
  H   H877      1.0  0.09599  0.30296  0.75995  1.0000
  H   H878      1.0  0.37839  0.20861  0.86262  1.0000
  H   H879      1.0  0.27509  0.37318  0.94927  1.0000
  C   C492      1.0  0.30398  0.37621  0.97646  1.0000
  H   H880      1.0  0.44657  0.42294  0.93301  1.0000
  H   H881      1.0  0.14245  0.23503  0.84178  1.0000
  H   H882      1.0  0.05019  0.37105  0.91957  1.0000
  H   H883      1.0  0.32806  0.04726  0.92312  1.0000
  H   H884      1.0  0.21454  0.03584  0.83836  1.0000
  C   C493      1.0  0.06817  0.26033  0.76091  1.0000
  H   H885      1.0  0.17840  0.17248  0.84578  1.0000
  H   H886      1.0  0.32600  0.99340  0.97520  1.0000
  C   C494      1.0  0.46401  0.43840  0.92719  1.0000
  C   C495      1.0  0.31297  0.20494  0.83685  1.0000
  H   H887      1.0  0.99324  0.19681  0.86414  1.0000
  C   C496      1.0  0.34206  0.41977  0.97825  1.0000
  H   H888      1.0  0.25166  0.07093  0.83231  1.0000
  H   H889      1.0  0.23868  0.30119  0.83610  1.0000
  H   H890      1.0  0.99151  0.33343  0.92499  1.0000
  H   H891      1.0  0.35644  0.38915  0.96479  1.0000
  H   H892      1.0  0.31540  0.08068  0.79051  1.0000
  H   H893      1.0  0.35437  0.15542  0.89256  1.0000
  H   H894      1.0  0.17054  0.16719  0.86658  1.0000
  S   S129      1.0  0.99261  0.19645  0.76074  1.0000
  C   C497      1.0  0.30299  0.09269  0.89088  1.0000
  N   N29       1.0  0.25163  0.08306  0.85675  1.0000
  C   C498      1.0  0.26989  0.09441  0.87111  1.0000
  C   C499      1.0  0.23961  0.10088  0.85213  1.0000
  C   C500      1.0  0.22956  0.05676  0.86132  1.0000
  C   C501      1.0  0.26523  0.07812  0.84286  1.0000
  C   C502      1.0  0.29040  0.10210  0.83735  1.0000
  C   C503      1.0  0.28331  0.07797  0.87728  1.0000
  C   C504      1.0  0.20715  0.04271  0.84861  1.0000
  C   C505      1.0  0.25608  0.13102  0.85572  1.0000
  C   C506      1.0  0.24218  0.14635  0.84924  1.0000
  C   C507      1.0  0.30359  0.09383  0.82432  1.0000
  H   H895      1.0  0.00280  0.23161  0.86756  1.0000
  H   H896      1.0  0.25524  0.34302  0.98887  1.0000
  H   H897      1.0  0.18121  0.01970  0.77373  1.0000
  C   C508      1.0  0.18424  0.01852  0.85538  1.0000
  H   H898      1.0  0.48263  0.15745  0.89906  1.0000
  H   H899      1.0  0.47421  0.43183  0.98489  1.0000
  H   H900      1.0  0.99719  0.44909  0.97708  1.0000
  H   H901      1.0  0.37218  0.01368  0.89408  1.0000
  H   H902      1.0  0.47304  0.43355  0.95805  1.0000
  H   H903      1.0  0.47816  0.22013  0.89780  1.0000
  H   H904      1.0  0.00147  0.42847  0.94753  1.0000
  H   H905      1.0  0.00428  0.27544  0.85531  1.0000
  C   C509      1.0  0.47904  0.20167  0.89438  1.0000
  H   H906      1.0  0.34228  0.28016  0.74950  1.0000
  H   H907      1.0  0.45962  0.18470  0.89675  1.0000
  H   H908      1.0  0.08316  0.21097  0.74958  1.0000
  H   H909      1.0  0.31439  0.36819  0.98424  1.0000
  H   H910      1.0  0.99584  0.24816  0.75424  1.0000
  C   C510      1.0  0.98841  0.28026  0.85742  1.0000
  H   H911      1.0  0.99321  0.25509  0.90414  1.0000
  Fe  Fe69      1.0  0.24302  0.99514  0.79104  1.0000
  H   H912      1.0  0.47629  0.02655  0.94304  1.0000
  H   H913      1.0  0.47733  0.99543  0.94262  1.0000
  H   H914      1.0  0.47676  0.39656  0.96106  1.0000
  H   H915      1.0  0.00171  0.21122  0.88394  1.0000
  H   H916      1.0  0.99225  0.44655  0.92240  1.0000
  H   H917      1.0  0.00046  0.29323  0.88181  1.0000
  H   H918      1.0  0.98916  0.41570  0.97234  1.0000
  H   H919      1.0  0.48292  0.20196  0.88147  1.0000
  H   H920      1.0  0.02818  0.27155  0.90075  1.0000
  C   C511      1.0  0.99201  0.36663  0.96630  1.0000
  H   H921      1.0  0.34282  0.33083  0.99121  1.0000
  C   C512      1.0  0.99507  0.21361  0.74309  1.0000
  C   C513      1.0  0.38956  0.99398  0.99176  1.0000
  C   C514      1.0  0.36702  0.99272  0.89185  1.0000
  H   H922      1.0  0.07200  0.29086  0.74386  1.0000
  C   C515      1.0  0.99657  0.23876  0.74312  1.0000
  H   H923      1.0  0.98674  0.36893  0.95425  1.0000
  H   H924      1.0  0.06427  0.72574  0.02078  1.0000
  H   H925      1.0  0.42219  0.92377  0.03416  1.0000
  S   S130      1.0  0.01420  0.74981  0.11373  1.0000
  H   H926      1.0  0.15541  0.89862  0.22659  1.0000
  Fe  Fe70      1.0  0.01144  0.81002  0.15632  1.0000
  S   S131      1.0  0.03508  0.85464  0.15976  1.0000
  S   S132      1.0  0.03114  0.78425  0.15560  1.0000
  H   H927      1.0  0.09367  0.76418  0.11709  1.0000
  N   N30       1.0  0.08043  0.73707  0.14856  1.0000
  Fe  Fe71      1.0  0.18732  0.95558  0.15384  1.0000
  S   S133      1.0  0.15916  0.91158  0.15185  1.0000
  S   S134      1.0  0.22902  0.96209  0.15569  1.0000
  H   H928      1.0  0.13500  0.77154  0.15566  1.0000
  H   H929      1.0  0.11017  0.91545  0.19202  1.0000
  H   H930      1.0  0.10233  0.81001  0.11455  1.0000
  Fe  Fe72      1.0  0.06708  0.66356  0.06232  1.0000
  S   S135      1.0  0.08527  0.69807  0.04623  1.0000
  S   S136      1.0  0.04307  0.66236  0.08416  1.0000
  Fe  Fe73      1.0  0.08637  0.62938  0.04256  1.0000
  S   S137      1.0  0.10556  0.66248  0.02533  1.0000
  S   S138      1.0  0.09072  0.59246  0.03463  1.0000
  Fe  Fe74      1.0  0.12086  0.69091  0.04640  1.0000
  S   S139      1.0  0.16463  0.71995  0.05197  1.0000
  Fe  Fe75      1.0  0.06853  0.66677  0.02650  1.0000
  S   S140      1.0  0.04878  0.67176  0.00392  1.0000
  S   S141      1.0  0.10341  0.65756  0.06371  1.0000
  S   S142      1.0  0.04854  0.63259  0.04250  1.0000
  H   H931      1.0  0.46167  0.96721  0.03801  1.0000
  Fe  Fe76      1.0  0.34986  0.88259  0.04786  1.0000
  S   S143      1.0  0.32688  0.87950  0.02514  1.0000
  S   S144      1.0  0.38065  0.86744  0.04455  1.0000
  Fe  Fe77      1.0  0.32237  0.91151  0.06510  1.0000
  S   S145      1.0  0.29985  0.91145  0.04308  1.0000
  S   S146      1.0  0.32033  0.93060  0.08894  1.0000
  Fe  Fe78      1.0  0.29131  0.86848  0.04037  1.0000
  S   S147      1.0  0.24844  0.83827  0.03341  1.0000
  Fe  Fe79      1.0  0.33738  0.92225  0.02981  1.0000
  S   S148      1.0  0.36498  0.95555  0.01373  1.0000
  S   S149      1.0  0.31331  0.86850  0.06282  1.0000
  S   S150      1.0  0.36054  0.92514  0.05230  1.0000
  C   C516      1.0  0.46867  0.89352  0.05737  1.0000
  C   C517      1.0  0.45491  0.87366  0.04582  1.0000
  C   C518      1.0  0.42807  0.86590  0.04221  1.0000
  C   C519      1.0  0.41456  0.87803  0.04987  1.0000
  C   C520      1.0  0.42837  0.89805  0.06131  1.0000
  C   C521      1.0  0.45510  0.90554  0.06510  1.0000
  H   H932      1.0  0.46487  0.86408  0.03980  1.0000
  H   H933      1.0  0.41768  0.85032  0.03339  1.0000
  H   H934      1.0  0.41837  0.90747  0.06744  1.0000
  H   H935      1.0  0.10395  0.89105  0.22491  1.0000
  H   H936      1.0  0.04176  0.54009  0.01244  1.0000
  H   H937      1.0  0.36320  0.98686  0.08787  1.0000
  C   C522      1.0  0.12110  0.77410  0.16362  1.0000
  H   H938      1.0  0.00671  0.83984  0.22681  1.0000
  H   H939      1.0  0.39770  0.59881  0.00875  1.0000
  H   H940      1.0  0.42540  0.66221  0.04997  1.0000
  C   C523      1.0  0.47285  0.63575  0.07140  1.0000
  C   C524      1.0  0.22543  0.80547  0.03901  1.0000
  C   C525      1.0  0.23190  0.79079  0.04981  1.0000
  C   C526      1.0  0.21308  0.76485  0.05360  1.0000
  C   C527      1.0  0.18739  0.75309  0.04679  1.0000
  C   C528      1.0  0.18086  0.76784  0.03611  1.0000
  C   C529      1.0  0.19971  0.79373  0.03225  1.0000
  H   H941      1.0  0.25149  0.79933  0.05513  1.0000
  H   H942      1.0  0.21853  0.75379  0.06187  1.0000
  H   H943      1.0  0.16133  0.75927  0.03070  1.0000
  H   H944      1.0  0.19435  0.80473  0.02388  1.0000
  C   C530      1.0  0.08598  0.56121  0.04189  1.0000
  C   C531      1.0  0.07589  0.55211  0.05686  1.0000
  C   C532      1.0  0.07267  0.52727  0.06196  1.0000
  C   C533      1.0  0.07935  0.51100  0.05222  1.0000
  C   C534      1.0  0.08934  0.52010  0.03722  1.0000
  C   C535      1.0  0.09270  0.54499  0.03216  1.0000
  H   H945      1.0  0.07044  0.56410  0.06451  1.0000
  H   H946      1.0  0.01146  0.66171  0.11049  1.0000
  H   H947      1.0  0.09468  0.50802  0.02955  1.0000
  H   H948      1.0  0.10079  0.55177  0.02062  1.0000
  C   C536      1.0  0.42709  0.52585  0.04262  1.0000
  C   C537      1.0  0.43854  0.55087  0.03559  1.0000
  C   C538      1.0  0.46427  0.57047  0.04002  1.0000
  S   S151      1.0  0.02099  0.75256  0.19618  1.0000
  C   C539      1.0  0.46780  0.54037  0.05849  1.0000
  C   C540      1.0  0.44205  0.52078  0.05410  1.0000
  H   H949      1.0  0.42735  0.55508  0.02664  1.0000
  H   H950      1.0  0.00006  0.69520  0.12247  1.0000
  S   S152      1.0  0.39436  0.50185  0.03639  1.0000
  H   H951      1.0  0.07690  0.85473  0.23628  1.0000
  H   H952      1.0  0.45564  0.68221  0.03059  1.0000
  C   C541      1.0  0.29092  0.97033  0.11608  1.0000
  C   C542      1.0  0.30552  0.95767  0.11058  1.0000
  C   C543      1.0  0.30205  0.94726  0.09493  1.0000
  C   C544      1.0  0.28405  0.95011  0.08472  1.0000
  H   H953      1.0  0.37568  0.96818  0.07639  1.0000
  H   H954      1.0  0.99677  0.69615  0.17232  1.0000
  H   H955      1.0  0.31947  0.95572  0.11857  1.0000
  H   H956      1.0  0.28076  0.94178  0.07278  1.0000
  H   H957      1.0  0.05657  0.80845  0.21085  1.0000
  H   H958      1.0  0.32340  0.96244  0.99637  1.0000
  C   C545      1.0  0.06945  0.87065  0.15688  1.0000
  C   C546      1.0  0.08262  0.85649  0.15201  1.0000
  C   C547      1.0  0.11008  0.86939  0.15051  1.0000
  C   C548      1.0  0.12463  0.89670  0.15359  1.0000
  C   C549      1.0  0.11149  0.91106  0.15819  1.0000
  C   C550      1.0  0.08399  0.89801  0.15991  1.0000
  H   H959      1.0  0.07166  0.83559  0.14941  1.0000
  H   H960      1.0  0.12009  0.85820  0.14687  1.0000
  H   H961      1.0  0.12253  0.93212  0.16056  1.0000
  H   H962      1.0  0.07394  0.90916  0.16360  1.0000
  C   C551      1.0  0.02224  0.72523  0.10594  1.0000
  C   C552      1.0  0.01274  0.70013  0.11238  1.0000
  C   C553      1.0  0.01909  0.68111  0.10546  1.0000
  C   C554      1.0  0.03521  0.68695  0.09213  1.0000
  C   C555      1.0  0.04488  0.71213  0.08578  1.0000
  C   C556      1.0  0.03823  0.73101  0.09256  1.0000
  H   H963      1.0  0.42813  0.64160  0.06449  1.0000
  Fe  Fe80      1.0  0.00001  0.75900  0.13742  1.0000
  H   H964      1.0  0.05764  0.71713  0.07572  1.0000
  H   H965      1.0  0.08571  0.85014  0.18567  1.0000
  C   C557      1.0  0.26993  0.96338  0.09009  1.0000
  H   H966      1.0  0.06814  0.78995  0.11848  1.0000
  H   H967      1.0  0.11463  0.78408  0.13312  1.0000
  H   H968      1.0  0.25939  0.94551  0.03304  1.0000
  H   H969      1.0  0.44666  0.98329  0.02658  1.0000
  S   S153      1.0  0.19550  0.98376  0.13393  1.0000
  H   H970      1.0  0.09042  0.81057  0.13419  1.0000
  H   H971      1.0  0.17378  0.91722  0.20005  1.0000
  H   H972      1.0  0.04478  0.71335  0.04766  1.0000
  H   H973      1.0  0.05427  0.82149  0.18304  1.0000
  H   H974      1.0  0.10695  0.82185  0.19133  1.0000
  H   H975      1.0  0.00483  0.62321  0.01484  1.0000
  C   C558      1.0  0.45271  0.50349  0.00691  1.0000
  H   H976      1.0  0.05418  0.75147  0.02021  1.0000
  H   H977      1.0  0.46175  0.90543  0.01749  1.0000
  H   H978      1.0  0.01837  0.86593  0.21268  1.0000
  H   H979      1.0  0.15969  0.63018  0.02156  1.0000
  H   H980      1.0  0.47897  0.53608  0.06744  1.0000
  H   H981      1.0  0.07178  0.71977  0.11727  1.0000
  H   H982      1.0  0.09766  0.73355  0.17088  1.0000
  H   H983      1.0  0.46538  0.92081  0.07411  1.0000
  H   H984      1.0  0.28482  0.94401  0.02145  1.0000
  H   H985      1.0  0.04073  0.75228  0.22783  1.0000
  H   H986      1.0  0.40366  0.58411  0.02612  1.0000
  N   N31       1.0  0.21780  0.88923  0.11250  1.0000
  C   C559      1.0  0.20888  0.91037  0.11303  1.0000
  C   C560      1.0  0.24285  0.89785  0.12242  1.0000
  C   C561      1.0  0.22380  0.88591  0.09539  1.0000
  C   C562      1.0  0.19670  0.86295  0.11776  1.0000
  C   C563      1.0  0.18641  0.86241  0.13471  1.0000
  C   C564      1.0  0.18374  0.90464  0.10304  1.0000
  C   C565      1.0  0.23735  0.86813  0.09235  1.0000
  C   C566      1.0  0.24628  0.91497  0.13767  1.0000
  C   C567      1.0  0.26998  0.91821  0.14784  1.0000
  C   C568      1.0  0.16199  0.83634  0.13753  1.0000
  C   C569      1.0  0.17635  0.92702  0.10517  1.0000
  C   C570      1.0  0.24363  0.86770  0.07478  1.0000
  H   H987      1.0  0.22491  0.92930  0.10896  1.0000
  H   H988      1.0  0.20520  0.91483  0.12535  1.0000
  H   H989      1.0  0.24541  0.88037  0.12581  1.0000
  H   H990      1.0  0.26030  0.91015  0.11528  1.0000
  H   H991      1.0  0.23662  0.90559  0.09041  1.0000
  H   H992      1.0  0.20550  0.87723  0.08784  1.0000
  H   H993      1.0  0.17967  0.85511  0.10916  1.0000
  H   H994      1.0  0.20397  0.84795  0.11750  1.0000
  H   H995      1.0  0.18087  0.87836  0.13685  1.0000
  H   H996      1.0  0.20164  0.86424  0.14366  1.0000
  H   H997      1.0  0.18680  0.90298  0.09018  1.0000
  H   H998      1.0  0.16675  0.88620  0.10677  1.0000
  H   H999      1.0  0.22438  0.84745  0.09562  1.0000
  H   H1000     1.0  0.25623  0.87535  0.09919  1.0000
  H   H1001     1.0  0.24973  0.93500  0.13428  1.0000
  H   H1002     1.0  0.22882  0.90667  0.14520  1.0000
  H   H1003     1.0  0.27256  0.93153  0.15825  1.0000
  H   H1004     1.0  0.26697  0.89881  0.15225  1.0000
  H   H1005     1.0  0.28820  0.92709  0.14087  1.0000
  H   H1006     1.0  0.14577  0.83406  0.12924  1.0000
  H   H1007     1.0  0.16629  0.81938  0.13583  1.0000
  H   H1008     1.0  0.15545  0.83637  0.14989  1.0000
  H   H1009     1.0  0.03507  0.73894  0.04702  1.0000
  H   H1010     1.0  0.19285  0.94619  0.10180  1.0000
  H   H1011     1.0  0.00222  0.62547  0.06240  1.0000
  H   H1012     1.0  0.22544  0.86004  0.06717  1.0000
  H   H1013     1.0  0.25763  0.88784  0.07102  1.0000
  H   H1014     1.0  0.25289  0.85457  0.07284  1.0000
  C   C571      1.0  0.27849  0.95760  0.02737  1.0000
  C   C572      1.0  0.02912  0.57918  0.00648  1.0000
  H   H1015     1.0  0.06982  0.69095  0.12659  1.0000
  H   H1016     1.0  0.02945  0.59874  0.00757  1.0000
  H   H1017     1.0  0.05927  0.69710  0.15706  1.0000
  H   H1018     1.0  0.20449  0.91673  0.20498  1.0000
  C   C573      1.0  0.47989  0.52669  0.01051  1.0000
  C   C574      1.0  0.46148  0.94189  0.00982  1.0000
  C   C575      1.0  0.99792  0.56418  0.02951  1.0000
  C   C576      1.0  0.46998  0.92641  0.02157  1.0000
  H   H1019     1.0  0.21096  0.94603  0.22863  1.0000
  H   H1020     1.0  0.10325  0.71580  0.14622  1.0000
  C   C577      1.0  0.17506  0.90863  0.23266  1.0000
  C   C578      1.0  0.08724  0.81347  0.18535  1.0000
  C   C579      1.0  0.07393  0.75658  0.14006  1.0000
  H   H1021     1.0  0.13394  0.92686  0.20824  1.0000
  C   C580      1.0  0.09701  0.72815  0.13890  1.0000
  H   H1022     1.0  0.11547  0.70252  0.11791  1.0000
  H   H1023     1.0  0.08793  0.83567  0.21431  1.0000
  N   N32       1.0  0.05587  0.84589  0.21359  1.0000
  C   C581      1.0  0.41298  0.60035  0.01759  1.0000
  C   C582      1.0  0.10349  0.71084  0.11208  1.0000
  C   C583      1.0  0.06879  0.82957  0.20790  1.0000
  C   C584      1.0  0.47920  0.56538  0.05151  1.0000
  H   H1024     1.0  0.41915  0.66742  0.08600  1.0000
  H   H1025     1.0  0.07540  0.79263  0.18881  1.0000
  C   C585      1.0  0.08345  0.71165  0.12355  1.0000
  H   H1026     1.0  0.01820  0.81169  0.20815  1.0000
  H   H1027     1.0  0.47809  0.65855  0.01561  1.0000
  H   H1028     1.0  0.04571  0.75035  0.08746  1.0000
  C   C586      1.0  0.42451  0.62723  0.02630  1.0000
  H   H1029     1.0  0.43252  0.64265  0.01723  1.0000
  H   H1030     1.0  0.46310  0.92698  0.03370  1.0000
  C   C587      1.0  0.02803  0.83355  0.20689  1.0000
  H   H1031     1.0  0.46310  0.61519  0.06646  1.0000
  N   N33       1.0  0.17391  0.63040  0.05564  1.0000
  C   C588      1.0  0.19768  0.63707  0.06632  1.0000
  C   C589      1.0  0.16635  0.60436  0.04698  1.0000
  C   C590      1.0  0.18204  0.65154  0.04327  1.0000
  C   C591      1.0  0.15094  0.62980  0.06455  1.0000
  C   C592      1.0  0.14728  0.61955  0.08181  1.0000
  C   C593      1.0  0.21076  0.66546  0.07382  1.0000
  C   C594      1.0  0.16181  0.64676  0.02955  1.0000
  C   C595      1.0  0.15806  0.57957  0.05721  1.0000
  C   C596      1.0  0.36521  0.97621  0.99797  1.0000
  C   C597      1.0  0.12141  0.61634  0.08854  1.0000
  C   C598      1.0  0.22952  0.66813  0.08766  1.0000
  H   H1032     1.0  0.43846  0.70285  0.08732  1.0000
  H   H1033     1.0  0.21314  0.63480  0.05957  1.0000
  H   H1034     1.0  0.19297  0.62299  0.07612  1.0000
  H   H1035     1.0  0.14909  0.59918  0.03881  1.0000
  C   C599      1.0  0.41684  0.90599  0.00517  1.0000
  C   C600      1.0  0.04806  0.53893  0.00018  1.0000
  H   H1036     1.0  0.18625  0.67096  0.04893  1.0000
  H   H1037     1.0  0.15238  0.64994  0.06547  1.0000
  H   H1038     1.0  0.13228  0.61773  0.05771  1.0000
  H   H1039     1.0  0.16335  0.63370  0.08983  1.0000
  H   H1040     1.0  0.14731  0.60027  0.08252  1.0000
  H   H1041     1.0  0.22245  0.67994  0.06479  1.0000
  H   H1042     1.0  0.19585  0.67112  0.07822  1.0000
  H   H1043     1.0  0.14234  0.64220  0.03435  1.0000
  H   H1044     1.0  0.14865  0.53819  0.05440  1.0000
  H   H1045     1.0  0.17153  0.58293  0.06753  1.0000
  H   H1046     1.0  0.13783  0.57319  0.06147  1.0000
  H   H1047     1.0  0.48239  0.61128  0.01013  1.0000
  H   H1048     1.0  0.42854  0.59785  0.01122  1.0000
  H   H1049     1.0  0.33731  0.97907  0.06271  1.0000
  H   H1050     1.0  0.10449  0.60307  0.08069  1.0000
  H   H1051     1.0  0.11867  0.60756  0.10048  1.0000
  H   H1052     1.0  0.12168  0.63586  0.08984  1.0000
  H   H1053     1.0  0.23915  0.68886  0.09237  1.0000
  H   H1054     1.0  0.21860  0.65500  0.09743  1.0000
  H   H1055     1.0  0.24504  0.66305  0.08363  1.0000
  H   H1056     1.0  0.40808  0.62882  0.03217  1.0000
  H   H1057     1.0  0.00568  0.71768  0.02363  1.0000
  H   H1058     1.0  0.42524  0.95395  0.05757  1.0000
  H   H1059     1.0  0.47379  0.96341  0.01222  1.0000
  C   C601      1.0  0.08838  0.79778  0.12362  1.0000
  C   C602      1.0  0.02197  0.75232  0.22891  1.0000
  H   H1060     1.0  0.99866  0.58388  0.03079  1.0000
  C   C603      1.0  0.35400  0.99006  0.05482  1.0000
  H   H1061     1.0  0.29161  0.98852  0.04511  1.0000
  H   H1062     1.0  0.44428  0.98919  0.05573  1.0000
  C   C604      1.0  0.03633  0.71694  0.16356  1.0000
  C   C605      1.0  0.05507  0.71276  0.15203  1.0000
  C   C606      1.0  0.48166  0.65600  0.05782  1.0000
  C   C607      1.0  0.09429  0.77521  0.12820  1.0000
  C   C608      1.0  0.09449  0.74870  0.16429  1.0000
  C   C609      1.0  0.13445  0.78205  0.18010  1.0000
  H   H1063     1.0  0.20069  0.65445  0.03771  1.0000
  H   H1064     1.0  0.06162  0.88612  0.21326  1.0000
  C   C610      1.0  0.42973  0.68546  0.07897  1.0000
  H   H1065     1.0  0.14560  0.55298  0.03626  1.0000
  H   H1066     1.0  0.06486  0.52055  0.07357  1.0000
  C   C611      1.0  0.05988  0.73950  0.02816  1.0000
  C   C612      1.0  0.01211  0.70506  0.03054  1.0000
  C   C613      1.0  0.44000  0.65971  0.05770  1.0000
  H   H1067     1.0  0.01539  0.67403  0.05375  1.0000
  H   H1068     1.0  0.15884  0.92298  0.09754  1.0000
  H   H1069     1.0  0.15292  0.80089  0.17943  1.0000
  C   C614      1.0  0.05640  0.84656  0.23153  1.0000
  H   H1070     1.0  0.46558  0.68252  0.07824  1.0000
  H   H1071     1.0  0.48396  0.69758  0.04318  1.0000
  C   C615      1.0  0.42790  0.95213  0.99806  1.0000
  C   C616      1.0  0.10017  0.88879  0.21188  1.0000
  H   H1072     1.0  0.46045  0.62513  0.03276  1.0000
  H   H1073     1.0  0.08221  0.75435  0.17200  1.0000
  H   H1074     1.0  0.12142  0.78494  0.18869  1.0000
  H   H1075     1.0  0.09308  0.69811  0.10152  1.0000
  S   S154      1.0  0.19324  0.98641  0.17265  1.0000
  H   H1076     1.0  0.04437  0.58040  0.01528  1.0000
  C   C617      1.0  0.19082  0.93438  0.22349  1.0000
  H   H1077     1.0  0.35147  0.85998  0.99637  1.0000
  H   H1078     1.0  0.44058  0.97335  0.00118  1.0000
  H   H1079     1.0  0.43376  0.50178  0.05968  1.0000
  H   H1080     1.0  0.11564  0.74512  0.13549  1.0000
  H   H1081     1.0  0.46188  0.70257  0.06314  1.0000
  H   H1082     1.0  0.00269  0.65633  0.03573  1.0000
  H   H1083     1.0  0.41550  0.68781  0.07085  1.0000
  C   C618      1.0  0.00100  0.62573  0.00254  1.0000
  C   C619      1.0  0.07331  0.82985  0.18976  1.0000
  C   C620      1.0  0.27298  0.97325  0.10587  1.0000
  H   H1084     1.0  0.13944  0.76662  0.18453  1.0000
  S   S155      1.0  0.25463  0.98982  0.11201  1.0000
  H   H1085     1.0  0.05508  0.74620  0.13312  1.0000
  H   H1086     1.0  0.43594  0.61361  0.04718  1.0000
  H   H1087     1.0  0.40436  0.93822  0.02508  1.0000
  C   C621      1.0  0.32603  0.99125  0.03266  1.0000
  H   H1088     1.0  0.37815  0.90024  0.01267  1.0000
  H   H1089     1.0  0.11376  0.99056  0.13462  1.0000
  C   C622      1.0  0.00180  0.55859  0.01219  1.0000
  H   H1090     1.0  0.45908  0.63842  0.07943  1.0000
  H   H1091     1.0  0.07033  0.76913  0.14891  1.0000
  H   H1092     1.0  0.04345  0.70408  0.14080  1.0000
  H   H1093     1.0  0.18412  0.89533  0.23054  1.0000
  C   C623      1.0  0.42436  0.93962  0.02591  1.0000
  H   H1094     1.0  0.08982  0.81377  0.17228  1.0000
  C   C624      1.0  0.43023  0.97063  0.04941  1.0000
  C   C625      1.0  0.00787  0.75253  0.21513  1.0000
  C   C626      1.0  0.15752  0.55649  0.04740  1.0000
  H   H1095     1.0  0.06713  0.87458  0.19486  1.0000
  C   C627      1.0  0.07016  0.87391  0.20795  1.0000
  H   H1096     1.0  0.11777  0.79074  0.15952  1.0000
  H   H1097     1.0  0.10336  0.92831  0.21018  1.0000
  H   H1098     1.0  0.44004  0.51028  0.00036  1.0000
  H   H1099     1.0  0.99952  0.53823  0.01146  1.0000
  H   H1100     1.0  0.11663  0.73095  0.10790  1.0000
  C   C628      1.0  0.03793  0.72418  0.03966  1.0000
  C   C629      1.0  0.44593  0.62990  0.03875  1.0000
  C   C630      1.0  0.11257  0.91652  0.20517  1.0000
  H   H1101     1.0  0.02162  0.49668  0.99771  1.0000
  H   H1102     1.0  0.11059  0.87829  0.20679  1.0000
  C   C631      1.0  0.47136  0.67883  0.03644  1.0000
  H   H1103     1.0  0.20444  0.94712  0.19972  1.0000
  H   H1104     1.0  0.04911  0.86031  0.23618  1.0000
  H   H1105     1.0  0.17141  0.92853  0.11774  1.0000
  C   C632      1.0  0.19343  0.92832  0.20602  1.0000
  H   H1106     1.0  0.37493  0.85552  0.00874  1.0000
  H   H1107     1.0  0.03360  0.73425  0.16026  1.0000
  C   C633      1.0  0.00987  0.84427  0.21400  1.0000
  H   H1108     1.0  0.06959  0.55181  0.99974  1.0000
  C   C634      1.0  0.44263  0.96648  0.03438  1.0000
  H   H1109     1.0  0.17778  0.56056  0.04432  1.0000
  H   H1110     1.0  0.02811  0.83643  0.19382  1.0000
  H   H1111     1.0  0.07808  0.75298  0.03498  1.0000
  C   C635      1.0  0.04123  0.81946  0.23945  1.0000
  H   H1112     1.0  0.47259  0.58950  0.03460  1.0000
  H   H1113     1.0  0.41841  0.89359  0.01481  1.0000
  Fe  Fe81      1.0  0.00270  0.76093  0.17423  1.0000
  N   N34       1.0  0.45974  0.65610  0.04766  1.0000
  H   H1114     1.0  0.29977  0.96217  0.04937  1.0000
  H   H1115     1.0  0.41214  0.97225  0.04627  1.0000
  H   H1116     1.0  0.15631  0.66689  0.00924  1.0000
  H   H1117     1.0  0.04429  0.72001  0.17597  1.0000
  C   C636      1.0  0.00923  0.69283  0.16348  1.0000
  H   H1118     1.0  0.02084  0.80825  0.23459  1.0000
  H   H1119     1.0  0.99142  0.72173  0.05102  1.0000
  H   H1120     1.0  0.18278  0.60615  0.03933  1.0000
  H   H1121     1.0  0.19024  0.67633  0.01421  1.0000
  C   C637      1.0  0.45151  0.68382  0.06953  1.0000
  H   H1122     1.0  0.35557  0.97425  0.04766  1.0000
  C   C638      1.0  0.04295  0.51047  0.99706  1.0000
  C   C639      1.0  0.01919  0.64763  0.99449  1.0000
  C   C640      1.0  0.99727  0.66513  0.04605  1.0000
  H   H1123     1.0  0.48215  0.70130  0.00618  1.0000
  H   H1124     1.0  0.17189  0.68822  0.02631  1.0000
  H   H1125     1.0  0.47681  0.54173  0.01728  1.0000
  C   C641      1.0  0.17070  0.67107  0.01924  1.0000
  H   H1126     1.0  0.00211  0.70421  0.06409  1.0000
  H   H1127     1.0  0.29383  0.97814  0.12817  1.0000
  H   H1128     1.0  0.05362  0.50499  0.00623  1.0000
  N   N35       1.0  0.43270  0.93489  0.00972  1.0000
  H   H1129     1.0  0.99937  0.68964  0.15159  1.0000
  H   H1130     1.0  0.44307  0.49502  0.01825  1.0000
  H   H1131     1.0  0.06588  0.63031  0.99838  1.0000
  C   C642      1.0  0.38704  0.89622  0.00207  1.0000
  H   H1132     1.0  0.18066  0.94685  0.22372  1.0000
  H   H1133     1.0  0.25619  0.96558  0.08205  1.0000
  H   H1134     1.0  0.05157  0.80736  0.23753  1.0000
  H   H1135     1.0  0.01339  0.56351  0.03736  1.0000
  H   H1136     1.0  0.01090  0.67487  0.16672  1.0000
  H   H1137     1.0  0.33089  0.97730  0.02577  1.0000
  H   H1138     1.0  0.12737  0.86447  0.23918  1.0000
  Fe  Fe82      1.0  0.23770  0.99143  0.13644  1.0000
  H   H1139     1.0  0.07729  0.59334  0.99681  1.0000
  H   H1140     1.0  0.46718  0.93791  0.99791  1.0000
  H   H1141     1.0  0.42497  0.90077  0.99455  1.0000
  N   N36       1.0  0.98999  0.68605  0.04057  1.0000
  H   H1142     1.0  0.27556  0.96989  0.01823  1.0000
  C   C643      1.0  0.29887  0.97511  0.04002  1.0000
  H   H1143     1.0  0.01760  0.69407  0.02152  1.0000
  H   H1144     1.0  0.40743  0.94937  0.99892  1.0000
  C   C644      1.0  0.37277  0.86647  0.99849  1.0000
  C   C645      1.0  0.37904  0.98835  0.07988  1.0000
  C   C646      1.0  0.98718  0.70146  0.05460  1.0000
  H   H1145     1.0  0.47145  0.57123  0.99275  1.0000
  Fe  Fe83      1.0  0.04253  0.80448  0.30693  1.0000
  S   S156      1.0  0.03182  0.76327  0.29806  1.0000
  S   S157      1.0  0.08433  0.83357  0.30083  1.0000
  Fe  Fe84      1.0  0.01161  0.75048  0.32146  1.0000
  H   H1146     1.0  0.99305  0.53154  0.44026  1.0000
  S   S158      1.0  0.02417  0.79198  0.33081  1.0000
  Fe  Fe85      1.0  0.19123  0.97672  0.31949  1.0000
  S   S159      1.0  0.21150  0.96182  0.30268  1.0000
  S   S160      1.0  0.15258  0.94914  0.33059  1.0000
  H   H1147     1.0  0.14081  0.69277  0.35552  1.0000
  H   H1148     1.0  0.27920  0.81363  0.47783  1.0000
  H   H1149     1.0  0.22766  0.51347  0.42785  1.0000
  H   H1150     1.0  0.11874  0.76693  0.43195  1.0000
  Fe  Fe86      1.0  0.32847  0.92587  0.44435  1.0000
  S   S161      1.0  0.35960  0.94423  0.42616  1.0000
  S   S162      1.0  0.32226  0.94236  0.46804  1.0000
  Fe  Fe87      1.0  0.29492  0.87589  0.42258  1.0000
  S   S163      1.0  0.32436  0.89106  0.40287  1.0000
  S   S164      1.0  0.25128  0.84419  0.42236  1.0000
  Fe  Fe88      1.0  0.35619  0.90333  0.42255  1.0000
  S   S165      1.0  0.39040  0.89257  0.42594  1.0000
  Fe  Fe89      1.0  0.32611  0.93108  0.40779  1.0000
  S   S166      1.0  0.31931  0.96149  0.39347  1.0000
  S   S167      1.0  0.32614  0.88558  0.44182  1.0000
  S   S168      1.0  0.29572  0.91531  0.42636  1.0000
  C   C647      1.0  0.22093  0.80652  0.48551  1.0000
  H   H1151     1.0  0.16791  0.53660  0.47428  1.0000
  C   C648      1.0  0.19868  0.92773  0.25853  1.0000
  Fe  Fe90      1.0  0.07743  0.68266  0.41396  1.0000
  S   S169      1.0  0.10215  0.70425  0.43570  1.0000
  S   S170      1.0  0.05902  0.70703  0.40275  1.0000
  Fe  Fe91      1.0  0.08904  0.63504  0.41897  1.0000
  S   S171      1.0  0.11484  0.65458  0.44055  1.0000
  S   S172      1.0  0.07481  0.59172  0.41070  1.0000
  Fe  Fe92      1.0  0.08285  0.66494  0.44767  1.0000
  S   S173      1.0  0.06844  0.66078  0.47321  1.0000
  Fe  Fe93      1.0  0.13177  0.69230  0.42657  1.0000
  S   S174      1.0  0.17643  0.71896  0.42462  1.0000
  S   S175      1.0  0.05637  0.64417  0.42674  1.0000
  S   S176      1.0  0.10782  0.67198  0.40428  1.0000
  C   C649      1.0  0.03619  0.64122  0.48038  1.0000
  C   C650      1.0  0.10144  0.52718  0.41922  1.0000
  C   C651      1.0  0.11821  0.55383  0.42356  1.0000
  C   C652      1.0  0.11034  0.57374  0.42132  1.0000
  C   C653      1.0  0.08561  0.56737  0.41451  1.0000
  C   C654      1.0  0.06875  0.54069  0.41031  1.0000
  C   C655      1.0  0.07646  0.52072  0.41276  1.0000
  H   H1152     1.0  0.13762  0.55922  0.42848  1.0000
  H   H1153     1.0  0.12366  0.59411  0.42452  1.0000
  H   H1154     1.0  0.04962  0.53542  0.40497  1.0000
  H   H1155     1.0  0.33757  0.90231  0.48769  1.0000
  C   C656      1.0  0.42568  0.51299  0.41065  1.0000
  C   C657      1.0  0.42353  0.52906  0.42275  1.0000
  C   C658      1.0  0.44474  0.55438  0.42649  1.0000
  S   S177      1.0  0.01737  0.71756  0.33349  1.0000
  C   C659      1.0  0.00382  0.55251  0.44429  1.0000
  C   C660      1.0  0.44944  0.52297  0.40237  1.0000
  H   H1156     1.0  0.40551  0.52196  0.42924  1.0000
  H   H1157     1.0  0.44268  0.56638  0.43590  1.0000
  H   H1158     1.0  0.13878  0.73686  0.38776  1.0000
  H   H1159     1.0  0.17661  0.50337  0.47223  1.0000
  C   C661      1.0  0.19702  0.75391  0.42450  1.0000
  C   C662      1.0  0.18761  0.77210  0.42785  1.0000
  C   C663      1.0  0.20453  0.79954  0.42719  1.0000
  C   C664      1.0  0.23126  0.80929  0.42350  1.0000
  C   C665      1.0  0.24083  0.79114  0.42050  1.0000
  C   C666      1.0  0.22381  0.76369  0.42097  1.0000
  H   H1160     1.0  0.16733  0.76495  0.43107  1.0000
  H   H1161     1.0  0.19686  0.81332  0.42961  1.0000
  H   H1162     1.0  0.26123  0.79820  0.41755  1.0000
  H   H1163     1.0  0.23141  0.74986  0.41845  1.0000
  H   H1164     1.0  0.10628  0.72247  0.37987  1.0000
  H   H1165     1.0  0.11974  0.84179  0.27267  1.0000
  C   C667      1.0  0.43656  0.88856  0.43051  1.0000
  C   C668      1.0  0.42425  0.90127  0.42212  1.0000
  C   C669      1.0  0.43843  0.91864  0.41021  1.0000
  C   C670      1.0  0.46384  0.92227  0.40634  1.0000
  H   H1166     1.0  0.12511  0.58933  0.45619  1.0000
  H   H1167     1.0  0.42600  0.87508  0.43976  1.0000
  H   H1168     1.0  0.42953  0.92874  0.40366  1.0000
  H   H1169     1.0  0.41487  0.91834  0.37517  1.0000
  H   H1170     1.0  0.21977  0.81118  0.38844  1.0000
  C   C671      1.0  0.34541  0.97043  0.47932  1.0000
  H   H1171     1.0  0.05951  0.83409  0.26304  1.0000
  H   H1172     1.0  0.08687  0.59541  0.44678  1.0000
  C   C672      1.0  0.13414  0.69983  0.36605  1.0000
  C   C673      1.0  0.30355  0.96046  0.37478  1.0000
  H   H1173     1.0  0.07936  0.59942  0.46690  1.0000
  C   C674      1.0  0.22778  0.51089  0.44089  1.0000
  C   C675      1.0  0.28345  0.96463  0.34435  1.0000
  C   C676      1.0  0.29274  0.94602  0.34697  1.0000
  C   C677      1.0  0.30253  0.94377  0.36211  1.0000
  H   H1174     1.0  0.09274  0.76654  0.41945  1.0000
  S   S178      1.0  0.11319  0.50323  0.42162  1.0000
  H   H1175     1.0  0.29293  0.93366  0.33713  1.0000
  H   H1176     1.0  0.31032  0.92993  0.36377  1.0000
  C   C678      1.0  0.37923  0.83208  0.40314  1.0000
  H   H1177     1.0  0.13804  0.91042  0.27536  1.0000
  C   C679      1.0  0.10257  0.86543  0.30954  1.0000
  C   C680      1.0  0.09241  0.87559  0.32125  1.0000
  C   C681      1.0  0.10786  0.90136  0.32761  1.0000
  C   C682      1.0  0.13335  0.91711  0.32219  1.0000
  C   C683      1.0  0.14338  0.90679  0.31054  1.0000
  C   C684      1.0  0.12818  0.88102  0.30438  1.0000
  H   H1178     1.0  0.07268  0.86369  0.32533  1.0000
  H   H1179     1.0  0.09994  0.90919  0.33665  1.0000
  H   H1180     1.0  0.16295  0.91848  0.30639  1.0000
  H   H1181     1.0  0.13630  0.87312  0.29554  1.0000
  C   C685      1.0  0.02955  0.71544  0.35276  1.0000
  C   C686      1.0  0.03632  0.69504  0.35564  1.0000
  C   C687      1.0  0.04566  0.69226  0.37077  1.0000
  C   C688      1.0  0.04798  0.70968  0.38330  1.0000
  C   C689      1.0  0.04117  0.73004  0.38044  1.0000
  C   C690      1.0  0.03222  0.73306  0.36526  1.0000
  H   H1182     1.0  0.05072  0.67645  0.37276  1.0000
  H   H1183     1.0  0.04288  0.74364  0.39004  1.0000
  H   H1184     1.0  0.02700  0.74876  0.36327  1.0000
  C   C691      1.0  0.03572  0.70050  0.45578  1.0000
  H   H1185     1.0  0.15665  0.74042  0.36016  1.0000
  H   H1186     1.0  0.45314  0.65717  0.41047  1.0000
  C   C692      1.0  0.42242  0.84789  0.39148  1.0000
  H   H1187     1.0  0.43446  0.49439  0.46575  1.0000
  H   H1188     1.0  0.36428  0.81866  0.36954  1.0000
  H   H1189     1.0  0.99744  0.72701  0.40314  1.0000
  H   H1190     1.0  0.21687  0.86725  0.44139  1.0000
  H   H1191     1.0  0.35041  0.84749  0.40163  1.0000
  H   H1192     1.0  0.27479  0.85085  0.45331  1.0000
  C   C693      1.0  0.46851  0.56434  0.41820  1.0000
  H   H1193     1.0  0.03119  0.68454  0.46441  1.0000
  H   H1194     1.0  0.12715  0.62022  0.46325  1.0000
  H   H1195     1.0  0.24141  0.93474  0.27805  1.0000
  C   C694      1.0  0.98726  0.75117  0.24567  1.0000
  H   H1196     1.0  0.16726  0.94720  0.24805  1.0000
  H   H1197     1.0  0.23856  0.98908  0.37198  1.0000
  C   C695      1.0  0.99865  0.56876  0.43175  1.0000
  C   C696      1.0  0.28341  0.98050  0.35719  1.0000
  H   H1198     1.0  0.15623  0.56790  0.46023  1.0000
  H   H1199     1.0  0.10562  0.87672  0.35847  1.0000
  H   H1200     1.0  0.42256  0.82757  0.41336  1.0000
  H   H1201     1.0  0.12329  0.72442  0.35216  1.0000
  C   C697      1.0  0.15891  0.88507  0.25741  1.0000
  H   H1202     1.0  0.03805  0.51980  0.43834  1.0000
  H   H1203     1.0  0.42944  0.88444  0.36958  1.0000
  Fe  Fe94      1.0  0.99459  0.76203  0.28838  1.0000
  H   H1204     1.0  0.40041  0.86621  0.35690  1.0000
  C   C698      1.0  0.17613  0.53490  0.44893  1.0000
  H   H1205     1.0  0.16008  0.88673  0.27064  1.0000
  H   H1206     1.0  0.07930  0.55108  0.45001  1.0000
  H   H1207     1.0  0.20756  0.94879  0.25521  1.0000
  H   H1208     1.0  0.26105  0.90149  0.46545  1.0000
  C   C699      1.0  0.02919  0.54412  0.47396  1.0000
  H   H1209     1.0  0.29335  0.82155  0.44254  1.0000
  C   C700      1.0  0.99036  0.60810  0.47674  1.0000
  H   H1210     1.0  0.22893  0.86372  0.47942  1.0000
  H   H1211     1.0  0.04171  0.56122  0.43462  1.0000
  N   N37       1.0  0.04157  0.54635  0.45800  1.0000
  H   H1212     1.0  0.26579  0.51142  0.43986  1.0000
  C   C701      1.0  0.03962  0.82284  0.25740  1.0000
  H   H1213     1.0  0.45782  0.63902  0.45039  1.0000
  H   H1214     1.0  0.13788  0.91749  0.24508  1.0000
  H   H1215     1.0  0.37130  0.77545  0.35498  1.0000
  H   H1216     1.0  0.11759  0.59322  0.47662  1.0000
  H   H1217     1.0  0.45152  0.51096  0.39296  1.0000
  H   H1218     1.0  0.24776  0.82081  0.45752  1.0000
  C   C702      1.0  0.44225  0.64385  0.44594  1.0000
  H   H1219     1.0  0.34715  0.82927  0.42844  1.0000
  N   N38       1.0  0.17223  0.91205  0.25025  1.0000
  C   C703      1.0  0.26578  0.83714  0.46312  1.0000
  N   N39       1.0  0.25881  0.85074  0.47638  1.0000
  N   N40       1.0  0.47840  0.68106  0.43014  1.0000
  H   H1220     1.0  0.99538  0.55510  0.45558  1.0000
  H   H1221     1.0  0.47113  0.88252  0.43341  1.0000
  C   C704      1.0  0.47766  0.51267  0.44617  1.0000
  H   H1222     1.0  0.03941  0.71883  0.46253  1.0000
  C   C705      1.0  0.20469  0.80745  0.37891  1.0000
  C   C706      1.0  0.48475  0.70717  0.42268  1.0000
  H   H1223     1.0  0.01905  0.62099  0.45815  1.0000
  H   H1224     1.0  0.40682  0.64368  0.45515  1.0000
  H   H1225     1.0  0.11352  0.74084  0.40750  1.0000
  C   C707      1.0  0.03173  0.51875  0.45089  1.0000
  H   H1226     1.0  0.22511  0.79436  0.47669  1.0000
  H   H1227     1.0  0.39758  0.87933  0.39227  1.0000
  C   C708      1.0  0.01554  0.62329  0.47051  1.0000
  H   H1228     1.0  0.45939  0.81853  0.40723  1.0000
  H   H1229     1.0  0.28097  0.96271  0.42735  1.0000
  C   C709      1.0  0.21935  0.91778  0.25575  1.0000
  H   H1230     1.0  0.21212  0.89725  0.25978  1.0000
  H   H1231     1.0  0.47117  0.74942  0.42063  1.0000
  H   H1232     1.0  0.01779  0.71014  0.43621  1.0000
  H   H1233     1.0  0.02994  0.80309  0.26282  1.0000
  C   C710      1.0  0.38126  0.81787  0.37568  1.0000
  H   H1234     1.0  0.18470  0.51702  0.39126  1.0000
  H   H1235     1.0  0.42289  0.49338  0.44583  1.0000
  H   H1236     1.0  0.46206  0.83208  0.38773  1.0000
  H   H1237     1.0  0.37827  0.81316  0.40712  1.0000
  C   C711      1.0  0.28530  0.82633  0.46733  1.0000
  H   H1238     1.0  0.22307  0.84186  0.46275  1.0000
  H   H1239     1.0  0.47652  0.72646  0.44355  1.0000
  H   H1240     1.0  0.26754  0.54329  0.44417  1.0000
  H   H1241     1.0  0.18411  0.94627  0.38128  1.0000
  C   C712      1.0  0.14921  0.92982  0.26984  1.0000
  Fe  Fe95      1.0  0.24803  0.98797  0.31734  1.0000
  H   H1242     1.0  0.20209  0.55626  0.46956  1.0000
  C   C713      1.0  0.07125  0.55851  0.45976  1.0000
  C   C714      1.0  0.12967  0.86748  0.25226  1.0000
  C   C715      1.0  0.13232  0.94410  0.27054  1.0000
  H   H1243     1.0  0.17506  0.80045  0.39577  1.0000
  H   H1244     1.0  0.39643  0.79341  0.34097  1.0000
  H   H1245     1.0  0.07687  0.55217  0.47102  1.0000
  C   C716      1.0  0.28739  0.80976  0.45348  1.0000
  C   C717      1.0  0.17080  0.49374  0.46024  1.0000
  C   C718      1.0  0.21826  0.98203  0.37628  1.0000
  H   H1246     1.0  0.20733  0.98915  0.36833  1.0000
  H   H1247     1.0  0.43418  0.85268  0.38059  1.0000
  H   H1248     1.0  0.16720  0.94169  0.27723  1.0000
  C   C719      1.0  0.25648  0.52184  0.44646  1.0000
  H   H1249     1.0  0.19638  0.92806  0.27162  1.0000
  H   H1250     1.0  0.30242  0.80324  0.45643  1.0000
  C   C720      1.0  0.22772  0.88492  0.44934  1.0000
  H   H1251     1.0  0.09927  0.84335  0.36212  1.0000
  H   H1252     1.0  0.04258  0.58299  0.44997  1.0000
  H   H1253     1.0  0.21963  0.52745  0.46235  1.0000
  H   H1254     1.0  0.16956  0.87359  0.25430  1.0000
  H   H1255     1.0  0.46834  0.70474  0.41440  1.0000
  H   H1256     1.0  0.43161  0.86651  0.39879  1.0000
  C   C721      1.0  0.00817  0.66851  0.43364  1.0000
  H   H1257     1.0  0.33908  0.81502  0.39253  1.0000
  C   C722      1.0  0.17733  0.78989  0.38519  1.0000
  H   H1258     1.0  0.29582  0.88526  0.47228  1.0000
  H   H1259     1.0  0.45774  0.68598  0.45033  1.0000
  H   H1260     1.0  0.26823  0.79194  0.45112  1.0000
  H   H1261     1.0  0.38575  0.90014  0.36267  1.0000
  H   H1262     1.0  0.37932  0.97510  0.46647  1.0000
  H   H1263     1.0  0.22360  0.54596  0.44506  1.0000
  H   H1264     1.0  0.14478  0.76911  0.40865  1.0000
  H   H1265     1.0  0.20400  0.53321  0.41795  1.0000
  H   H1266     1.0  0.33523  0.79633  0.41969  1.0000
  N   N41       1.0  0.18441  0.51334  0.44743  1.0000
  H   H1267     1.0  0.21387  0.88691  0.45767  1.0000
  N   N42       1.0  0.12809  0.76426  0.37577  1.0000
  H   H1268     1.0  0.27679  0.89028  0.48711  1.0000
  C   C723      1.0  0.11735  0.77117  0.39045  1.0000
  C   C724      1.0  0.11060  0.76263  0.36164  1.0000
  C   C725      1.0  0.15558  0.78538  0.37256  1.0000
  H   H1269     1.0  0.43125  0.62957  0.43606  1.0000
  H   H1270     1.0  0.13042  0.82993  0.25560  1.0000
  C   C726      1.0  0.10378  0.78594  0.35996  1.0000
  C   C727      1.0  0.12366  0.76266  0.40674  1.0000
  C   C728      1.0  0.11434  0.77374  0.42052  1.0000
  H   H1271     1.0  0.26632  0.97159  0.44367  1.0000
  C   C729      1.0  0.09027  0.78451  0.34387  1.0000
  H   H1272     1.0  0.00744  0.53201  0.47278  1.0000
  H   H1273     1.0  0.33736  0.98544  0.44594  1.0000
  H   H1274     1.0  0.12379  0.79280  0.39117  1.0000
  H   H1275     1.0  0.09546  0.76142  0.38964  1.0000
  H   H1276     1.0  0.09147  0.74424  0.36197  1.0000
  H   H1277     1.0  0.11968  0.76116  0.35032  1.0000
  C   C730      1.0  0.35056  0.82818  0.40269  1.0000
  H   H1278     1.0  0.15591  0.80487  0.37140  1.0000
  N   N43       1.0  0.39394  0.84042  0.38779  1.0000
  C   C731      1.0  0.12684  0.73737  0.37738  1.0000
  C   C732      1.0  0.28417  0.97033  0.43987  1.0000
  H   H1279     1.0  0.02150  0.65199  0.40432  1.0000
  H   H1280     1.0  0.12152  0.80538  0.36093  1.0000
  H   H1281     1.0  0.09010  0.78529  0.36934  1.0000
  C   C733      1.0  0.11896  0.84016  0.25948  1.0000
  H   H1282     1.0  0.14287  0.96401  0.26540  1.0000
  C   C734      1.0  0.17677  0.57384  0.46436  1.0000
  H   H1283     1.0  0.01003  0.65387  0.44144  1.0000
  H   H1284     1.0  0.02274  0.75146  0.25466  1.0000
  C   C735      1.0  0.01270  0.69299  0.44396  1.0000
  H   H1285     1.0  0.09813  0.82785  0.25557  1.0000
  C   C736      1.0  0.18151  0.54961  0.46531  1.0000
  H   H1286     1.0  0.10368  0.78674  0.33398  1.0000
  H   H1287     1.0  0.07218  0.76538  0.34220  1.0000
  H   H1288     1.0  0.08458  0.80065  0.34323  1.0000
  H   H1289     1.0  0.11332  0.93251  0.26397  1.0000
  C   C737      1.0  0.03374  0.56173  0.44651  1.0000
  N   N44       1.0  0.18858  0.90925  0.35920  1.0000
  C   C738      1.0  0.20273  0.93911  0.36018  1.0000
  C   C739      1.0  0.18906  0.89944  0.34244  1.0000
  C   C740      1.0  0.16010  0.90060  0.36308  1.0000
  C   C741      1.0  0.19965  0.89721  0.37110  1.0000
  C   C742      1.0  0.22945  0.90558  0.37034  1.0000
  H   H1290     1.0  0.47411  0.93511  0.39676  1.0000
  C   C743      1.0  0.14064  0.87089  0.35981  1.0000
  C   C744      1.0  0.21426  0.91491  0.33290  1.0000
  C   C745      1.0  0.21314  0.90071  0.31712  1.0000
  C   C746      1.0  0.23934  0.89738  0.38519  1.0000
  C   C747      1.0  0.38306  0.79514  0.34979  1.0000
  C   C748      1.0  0.11291  0.86446  0.36494  1.0000
  H   H1291     1.0  0.19335  0.94717  0.35163  1.0000
  H   H1292     1.0  0.22336  0.94713  0.35636  1.0000
  H   H1293     1.0  0.18478  0.87831  0.34243  1.0000
  H   H1294     1.0  0.17318  0.90017  0.33496  1.0000
  H   H1295     1.0  0.15237  0.91224  0.35620  1.0000
  H   H1296     1.0  0.15824  0.90474  0.37583  1.0000
  H   H1297     1.0  0.19540  0.90128  0.38342  1.0000
  H   H1298     1.0  0.18956  0.87533  0.36974  1.0000
  H   H1299     1.0  0.24151  0.92721  0.36945  1.0000
  H   H1300     1.0  0.23317  0.89558  0.35999  1.0000
  H   H1301     1.0  0.17995  0.58358  0.47630  1.0000
  H   H1302     1.0  0.21493  0.94593  0.38553  1.0000
  H   H1303     1.0  0.14679  0.85793  0.36640  1.0000
  H   H1304     1.0  0.13920  0.86563  0.34693  1.0000
  H   H1305     1.0  0.21616  0.93463  0.33011  1.0000
  H   H1306     1.0  0.23224  0.91793  0.33953  1.0000
  H   H1307     1.0  0.21236  0.88121  0.31924  1.0000
  H   H1308     1.0  0.19567  0.89791  0.30981  1.0000
  H   H1309     1.0  0.23108  0.91283  0.31037  1.0000
  H   H1310     1.0  0.26051  0.90281  0.38404  1.0000
  H   H1311     1.0  0.23739  0.90782  0.39596  1.0000
  H   H1312     1.0  0.22828  0.87570  0.38675  1.0000
  H   H1313     1.0  0.12818  0.94660  0.28316  1.0000
  H   H1314     1.0  0.99646  0.55834  0.49232  1.0000
  H   H1315     1.0  0.14689  0.70105  0.37646  1.0000
  C   C749      1.0  0.24618  0.83248  0.48991  1.0000
  C   C750      1.0  0.42298  0.63945  0.45927  1.0000
  H   H1316     1.0  0.11269  0.86808  0.37794  1.0000
  H   H1317     1.0  0.00199  0.68640  0.40675  1.0000
  C   C751      1.0  0.23890  0.85870  0.46965  1.0000
  C   C752      1.0  0.24982  0.88272  0.45851  1.0000
  C   C753      1.0  0.45627  0.83315  0.40015  1.0000
  C   C754      1.0  0.21401  0.52541  0.44946  1.0000
  C   C755      1.0  0.13590  0.72687  0.36284  1.0000
  C   C756      1.0  0.46229  0.89277  0.42695  1.0000
  C   C757      1.0  0.33661  0.98055  0.49196  1.0000
  H   H1318     1.0  0.41507  0.80692  0.39567  1.0000
  H   H1319     1.0  0.00989  0.50806  0.45039  1.0000
  H   H1320     1.0  0.21951  0.99065  0.38839  1.0000
  C   C758      1.0  0.08725  0.58905  0.45915  1.0000
  C   C759      1.0  0.33652  0.81616  0.41803  1.0000
  H   H1321     1.0  0.17703  0.77120  0.38885  1.0000
  H   H1322     1.0  0.25778  0.51855  0.45936  1.0000
  H   H1323     1.0  0.25942  0.92754  0.26302  1.0000
  C   C760      1.0  0.29352  0.97851  0.37225  1.0000
  H   H1324     1.0  0.00844  0.59003  0.43532  1.0000
  H   H1325     1.0  0.05587  0.57958  0.48775  1.0000
  S   S179      1.0  0.27316  0.96802  0.32474  1.0000
  C   C761      1.0  0.24493  0.93505  0.26508  1.0000
  H   H1326     1.0  0.39006  0.84673  0.41289  1.0000
  C   C762      1.0  0.42741  0.82718  0.40065  1.0000
  H   H1327     1.0  0.25355  0.95577  0.26111  1.0000
  H   H1328     1.0  0.19057  0.58834  0.45604  1.0000
  H   H1329     1.0  0.03200  0.49568  0.47164  1.0000
  H   H1330     1.0  0.26317  0.88117  0.44974  1.0000
  C   C763      1.0  0.39923  0.81556  0.36277  1.0000
  C   C764      1.0  0.00109  0.63771  0.40089  1.0000
  H   H1331     1.0  0.23625  0.90264  0.44184  1.0000
  C   C765      1.0  0.18294  0.51849  0.41696  1.0000
  H   H1332     1.0  0.37250  0.79847  0.38163  1.0000
  C   C766      1.0  0.47181  0.66071  0.41677  1.0000
  H   H1333     1.0  0.17122  0.52947  0.41636  1.0000
  H   H1334     1.0  0.11350  0.68519  0.36832  1.0000
  H   H1335     1.0  0.12460  0.79568  0.42071  1.0000
  S   S180      1.0  0.00664  0.80409  0.29561  1.0000
  H   H1336     1.0  0.05388  0.70407  0.44948  1.0000
  H   H1337     1.0  0.16200  0.78153  0.36082  1.0000
  H   H1338     1.0  0.03320  0.58467  0.47490  1.0000
  H   H1339     1.0  0.41793  0.91404  0.35420  1.0000
  C   C767      1.0  0.37216  0.98290  0.47595  1.0000
  H   H1340     1.0  0.18628  0.55039  0.44006  1.0000
  C   C768      1.0  0.47055  0.54837  0.40602  1.0000
  H   H1341     1.0  0.20640  0.82677  0.37525  1.0000
  C   C769      1.0  0.15633  0.92677  0.25246  1.0000
  H   H1342     1.0  0.46833  0.64130  0.42157  1.0000
  H   H1343     1.0  0.20883  0.79757  0.36864  1.0000
  C   C770      1.0  0.39196  0.86453  0.38227  1.0000
  H   H1344     1.0  0.31625  0.81403  0.41744  1.0000
  C   C771      1.0  0.28273  0.87551  0.48235  1.0000
  C   C772      1.0  0.40831  0.87886  0.36779  1.0000
  H   H1345     1.0  0.02541  0.67518  0.42594  1.0000
  C   C773      1.0  0.00142  0.61261  0.39457  1.0000
  H   H1346     1.0  0.03425  0.68125  0.34607  1.0000
  H   H1347     1.0  0.00617  0.56626  0.42007  1.0000
  H   H1348     1.0  0.06232  0.50925  0.46108  1.0000
  H   H1349     1.0  0.28705  0.95627  0.44763  1.0000
  C   C774      1.0  0.47606  0.90935  0.41461  1.0000
  H   H1350     1.0  0.41117  0.83451  0.35699  1.0000
  H   H1351     1.0  0.30524  0.84301  0.46956  1.0000
  H   H1352     1.0  0.06332  0.50043  0.40928  1.0000
  C   C775      1.0  0.20403  0.95189  0.37683  1.0000
  H   H1353     1.0  0.03558  0.53308  0.48225  1.0000
  H   H1354     1.0  0.37128  0.85943  0.37891  1.0000
  C   C776      1.0  0.01185  0.75190  0.24414  1.0000
  H   H1355     1.0  0.43826  0.67409  0.43279  1.0000
  H   H1356     1.0  0.48425  0.51303  0.45863  1.0000
  C   C777      1.0  0.45408  0.67255  0.43988  1.0000
  H   H1357     1.0  0.15465  0.52674  0.44611  1.0000
  H   H1358     1.0  0.32913  0.98331  0.42563  1.0000
  C   C778      1.0  0.17815  0.50308  0.40121  1.0000
  H   H1359     1.0  0.46576  0.63824  0.38646  1.0000
  C   C779      1.0  0.11603  0.59841  0.46412  1.0000
  H   H1360     1.0  0.01433  0.61737  0.38414  1.0000
  H   H1361     1.0  0.43329  0.65235  0.46980  1.0000
  C   C780      1.0  0.04062  0.50030  0.45968  1.0000
  H   H1362     1.0  0.00939  0.60435  0.40380  1.0000
  H   H1363     1.0  0.99527  0.68956  0.45095  1.0000
  H   H1364     1.0  0.20521  0.81067  0.48055  1.0000
  H   H1365     1.0  0.41306  0.80909  0.36815  1.0000
  H   H1366     1.0  0.41428  0.61854  0.46291  1.0000
  H   H1367     1.0  0.46918  0.85318  0.40532  1.0000
  H   H1368     1.0  0.11713  0.87643  0.25626  1.0000
  H   H1369     1.0  0.36964  0.80126  0.34349  1.0000
  C   C781      1.0  0.40652  0.90436  0.36482  1.0000
  H   H1370     1.0  0.38511  0.49698  0.45931  1.0000
  H   H1371     1.0  0.46641  0.52412  0.44566  1.0000
  H   H1372     1.0  0.02776  0.83322  0.26002  1.0000
  C   C782      1.0  0.17454  0.49987  0.43135  1.0000
  C   C783      1.0  0.03543  0.57047  0.48278  1.0000
  H   H1373     1.0  0.99484  0.64607  0.39084  1.0000
  H   H1374     1.0  0.48436  0.62633  0.39847  1.0000
  C   C784      1.0  0.48519  0.64372  0.39227  1.0000
  H   H1375     1.0  0.29401  0.99142  0.38193  1.0000
  H   H1376     1.0  0.22421  0.91842  0.24301  1.0000
  H   H1377     1.0  0.98716  0.61970  0.42347  1.0000
  C   C785      1.0  0.01938  0.75204  0.72758  1.0000
  H   H1378     1.0  0.07481  0.82208  0.60671  1.0000
  H   H1379     1.0  0.20124  0.92134  0.71977  1.0000
  H   H1380     1.0  0.22464  0.78418  0.50535  1.0000
  H   H1381     1.0  0.17076  0.92223  0.72320  1.0000
  Fe  Fe96      1.0  0.03553  0.80436  0.65725  1.0000
  S   S181      1.0  0.07716  0.83418  0.66553  1.0000
  S   S182      1.0  0.02190  0.76147  0.66289  1.0000
  H   H1382     1.0  0.17349  0.91041  0.69550  1.0000
  H   H1383     1.0  0.07341  0.77604  0.70768  1.0000
  C   C786      1.0  0.08278  0.86625  0.71122  1.0000
  H   H1384     1.0  0.00245  0.63110  0.51507  1.0000
  H   H1385     1.0  0.10316  0.79303  0.69674  1.0000
  H   H1386     1.0  0.12223  0.84643  0.60117  1.0000
  S   S183      1.0  0.14605  0.95314  0.64493  1.0000
  S   S184      1.0  0.21939  0.96612  0.65323  1.0000
  C   C787      1.0  0.16898  0.89527  0.70470  1.0000
  H   H1387     1.0  0.14734  0.88289  0.70491  1.0000
  H   H1388     1.0  0.00833  0.80174  0.70256  1.0000
  H   H1389     1.0  0.04741  0.79945  0.71454  1.0000
  C   C788      1.0  0.00863  0.81644  0.71144  1.0000
  C   C789      1.0  0.09454  0.86806  0.66089  1.0000
  C   C790      1.0  0.11937  0.88359  0.66821  1.0000
  C   C791      1.0  0.13503  0.90996  0.66386  1.0000
  C   C792      1.0  0.12599  0.92107  0.65209  1.0000
  C   C793      1.0  0.10076  0.90583  0.64519  1.0000
  C   C794      1.0  0.08505  0.87947  0.64958  1.0000
  H   H1390     1.0  0.12684  0.87493  0.67697  1.0000
  H   H1391     1.0  0.15431  0.92155  0.66934  1.0000
  H   H1392     1.0  0.09352  0.91430  0.63615  1.0000
  H   H1393     1.0  0.06591  0.86782  0.64393  1.0000
  H   H1394     1.0  0.05582  0.85482  0.73983  1.0000
  C   C795      1.0  0.18018  0.93804  0.61060  1.0000
  C   C796      1.0  0.11437  0.85415  0.61076  1.0000
  H   H1395     1.0  0.03664  0.84896  0.69813  1.0000
  C   C797      1.0  0.00051  0.65283  0.63515  1.0000
  H   H1396     1.0  0.16312  0.94978  0.59079  1.0000
  H   H1397     1.0  0.08047  0.83774  0.62614  1.0000
  C   C798      1.0  0.18056  0.85811  0.61199  1.0000
  H   H1398     1.0  0.16297  0.84084  0.61629  1.0000
  H   H1399     1.0  0.20792  0.86515  0.59273  1.0000
  H   H1400     1.0  0.19668  0.86480  0.62111  1.0000
  C   C799      1.0  0.05846  0.83854  0.73406  1.0000
  H   H1401     1.0  0.19006  0.97665  0.60138  1.0000
  H   H1402     1.0  0.21741  0.90440  0.65673  1.0000
  C   C800      1.0  0.03482  0.84253  0.71072  1.0000
  H   H1403     1.0  0.19427  0.89806  0.60527  1.0000
  C   C801      1.0  0.08358  0.79175  0.69899  1.0000
  H   H1404     1.0  0.17836  0.88273  0.70134  1.0000
  C   C802      1.0  0.21001  0.78975  0.50015  1.0000
  C   C803      1.0  0.17833  0.90110  0.63502  1.0000
  C   C804      1.0  0.17229  0.95739  0.60274  1.0000
  H   H1405     1.0  0.17920  0.86484  0.64370  1.0000
  H   H1406     1.0  0.09927  0.82343  0.71642  1.0000
  H   H1407     1.0  0.15827  0.96077  0.61022  1.0000
  H   H1408     1.0  0.13740  0.85101  0.63023  1.0000
  H   H1409     1.0  0.19571  0.88133  0.67070  1.0000
  H   H1410     1.0  0.10977  0.93488  0.71644  1.0000
  S   S185      1.0  0.00004  0.80565  0.66718  1.0000
  H   H1411     1.0  0.19411  0.91160  0.66732  1.0000
  H   H1412     1.0  0.19199  0.77134  0.49667  1.0000
  H   H1413     1.0  0.17318  0.91556  0.64108  1.0000
  H   H1414     1.0  0.20502  0.96897  0.72537  1.0000
  H   H1415     1.0  0.10694  0.91656  0.69822  1.0000
  C   C805      1.0  0.05978  0.81757  0.70803  1.0000
  C   C806      1.0  0.01716  0.56603  0.49669  1.0000
  H   H1416     1.0  0.00215  0.67298  0.63456  1.0000
  C   C807      1.0  0.08945  0.83096  0.61668  1.0000
  H   H1417     1.0  0.33709  0.89607  0.50865  1.0000
  C   C808      1.0  0.03124  0.64370  0.49651  1.0000
  H   H1418     1.0  0.15212  0.87520  0.73379  1.0000
  C   C809      1.0  0.18990  0.84871  0.59743  1.0000
  H   H1419     1.0  0.17427  0.84096  0.58793  1.0000
  H   H1420     1.0  0.19934  0.91261  0.63180  1.0000
  H   H1421     1.0  0.07199  0.78629  0.68759  1.0000
  H   H1422     1.0  0.01537  0.74967  0.70189  1.0000
  C   C810      1.0  0.19727  0.89570  0.66151  1.0000
  H   H1423     1.0  0.19458  0.83258  0.60080  1.0000
  H   H1424     1.0  0.09815  0.83339  0.69658  1.0000
  H   H1425     1.0  0.06715  0.89492  0.71434  1.0000
  C   C811      1.0  0.17973  0.90903  0.72087  1.0000
  H   H1426     1.0  0.03863  0.75292  0.72771  1.0000
  H   H1427     1.0  0.19021  0.94732  0.62209  1.0000
  H   H1428     1.0  0.05067  0.81440  0.69584  1.0000
  C   C812      1.0  0.00748  0.61721  0.57373  1.0000
  S   S186      1.0  0.01832  0.79426  0.63246  1.0000
  H   H1429     1.0  0.15709  0.87349  0.65382  1.0000
  H   H1430     1.0  0.16359  0.87640  0.59632  1.0000
  H   H1431     1.0  0.09393  0.81543  0.62150  1.0000
  C   C813      1.0  0.17365  0.88868  0.73419  1.0000
  Fe  Fe97      1.0  0.18870  0.98001  0.65267  1.0000
  C   C814      1.0  0.00623  0.75017  0.71295  1.0000
  H   H1432     1.0  0.10838  0.86846  0.60570  1.0000
  H   H1433     1.0  0.14206  0.91476  0.62070  1.0000
  H   H1434     1.0  0.12701  0.91543  0.71470  1.0000
  C   C815      1.0  0.08694  0.81836  0.70544  1.0000
  H   H1435     1.0  0.12579  0.87425  0.63370  1.0000
  C   C816      1.0  0.08467  0.89259  0.71788  1.0000
  H   H1436     1.0  0.19464  0.93601  0.60287  1.0000
  C   C817      1.0  0.15574  0.91091  0.61311  1.0000
  H   H1437     1.0  0.03202  0.85754  0.71791  1.0000
  H   H1438     1.0  0.10156  0.86636  0.71466  1.0000
  C   C818      1.0  0.17660  0.88170  0.64827  1.0000
  H   H1439     1.0  0.28891  0.86912  0.50738  1.0000
  C   C819      1.0  0.00027  0.60800  0.59072  1.0000
  H   H1440     1.0  0.24117  0.84318  0.49939  1.0000
  C   C820      1.0  0.13497  0.86714  0.62453  1.0000
  C   C821      1.0  0.22558  0.97883  0.72896  1.0000
  C   C822      1.0  0.17483  0.88130  0.60785  1.0000
  H   H1441     1.0  0.08274  0.86709  0.69796  1.0000
  N   N45       1.0  0.16110  0.88959  0.62020  1.0000
  H   H1442     1.0  0.32181  0.91525  0.50116  1.0000
  S   S187      1.0  0.23558  0.96769  0.69847  1.0000
  H   H1443     1.0  0.14551  0.90432  0.60130  1.0000
  H   H1444     1.0  0.00568  0.80752  0.72330  1.0000
  H   H1445     1.0  0.08668  0.89364  0.73105  1.0000
  S   S188      1.0  0.00614  0.72507  0.61921  1.0000
  N   N46       1.0  0.05948  0.84124  0.71622  1.0000
  C   C823      1.0  0.10859  0.91623  0.71141  1.0000
  H   H1446     1.0  0.00849  0.77690  0.59506  1.0000
  H   H1447     1.0  0.04705  0.65745  0.50427  1.0000
  C   C824      1.0  0.29969  0.87278  0.49608  1.0000
  H   H1448     1.0  0.00999  0.69980  0.59030  1.0000
  C   C825      1.0  0.00596  0.62874  0.50269  1.0000
  Fe  Fe98      1.0  0.00151  0.75137  0.63858  1.0000
  H   H1449     1.0  0.20476  0.80069  0.50928  1.0000
  H   H1450     1.0  0.02904  0.62534  0.57237  1.0000
  C   C826      1.0  0.99104  0.77993  0.59239  1.0000
  H   H1451     1.0  0.04088  0.82018  0.73737  1.0000
  H   H1452     1.0  0.99278  0.79713  0.59968  1.0000
  H   H1453     1.0  0.18287  0.87606  0.73061  1.0000
  H   H1454     1.0  0.01853  0.55193  0.50514  1.0000
  H   H1455     1.0  0.00571  0.59198  0.59270  1.0000
  H   H1456     1.0  0.26003  0.82649  0.49572  1.0000
  H   H1457     1.0  0.02034  0.65440  0.63342  1.0000
  C   C827      1.0  0.32558  0.89816  0.49852  1.0000
  H   H1458     1.0  0.02286  0.58511  0.50317  1.0000
  H   H1459     1.0  0.01260  0.62494  0.59882  1.0000
  H   H1460     1.0  0.00187  0.63293  0.57091  1.0000
  H   H1461     1.0  0.99093  0.78430  0.57958  1.0000
  C   C828      1.0  0.24473  0.98343  0.71752  1.0000
  H   H1462     1.0  0.99746  0.60039  0.56510  1.0000
  C   C829      1.0  0.00786  0.75288  0.74204  1.0000
  H   H1463     1.0  0.08105  0.81748  0.73951  1.0000
  C   C830      1.0  0.98982  0.68920  0.59398  1.0000
  Fe  Fe99      1.0  0.23252  0.98910  0.67657  1.0000
  H   H1464     1.0  0.10100  0.85307  0.73899  1.0000
  H   H1465     1.0  0.98872  0.64416  0.61063  1.0000
  H   H1466     1.0  0.99774  0.60745  0.62305  1.0000
  H   H1467     1.0  0.31598  0.97100  0.49475  1.0000
  H   H1468     1.0  0.13540  0.90221  0.74189  1.0000
  H   H1469     1.0  0.99356  0.64507  0.64712  1.0000
  H   H1470     1.0  0.36477  0.98966  0.60692  1.0000
  H   H1471     1.0  0.30447  0.85633  0.49399  1.0000
  H   H1472     1.0  0.98668  0.83009  0.69594  1.0000
  C   C831      1.0  0.08186  0.83690  0.74242  1.0000
  H   H1473     1.0  0.07585  0.72814  0.85130  1.0000
  H   H1474     1.0  0.04036  0.74470  0.87046  1.0000
  H   H1475     1.0  0.17928  0.92690  0.76783  1.0000
  H   H1476     1.0  0.31224  0.93436  0.91812  1.0000
  H   H1477     1.0  0.33202  0.97759  0.94499  1.0000
  Fe  Fe100     1.0  0.02229  0.79209  0.81369  1.0000
  S   S189      1.0  0.05071  0.83226  0.82486  1.0000
  S   S190      1.0  0.03563  0.76257  0.80579  1.0000
  Fe  Fe101     1.0  0.19462  0.95296  0.80668  1.0000
  S   S191      1.0  0.23793  0.96405  0.80880  1.0000
  S   S192      1.0  0.16548  0.90984  0.80048  1.0000
  Fe  Fe102     1.0  0.00909  0.75658  0.78435  1.0000
  H   H1478     1.0  0.07988  0.82154  0.87983  1.0000
  H   H1479     1.0  0.10546  0.78587  0.87128  1.0000
  C   C832      1.0  0.03329  0.54725  0.98765  1.0000
  H   H1480     1.0  0.11057  0.81791  0.89991  1.0000
  H   H1481     1.0  0.21814  0.91046  0.77737  1.0000
  H   H1482     1.0  0.26022  0.91901  0.76517  1.0000
  C   C833      1.0  0.08620  0.77884  0.84290  1.0000
  C   C834      1.0  0.43288  0.94839  0.98034  1.0000
  S   S193      1.0  0.02584  0.75649  0.76003  1.0000
  C   C835      1.0  0.08205  0.85411  0.81740  1.0000
  C   C836      1.0  0.09678  0.87910  0.82486  1.0000
  C   C837      1.0  0.12213  0.89664  0.81969  1.0000
  C   C838      1.0  0.13318  0.88921  0.80711  1.0000
  C   C839      1.0  0.11845  0.86421  0.79965  1.0000
  C   C840      1.0  0.09297  0.84683  0.80467  1.0000
  H   H1483     1.0  0.08854  0.88495  0.83471  1.0000
  H   H1484     1.0  0.13320  0.91577  0.82557  1.0000
  H   H1485     1.0  0.12688  0.85815  0.79002  1.0000
  H   H1486     1.0  0.08194  0.82765  0.79885  1.0000
  H   H1487     1.0  0.22038  0.90043  0.74683  1.0000
  H   H1488     1.0  0.03868  0.73855  0.84960  1.0000
  C   C841      1.0  0.11725  0.80617  0.82165  1.0000
  H   H1489     1.0  0.38333  0.90609  0.99180  1.0000
  H   H1490     1.0  0.03371  0.69188  0.85814  1.0000
  C   C842      1.0  0.33051  0.95941  0.93909  1.0000
  C   C843      1.0  0.30977  0.96658  0.89551  1.0000
  H   H1491     1.0  0.02728  0.66793  0.97230  1.0000
  H   H1492     1.0  0.27126  0.93869  0.87225  1.0000
  H   H1493     1.0  0.17475  0.88555  0.77474  1.0000
  C   C844      1.0  0.02325  0.57662  0.96035  1.0000
  H   H1494     1.0  0.03668  0.82476  0.86799  1.0000
  C   C845      1.0  0.08029  0.83845  0.76051  1.0000
  H   H1495     1.0  0.14314  0.93981  0.77041  1.0000
  C   C846      1.0  0.01349  0.65094  0.97861  1.0000
  S   S194      1.0  0.19731  0.98065  0.82676  1.0000
  C   C847      1.0  0.04834  0.70279  0.86780  1.0000
  H   H1496     1.0  0.10295  0.66269  0.98391  1.0000
  C   C848      1.0  0.05233  0.78903  0.85383  1.0000
  H   H1497     1.0  0.22231  0.94230  0.77150  1.0000
  C   C849      1.0  0.10516  0.80703  0.83758  1.0000
  C   C850      1.0  0.26492  0.94848  0.88152  1.0000
  H   H1498     1.0  0.14800  0.82464  0.77065  1.0000
  H   H1499     1.0  0.12347  0.85028  0.89158  1.0000
  H   H1500     1.0  0.13129  0.82657  0.81834  1.0000
  H   H1501     1.0  0.00748  0.57892  0.93708  1.0000
  H   H1502     1.0  0.27205  0.96021  0.90618  1.0000
  H   H1503     1.0  0.27414  0.93058  0.90122  1.0000
  C   C851      1.0  0.31497  0.95379  0.92298  1.0000
  H   H1504     1.0  0.06382  0.81063  0.85239  1.0000
  H   H1505     1.0  0.05006  0.50833  0.98519  1.0000
  H   H1506     1.0  0.12164  0.81675  0.84640  1.0000
  H   H1507     1.0  0.04196  0.78154  0.84210  1.0000
  N   N47       1.0  0.18290  0.90003  0.75080  1.0000
  C   C852      1.0  0.09664  0.81857  0.87570  1.0000
  H   H1508     1.0  0.12806  0.79430  0.82244  1.0000
  H   H1509     1.0  0.26868  0.96827  0.87742  1.0000
  N   N48       1.0  0.07008  0.77668  0.85735  1.0000
  H   H1510     1.0  0.31470  0.91793  0.94528  1.0000
  H   H1511     1.0  0.11474  0.92446  0.75721  1.0000
  H   H1512     1.0  0.03851  0.78500  0.87856  1.0000
  H   H1513     1.0  0.03788  0.70350  0.87866  1.0000
  C   C853      1.0  0.06719  0.73058  0.86253  1.0000
  H   H1514     1.0  0.01269  0.80437  0.85298  1.0000
  C   C854      1.0  0.05273  0.74756  0.85989  1.0000
  C   C855      1.0  0.42481  0.96500  0.96966  1.0000
  H   H1515     1.0  0.29692  0.93457  0.95331  1.0000
  C   C856      1.0  0.22574  0.92533  0.76797  1.0000
  H   H1516     1.0  0.31454  0.95343  0.88773  1.0000
  S   S195      1.0  0.98841  0.76196  0.82756  1.0000
  H   H1517     1.0  0.07289  0.76793  0.83259  1.0000
  H   H1518     1.0  0.05949  0.69169  0.87044  1.0000
  C   C857      1.0  0.07016  0.62383  0.98678  1.0000
  H   H1519     1.0  0.17259  0.84419  0.78571  1.0000
  H   H1520     1.0  0.00671  0.60180  0.95177  1.0000
  H   H1521     1.0  0.26461  0.94505  0.77923  1.0000
  H   H1522     1.0  0.10169  0.79754  0.81214  1.0000
  C   C858      1.0  0.23294  0.98621  0.74510  1.0000
  C   C859      1.0  0.08757  0.78877  0.87199  1.0000
  N   N49       1.0  0.32694  0.97454  0.91053  1.0000
  H   H1523     1.0  0.10455  0.83093  0.86520  1.0000
  H   H1524     1.0  0.15018  0.86618  0.76053  1.0000
  H   H1525     1.0  0.32847  0.94115  0.96179  1.0000
  C   C860      1.0  0.27951  0.95093  0.89734  1.0000
  C   C861      1.0  0.17188  0.87774  0.76231  1.0000
  H   H1526     1.0  0.01398  0.76436  0.86403  1.0000
  C   C862      1.0  0.02066  0.80459  0.86513  1.0000
  H   H1527     1.0  0.38069  0.86143  0.98773  1.0000
  C   C863      1.0  0.17344  0.91986  0.75528  1.0000
  H   H1528     1.0  0.09667  0.83613  0.76621  1.0000
  H   H1529     1.0  0.07752  0.77828  0.88285  1.0000
  S   S196      1.0  0.99807  0.69628  0.83114  1.0000
  H   H1530     1.0  0.09511  0.81941  0.83605  1.0000
  H   H1531     1.0  0.20436  0.86731  0.76447  1.0000
  H   H1532     1.0  0.04337  0.59172  0.95751  1.0000
  H   H1533     1.0  0.35060  0.96166  0.93752  1.0000
  H   H1534     1.0  0.13575  0.82788  0.88508  1.0000
  C   C864      1.0  0.35321  0.97604  0.90646  1.0000
  C   C865      1.0  0.31670  0.93680  0.95050  1.0000
  H   H1535     1.0  0.13305  0.89392  0.76260  1.0000
  H   H1536     1.0  0.26419  0.95049  0.75825  1.0000
  H   H1537     1.0  0.09898  0.76924  0.84492  1.0000
  C   C866      1.0  0.16947  0.83571  0.77339  1.0000
  H   H1538     1.0  0.42887  0.96233  0.95707  1.0000
  H   H1539     1.0  0.05838  0.62724  0.97737  1.0000
  C   C867      1.0  0.13640  0.93209  0.75806  1.0000
  C   C868      1.0  0.21259  0.91377  0.75144  1.0000
  H   H1540     1.0  0.17786  0.82164  0.77278  1.0000
  H   H1541     1.0  0.42153  0.92751  0.97619  1.0000
  H   H1542     1.0  0.08307  0.73974  0.87177  1.0000
  C   C869      1.0  0.00397  0.58140  0.94980  1.0000
  H   H1543     1.0  0.45407  0.95480  0.97851  1.0000
  C   C870      1.0  0.18298  0.85761  0.76148  1.0000
  H   H1544     1.0  0.47218  0.61446  0.99027  1.0000
  C   C871      1.0  0.03093  0.78423  0.86624  1.0000
  C   C872      1.0  0.25549  0.93552  0.76756  1.0000
  H   H1545     1.0  0.35101  0.95580  0.90420  1.0000
  H   H1546     1.0  0.10411  0.63711  0.97155  1.0000
  H   H1547     1.0  0.14569  0.94849  0.74965  1.0000
  C   C873      1.0  0.11791  0.82920  0.88889  1.0000
  H   H1548     1.0  0.40342  0.95873  0.97057  1.0000
  H   H1549     1.0  0.08181  0.85781  0.76446  1.0000
  H   H1550     1.0  0.29498  0.95058  0.92598  1.0000
  H   H1551     1.0  0.38833  0.97088  0.88518  1.0000
  H   H1552     1.0  0.24341  0.93651  0.88300  1.0000
  H   H1553     1.0  0.31407  0.98434  0.88835  1.0000
  H   H1554     1.0  0.04087  0.54517  0.97590  1.0000
  H   H1555     1.0  0.06147  0.82231  0.76462  1.0000
  H   H1556     1.0  0.02110  0.55682  0.95699  1.0000
  H   H1557     1.0  0.22036  0.93075  0.74336  1.0000
  H   H1558     1.0  0.17973  0.84817  0.74947  1.0000
  H   H1559     1.0  0.36754  0.98473  0.91662  1.0000
  H   H1560     1.0  0.48087  0.53791  0.98592  1.0000
  H   H1561     1.0  0.43605  0.98632  0.97305  1.0000
  C   C874      1.0  0.14329  0.90984  0.75404  1.0000
  H   H1562     1.0  0.29477  0.98829  0.92971  1.0000
  Fe  Fe103     1.0  0.99985  0.73197  0.81791  1.0000
  H   H1563     1.0  0.01695  0.59694  0.98060  1.0000
  C   C875      1.0  0.06426  0.59443  0.98719  1.0000
  S   S197      1.0  0.99717  0.78745  0.79178  1.0000
  S   S198      1.0  0.20011  0.98261  0.78789  1.0000
  H   H1564     1.0  0.00470  0.79997  0.87371  1.0000
  C   C876      1.0  0.01753  0.57800  0.97821  1.0000
  H   H1565     1.0  0.99697  0.56249  0.97980  1.0000
  H   H1566     1.0  0.18327  0.93790  0.74816  1.0000
  C   C877      1.0  0.99009  0.63240  0.97074  1.0000
  H   H1567     1.0  0.07137  0.58952  0.97600  1.0000
  C   C878      1.0  0.09911  0.64172  0.98351  1.0000
  H   H1568     1.0  0.35452  0.98591  0.88085  1.0000
  H   H1569     1.0  0.21812  0.98226  0.75386  1.0000
  C   C879      1.0  0.34230  0.97599  0.99180  1.0000
  N   N50       1.0  0.03603  0.57470  0.98987  1.0000
  H   H1570     1.0  0.01218  0.53227  0.98723  1.0000
  C   C880      1.0  0.39252  0.99141  0.88845  1.0000
  H   H1571     1.0  0.11197  0.63929  0.99266  1.0000
  Fe  Fe104     1.0  0.96406  0.20260  0.14858  1.0000
  C   C881      1.0  0.54003  0.00767  0.01024  1.0000
  S   S199      1.0  0.92033  0.17867  0.14202  1.0000
  H   H1572     1.0  0.69541  0.06482  0.16222  1.0000
  C   C882      1.0  0.90451  0.03063  0.13615  1.0000
  H   H1573     1.0  0.71292  0.02519  0.14850  1.0000
  H   H1574     1.0  0.61552  0.04729  0.16504  1.0000
  H   H1575     1.0  0.74636  0.07170  0.14678  1.0000
  Fe  Fe105     1.0  0.80245  0.03410  0.16431  1.0000
  S   S200      1.0  0.76054  0.02737  0.16607  1.0000
  S   S201      1.0  0.84160  0.06921  0.17221  1.0000
  H   H1576     1.0  0.95675  0.35262  0.03282  1.0000
  S   S202      1.0  0.72757  0.00028  0.12305  1.0000
  H   H1577     1.0  0.73934  0.09756  0.15415  1.0000
  H   H1578     1.0  0.95220  0.36787  0.08693  1.0000
  H   H1579     1.0  0.96066  0.33853  0.05980  1.0000
  C   C883      1.0  0.88150  0.08772  0.11636  1.0000
  C   C884      1.0  0.68588  0.04320  0.01145  1.0000
  H   H1580     1.0  0.93420  0.15952  0.23662  1.0000
  H   H1581     1.0  0.81078  0.08097  0.99682  1.0000
  H   H1582     1.0  0.97033  0.37899  0.10497  1.0000
  C   C885      1.0  0.89895  0.14754  0.14991  1.0000
  C   C886      1.0  0.90738  0.13630  0.16189  1.0000
  C   C887      1.0  0.88949  0.11239  0.16860  1.0000
  C   C888      1.0  0.86318  0.09895  0.16302  1.0000
  C   C889      1.0  0.85492  0.10969  0.15065  1.0000
  C   C890      1.0  0.87268  0.13403  0.14426  1.0000
  H   H1583     1.0  0.92767  0.14621  0.16601  1.0000
  H   H1584     1.0  0.89613  0.10413  0.17808  1.0000
  H   H1585     1.0  0.83475  0.09960  0.14625  1.0000
  H   H1586     1.0  0.86600  0.14252  0.13494  1.0000
  H   H1587     1.0  0.88858  0.05632  0.15824  1.0000
  H   H1588     1.0  0.94417  0.99926  0.14116  1.0000
  H   H1589     1.0  0.65487  0.04919  0.15253  1.0000
  H   H1590     1.0  0.95126  0.03193  0.14821  1.0000
  C   C891      1.0  0.73508  0.07668  0.15567  1.0000
  H   H1591     1.0  0.49912  0.44917  0.01066  1.0000
  H   H1592     1.0  0.97656  0.34780  0.11533  1.0000
  H   H1593     1.0  0.96562  0.42958  0.00134  1.0000
  N   N51       1.0  0.92413  0.16911  0.21339  1.0000
  C   C892      1.0  0.93336  0.17621  0.23056  1.0000
  C   C893      1.0  0.94333  0.16303  0.20425  1.0000
  C   C894      1.0  0.92365  0.19300  0.20619  1.0000
  C   C895      1.0  0.89668  0.14637  0.21186  1.0000
  C   C896      1.0  0.89225  0.12013  0.21935  1.0000
  H   H1594     1.0  0.66468  0.02858  0.13155  1.0000
  C   C897      1.0  0.91855  0.19158  0.18788  1.0000
  C   C898      1.0  0.95793  0.15002  0.21338  1.0000
  H   H1595     1.0  0.91989  0.20527  0.23740  1.0000
  C   C899      1.0  0.86321  0.09972  0.21818  1.0000
  H   H1596     1.0  0.87072  0.03711  0.11559  1.0000
  C   C900      1.0  0.91738  0.21638  0.18230  1.0000
  H   H1597     1.0  0.95399  0.19240  0.23105  1.0000
  H   H1598     1.0  0.86092  0.08431  0.11773  1.0000
  H   H1599     1.0  0.93338  0.15048  0.19353  1.0000
  H   H1600     1.0  0.95937  0.18149  0.19960  1.0000
  H   H1601     1.0  0.94273  0.21098  0.20883  1.0000
  H   H1602     1.0  0.90815  0.19686  0.21164  1.0000
  H   H1603     1.0  0.88206  0.15213  0.21670  1.0000
  H   H1604     1.0  0.89072  0.14126  0.19912  1.0000
  C   C901      1.0  0.88880  0.07338  0.12917  1.0000
  H   H1605     1.0  0.90322  0.11155  0.21275  1.0000
  H   H1606     1.0  0.85473  0.03271  0.15779  1.0000
  H   H1607     1.0  0.72735  0.05615  0.01130  1.0000
  H   H1608     1.0  0.89958  0.17450  0.18425  1.0000
  H   H1609     1.0  0.93444  0.18999  0.18133  1.0000
  H   H1610     1.0  0.97282  0.16471  0.22182  1.0000
  H   H1611     1.0  0.94454  0.13297  0.22032  1.0000
  H   H1612     1.0  0.98216  0.41540  0.07635  1.0000
  H   H1613     1.0  0.87110  0.99359  0.11326  1.0000
  S   S203      1.0  0.79385  0.00807  0.14232  1.0000
  H   H1614     1.0  0.94766  0.02404  0.12706  1.0000
  H   H1615     1.0  0.95457  0.36691  0.06035  1.0000
  H   H1616     1.0  0.84012  0.99439  0.11251  1.0000
  H   H1617     1.0  0.89829  0.12285  0.23211  1.0000
  C   C902      1.0  0.55205  0.00796  0.99415  1.0000
  C   C903      1.0  0.62450  0.03511  0.16970  1.0000
  H   H1618     1.0  0.90048  0.21788  0.18759  1.0000
  H   H1619     1.0  0.93587  0.23437  0.18566  1.0000
  H   H1620     1.0  0.91482  0.21536  0.16914  1.0000
  H   H1621     1.0  0.67123  0.04889  0.00646  1.0000
  H   H1622     1.0  0.91911  0.04858  0.14288  1.0000
  H   H1623     1.0  0.85495  0.02536  0.18682  1.0000
  C   C904      1.0  0.97518  0.36381  0.04002  1.0000
  C   C905      1.0  0.65187  0.01206  0.16249  1.0000
  H   H1624     1.0  0.90964  0.07793  0.12763  1.0000
  H   H1625     1.0  0.86056  0.08083  0.22325  1.0000
  C   C906      1.0  0.97218  0.38132  0.09191  1.0000
  H   H1626     1.0  0.70094  0.00202  0.09421  1.0000
  H   H1627     1.0  0.54386  0.02795  0.01394  1.0000
  H   H1628     1.0  0.70001  0.06183  0.14115  1.0000
  C   C907      1.0  0.63083  0.99325  0.11168  1.0000
  H   H1629     1.0  0.90424  0.99912  0.15158  1.0000
  H   H1630     1.0  0.96569  0.33065  0.99895  1.0000
  H   H1631     1.0  0.74181  0.07476  0.16783  1.0000
  H   H1632     1.0  0.90917  0.03503  0.12339  1.0000
  N   N52       1.0  0.87696  0.02636  0.13932  1.0000
  H   H1633     1.0  0.96496  0.39854  0.99565  1.0000
  C   C908      1.0  0.95438  0.41454  0.09328  1.0000
  H   H1634     1.0  0.96106  0.33249  0.08558  1.0000
  C   C909      1.0  0.69901  0.02937  0.15567  1.0000
  H   H1635     1.0  0.60850  0.01622  0.17383  1.0000
  C   C910      1.0  0.63979  0.02988  0.15658  1.0000
  Fe  Fe106     1.0  0.75120  0.99875  0.14500  1.0000
  H   H1636     1.0  0.93692  0.40185  0.08562  1.0000
  H   H1637     1.0  0.63783  0.04602  0.17994  1.0000
  C   C911      1.0  0.98206  0.34417  0.08944  1.0000
  H   H1638     1.0  0.95924  0.43552  0.09144  1.0000
  H   H1639     1.0  0.88728  0.08206  0.14069  1.0000
  C   C912      1.0  0.97789  0.41013  0.08896  1.0000
  S   S204      1.0  0.98052  0.23988  0.16408  1.0000
  C   C913      1.0  0.97247  0.14052  0.20196  1.0000
  C   C914      1.0  0.70556  0.05856  0.15327  1.0000
  C   C915      1.0  0.88106  0.02091  0.16981  1.0000
  C   C916      1.0  0.71291  0.06042  0.00468  1.0000
  C   C917      1.0  0.91078  0.00745  0.13975  1.0000
  H   H1640     1.0  0.94949  0.41007  0.10597  1.0000
  H   H1641     1.0  0.70433  0.02846  0.16834  1.0000
  H   H1642     1.0  0.85614  0.09580  0.20555  1.0000
  H   H1643     1.0  0.86866  0.99919  0.16894  1.0000
  H   H1644     1.0  0.66123  0.01978  0.17445  1.0000
  H   H1645     1.0  0.62492  0.00910  0.11340  1.0000
  H   H1646     1.0  0.88808  0.05214  0.18750  1.0000
  H   H1647     1.0  0.84984  0.03995  0.13012  1.0000
  C   C918      1.0  0.91711  0.18557  0.24110  1.0000
  H   H1648     1.0  0.85101  0.10674  0.22492  1.0000
  H   H1649     1.0  0.50297  0.48176  0.00634  1.0000
  H   H1650     1.0  0.89470  0.10933  0.11761  1.0000
  H   H1651     1.0  0.88131  0.02065  0.19564  1.0000
  H   H1652     1.0  0.62581  0.02007  0.14643  1.0000
  C   C919      1.0  0.94029  0.01631  0.13898  1.0000
  H   H1653     1.0  0.98361  0.38502  0.03709  1.0000
  H   H1654     1.0  0.88369  0.08091  0.10430  1.0000
  H   H1655     1.0  0.67931  0.02192  0.00867  1.0000
  H   H1656     1.0  0.95837  0.12505  0.19356  1.0000
  H   H1657     1.0  0.71756  0.08129  0.00713  1.0000
  C   C920      1.0  0.87028  0.04310  0.12818  1.0000
  S   S205      1.0  0.79555  0.00085  0.18059  1.0000
  H   H1658     1.0  0.76423  0.07530  0.99784  1.0000
  C   C921      1.0  0.87491  0.03505  0.15607  1.0000
  H   H1659     1.0  0.68670  0.04608  0.02457  1.0000
  H   H1660     1.0  0.89587  0.17142  0.24036  1.0000
  H   H1661     1.0  0.97436  0.29663  0.10129  1.0000
  H   H1662     1.0  0.90216  0.02579  0.16989  1.0000
  C   C922      1.0  0.87604  0.03039  0.18591  1.0000
  C   C923      1.0  0.96935  0.36003  0.05774  1.0000
  N   N53       1.0  0.67114  0.00876  0.15176  1.0000
  H   H1663     1.0  0.80295  0.99475  0.24013  1.0000
  H   H1664     1.0  0.78362  0.99681  0.21398  1.0000
  H   H1665     1.0  0.61260  0.01964  0.00282  1.0000
  C   C924      1.0  0.49040  0.46022  0.00419  1.0000
  H   H1666     1.0  0.68154  0.01046  0.12704  1.0000
  H   H1667     1.0  0.57331  0.02145  0.99546  1.0000
  C   C925      1.0  0.85638  0.99797  0.13673  1.0000
  C   C926      1.0  0.66524  0.00994  0.13431  1.0000
  C   C927      1.0  0.62009  0.00910  0.99543  1.0000
  H   H1668     1.0  0.51853  0.99455  0.00967  1.0000
  C   C928      1.0  0.96855  0.30797  0.10980  1.0000
  H   H1669     1.0  0.97258  0.30355  0.12206  1.0000
  H   H1670     1.0  0.75150  0.10810  0.99289  1.0000
  C   C929      1.0  0.98411  0.33764  0.10715  1.0000
  H   H1671     1.0  0.54909  0.00027  0.01936  1.0000
  C   C930      1.0  0.97629  0.42039  0.99507  1.0000
  H   H1672     1.0  0.64702  0.99982  0.10310  1.0000
  H   H1673     1.0  0.94712  0.30132  0.10828  1.0000
  H   H1674     1.0  0.98342  0.13208  0.20881  1.0000
  H   H1675     1.0  0.83695  0.99539  0.14071  1.0000
  H   H1676     1.0  0.73367  0.14134  0.99280  1.0000
  Fe  Fe107     1.0  0.95254  0.18751  0.31013  1.0000
  S   S206      1.0  0.95952  0.22948  0.30802  1.0000
  S   S207      1.0  0.91263  0.15238  0.30317  1.0000
  H   H1677     1.0  0.92603  0.11749  0.35230  1.0000
  H   H1678     1.0  0.56472  0.03265  0.45757  1.0000
  H   H1679     1.0  0.91818  0.30350  0.45774  1.0000
  C   C931      1.0  0.76900  0.06220  0.34110  1.0000
  H   H1680     1.0  0.78225  0.03141  0.35993  1.0000
  Fe  Fe108     1.0  0.79492  0.01201  0.32652  1.0000
  S   S208      1.0  0.76197  0.00781  0.30981  1.0000
  S   S209      1.0  0.82650  0.05094  0.33779  1.0000
  H   H1681     1.0  0.98590  0.34095  0.27636  1.0000
  H   H1682     1.0  0.73567  0.01352  0.35734  1.0000
  H   H1683     1.0  0.94331  0.14492  0.27372  1.0000
  H   H1684     1.0  0.77302  0.08511  0.38129  1.0000
  H   H1685     1.0  0.95468  0.14891  0.35578  1.0000
  H   H1686     1.0  0.89521  0.31338  0.48858  1.0000
  H   H1687     1.0  0.75635  0.99662  0.37894  1.0000
  C   C932      1.0  0.94767  0.12843  0.35100  1.0000
  H   H1688     1.0  0.87471  0.25872  0.46027  1.0000
  H   H1689     1.0  0.72151  0.02585  0.33359  1.0000
  H   H1690     1.0  0.91980  0.23311  0.44641  1.0000
  H   H1691     1.0  0.89790  0.24600  0.44008  1.0000
  N   N54       1.0  0.74597  0.05407  0.35194  1.0000
  H   H1692     1.0  0.94795  0.05954  0.31419  1.0000
  C   C933      1.0  0.88950  0.12411  0.31317  1.0000
  C   C934      1.0  0.87097  0.10236  0.30404  1.0000
  C   C935      1.0  0.85206  0.07956  0.31134  1.0000
  C   C936      1.0  0.85111  0.07840  0.32793  1.0000
  C   C937      1.0  0.86970  0.10011  0.33707  1.0000
  C   C938      1.0  0.88883  0.12279  0.32976  1.0000
  H   H1693     1.0  0.87115  0.10317  0.29120  1.0000
  H   H1694     1.0  0.83786  0.06311  0.30412  1.0000
  H   H1695     1.0  0.86908  0.09951  0.34991  1.0000
  H   H1696     1.0  0.90264  0.13949  0.33695  1.0000
  H   H1697     1.0  0.64908  0.10433  0.47203  1.0000
  H   H1698     1.0  0.66423  0.03222  0.47353  1.0000
  H   H1699     1.0  0.78805  0.01969  0.38717  1.0000
  H   H1700     1.0  0.59313  0.02895  0.46409  1.0000
  H   H1701     1.0  0.95527  0.28509  0.26642  1.0000
  H   H1702     1.0  0.91327  0.24014  0.47443  1.0000
  H   H1703     1.0  0.94424  0.25627  0.27862  1.0000
  H   H1704     1.0  0.97663  0.14002  0.33305  1.0000
  C   C939      1.0  0.56173  0.01548  0.48137  1.0000
  H   H1705     1.0  0.79773  0.10441  0.30950  1.0000
  H   H1706     1.0  0.81416  0.10099  0.32708  1.0000
  C   C940      1.0  0.62966  0.99416  0.47249  1.0000
  H   H1707     1.0  0.78856  0.13282  0.38393  1.0000
  S   S210      1.0  0.98085  0.19807  0.33115  1.0000
  C   C941      1.0  0.93634  0.12389  0.27015  1.0000
  H   H1708     1.0  0.94110  0.12292  0.25749  1.0000
  H   H1709     1.0  0.78943  0.10187  0.36357  1.0000
  H   H1710     1.0  0.73306  0.03222  0.37367  1.0000
  H   H1711     1.0  0.75314  0.11543  0.38404  1.0000
  H   H1712     1.0  0.95308  0.33277  0.34509  1.0000
  H   H1713     1.0  0.90246  0.06294  0.29542  1.0000
  C   C942      1.0  0.90125  0.02535  0.29885  1.0000
  H   H1714     1.0  0.75906  0.02180  0.39334  1.0000
  H   H1715     1.0  0.96424  0.31061  0.35365  1.0000
  C   C943      1.0  0.95327  0.29284  0.29177  1.0000
  H   H1716     1.0  0.94668  0.14074  0.32717  1.0000
  C   C944      1.0  0.77057  0.12051  0.37659  1.0000
  C   C945      1.0  0.89418  0.30003  0.47845  1.0000
  H   H1717     1.0  0.92522  0.27022  0.46402  1.0000
  H   H1718     1.0  0.69353  0.01204  0.35795  1.0000
  C   C946      1.0  0.77221  0.03633  0.36962  1.0000
  H   H1719     1.0  0.97127  0.12324  0.27882  1.0000
  H   H1720     1.0  0.95052  0.31063  0.28996  1.0000
  H   H1721     1.0  0.79732  0.07324  0.31326  1.0000
  H   H1722     1.0  0.56094  0.06168  0.47263  1.0000
  C   C947      1.0  0.97057  0.33100  0.34948  1.0000
  H   H1723     1.0  0.54014  0.00198  0.48100  1.0000
  C   C948      1.0  0.92547  0.34221  0.46521  1.0000
  H   H1724     1.0  0.74182  0.08989  0.35248  1.0000
  H   H1725     1.0  0.65273  0.00719  0.34567  1.0000
  C   C949      1.0  0.54807  0.09595  0.48495  1.0000
  H   H1726     1.0  0.94065  0.28164  0.30166  1.0000
  H   H1727     1.0  0.92231  0.10619  0.29927  1.0000
  C   C950      1.0  0.69479  0.02853  0.35062  1.0000
  H   H1728     1.0  0.92253  0.27027  0.27415  1.0000
  H   H1729     1.0  0.75482  0.07287  0.31922  1.0000
  C   C951      1.0  0.77134  0.08204  0.32807  1.0000
  H   H1730     1.0  0.98290  0.28249  0.30037  1.0000
  H   H1731     1.0  0.92163  0.09345  0.32582  1.0000
  H   H1732     1.0  0.93721  0.31565  0.47616  1.0000
  C   C952      1.0  0.88326  0.25362  0.47085  1.0000
  C   C953      1.0  0.97928  0.31725  0.32222  1.0000
  H   H1733     1.0  0.78800  0.07092  0.34788  1.0000
  C   C954      1.0  0.72111  0.04142  0.34165  1.0000
  C   C955      1.0  0.64753  0.01834  0.47998  1.0000
  H   H1734     1.0  0.95298  0.13447  0.30165  1.0000
  C   C956      1.0  0.94331  0.27507  0.27681  1.0000
  N   N55       1.0  0.88733  0.27287  0.48447  1.0000
  H   H1735     1.0  0.97962  0.34497  0.35977  1.0000
  H   H1736     1.0  0.83502  0.25124  0.47230  1.0000
  S   S211      1.0  0.98330  0.19254  0.29231  1.0000
  C   C957      1.0  0.90777  0.25091  0.46548  1.0000
  H   H1737     1.0  0.90940  0.34195  0.45752  1.0000
  H   H1738     1.0  0.91463  0.11309  0.27130  1.0000
  C   C958      1.0  0.55344  0.05395  0.48446  1.0000
  H   H1739     1.0  0.88533  0.21537  0.45073  1.0000
  C   C959      1.0  0.90224  0.23536  0.44971  1.0000
  C   C960      1.0  0.74538  0.03348  0.36329  1.0000
  C   C961      1.0  0.83791  0.26206  0.48383  1.0000
  H   H1740     1.0  0.84048  0.28222  0.48155  1.0000
  C   C962      1.0  0.67115  0.01743  0.33899  1.0000
  H   H1741     1.0  0.94282  0.09109  0.27618  1.0000
  C   C963      1.0  0.92597  0.18840  0.25858  1.0000
  H   H1742     1.0  0.76981  0.13235  0.36642  1.0000
  C   C964      1.0  0.98246  0.30046  0.29586  1.0000
  C   C965      1.0  0.74618  0.07738  0.36083  1.0000
  H   H1743     1.0  0.69260  0.04306  0.35854  1.0000
  H   H1744     1.0  0.52852  0.08514  0.47883  1.0000
  C   C966      1.0  0.77145  0.09548  0.37061  1.0000
  H   H1745     1.0  0.67225  0.00289  0.33049  1.0000
  C   C967      1.0  0.79671  0.09065  0.31896  1.0000
  H   H1746     1.0  0.51866  0.38419  0.48527  1.0000
  H   H1747     1.0  0.77152  0.10007  0.33334  1.0000
  H   H1748     1.0  0.76820  0.04436  0.33502  1.0000
  H   H1749     1.0  0.78570  0.05655  0.37399  1.0000
  H   H1750     1.0  0.86834  0.23328  0.47384  1.0000
  C   C968      1.0  0.91996  0.31412  0.46922  1.0000
  C   C969      1.0  0.94332  0.10090  0.32602  1.0000
  H   H1751     1.0  0.87856  0.29922  0.47014  1.0000
  H   H1752     1.0  0.90846  0.02425  0.28683  1.0000
  H   H1753     1.0  0.67030  0.03357  0.33221  1.0000
  H   H1754     1.0  0.73006  0.07057  0.36948  1.0000
  H   H1755     1.0  0.71969  0.05616  0.33374  1.0000
  H   H1756     1.0  0.97484  0.29738  0.32675  1.0000
  N   N56       1.0  0.95280  0.09864  0.30967  1.0000
  H   H1757     1.0  0.94745  0.20157  0.26002  1.0000
  H   H1758     1.0  0.79578  0.24732  0.48619  1.0000
  C   C970      1.0  0.94376  0.11309  0.29829  1.0000
  N   N57       1.0  0.56767  0.03979  0.49155  1.0000
  H   H1759     1.0  0.56870  0.99733  0.44245  1.0000
  H   H1760     1.0  0.60268  0.07112  0.46852  1.0000
  H   H1761     1.0  0.60684  0.09574  0.48321  1.0000
  C   C971      1.0  0.94980  0.11170  0.28055  1.0000
  H   H1762     1.0  0.90826  0.01522  0.30742  1.0000
  C   C972      1.0  0.98260  0.11129  0.31057  1.0000
  H   H1763     1.0  0.87938  0.01479  0.29832  1.0000
  H   H1764     1.0  0.95714  0.11878  0.35813  1.0000
  H   H1765     1.0  0.91555  0.19710  0.26567  1.0000
  C   C973      1.0  0.91057  0.05410  0.30418  1.0000
  H   H1766     1.0  0.95994  0.31631  0.31910  1.0000
  C   C974      1.0  0.61031  0.07845  0.48071  1.0000
  H   H1767     1.0  0.90171  0.05370  0.31587  1.0000
  H   H1768     1.0  0.92123  0.16880  0.26344  1.0000
  C   C975      1.0  0.95488  0.12920  0.33353  1.0000
  H   H1769     1.0  0.98313  0.35286  0.30378  1.0000
  H   H1770     1.0  0.56342  0.10565  0.47601  1.0000
  H   H1771     1.0  0.94419  0.35200  0.45876  1.0000
  H   H1772     1.0  0.92745  0.35405  0.47625  1.0000
  H   H1773     1.0  0.53230  0.03977  0.48213  1.0000
  H   H1774     1.0  0.92758  0.28155  0.49061  1.0000
  C   C976      1.0  0.57132  0.01995  0.46406  1.0000
  C   C977      1.0  0.64000  0.08823  0.48063  1.0000
  H   H1775     1.0  0.94746  0.08831  0.33446  1.0000
  H   H1776     1.0  0.94823  0.06624  0.29376  1.0000
  C   C978      1.0  0.94112  0.06953  0.30534  1.0000
  H   H1777     1.0  0.64442  0.07190  0.47704  1.0000
  H   H1778     1.0  0.57109  0.00406  0.48661  1.0000
  C   C979      1.0  0.76856  0.01742  0.38311  1.0000
  C   C980      1.0  0.56077  0.99377  0.45462  1.0000
  H   H1779     1.0  0.64898  0.09600  0.49258  1.0000
  H   H1780     1.0  0.49817  0.36416  0.55358  1.0000
  Fe  Fe109     1.0  0.63031  0.09249  0.54604  1.0000
  S   S212      1.0  0.65869  0.11055  0.52619  1.0000
  S   S213      1.0  0.58684  0.08324  0.54160  1.0000
  Fe  Fe110     1.0  0.67125  0.07998  0.56446  1.0000
  S   S214      1.0  0.70074  0.09590  0.54515  1.0000
  S   S215      1.0  0.68131  0.06966  0.58917  1.0000
  Fe  Fe111     1.0  0.69127  0.12999  0.54488  1.0000
  S   S216      1.0  0.72224  0.17384  0.54802  1.0000
  Fe  Fe112     1.0  0.66583  0.07501  0.52806  1.0000
  S   S217      1.0  0.66834  0.05434  0.50505  1.0000
  S   S218      1.0  0.66214  0.11454  0.56468  1.0000
  S   S219      1.0  0.63696  0.05634  0.54740  1.0000
  H   H1781     1.0  0.68445  0.03607  0.63898  1.0000
  H   H1782     1.0  0.94021  0.29626  0.62083  1.0000
  Fe  Fe113     1.0  0.93450  0.32777  0.52966  1.0000
  S   S220      1.0  0.94313  0.35670  0.55021  1.0000
  S   S221      1.0  0.96507  0.32730  0.51248  1.0000
  Fe  Fe114     1.0  0.87661  0.29238  0.54004  1.0000
  S   S222      1.0  0.88146  0.32007  0.56074  1.0000
  S   S223      1.0  0.84379  0.25028  0.53337  1.0000
  Fe  Fe115     1.0  0.90333  0.35414  0.54421  1.0000
  S   S224      1.0  0.89779  0.39067  0.53764  1.0000
  Fe  Fe116     1.0  0.92090  0.32068  0.56508  1.0000
  S   S225      1.0  0.93126  0.31287  0.59027  1.0000
  S   S226      1.0  0.89560  0.32603  0.52304  1.0000
  S   S227      1.0  0.91525  0.29219  0.54510  1.0000
  H   H1783     1.0  0.49834  0.07766  0.53743  1.0000
  C   C981      1.0  0.96507  0.40067  0.60083  1.0000
  C   C982      1.0  0.57021  0.32434  0.51702  1.0000
  H   H1784     1.0  0.73391  0.02109  0.58551  1.0000
  S   S228      1.0  0.94704  0.15412  0.63933  1.0000
  H   H1785     1.0  0.61793  0.00784  0.61929  1.0000
  Fe  Fe117     1.0  0.81229  0.04881  0.66781  1.0000
  S   S229      1.0  0.77183  0.04485  0.66316  1.0000
  S   S230      1.0  0.84379  0.08816  0.67786  1.0000
  H   H1786     1.0  0.51589  0.33254  0.54681  1.0000
  H   H1787     1.0  0.85402  0.04202  0.71914  1.0000
  C   C983      1.0  0.97814  0.18838  0.59624  1.0000
  H   H1788     1.0  0.87732  0.21239  0.59690  1.0000
  H   H1789     1.0  0.98324  0.34938  0.57454  1.0000
  C   C984      1.0  0.69457  0.99260  0.64136  1.0000
  C   C985      1.0  0.91873  0.13613  0.65040  1.0000
  C   C986      1.0  0.91401  0.14650  0.66445  1.0000
  C   C987      1.0  0.89077  0.13172  0.67269  1.0000
  C   C988      1.0  0.87231  0.10650  0.66699  1.0000
  C   C989      1.0  0.87703  0.09628  0.65291  1.0000
  C   C990      1.0  0.90014  0.11108  0.64463  1.0000
  H   H1790     1.0  0.92817  0.16588  0.66891  1.0000
  H   H1791     1.0  0.88708  0.13983  0.68351  1.0000
  H   H1792     1.0  0.86297  0.07689  0.64844  1.0000
  H   H1793     1.0  0.90369  0.10302  0.63374  1.0000
  H   H1794     1.0  0.85786  0.09251  0.72481  1.0000
  H   H1795     1.0  0.50015  0.38612  0.50188  1.0000
  C   C991      1.0  0.95117  0.29798  0.59632  1.0000
  C   C992      1.0  0.95236  0.29253  0.61248  1.0000
  C   C993      1.0  0.92721  0.25040  0.51281  1.0000
  H   H1796     1.0  0.57352  0.08865  0.50102  1.0000
  C   C994      1.0  0.70827  0.06239  0.67412  1.0000
  C   C995      1.0  0.96712  0.29318  0.58572  1.0000
  H   H1797     1.0  0.89327  0.15450  0.62763  1.0000
  H   H1798     1.0  0.55613  0.48327  0.57766  1.0000
  H   H1799     1.0  0.96623  0.29697  0.57324  1.0000
  C   C996      1.0  0.90168  0.42250  0.54418  1.0000
  C   C997      1.0  0.89999  0.43965  0.53284  1.0000
  C   C998      1.0  0.90257  0.46480  0.53732  1.0000
  C   C999      1.0  0.90629  0.47313  0.55334  1.0000
  C   C1000     1.0  0.90791  0.45597  0.56470  1.0000
  C   C1001     1.0  0.90585  0.43101  0.56019  1.0000
  H   H1800     1.0  0.89692  0.43349  0.52042  1.0000
  C   C1002     1.0  0.96973  0.28305  0.61807  1.0000
  C   C1003     1.0  0.55348  0.47616  0.56543  1.0000
  H   H1801     1.0  0.90712  0.41820  0.56911  1.0000
  H   H1802     1.0  0.74371  0.07063  0.68817  1.0000
  C   C1004     1.0  0.52621  0.44371  0.54493  1.0000
  C   C1005     1.0  0.54615  0.45742  0.53403  1.0000
  C   C1006     1.0  0.64663  0.99688  0.70334  1.0000
  H   H1803     1.0  0.71303  0.00529  0.50251  1.0000
  C   C1007     1.0  0.71786  0.03417  0.52076  1.0000
  C   C1008     1.0  0.53018  0.45326  0.56070  1.0000
  H   H1804     1.0  0.54355  0.45020  0.52183  1.0000
  C   C1009     1.0  0.55901  0.39843  0.54167  1.0000
  H   H1805     1.0  0.75657  0.43761  0.54909  1.0000
  H   H1806     1.0  0.51525  0.44302  0.56930  1.0000
  C   C1010     1.0  0.73613  0.03717  0.60918  1.0000
  C   C1011     1.0  0.72821  0.03311  0.59298  1.0000
  C   C1012     1.0  0.71247  0.04388  0.58644  1.0000
  C   C1013     1.0  0.70413  0.05865  0.59609  1.0000
  C   C1014     1.0  0.71270  0.06340  0.61216  1.0000
  C   C1015     1.0  0.72878  0.05298  0.61863  1.0000
  H   H1807     1.0  0.70601  0.03993  0.57409  1.0000
  H   H1808     1.0  0.70657  0.07497  0.61971  1.0000
  H   H1809     1.0  0.73525  0.05688  0.63096  1.0000
  H   H1810     1.0  0.86367  0.48370  0.52820  1.0000
  H   H1811     1.0  0.97532  0.41157  0.61196  1.0000
  H   H1812     1.0  0.60002  0.44740  0.55037  1.0000
  C   C1016     1.0  0.75622  0.19447  0.54397  1.0000
  C   C1017     1.0  0.77101  0.18582  0.53472  1.0000
  C   C1018     1.0  0.79770  0.20311  0.53173  1.0000
  C   C1019     1.0  0.81013  0.22928  0.53796  1.0000
  C   C1020     1.0  0.79545  0.23780  0.54738  1.0000
  C   C1021     1.0  0.76874  0.22054  0.55032  1.0000
  H   H1813     1.0  0.76176  0.16598  0.52963  1.0000
  H   H1814     1.0  0.80872  0.19622  0.52439  1.0000
  H   H1815     1.0  0.80455  0.25779  0.55226  1.0000
  H   H1816     1.0  0.75760  0.22757  0.55747  1.0000
  C   C1022     1.0  0.52303  0.10933  0.55364  1.0000
  C   C1023     1.0  0.54846  0.12265  0.56073  1.0000
  C   C1024     1.0  0.56826  0.11520  0.55719  1.0000
  C   C1025     1.0  0.56288  0.09401  0.54659  1.0000
  C   C1026     1.0  0.53736  0.08052  0.53964  1.0000
  C   C1027     1.0  0.51772  0.08824  0.54298  1.0000
  H   H1817     1.0  0.55295  0.13901  0.56899  1.0000
  H   H1818     1.0  0.58766  0.12585  0.56268  1.0000
  H   H1819     1.0  0.53262  0.06379  0.53170  1.0000
  N   N58       1.0  0.76920  0.15550  0.58384  1.0000
  C   C1028     1.0  0.74752  0.16211  0.58845  1.0000
  C   C1029     1.0  0.79359  0.18042  0.57968  1.0000
  C   C1030     1.0  0.75978  0.13768  0.56912  1.0000
  C   C1031     1.0  0.77522  0.14063  0.59661  1.0000
  C   C1032     1.0  0.78192  0.15355  0.61348  1.0000
  C   C1033     1.0  0.72092  0.13841  0.59242  1.0000
  C   C1034     1.0  0.78070  0.13180  0.56087  1.0000
  C   C1035     1.0  0.79920  0.20632  0.58898  1.0000
  C   C1036     1.0  0.82657  0.22843  0.58560  1.0000
  C   C1037     1.0  0.78326  0.13440  0.62554  1.0000
  C   C1038     1.0  0.70157  0.14780  0.59850  1.0000
  C   C1039     1.0  0.76882  0.11323  0.54639  1.0000
  H   H1820     1.0  0.74364  0.17291  0.57869  1.0000
  H   H1821     1.0  0.75341  0.17595  0.59887  1.0000
  H   H1822     1.0  0.81137  0.17734  0.58072  1.0000
  H   H1823     1.0  0.79235  0.18522  0.56699  1.0000
  H   H1824     1.0  0.75175  0.14627  0.56006  1.0000
  H   H1825     1.0  0.74322  0.11813  0.57193  1.0000
  H   H1826     1.0  0.75861  0.12030  0.59751  1.0000
  H   H1827     1.0  0.79230  0.13752  0.59333  1.0000
  H   H1828     1.0  0.76695  0.15924  0.61764  1.0000
  H   H1829     1.0  0.80148  0.17122  0.61364  1.0000
  H   H1830     1.0  0.71186  0.12591  0.58161  1.0000
  H   H1831     1.0  0.72335  0.12612  0.60173  1.0000
  H   H1832     1.0  0.78872  0.12212  0.56906  1.0000
  H   H1833     1.0  0.79725  0.15017  0.55665  1.0000
  H   H1834     1.0  0.78471  0.21315  0.58517  1.0000
  H   H1835     1.0  0.79786  0.20370  0.60198  1.0000
  H   H1836     1.0  0.82936  0.24716  0.59147  1.0000
  H   H1837     1.0  0.84185  0.22347  0.59034  1.0000
  H   H1838     1.0  0.82910  0.23164  0.57261  1.0000
  H   H1839     1.0  0.78931  0.14437  0.63744  1.0000
  H   H1840     1.0  0.76367  0.11688  0.62649  1.0000
  H   H1841     1.0  0.79775  0.12759  0.62198  1.0000
  H   H1842     1.0  0.69811  0.15992  0.58946  1.0000
  H   H1843     1.0  0.68248  0.13038  0.60085  1.0000
  H   H1844     1.0  0.70917  0.15963  0.60974  1.0000
  H   H1845     1.0  0.78426  0.10980  0.54058  1.0000
  H   H1846     1.0  0.75297  0.09386  0.55004  1.0000
  H   H1847     1.0  0.76067  0.12203  0.53760  1.0000
  C   C1040     1.0  0.88641  0.17113  0.60547  1.0000
  C   C1041     1.0  0.50057  0.34450  0.57462  1.0000
  H   H1848     1.0  0.89321  0.11777  0.70782  1.0000
  C   C1042     1.0  0.98220  0.34873  0.49682  1.0000
  C   C1043     1.0  0.70534  0.03612  0.66660  1.0000
  C   C1044     1.0  0.64414  0.02454  0.49576  1.0000
  C   C1045     1.0  0.84993  0.47799  0.50393  1.0000
  H   H1849     1.0  0.87244  0.13873  0.73030  1.0000
  H   H1850     1.0  0.56047  0.30370  0.51217  1.0000
  S   S231      1.0  0.79826  0.01392  0.68365  1.0000
  H   H1851     1.0  0.89002  0.13506  0.60997  1.0000
  H   H1852     1.0  0.93897  0.22763  0.62074  1.0000
  H   H1853     1.0  0.93906  0.17378  0.71787  1.0000
  H   H1854     1.0  0.80973  0.47805  0.51812  1.0000
  H   H1855     1.0  0.82076  0.03377  0.72414  1.0000
  H   H1856     1.0  0.89691  0.22891  0.65339  1.0000
  H   H1857     1.0  0.87192  0.17783  0.60907  1.0000
  C   C1046     1.0  0.89724  0.23986  0.57885  1.0000
  H   H1858     1.0  0.81714  0.45233  0.57418  1.0000
  C   C1047     1.0  0.91256  0.22664  0.64698  1.0000
  H   H1859     1.0  0.84181  0.12252  0.60809  1.0000
  C   C1048     1.0  0.83699  0.02853  0.72614  1.0000
  H   H1860     1.0  0.76713  0.46793  0.52969  1.0000
  H   H1861     1.0  0.59624  0.40171  0.55146  1.0000
  H   H1862     1.0  0.97168  0.17719  0.58472  1.0000
  H   H1863     1.0  0.77404  0.39593  0.55803  1.0000
  H   H1864     1.0  0.68610  0.01705  0.69540  1.0000
  H   H1865     1.0  0.94911  0.11206  0.68838  1.0000
  H   H1866     1.0  0.48909  0.35203  0.58166  1.0000
  H   H1867     1.0  0.72438  0.06279  0.50228  1.0000
  H   H1868     1.0  0.67890  0.00135  0.54188  1.0000
  C   C1049     1.0  0.55548  0.00770  0.53358  1.0000
  C   C1050     1.0  0.49363  0.06158  0.61442  1.0000
  H   H1869     1.0  0.55940  0.04750  0.51557  1.0000
  H   H1870     1.0  0.60665  0.43916  0.56996  1.0000
  H   H1871     1.0  0.92559  0.17108  0.58972  1.0000
  H   H1872     1.0  0.83670  0.45161  0.52348  1.0000
  H   H1873     1.0  0.77715  0.43973  0.56572  1.0000
  H   H1874     1.0  0.71854  0.04161  0.65630  1.0000
  H   H1875     1.0  0.54543  0.40665  0.54484  1.0000
  H   H1876     1.0  0.96365  0.37063  0.58489  1.0000
  H   H1877     1.0  0.93611  0.22990  0.59301  1.0000
  C   C1051     1.0  0.93227  0.18253  0.60121  1.0000
  H   H1878     1.0  0.74980  0.08572  0.66888  1.0000
  C   C1052     1.0  0.97529  0.38134  0.59567  1.0000
  H   H1879     1.0  0.88918  0.24828  0.51571  1.0000
  H   H1880     1.0  0.84737  0.46998  0.55224  1.0000
  C   C1053     1.0  0.92240  0.20741  0.62192  1.0000
  H   H1881     1.0  0.64503  0.01522  0.70599  1.0000
  H   H1882     1.0  0.61996  0.01057  0.51618  1.0000
  H   H1883     1.0  0.96951  0.21430  0.61108  1.0000
  H   H1884     1.0  0.93891  0.14552  0.69989  1.0000
  H   H1885     1.0  0.70622  0.04134  0.52792  1.0000
  H   H1886     1.0  0.84290  0.03151  0.73896  1.0000
  H   H1887     1.0  0.60728  0.04485  0.49411  1.0000
  H   H1888     1.0  0.53541  0.32880  0.51356  1.0000
  H   H1889     1.0  0.89016  0.21824  0.62516  1.0000
  H   H1890     1.0  0.92825  0.08777  0.70210  1.0000
  C   C1054     1.0  0.88379  0.13041  0.73697  1.0000
  H   H1891     1.0  0.96451  0.37457  0.49938  1.0000
  C   C1055     1.0  0.75277  0.00603  0.74174  1.0000
  H   H1892     1.0  0.88720  0.25231  0.58066  1.0000
  H   H1893     1.0  0.91744  0.25287  0.57489  1.0000
  C   C1056     1.0  0.66891  0.02751  0.64795  1.0000
  H   H1894     1.0  0.95153  0.13218  0.71515  1.0000
  C   C1057     1.0  0.88249  0.14756  0.61605  1.0000
  H   H1895     1.0  0.92091  0.21704  0.65504  1.0000
  C   C1058     1.0  0.57971  0.40524  0.55540  1.0000
  H   H1896     1.0  0.91240  0.20316  0.58109  1.0000
  H   H1897     1.0  0.74843  0.07448  0.51836  1.0000
  H   H1898     1.0  0.86500  0.27654  0.50404  1.0000
  C   C1059     1.0  0.90902  0.12024  0.71662  1.0000
  Fe  Fe118     1.0  0.98009  0.19273  0.64873  1.0000
  C   C1060     1.0  0.65890  0.01017  0.67479  1.0000
  S   S232      1.0  0.49738  0.41433  0.53839  1.0000
  H   H1899     1.0  0.58937  0.02729  0.51927  1.0000
  H   H1900     1.0  0.55908  0.02569  0.54068  1.0000
  H   H1901     1.0  0.51556  0.34332  0.58264  1.0000
  H   H1902     1.0  0.90304  0.10018  0.72114  1.0000
  H   H1903     1.0  0.97125  0.36711  0.60535  1.0000
  C   C1061     1.0  0.81270  0.24802  0.49318  1.0000
  H   H1904     1.0  0.84559  0.14110  0.62654  1.0000
  H   H1905     1.0  0.52629  0.38296  0.56639  1.0000
  Fe  Fe119     1.0  0.76987  0.01914  0.64213  1.0000
  H   H1906     1.0  0.92812  0.24661  0.64405  1.0000
  H   H1907     1.0  0.80861  0.22744  0.49572  1.0000
  C   C1062     1.0  0.56788  0.01501  0.51728  1.0000
  H   H1908     1.0  0.92202  0.23265  0.52003  1.0000
  H   H1909     1.0  0.57005  0.41019  0.53146  1.0000
  H   H1910     1.0  0.52402  0.06656  0.63184  1.0000
  H   H1911     1.0  0.90573  0.24211  0.60388  1.0000
  H   H1912     1.0  0.82948  0.10384  0.74197  1.0000
  H   H1913     1.0  0.96789  0.41496  0.59132  1.0000
  S   S233      1.0  0.75458  0.02162  0.61697  1.0000
  H   H1914     1.0  0.93058  0.19696  0.62952  1.0000
  C   C1063     1.0  0.52305  0.36653  0.52450  1.0000
  H   H1915     1.0  0.60192  0.06838  0.50515  1.0000
  H   H1916     1.0  0.91082  0.46203  0.57713  1.0000
  N   N59       1.0  0.54365  0.36956  0.53690  1.0000
  N   N60       1.0  0.81347  0.47390  0.54350  1.0000
  H   H1917     1.0  0.69616  0.05886  0.68481  1.0000
  H   H1918     1.0  0.86497  0.47190  0.50039  1.0000
  H   H1919     1.0  0.53871  0.31707  0.53274  1.0000
  C   C1064     1.0  0.96176  0.20262  0.59981  1.0000
  H   H1920     1.0  0.50880  0.34533  0.52229  1.0000
  H   H1921     1.0  0.51090  0.37555  0.52900  1.0000
  H   H1922     1.0  0.95093  0.15216  0.73783  1.0000
  H   H1923     1.0  0.49971  0.04985  0.60644  1.0000
  C   C1065     1.0  0.91593  0.21308  0.59306  1.0000
  N   N61       1.0  0.91396  0.19381  0.60573  1.0000
  H   H1924     1.0  0.57494  0.37372  0.52130  1.0000
  C   C1066     1.0  0.93442  0.12792  0.70713  1.0000
  C   C1067     1.0  0.54946  0.33147  0.52348  1.0000
  H   H1925     1.0  0.58104  0.33767  0.50730  1.0000
  C   C1068     1.0  0.98492  0.28428  0.59135  1.0000
  H   H1926     1.0  0.58480  0.49016  0.53033  1.0000
  C   C1069     1.0  0.93118  0.10562  0.69554  1.0000
  C   C1070     1.0  0.73682  0.08047  0.67929  1.0000
  H   H1927     1.0  0.73844  0.09898  0.68485  1.0000
  H   H1928     1.0  0.49738  0.07106  0.63988  1.0000
  H   H1929     1.0  0.49280  0.03815  0.63487  1.0000
  H   H1930     1.0  0.88026  0.16305  0.59309  1.0000
  H   H1931     1.0  0.50278  0.13537  0.59984  1.0000
  H   H1932     1.0  0.91411  0.10045  0.68725  1.0000
  H   H1933     1.0  0.71399  0.02736  0.67508  1.0000
  H   H1934     1.0  0.70233  0.07321  0.66545  1.0000
  C   C1071     1.0  0.51375  0.36307  0.56100  1.0000
  H   H1935     1.0  0.98059  0.32382  0.54933  1.0000
  H   H1936     1.0  0.92695  0.22884  0.73321  1.0000
  H   H1937     1.0  0.85147  0.11275  0.62631  1.0000
  H   H1938     1.0  0.77040  0.01871  0.71871  1.0000
  H   H1939     1.0  0.57636  0.36096  0.54008  1.0000
  H   H1940     1.0  0.68848  0.01597  0.50187  1.0000
  C   C1072     1.0  0.77202  0.43243  0.55326  1.0000
  H   H1941     1.0  0.63930  0.99388  0.67110  1.0000
  Fe  Fe120     1.0  0.75806  0.00810  0.67748  1.0000
  C   C1073     1.0  0.79605  0.44432  0.54224  1.0000
  H   H1942     1.0  0.96495  0.21636  0.58997  1.0000
  H   H1943     1.0  0.93182  0.16823  0.61016  1.0000
  H   H1944     1.0  0.49793  0.05861  0.58149  1.0000
  H   H1945     1.0  0.80801  0.43377  0.54433  1.0000
  H   H1946     1.0  0.66603  0.04447  0.65235  1.0000
  C   C1074     1.0  0.53344  0.37919  0.50823  1.0000
  C   C1075     1.0  0.55627  0.03042  0.50770  1.0000
  H   H1947     1.0  0.90184  0.47776  0.52832  1.0000
  C   C1076     1.0  0.89788  0.22648  0.59436  1.0000
  N   N62       1.0  0.67787  0.01617  0.66141  1.0000
  C   C1077     1.0  0.56958  0.48022  0.53880  1.0000
  C   C1078     1.0  0.75238  0.00734  0.72489  1.0000
  C   C1079     1.0  0.75975  0.40228  0.55321  1.0000
  H   H1948     1.0  0.74914  0.05152  0.50362  1.0000
  C   C1080     1.0  0.56238  0.36017  0.53050  1.0000
  H   H1949     1.0  0.90564  0.16387  0.71225  1.0000
  H   H1950     1.0  0.65532  0.02739  0.67750  1.0000
  H   H1951     1.0  0.57555  0.43851  0.56550  1.0000
  H   H1952     1.0  0.54448  0.37001  0.50233  1.0000
  S   S234      1.0  0.81158  0.02510  0.64597  1.0000
  H   H1953     1.0  0.74221  0.39426  0.56080  1.0000
  S   S235      1.0  0.49862  0.11928  0.55899  1.0000
  C   C1081     1.0  0.90086  0.20961  0.63190  1.0000
  H   H1954     1.0  0.88620  0.18983  0.63574  1.0000
  C   C1082     1.0  0.84455  0.47310  0.52162  1.0000
  C   C1083     1.0  0.85349  0.12997  0.61938  1.0000
  C   C1084     1.0  0.52993  0.35303  0.55091  1.0000
  H   H1955     1.0  0.88643  0.22486  0.56929  1.0000
  C   C1085     1.0  0.51081  0.37567  0.49695  1.0000
  H   H1956     1.0  0.94038  0.25057  0.50322  1.0000
  H   H1957     1.0  0.54648  0.40073  0.50967  1.0000
  C   C1086     1.0  0.62255  0.00632  0.50396  1.0000
  H   H1958     1.0  0.78884  0.48260  0.55945  1.0000
  H   H1959     1.0  0.78777  0.43813  0.52990  1.0000
  H   H1960     1.0  0.57119  0.39333  0.56602  1.0000
  H   H1961     1.0  0.97095  0.27969  0.63061  1.0000
  C   C1087     1.0  0.82845  0.47401  0.57294  1.0000
  H   H1962     1.0  0.66335  0.00977  0.52617  1.0000
  H   H1963     1.0  0.93795  0.26826  0.52062  1.0000
  H   H1964     1.0  0.86400  0.47204  0.58062  1.0000
  H   H1965     1.0  0.92627  0.10178  0.74234  1.0000
  H   H1966     1.0  0.50432  0.08274  0.61144  1.0000
  S   S236      1.0  0.97638  0.22985  0.65246  1.0000
  H   H1967     1.0  0.62733  0.00000  0.54631  1.0000
  C   C1088     1.0  0.83587  0.48061  0.55538  1.0000
  H   H1968     1.0  0.73045  0.02967  0.52900  1.0000
  C   C1089     1.0  0.50237  0.05912  0.63131  1.0000
  H   H1969     1.0  0.54422  0.35073  0.55903  1.0000
  H   H1970     1.0  0.58437  0.32578  0.52664  1.0000
  C   C1090     1.0  0.59115  0.43434  0.56057  1.0000
  H   H1971     1.0  0.91199  0.29095  0.50533  1.0000
  H   H1972     1.0  0.94368  0.38954  0.60306  1.0000
  H   H1973     1.0  0.90784  0.20842  0.71647  1.0000
  H   H1974     1.0  0.97630  0.17451  0.60583  1.0000
  H   H1975     1.0  0.75346  0.39391  0.54094  1.0000
  C   C1091     1.0  0.69974  0.00962  0.51014  1.0000
  C   C1092     1.0  0.73605  0.05706  0.51058  1.0000
  H   H1976     1.0  0.90140  0.18185  0.74047  1.0000
  H   H1977     1.0  0.53395  0.99475  0.53225  1.0000
  C   C1093     1.0  0.66688  0.00167  0.69057  1.0000
  C   C1094     1.0  0.90836  0.27508  0.49631  1.0000
  H   H1978     1.0  0.49682  0.35438  0.49504  1.0000
  N   N63       1.0  0.91061  0.13921  0.72986  1.0000
  H   H1979     1.0  0.53898  0.06907  0.50401  1.0000
  H   H1980     1.0  0.53454  0.01790  0.50657  1.0000
  H   H1981     1.0  0.83169  0.46629  0.49666  1.0000
  H   H1982     1.0  0.56408  0.99622  0.51114  1.0000
  H   H1983     1.0  0.63516  0.03945  0.62954  1.0000
  C   C1095     1.0  0.91891  0.16588  0.72261  1.0000
  H   H1984     1.0  0.56436  0.99696  0.54020  1.0000
  C   C1096     1.0  0.86498  0.10019  0.73713  1.0000
  C   C1097     1.0  0.90220  0.24978  0.50571  1.0000
  H   H1985     1.0  0.94293  0.21963  0.71787  1.0000
  H   H1986     1.0  0.48692  0.32438  0.56988  1.0000
  C   C1098     1.0  0.86199  0.26353  0.49336  1.0000
  H   H1987     1.0  0.81444  0.25879  0.50464  1.0000
  H   H1988     1.0  0.71585  0.00513  0.64404  1.0000
  C   C1099     1.0  0.79873  0.48908  0.54797  1.0000
  C   C1100     1.0  0.77791  0.48782  0.53545  1.0000
  C   C1101     1.0  0.98653  0.27939  0.60758  1.0000
  C   C1102     1.0  0.57341  0.48991  0.55456  1.0000
  C   C1103     1.0  0.92468  0.21270  0.72477  1.0000
  H   H1989     1.0  0.65255  0.02789  0.61637  1.0000
  H   H1990     1.0  0.74559  0.47998  0.55135  1.0000
  H   H1991     1.0  0.84722  0.47943  0.59631  1.0000
  C   C1104     1.0  0.82541  0.48349  0.52751  1.0000
  C   C1105     1.0  0.85299  0.48314  0.58371  1.0000
  H   H1992     1.0  0.81701  0.48381  0.57747  1.0000
  C   C1106     1.0  0.59700  0.05727  0.49350  1.0000
  C   C1107     1.0  0.63683  0.02177  0.62528  1.0000
  H   H1993     1.0  0.49917  0.03564  0.55691  1.0000
  S   S237      1.0  0.72549  0.99537  0.69521  1.0000
  C   C1108     1.0  0.64289  0.00824  0.63914  1.0000
  H   H1994     1.0  0.62616  0.00144  0.64732  1.0000
  C   C1109     1.0  0.72844  0.99430  0.71617  1.0000
  H   H1995     1.0  0.68889  0.00096  0.63110  1.0000
  C   C1110     1.0  0.82834  0.99991  0.72074  1.0000
  H   H1996     1.0  0.82280  0.99785  0.70794  1.0000
  C   C1111     1.0  0.91993  0.18810  0.73399  1.0000
  H   H1997     1.0  0.84561  0.99612  0.72216  1.0000
  C   C1112     1.0  0.55416  0.07710  0.49482  1.0000
  H   H1998     1.0  0.89191  0.23163  0.49813  1.0000
  H   H1999     1.0  0.85583  0.24342  0.49799  1.0000
  C   C1113     1.0  0.93080  0.14241  0.74260  1.0000
  H   H2000     1.0  0.87467  0.08892  0.74204  1.0000
  C   C1114     1.0  0.66664  0.99329  0.53078  1.0000
  C   C1115     1.0  0.97812  0.37024  0.49273  1.0000
  H   H2001     1.0  0.54773  0.11154  0.49291  1.0000
  S   S238      1.0  0.51390  0.38428  0.92193  1.0000
  H   H2002     1.0  0.70823  0.14786  0.88140  1.0000
  Fe  Fe121     1.0  0.92451  0.32242  0.94270  1.0000
  S   S239      1.0  0.94659  0.35255  0.92474  1.0000
  S   S240      1.0  0.94086  0.32594  0.96820  1.0000
  Fe  Fe122     1.0  0.87683  0.29087  0.91926  1.0000
  S   S241      1.0  0.89661  0.32062  0.90000  1.0000
  S   S242      1.0  0.83703  0.25509  0.91152  1.0000
  Fe  Fe123     1.0  0.93347  0.31786  0.90726  1.0000
  S   S243      1.0  0.96528  0.31158  0.89428  1.0000
  Fe  Fe124     1.0  0.90812  0.35304  0.91918  1.0000
  S   S244      1.0  0.90227  0.39056  0.92286  1.0000
  S   S245      1.0  0.91344  0.28748  0.92579  1.0000
  S   S246      1.0  0.88611  0.32326  0.93783  1.0000
  C   C1116     1.0  0.92127  0.47701  0.91096  1.0000
  H   H2003     1.0  0.78855  0.18512  0.85022  1.0000
  Fe  Fe125     1.0  0.64134  0.09074  0.92604  1.0000
  S   S247      1.0  0.66886  0.09582  0.94702  1.0000
  S   S248      1.0  0.60749  0.10079  0.93217  1.0000
  Fe  Fe126     1.0  0.67325  0.07250  0.90423  1.0000
  S   S249      1.0  0.70144  0.07584  0.92389  1.0000
  S   S250      1.0  0.67672  0.05936  0.87883  1.0000
  Fe  Fe127     1.0  0.66575  0.05663  0.93922  1.0000
  S   S251      1.0  0.66185  0.02200  0.95458  1.0000
  Fe  Fe128     1.0  0.70258  0.11490  0.93009  1.0000
  S   S252      1.0  0.74296  0.14870  0.93850  1.0000
  S   S253      1.0  0.63716  0.05064  0.91895  1.0000
  S   S254      1.0  0.67549  0.11258  0.90970  1.0000
  H   H2004     1.0  0.79756  0.08878  0.82960  1.0000
  H   H2005     1.0  0.54959  0.20857  0.91408  1.0000
  C   C1117     1.0  0.53929  0.47329  0.95427  1.0000
  S   S255      1.0  0.95441  0.14950  0.83139  1.0000
  S   S256      1.0  0.96584  0.20550  0.80311  1.0000
  Fe  Fe129     1.0  0.77124  0.01896  0.82530  1.0000
  S   S257      1.0  0.81220  0.02293  0.82339  1.0000
  S   S258      1.0  0.76166  0.02703  0.85069  1.0000
  Fe  Fe130     1.0  0.81426  0.04320  0.80056  1.0000
  S   S259      1.0  0.84839  0.08017  0.79162  1.0000
  S   S260      1.0  0.77461  0.04184  0.80312  1.0000
  C   C1118     1.0  0.93614  0.39736  0.96684  1.0000
  C   C1119     1.0  0.86148  0.12925  0.86686  1.0000
  C   C1120     1.0  0.92491  0.12987  0.82042  1.0000
  C   C1121     1.0  0.92232  0.13480  0.80443  1.0000
  C   C1122     1.0  0.89868  0.11953  0.79588  1.0000
  C   C1123     1.0  0.87750  0.09881  0.80310  1.0000
  C   C1124     1.0  0.88002  0.09369  0.81910  1.0000
  C   C1125     1.0  0.90366  0.10925  0.82774  1.0000
  H   H2006     1.0  0.93866  0.15013  0.79854  1.0000
  H   H2007     1.0  0.89689  0.12364  0.78354  1.0000
  H   H2008     1.0  0.86380  0.07775  0.82477  1.0000
  H   H2009     1.0  0.90555  0.10520  0.84008  1.0000
  N   N64       1.0  0.73805  0.07230  0.97823  1.0000
  H   H2010     1.0  0.90769  0.47759  0.87371  1.0000
  C   C1126     1.0  0.70050  0.05034  0.87129  1.0000
  C   C1127     1.0  0.70051  0.04526  0.85485  1.0000
  C   C1128     1.0  0.71898  0.03813  0.84831  1.0000
  C   C1129     1.0  0.73784  0.03607  0.85816  1.0000
  C   C1130     1.0  0.73792  0.04130  0.87460  1.0000
  C   C1131     1.0  0.71936  0.04830  0.88114  1.0000
  H   H2011     1.0  0.68597  0.04667  0.84710  1.0000
  H   H2012     1.0  0.71849  0.03405  0.83567  1.0000
  C   C1132     1.0  0.92712  0.11706  0.75096  1.0000
  H   H2013     1.0  0.71958  0.05199  0.89381  1.0000
  H   H2014     1.0  0.88112  0.18956  0.81616  1.0000
  C   C1133     1.0  0.64419  0.00785  0.97211  1.0000
  H   H2015     1.0  0.70282  0.14314  0.86002  1.0000
  H   H2016     1.0  0.89099  0.22785  0.89720  1.0000
  N   N65       1.0  0.51544  0.45211  0.96205  1.0000
  C   C1134     1.0  0.51953  0.07903  0.92215  1.0000
  C   C1135     1.0  0.53384  0.09549  0.93508  1.0000
  C   C1136     1.0  0.56055  0.10184  0.93787  1.0000
  C   C1137     1.0  0.57342  0.09141  0.92805  1.0000
  C   C1138     1.0  0.55889  0.07419  0.91545  1.0000
  C   C1139     1.0  0.53227  0.06821  0.91250  1.0000
  H   H2017     1.0  0.52428  0.10306  0.94310  1.0000
  H   H2018     1.0  0.57136  0.11490  0.94778  1.0000
  H   H2019     1.0  0.56830  0.06588  0.90776  1.0000
  H   H2020     1.0  0.52154  0.05528  0.90253  1.0000
  C   C1140     1.0  0.96605  0.29743  0.87534  1.0000
  C   C1141     1.0  0.94831  0.44467  0.97446  1.0000
  H   H2021     1.0  0.57139  0.01511  0.93558  1.0000
  H   H2022     1.0  0.53699  0.49156  0.95306  1.0000
  H   H2023     1.0  0.93749  0.46108  0.95383  1.0000
  C   C1142     1.0  0.51491  0.14694  0.93829  1.0000
  C   C1143     1.0  0.77250  0.12038  0.88109  1.0000
  H   H2024     1.0  0.81476  0.15523  0.86746  1.0000
  H   H2025     1.0  0.52538  0.48325  0.98015  1.0000
  C   C1144     1.0  0.81111  0.22562  0.91936  1.0000
  C   C1145     1.0  0.78856  0.21024  0.90971  1.0000
  C   C1146     1.0  0.76750  0.18690  0.91531  1.0000
  C   C1147     1.0  0.76874  0.17825  0.93065  1.0000
  C   C1148     1.0  0.79137  0.19349  0.94024  1.0000
  C   C1149     1.0  0.81231  0.21697  0.93470  1.0000
  H   H2026     1.0  0.78721  0.21669  0.89787  1.0000
  H   H2027     1.0  0.75021  0.17576  0.90780  1.0000
  H   H2028     1.0  0.79266  0.18721  0.95213  1.0000
  H   H2029     1.0  0.82937  0.22841  0.94233  1.0000
  C   C1150     1.0  0.90978  0.42374  0.91773  1.0000
  C   C1151     1.0  0.89872  0.43724  0.92654  1.0000
  C   C1152     1.0  0.90474  0.46372  0.92339  1.0000
  H   H2030     1.0  0.82111  0.45821  0.93813  1.0000
  C   C1153     1.0  0.93215  0.46343  0.90206  1.0000
  C   C1154     1.0  0.92665  0.43716  0.90546  1.0000
  H   H2031     1.0  0.88543  0.42715  0.93595  1.0000
  H   H2032     1.0  0.78011  0.43491  0.89061  1.0000
  C   C1155     1.0  0.98100  0.42053  0.94271  1.0000
  H   H2033     1.0  0.93528  0.42723  0.89845  1.0000
  C   C1156     1.0  0.51811  0.14148  0.90447  1.0000
  H   H2034     1.0  0.87948  0.24628  0.88504  1.0000
  C   C1157     1.0  0.82940  0.46289  0.90542  1.0000
  C   C1158     1.0  0.98253  0.42509  0.92481  1.0000
  C   C1159     1.0  0.53622  0.41814  0.91820  1.0000
  C   C1160     1.0  0.56151  0.42971  0.92553  1.0000
  C   C1161     1.0  0.57990  0.45633  0.92297  1.0000
  C   C1162     1.0  0.57343  0.47180  0.91282  1.0000
  C   C1163     1.0  0.54811  0.46024  0.90554  1.0000
  C   C1164     1.0  0.52964  0.43371  0.90823  1.0000
  H   H2035     1.0  0.56699  0.41792  0.93320  1.0000
  H   H2036     1.0  0.59924  0.46473  0.92863  1.0000
  H   H2037     1.0  0.54280  0.47186  0.89762  1.0000
  C   C1165     1.0  0.73072  0.13725  0.97977  1.0000
  H   H2038     1.0  0.81819  0.02061  0.86235  1.0000
  Fe  Fe131     1.0  0.75964  0.00276  0.78981  1.0000
  H   H2039     1.0  0.96299  0.28748  0.97007  1.0000
  H   H2040     1.0  0.55965  0.06426  0.96572  1.0000
  C   C1166     1.0  0.58210  0.01309  0.94609  1.0000
  C   C1167     1.0  0.94995  0.12304  0.76271  1.0000
  H   H2041     1.0  0.48924  0.15878  0.92678  1.0000
  H   H2042     1.0  0.79321  0.11376  0.91010  1.0000
  H   H2043     1.0  0.50468  0.37412  0.95593  1.0000
  H   H2044     1.0  0.51254  0.14190  0.87851  1.0000
  C   C1168     1.0  0.90045  0.48905  0.86638  1.0000
  H   H2045     1.0  0.51851  0.38312  0.97590  1.0000
  C   C1169     1.0  0.79824  0.16021  0.86600  1.0000
  H   H2046     1.0  0.71531  0.06496  0.95630  1.0000
  H   H2047     1.0  0.84677  0.10121  0.75952  1.0000
  H   H2048     1.0  0.79975  0.16452  0.83981  1.0000
  C   C1170     1.0  0.95857  0.27522  0.95895  1.0000
  H   H2049     1.0  0.75031  0.03695  0.95895  1.0000
  H   H2050     1.0  0.84574  0.44782  0.93334  1.0000
  H   H2051     1.0  0.95388  0.18497  0.88044  1.0000
  H   H2052     1.0  0.75488  0.10067  0.88086  1.0000
  H   H2053     1.0  0.48839  0.14871  0.95605  1.0000
  H   H2054     1.0  0.86116  0.45757  0.86397  1.0000
  H   H2055     1.0  0.78974  0.09705  0.85711  1.0000
  C   C1171     1.0  0.51130  0.02807  0.95438  1.0000
  H   H2056     1.0  0.61248  0.20460  0.92094  1.0000
  H   H2057     1.0  0.92849  0.48086  0.97824  1.0000
  H   H2058     1.0  0.72803  0.01400  0.93458  1.0000
  H   H2059     1.0  0.62652  0.10019  0.98493  1.0000
  C   C1172     1.0  0.73382  0.06516  0.96068  1.0000
  H   H2060     1.0  0.77110  0.01624  0.74850  1.0000
  H   H2061     1.0  0.80784  0.12759  0.84699  1.0000
  H   H2062     1.0  0.52623  0.45455  0.98715  1.0000
  C   C1173     1.0  0.77046  0.42758  0.86580  1.0000
  H   H2063     1.0  0.71539  0.02159  0.96166  1.0000
  N   N66       1.0  0.95755  0.42577  0.96770  1.0000
  H   H2064     1.0  0.96883  0.13058  0.75641  1.0000
  H   H2065     1.0  0.57984  0.05774  0.95272  1.0000
  H   H2066     1.0  0.74839  0.09914  0.85358  1.0000
  N   N67       1.0  0.52055  0.16781  0.91017  1.0000
  C   C1174     1.0  0.86393  0.48057  0.88575  1.0000
  H   H2067     1.0  0.88606  0.35393  0.96680  1.0000
  H   H2068     1.0  0.79503  0.10518  0.97872  1.0000
  H   H2069     1.0  0.94009  0.43883  0.98642  1.0000
  H   H2070     1.0  0.86925  0.16747  0.87594  1.0000
  H   H2071     1.0  0.71602  0.10722  0.86070  1.0000
  C   C1175     1.0  0.59245  0.06357  0.97759  1.0000
  H   H2072     1.0  0.95149  0.13805  0.77183  1.0000
  C   C1176     1.0  0.70310  0.13340  0.87129  1.0000
  H   H2073     1.0  0.90733  0.34756  0.98029  1.0000
  C   C1177     1.0  0.53120  0.01689  0.95190  1.0000
  H   H2074     1.0  0.89180  0.20245  0.84479  1.0000
  H   H2075     1.0  0.94960  0.43116  0.94312  1.0000
  C   C1178     1.0  0.94790  0.29385  0.86303  1.0000
  H   H2076     1.0  0.50621  0.09695  0.88539  1.0000
  C   C1179     1.0  0.56598  0.00694  0.96149  1.0000
  H   H2077     1.0  0.76151  0.11358  0.97298  1.0000
  H   H2078     1.0  0.90896  0.10906  0.75795  1.0000
  H   H2079     1.0  0.95091  0.19025  0.85114  1.0000
  H   H2080     1.0  0.74961  0.15395  0.85673  1.0000
  C   C1180     1.0  0.91945  0.21793  0.87302  1.0000
  H   H2081     1.0  0.54658  0.15578  0.88509  1.0000
  S   S261      1.0  0.79930  0.00563  0.78568  1.0000
  H   H2082     1.0  0.51043  0.42521  0.90238  1.0000
  H   H2083     1.0  0.75584  0.15978  0.87748  1.0000
  H   H2084     1.0  0.75232  0.03970  0.88236  1.0000
  H   H2085     1.0  0.51865  0.99862  0.97905  1.0000
  H   H2086     1.0  0.52155  0.42208  0.94944  1.0000
  H   H2087     1.0  0.60177  0.10474  0.97378  1.0000
  C   C1181     1.0  0.77405  0.13371  0.89758  1.0000
  C   C1182     1.0  0.89533  0.24037  0.88659  1.0000
  N   N68       1.0  0.92059  0.19906  0.86052  1.0000
  C   C1183     1.0  0.72269  0.12220  0.87057  1.0000
  C   C1184     1.0  0.84742  0.48042  0.91935  1.0000
  H   H2088     1.0  0.90004  0.46425  0.96515  1.0000
  H   H2089     1.0  0.80918  0.45874  0.90871  1.0000
  C   C1185     1.0  0.98105  0.42841  0.97746  1.0000
  H   H2090     1.0  0.52128  0.04988  0.95360  1.0000
  H   H2091     1.0  0.72165  0.11218  0.88190  1.0000
  C   C1186     1.0  0.91061  0.18495  0.83066  1.0000
  C   C1187     1.0  0.91169  0.20387  0.84445  1.0000
  H   H2092     1.0  0.82987  0.44356  0.90544  1.0000
  H   H2093     1.0  0.48954  0.42166  0.93340  1.0000
  C   C1188     1.0  0.75087  0.14437  0.86788  1.0000
  H   H2094     1.0  0.86882  0.12353  0.87768  1.0000
  H   H2095     1.0  0.82126  0.46105  0.86495  1.0000
  H   H2096     1.0  0.78203  0.10776  0.82216  1.0000
  H   H2097     1.0  0.68304  0.11705  0.87303  1.0000
  H   H2098     1.0  0.79179  0.15317  0.89884  1.0000
  H   H2099     1.0  0.90481  0.48713  0.85375  1.0000
  H   H2100     1.0  0.50574  0.45616  0.92831  1.0000
  C   C1189     1.0  0.49500  0.40229  0.96833  1.0000
  C   C1190     1.0  0.91391  0.46127  0.97325  1.0000
  C   C1191     1.0  0.94906  0.20485  0.85925  1.0000
  H   H2101     1.0  0.90280  0.39898  0.97865  1.0000
  H   H2102     1.0  0.93757  0.23734  0.87279  1.0000
  C   C1192     1.0  0.78833  0.11016  0.84794  1.0000
  H   H2103     1.0  0.54066  0.11119  0.89130  1.0000
  C   C1193     1.0  0.84186  0.46510  0.93474  1.0000
  Fe  Fe132     1.0  0.98309  0.18592  0.81875  1.0000
  C   C1194     1.0  0.90129  0.19172  0.81509  1.0000
  H   H2104     1.0  0.52968  0.13488  0.91220  1.0000
  H   H2105     1.0  0.51951  0.21759  0.90196  1.0000
  H   H2106     1.0  0.93111  0.15608  0.75229  1.0000
  C   C1195     1.0  0.76659  0.11809  0.85215  1.0000
  H   H2107     1.0  0.54127  0.46705  0.94198  1.0000
  H   H2108     1.0  0.82781  0.07252  0.74699  1.0000
  H   H2109     1.0  0.93023  0.18641  0.82870  1.0000
  C   C1196     1.0  0.49125  0.44885  0.95281  1.0000
  H   H2110     1.0  0.60282  0.99679  0.93188  1.0000
  C   C1197     1.0  0.53845  0.01602  0.98067  1.0000
  C   C1198     1.0  0.96668  0.43446  0.95105  1.0000
  H   H2111     1.0  0.86851  0.48788  0.91681  1.0000
  H   H2112     1.0  0.91114  0.16798  0.87744  1.0000
  C   C1199     1.0  0.57056  0.05255  0.96450  1.0000
  H   H2113     1.0  0.88143  0.35363  0.98792  1.0000
  C   C1200     1.0  0.77532  0.11652  0.91097  1.0000
  C   C1201     1.0  0.50099  0.37882  0.96820  1.0000
  H   H2114     1.0  0.52284  0.17093  0.96008  1.0000
  C   C1202     1.0  0.90511  0.17067  0.86527  1.0000
  H   H2115     1.0  0.91490  0.21229  0.81179  1.0000
  H   H2116     1.0  0.91925  0.21026  0.88513  1.0000
  C   C1203     1.0  0.83023  0.19965  0.85063  1.0000
  C   C1204     1.0  0.54825  0.18978  0.90910  1.0000
  C   C1205     1.0  0.56998  0.18574  0.91793  1.0000
  H   H2117     1.0  0.78348  0.46331  0.87980  1.0000
  C   C1206     1.0  0.59730  0.20767  0.91422  1.0000
  H   H2118     1.0  0.56959  0.16673  0.91448  1.0000
  H   H2119     1.0  0.74273  0.04899  0.93118  1.0000
  H   H2120     1.0  0.93636  0.19404  0.74287  1.0000
  H   H2121     1.0  0.55372  0.19394  0.89645  1.0000
  C   C1207     1.0  0.84082  0.09419  0.74700  1.0000
  H   H2122     1.0  0.56774  0.18658  0.93096  1.0000
  H   H2123     1.0  0.54031  0.02464  0.94031  1.0000
  H   H2124     1.0  0.96337  0.21949  0.88388  1.0000
  H   H2125     1.0  0.83001  0.00090  0.85145  1.0000
  H   H2126     1.0  0.96481  0.30629  0.94294  1.0000
  H   H2127     1.0  0.60108  0.20738  0.90133  1.0000
  H   H2128     1.0  0.59919  0.22733  0.91778  1.0000
  C   C1208     1.0  0.51501  0.46125  0.97906  1.0000
  H   H2129     1.0  0.86946  0.46681  0.89219  1.0000
  C   C1209     1.0  0.48941  0.44095  0.93495  1.0000
  H   H2130     1.0  0.63669  0.04027  0.97830  1.0000
  H   H2131     1.0  0.94663  0.10476  0.76890  1.0000
  H   H2132     1.0  0.56591  0.48340  0.97572  1.0000
  C   C1210     1.0  0.97290  0.29225  0.94498  1.0000
  H   H2133     1.0  0.74922  0.15017  0.97374  1.0000
  C   C1211     1.0  0.52607  0.11357  0.88353  1.0000
  C   C1212     1.0  0.72239  0.10813  0.97596  1.0000
  H   H2134     1.0  0.51949  0.18592  0.93293  1.0000
  H   H2135     1.0  0.69576  0.05468  0.98075  1.0000
  C   C1213     1.0  0.96336  0.20475  0.87511  1.0000
  H   H2136     1.0  0.74936  0.42159  0.86777  1.0000
  C   C1214     1.0  0.81796  0.00103  0.86164  1.0000
  H   H2137     1.0  0.57221  0.46507  0.96029  1.0000
  H   H2138     1.0  0.93699  0.26587  0.95654  1.0000
  H   H2139     1.0  0.77588  0.43781  0.85430  1.0000
  H   H2140     1.0  0.53127  0.11268  0.87096  1.0000
  H   H2141     1.0  0.50124  0.12622  0.93454  1.0000
  H   H2142     1.0  0.74949  0.08062  0.95363  1.0000
  C   C1215     1.0  0.50867  0.15095  0.95541  1.0000
  H   H2143     1.0  0.89658  0.47384  0.93060  1.0000
  C   C1216     1.0  0.80765  0.07609  0.98387  1.0000
  H   H2144     1.0  0.78550  0.07906  0.96394  1.0000
  H   H2145     1.0  0.58033  0.00915  0.97111  1.0000
  H   H2146     1.0  0.71776  0.10461  0.96303  1.0000
  C   C1217     1.0  0.52639  0.14006  0.88716  1.0000
  H   H2147     1.0  0.93669  0.28224  0.83837  1.0000
  H   H2148     1.0  0.85491  0.47820  0.94449  1.0000
  C   C1218     1.0  0.50292  0.17430  0.89952  1.0000
  C   C1219     1.0  0.97316  0.34752  0.97570  1.0000
  C   C1220     1.0  0.48934  0.01712  0.94160  1.0000
  H   H2149     1.0  0.75510  0.04708  0.98536  1.0000
  H   H2150     1.0  0.49609  0.20023  0.91687  1.0000
  H   H2151     1.0  0.82685  0.99825  0.87282  1.0000
  H   H2152     1.0  0.70928  0.03356  0.98550  1.0000
  H   H2153     1.0  0.49740  0.12587  0.90546  1.0000
  H   H2154     1.0  0.94499  0.47333  0.89242  1.0000
  C   C1221     1.0  0.89641  0.35914  0.97860  1.0000
  H   H2155     1.0  0.62290  0.09385  0.96382  1.0000
  H   H2156     1.0  0.81933  0.43594  0.87771  1.0000
  C   C1222     1.0  0.56632  0.48081  0.96267  1.0000
  H   H2157     1.0  0.70770  0.03024  0.93419  1.0000
  C   C1223     1.0  0.73194  0.03792  0.95578  1.0000
  H   H2158     1.0  0.50972  0.17700  0.88707  1.0000
  H   H2159     1.0  0.75646  0.13662  0.89946  1.0000
  C   C1224     1.0  0.98013  0.34527  0.99152  1.0000
  H   H2160     1.0  0.91422  0.25857  0.88873  1.0000
  H   H2161     1.0  0.58372  0.06303  0.98935  1.0000
  C   C1225     1.0  0.51088  0.16599  0.92699  1.0000
  C   C1226     1.0  0.97074  0.27747  0.84495  1.0000
  C   C1227     1.0  0.78722  0.08351  0.97691  1.0000
  H   H2162     1.0  0.60357  0.05211  0.97793  1.0000
  H   H2163     1.0  0.71516  0.14223  0.97545  1.0000
  H   H2164     1.0  0.76292  0.07710  0.83211  1.0000
  H   H2165     1.0  0.89949  0.23816  0.86140  1.0000
  C   C1228     1.0  0.89656  0.22523  0.87171  1.0000
  H   H2166     1.0  0.83989  0.12161  0.86771  1.0000
  H   H2167     1.0  0.94498  0.38357  0.96696  1.0000
  H   H2168     1.0  0.96446  0.25941  0.96069  1.0000
  H   H2169     1.0  0.80083  0.17399  0.87620  1.0000
  N   N69       1.0  0.83582  0.47461  0.88911  1.0000
  H   H2170     1.0  0.60063  0.03185  0.94788  1.0000
  H   H2171     1.0  0.49163  0.40579  0.98086  1.0000
  H   H2172     1.0  0.77308  0.40946  0.86513  1.0000
  N   N70       1.0  0.55205  0.02337  0.96489  1.0000
  H   H2173     1.0  0.76225  0.12706  0.84158  1.0000
  H   H2174     1.0  0.90099  0.17805  0.80542  1.0000
  C   C1229     1.0  0.72739  0.03264  0.93783  1.0000
  H   H2175     1.0  0.93238  0.29927  0.86500  1.0000
  C   C1230     1.0  0.80248  0.17663  0.85079  1.0000
  C   C1231     1.0  0.92767  0.44820  0.96395  1.0000
  C   C1232     1.0  0.81685  0.45420  0.87731  1.0000
  H   H2176     1.0  0.53597  0.42994  0.96872  1.0000
  H   H2177     1.0  0.87732  0.20760  0.87010  1.0000
  C   C1233     1.0  0.87483  0.15930  0.86545  1.0000
  C   C1234     1.0  0.61201  0.09235  0.97483  1.0000
  H   H2178     1.0  0.80121  0.05465  0.98189  1.0000
  H   H2179     1.0  0.91252  0.42894  0.95897  1.0000
  H   H2180     1.0  0.92475  0.22453  0.84089  1.0000
  H   H2181     1.0  0.83460  0.21220  0.86164  1.0000
  H   H2182     1.0  0.96071  0.22439  0.85377  1.0000
  C   C1235     1.0  0.91508  0.38873  0.97990  1.0000
  H   H2183     1.0  0.86676  0.16363  0.85449  1.0000
  C   C1236     1.0  0.78224  0.09507  0.83198  1.0000
  C   C1237     1.0  0.78722  0.44589  0.87949  1.0000
  C   C1238     1.0  0.87085  0.47859  0.86817  1.0000
  H   H2184     1.0  0.89681  0.16410  0.83315  1.0000
  N   N71       1.0  0.77205  0.13576  0.86678  1.0000
  H   H2185     1.0  0.97066  0.39901  0.94457  1.0000
  C   C1239     1.0  0.95041  0.28418  0.84792  1.0000
  H   H2186     1.0  0.86530  0.11984  0.85621  1.0000
  H   H2187     1.0  0.75760  0.09691  0.91046  1.0000
  H   H2188     1.0  0.92492  0.39284  0.95528  1.0000
  C   C1240     1.0  0.63370  0.02087  0.98154  1.0000
  C   C1241     1.0  0.51816  0.42705  0.96173  1.0000
  H   H2189     1.0  0.77604  0.12627  0.92264  1.0000
  H   H2190     1.0  0.90992  0.15756  0.85746  1.0000
  H   H2191     1.0  0.83208  0.21211  0.84025  1.0000
  H   H2192     1.0  0.49762  0.02145  0.92953  1.0000
  H   H2193     1.0  0.78956  0.11612  0.88066  1.0000
  H   H2194     1.0  0.53522  0.14948  0.93822  1.0000
  S   S262      1.0  0.97369  0.26674  0.82537  1.0000
  H   H2195     1.0  0.84480  0.19206  0.84950  1.0000
  H   H2196     1.0  0.70421  0.09641  0.98254  1.0000
  C   C1242     1.0  0.98619  0.29040  0.87245  1.0000
  H   H2197     1.0  0.90254  0.44853  0.98305  1.0000
  H   H2198     1.0  0.48979  0.46765  0.95353  1.0000
  H   H2199     1.0  0.98014  0.45613  0.95099  1.0000
  H   H2200     1.0  0.96813  0.27898  0.93434  1.0000
  H   H2201     1.0  0.50173  0.02293  0.96604  1.0000
  C   C1243     1.0  0.74464  0.10101  0.98045  1.0000
  C   C1244     1.0  0.50075  0.19972  0.90418  1.0000
  C   C1245     1.0  0.71321  0.05452  0.98662  1.0000
  H   H2202     1.0  0.51012  0.13596  0.96304  1.0000
  H   H2203     1.0  0.88594  0.13843  0.74939  1.0000
  H   H2204     1.0  0.96249  0.41571  0.91921  1.0000
  H   H2205     1.0  0.53490  0.03248  0.98533  1.0000
  C   C1246     1.0  0.76045  0.06848  0.98515  1.0000
  H   H2206     1.0  0.86442  0.48981  0.86018  1.0000
  H   H2207     1.0  0.82669  0.08734  0.97794  1.0000
  H   H2208     1.0  0.96530  0.46470  0.97638  1.0000
  H   H2209     1.0  0.51960  0.99504  0.95013  1.0000
  C   C1247     1.0  0.48768  0.45324  0.98640  1.0000
  H   H2210     1.0  0.92401  0.39315  0.99202  1.0000
  C   C1248     1.0  0.57863  0.82406  0.08614  1.0000
  C   C1249     1.0  0.76943  0.77311  0.23826  1.0000
  Fe  Fe133     1.0  0.95616  0.76234  0.15672  1.0000
  S   S263      1.0  0.91215  0.74647  0.16141  1.0000
  H   H2211     1.0  0.50486  0.58276  0.01428  1.0000
  Fe  Fe134     1.0  0.78411  0.97454  0.15890  1.0000
  S   S264      1.0  0.74117  0.96342  0.16014  1.0000
  S   S265      1.0  0.80342  0.94785  0.15816  1.0000
  H   H2212     1.0  0.64790  0.93658  0.17292  1.0000
  Fe  Fe135     1.0  0.78883  0.77496  0.14871  1.0000
  S   S266      1.0  0.76467  0.73894  0.16266  1.0000
  S   S267      1.0  0.82901  0.78540  0.13850  1.0000
  Fe  Fe136     1.0  0.74855  0.79641  0.15240  1.0000
  S   S268      1.0  0.72214  0.76207  0.16688  1.0000
  S   S269      1.0  0.73221  0.82473  0.14665  1.0000
  Fe  Fe137     1.0  0.75894  0.76690  0.17963  1.0000
  S   S270      1.0  0.76986  0.77710  0.20595  1.0000
  Fe  Fe138     1.0  0.72994  0.73755  0.14846  1.0000
  S   S271      1.0  0.69578  0.70047  0.13732  1.0000
  S   S272      1.0  0.78493  0.80309  0.16613  1.0000
  S   S273      1.0  0.75456  0.77176  0.13340  1.0000
  Fe  Fe139     1.0  0.54397  0.63035  0.05012  1.0000
  S   S274      1.0  0.53848  0.65105  0.02913  1.0000
  Fe  Fe140     1.0  0.60149  0.67484  0.05638  1.0000
  S   S275      1.0  0.59898  0.69720  0.03498  1.0000
  S   S276      1.0  0.64154  0.69742  0.06957  1.0000
  Fe  Fe141     1.0  0.55927  0.68926  0.04373  1.0000
  S   S277      1.0  0.54373  0.71933  0.04921  1.0000
  Fe  Fe142     1.0  0.57886  0.65728  0.02224  1.0000
  C   C1250     1.0  0.96170  0.70455  0.07831  1.0000
  S   S278      1.0  0.56223  0.66797  0.06546  1.0000
  S   S279      1.0  0.58402  0.63551  0.04290  1.0000
  Fe  Fe143     1.0  0.59595  0.91415  0.06558  1.0000
  S   S280      1.0  0.60829  0.91069  0.04076  1.0000
  S   S281      1.0  0.62078  0.91582  0.08789  1.0000
  Fe  Fe144     1.0  0.53891  0.90093  0.05349  1.0000
  S   S282      1.0  0.54818  0.89554  0.02810  1.0000
  Fe  Fe145     1.0  0.56925  0.87348  0.03846  1.0000
  S   S283      1.0  0.57181  0.83712  0.02772  1.0000
  Fe  Fe146     1.0  0.58643  0.93284  0.03251  1.0000
  H   H2213     1.0  0.62614  0.84770  0.01580  1.0000
  S   S284      1.0  0.55745  0.87650  0.06345  1.0000
  S   S285      1.0  0.57664  0.93875  0.05773  1.0000
  H   H2214     1.0  0.71064  0.91856  0.10159  1.0000
  H   H2215     1.0  0.62984  0.88056  0.01949  1.0000
  H   H2216     1.0  0.54094  0.54512  0.00568  1.0000
  C   C1251     1.0  0.95985  0.69052  0.06234  1.0000
  S   S286      1.0  0.51194  0.58934  0.05766  1.0000
  C   C1252     1.0  0.67795  0.97767  0.17150  1.0000
  C   C1253     1.0  0.49988  0.93770  0.02262  1.0000
  C   C1254     1.0  0.55290  0.75256  0.04353  1.0000
  C   C1255     1.0  0.54096  0.76649  0.05096  1.0000
  C   C1256     1.0  0.54672  0.79238  0.04649  1.0000
  C   C1257     1.0  0.56440  0.80476  0.03438  1.0000
  C   C1258     1.0  0.57637  0.79083  0.02698  1.0000
  C   C1259     1.0  0.57088  0.76507  0.03159  1.0000
  H   H2217     1.0  0.52695  0.75712  0.06017  1.0000
  H   H2218     1.0  0.53714  0.80261  0.05224  1.0000
  H   H2219     1.0  0.58987  0.79995  0.01750  1.0000
  H   H2220     1.0  0.58015  0.75471  0.02565  1.0000
  C   C1260     1.0  0.48883  0.67650  0.02327  1.0000
  H   H2221     1.0  0.90482  0.69806  0.23793  1.0000
  H   H2222     1.0  0.96660  0.63976  0.01954  1.0000
  C   C1261     1.0  0.68048  0.69980  0.11859  1.0000
  C   C1262     1.0  0.69405  0.71774  0.10686  1.0000
  C   C1263     1.0  0.68181  0.71637  0.09194  1.0000
  C   C1264     1.0  0.65568  0.69734  0.08858  1.0000
  C   C1265     1.0  0.64200  0.67930  0.10030  1.0000
  C   C1266     1.0  0.65449  0.68034  0.11514  1.0000
  H   H2223     1.0  0.71402  0.73274  0.10926  1.0000
  H   H2224     1.0  0.69263  0.73034  0.08296  1.0000
  H   H2225     1.0  0.62195  0.66441  0.09788  1.0000
  H   H2226     1.0  0.64385  0.66612  0.12405  1.0000
  C   C1267     1.0  0.75969  0.75925  0.22370  1.0000
  C   C1268     1.0  0.74314  0.73199  0.22377  1.0000
  H   H2227     1.0  0.50748  0.65911  0.08663  1.0000
  H   H2228     1.0  0.73556  0.72108  0.21265  1.0000
  H   H2229     1.0  0.92247  0.63554  0.01271  1.0000
  C   C1269     1.0  0.78328  0.91365  0.15519  1.0000
  C   C1270     1.0  0.79419  0.89634  0.15725  1.0000
  C   C1271     1.0  0.77863  0.86896  0.15487  1.0000
  C   C1272     1.0  0.75211  0.85880  0.15030  1.0000
  C   C1273     1.0  0.74116  0.87610  0.14836  1.0000
  C   C1274     1.0  0.75668  0.90346  0.15082  1.0000
  H   H2230     1.0  0.81476  0.90412  0.16063  1.0000
  H   H2231     1.0  0.78724  0.85577  0.15635  1.0000
  H   H2232     1.0  0.72065  0.86833  0.14483  1.0000
  H   H2233     1.0  0.74816  0.91666  0.14912  1.0000
  C   C1275     1.0  0.69876  0.97576  0.11292  1.0000
  H   H2234     1.0  0.64261  0.96903  0.12541  1.0000
  C   C1276     1.0  0.66621  0.96439  0.09093  1.0000
  C   C1277     1.0  0.65113  0.93931  0.09701  1.0000
  C   C1278     1.0  0.66027  0.93244  0.11096  1.0000
  C   C1279     1.0  0.68398  0.95043  0.11881  1.0000
  H   H2235     1.0  0.83452  0.94976  0.10594  1.0000
  H   H2236     1.0  0.64881  0.91309  0.11578  1.0000
  S   S287      1.0  0.50257  0.90415  0.06270  1.0000
  C   C1280     1.0  0.98253  0.61920  0.05677  1.0000
  C   C1281     1.0  0.71587  0.89726  0.19570  1.0000
  C   C1282     1.0  0.88956  0.75793  0.15496  1.0000
  C   C1283     1.0  0.89687  0.77961  0.14514  1.0000
  C   C1284     1.0  0.87812  0.78776  0.14023  1.0000
  C   C1285     1.0  0.85195  0.77454  0.14518  1.0000
  C   C1286     1.0  0.84464  0.75289  0.15502  1.0000
  C   C1287     1.0  0.86334  0.74466  0.15987  1.0000
  H   H2237     1.0  0.91691  0.78999  0.14122  1.0000
  H   H2238     1.0  0.88397  0.80446  0.13255  1.0000
  H   H2239     1.0  0.82453  0.74238  0.15873  1.0000
  H   H2240     1.0  0.85743  0.72774  0.16737  1.0000
  H   H2241     1.0  0.83465  0.68219  0.10208  1.0000
  H   H2242     1.0  0.61376  0.97540  0.10652  1.0000
  H   H2243     1.0  0.69059  0.94483  0.12954  1.0000
  C   C1288     1.0  0.93982  0.64789  0.00557  1.0000
  N   N72       1.0  0.75598  0.68964  0.10789  1.0000
  C   C1289     1.0  0.75907  0.69273  0.12579  1.0000
  C   C1290     1.0  0.76393  0.71619  0.10052  1.0000
  C   C1291     1.0  0.72708  0.67217  0.10394  1.0000
  C   C1292     1.0  0.77110  0.67629  0.10100  1.0000
  C   C1293     1.0  0.80113  0.68985  0.10451  1.0000
  C   C1294     1.0  0.75119  0.66692  0.13499  1.0000
  C   C1295     1.0  0.71819  0.67099  0.08624  1.0000
  C   C1296     1.0  0.78752  0.74066  0.10836  1.0000
  C   C1297     1.0  0.79529  0.76507  0.09827  1.0000
  C   C1298     1.0  0.81301  0.67169  0.09984  1.0000
  C   C1299     1.0  0.75483  0.67251  0.15293  1.0000
  C   C1300     1.0  0.68913  0.65125  0.08373  1.0000
  H   H2244     1.0  0.74722  0.70224  0.13035  1.0000
  H   H2245     1.0  0.77961  0.70639  0.12961  1.0000
  H   H2246     1.0  0.76796  0.71529  0.08767  1.0000
  H   H2247     1.0  0.74735  0.72125  0.10099  1.0000
  H   H2248     1.0  0.71478  0.67860  0.11111  1.0000
  H   H2249     1.0  0.72109  0.65142  0.10728  1.0000
  H   H2250     1.0  0.76268  0.65549  0.10490  1.0000
  H   H2251     1.0  0.76875  0.67464  0.08783  1.0000
  H   H2252     1.0  0.80612  0.69532  0.11727  1.0000
  H   H2253     1.0  0.81085  0.70776  0.09730  1.0000
  H   H2254     1.0  0.73021  0.65265  0.13272  1.0000
  H   H2255     1.0  0.76359  0.65750  0.13159  1.0000
  H   H2256     1.0  0.72960  0.66481  0.07822  1.0000
  H   H2257     1.0  0.72053  0.69049  0.08247  1.0000
  H   H2258     1.0  0.78195  0.74512  0.12016  1.0000
  H   H2259     1.0  0.80512  0.73779  0.11028  1.0000
  H   H2260     1.0  0.77848  0.76953  0.09672  1.0000
  H   H2261     1.0  0.81178  0.78241  0.10431  1.0000
  H   H2262     1.0  0.80190  0.76201  0.08644  1.0000
  H   H2263     1.0  0.80914  0.66595  0.08701  1.0000
  H   H2264     1.0  0.80471  0.65362  0.10705  1.0000
  H   H2265     1.0  0.75012  0.65394  0.15920  1.0000
  H   H2266     1.0  0.77546  0.68706  0.15605  1.0000
  H   H2267     1.0  0.74130  0.68020  0.15712  1.0000
  H   H2268     1.0  0.68573  0.63089  0.08626  1.0000
  H   H2269     1.0  0.67675  0.65647  0.09158  1.0000
  H   H2270     1.0  0.68290  0.65164  0.07120  1.0000
  N   N73       1.0  0.66033  0.77047  0.11477  1.0000
  C   C1301     1.0  0.65011  0.74595  0.12458  1.0000
  C   C1302     1.0  0.64678  0.76404  0.09845  1.0000
  C   C1303     1.0  0.68932  0.77970  0.11252  1.0000
  C   C1304     1.0  0.65747  0.79266  0.12301  1.0000
  C   C1305     1.0  0.62959  0.78642  0.12839  1.0000
  C   C1306     1.0  0.66394  0.74872  0.14102  1.0000
  C   C1307     1.0  0.70368  0.80417  0.10205  1.0000
  C   C1308     1.0  0.61796  0.74155  0.09720  1.0000
  C   C1309     1.0  0.60542  0.74040  0.08083  1.0000
  C   C1310     1.0  0.62994  0.81018  0.13728  1.0000
  C   C1311     1.0  0.64849  0.72458  0.15108  1.0000
  C   C1312     1.0  0.73198  0.80950  0.09929  1.0000
  H   H2271     1.0  0.65184  0.72992  0.11782  1.0000
  H   H2272     1.0  0.62880  0.73803  0.12666  1.0000
  H   H2273     1.0  0.64720  0.78205  0.09328  1.0000
  H   H2274     1.0  0.65761  0.75753  0.08997  1.0000
  H   H2275     1.0  0.69239  0.76340  0.10730  1.0000
  H   H2276     1.0  0.70027  0.78494  0.12413  1.0000
  H   H2277     1.0  0.67122  0.80047  0.13354  1.0000
  H   H2278     1.0  0.66361  0.80977  0.11507  1.0000
  H   H2279     1.0  0.62165  0.76961  0.13655  1.0000
  H   H2280     1.0  0.61613  0.78202  0.11790  1.0000
  H   H2281     1.0  0.68374  0.75015  0.13941  1.0000
  H   H2282     1.0  0.66612  0.76640  0.14788  1.0000
  H   H2283     1.0  0.70466  0.82210  0.10804  1.0000
  H   H2284     1.0  0.69368  0.80136  0.09026  1.0000
  H   H2285     1.0  0.61765  0.72211  0.09889  1.0000
  H   H2286     1.0  0.60533  0.74387  0.10623  1.0000
  H   H2287     1.0  0.58515  0.72375  0.08021  1.0000
  H   H2288     1.0  0.60407  0.75886  0.07869  1.0000
  H   H2289     1.0  0.61690  0.73711  0.07131  1.0000
  H   H2290     1.0  0.64284  0.81531  0.14814  1.0000
  H   H2291     1.0  0.63709  0.82760  0.12953  1.0000
  H   H2292     1.0  0.60972  0.80535  0.14094  1.0000
  H   H2293     1.0  0.64570  0.70623  0.14470  1.0000
  H   H2294     1.0  0.65954  0.72644  0.16240  1.0000
  H   H2295     1.0  0.62898  0.72298  0.15394  1.0000
  H   H2296     1.0  0.73233  0.79236  0.09304  1.0000
  H   H2297     1.0  0.74199  0.82718  0.09190  1.0000
  H   H2298     1.0  0.74308  0.81337  0.11083  1.0000
  N   N74       1.0  0.84956  0.77848  0.21113  1.0000
  C   C1313     1.0  0.84526  0.79894  0.20221  1.0000
  C   C1314     1.0  0.83882  0.77663  0.22759  1.0000
  C   C1315     1.0  0.87871  0.78681  0.21177  1.0000
  C   C1316     1.0  0.83567  0.75169  0.20286  1.0000
  C   C1317     1.0  0.80556  0.74036  0.20011  1.0000
  C   C1318     1.0  0.85059  0.80034  0.18413  1.0000
  C   C1319     1.0  0.88782  0.77148  0.22327  1.0000
  H   H2299     1.0  0.64958  0.96601  0.15207  1.0000
  H   H2300     1.0  0.93764  0.66489  0.00089  1.0000
  C   C1320     1.0  0.79381  0.71304  0.19194  1.0000
  C   C1321     1.0  0.85477  0.82679  0.17759  1.0000
  C   C1322     1.0  0.91740  0.78087  0.22217  1.0000
  H   H2301     1.0  0.85788  0.81893  0.20757  1.0000
  H   H2302     1.0  0.82480  0.79596  0.20356  1.0000
  H   H2303     1.0  0.79203  0.87840  0.19239  1.0000
  C   C1323     1.0  0.64047  0.86850  0.01889  1.0000
  H   H2304     1.0  0.89024  0.80826  0.21488  1.0000
  H   H2305     1.0  0.88551  0.78452  0.19978  1.0000
  H   H2306     1.0  0.84449  0.75195  0.19113  1.0000
  H   H2307     1.0  0.83849  0.73677  0.20982  1.0000
  H   H2308     1.0  0.80091  0.75341  0.19254  1.0000
  H   H2309     1.0  0.79538  0.73792  0.21151  1.0000
  H   H2310     1.0  0.86821  0.79800  0.18131  1.0000
  H   H2311     1.0  0.83349  0.78443  0.17760  1.0000
  H   H2312     1.0  0.87768  0.75002  0.22034  1.0000
  C   C1324     1.0  0.97752  0.60730  0.99472  1.0000
  C   C1325     1.0  0.74619  0.91490  0.19587  1.0000
  C   C1326     1.0  0.66961  0.94846  0.17408  1.0000
  H   H2313     1.0  0.48929  0.62477  0.09163  1.0000
  H   H2314     1.0  0.94606  0.69395  0.05441  1.0000
  H   H2315     1.0  0.71012  0.87641  0.19229  1.0000
  H   H2316     1.0  0.80289  0.71402  0.18027  1.0000
  H   H2317     1.0  0.79689  0.69888  0.19951  1.0000
  H   H2318     1.0  0.77231  0.70556  0.18996  1.0000
  H   H2319     1.0  0.83810  0.83075  0.18056  1.0000
  H   H2320     1.0  0.87330  0.84311  0.18260  1.0000
  H   H2321     1.0  0.85623  0.82641  0.16444  1.0000
  H   H2322     1.0  0.72354  0.69778  0.23835  1.0000
  H   H2323     1.0  0.92233  0.77708  0.20998  1.0000
  S   S288      1.0  0.59896  0.97040  0.01771  1.0000
  C   C1327     1.0  0.85215  0.98709  0.11931  1.0000
  H   H2324     1.0  0.94765  0.66183  0.03695  1.0000
  C   C1328     1.0  0.75534  0.90543  0.22278  1.0000
  C   C1329     1.0  0.96522  0.65752  0.01558  1.0000
  C   C1330     1.0  0.77624  0.86769  0.20095  1.0000
  H   H2325     1.0  0.50890  0.95750  0.02861  1.0000
  C   C1331     1.0  0.83030  0.96871  0.20493  1.0000
  C   C1332     1.0  0.83731  0.95690  0.11854  1.0000
  S   S289      1.0  0.58168  0.64686  0.99609  1.0000
  N   N75       1.0  0.76219  0.90503  0.20556  1.0000
  H   H2326     1.0  0.94174  0.69760  0.08314  1.0000
  S   S290      1.0  0.72962  0.98149  0.20346  1.0000
  C   C1333     1.0  0.51203  0.58580  0.00194  1.0000
  C   C1334     1.0  0.68975  0.98250  0.09890  1.0000
  H   H2327     1.0  0.97667  0.64986  0.06810  1.0000
  C   C1335     1.0  0.73640  0.71884  0.23835  1.0000
  C   C1336     1.0  0.63945  0.98661  0.12754  1.0000
  H   H2328     1.0  0.74934  0.87479  0.18670  1.0000
  H   H2329     1.0  0.75694  0.92509  0.22625  1.0000
  H   H2330     1.0  0.79479  0.92328  0.18985  1.0000
  N   N76       1.0  0.64621  0.85845  0.06453  1.0000
  C   C1337     1.0  0.63514  0.86087  0.04860  1.0000
  C   C1338     1.0  0.62550  0.85104  0.07708  1.0000
  C   C1339     1.0  0.66839  0.88539  0.06913  1.0000
  C   C1340     1.0  0.65727  0.83902  0.06382  1.0000
  C   C1341     1.0  0.63858  0.81084  0.05723  1.0000
  C   C1342     1.0  0.65465  0.87011  0.03473  1.0000
  C   C1343     1.0  0.68016  0.88863  0.08629  1.0000
  C   C1344     1.0  0.59653  0.83262  0.07185  1.0000
  C   C1345     1.0  0.65336  0.79466  0.05465  1.0000
  H   H2331     1.0  0.87209  0.68336  0.22918  1.0000
  C   C1346     1.0  0.70345  0.91610  0.08902  1.0000
  H   H2332     1.0  0.62678  0.87493  0.04975  1.0000
  H   H2333     1.0  0.61824  0.84201  0.04463  1.0000
  H   H2334     1.0  0.63060  0.84217  0.08741  1.0000
  H   H2335     1.0  0.62499  0.86906  0.08197  1.0000
  H   H2336     1.0  0.66164  0.90081  0.06784  1.0000
  H   H2337     1.0  0.68509  0.89086  0.06098  1.0000
  H   H2338     1.0  0.67546  0.84704  0.05677  1.0000
  H   H2339     1.0  0.66371  0.83633  0.07588  1.0000
  H   H2340     1.0  0.62928  0.81101  0.04562  1.0000
  H   H2341     1.0  0.62310  0.80027  0.06588  1.0000
  H   H2342     1.0  0.74974  0.82626  0.20543  1.0000
  H   H2343     1.0  0.66473  0.85766  0.03343  1.0000
  H   H2344     1.0  0.68737  0.87399  0.08856  1.0000
  H   H2345     1.0  0.66530  0.88627  0.09527  1.0000
  H   H2346     1.0  0.58921  0.84330  0.06388  1.0000
  H   H2347     1.0  0.59427  0.81467  0.06539  1.0000
  H   H2348     1.0  0.63928  0.77430  0.05046  1.0000
  H   H2349     1.0  0.66840  0.80366  0.04544  1.0000
  H   H2350     1.0  0.66310  0.79334  0.06586  1.0000
  H   H2351     1.0  0.97236  0.75230  0.20618  1.0000
  C   C1347     1.0  0.54006  0.56411  0.00729  1.0000
  H   H2352     1.0  0.66962  0.89102  0.03672  1.0000
  H   H2353     1.0  0.71984  0.91880  0.08117  1.0000
  H   H2354     1.0  0.62313  0.98103  0.13594  1.0000
  C   C1348     1.0  0.77114  0.98965  0.22407  1.0000
  C   C1349     1.0  0.61964  0.62910  0.99726  1.0000
  H   H2355     1.0  0.70801  0.89776  0.20760  1.0000
  H   H2356     1.0  0.55797  0.81149  0.08197  1.0000
  H   H2357     1.0  0.69750  0.93172  0.08661  1.0000
  H   H2358     1.0  0.65953  0.97000  0.08023  1.0000
  C   C1350     1.0  0.76478  0.83823  0.19677  1.0000
  H   H2359     1.0  0.97317  0.80982  0.20692  1.0000
  H   H2360     1.0  0.81775  0.77208  0.22684  1.0000
  H   H2361     1.0  0.50946  0.63358  0.07449  1.0000
  H   H2362     1.0  0.96769  0.60367  0.06414  1.0000
  S   S291      1.0  0.97287  0.73315  0.15611  1.0000
  H   H2363     1.0  0.62205  0.63431  0.00983  1.0000
  H   H2364     1.0  0.83296  0.96905  0.19186  1.0000
  H   H2365     1.0  0.86048  0.98453  0.14433  1.0000
  C   C1351     1.0  0.70221  0.90716  0.18384  1.0000
  H   H2366     1.0  0.67903  0.94093  0.16532  1.0000
  C   C1352     1.0  0.66987  0.98208  0.15453  1.0000
  S   S292      1.0  0.98462  0.78807  0.17595  1.0000
  C   C1353     1.0  0.75489  0.87717  0.19964  1.0000
  H   H2367     1.0  0.97064  0.72630  0.07696  1.0000
  H   H2368     1.0  0.55976  0.58007  0.00405  1.0000
  C   C1354     1.0  0.97649  0.64255  0.05575  1.0000
  H   H2369     1.0  0.97841  0.54907  0.03339  1.0000
  H   H2370     1.0  0.96130  0.69075  0.02581  1.0000
  H   H2371     1.0  0.92859  0.80231  0.22521  1.0000
  H   H2372     1.0  0.75573  0.83379  0.18459  1.0000
  C   C1355     1.0  0.53850  0.56906  0.02535  1.0000
  H   H2373     1.0  0.78217  0.79420  0.23834  1.0000
  C   C1356     1.0  0.85239  0.80206  0.23828  1.0000
  H   H2374     1.0  0.55486  0.54357  0.03372  1.0000
  H   H2375     1.0  0.70825  0.90565  0.17154  1.0000
  H   H2376     1.0  0.69966  0.98848  0.17324  1.0000
  H   H2377     1.0  0.57959  0.84162  0.09264  1.0000
  H   H2378     1.0  0.58441  0.81245  0.09433  1.0000
  H   H2379     1.0  0.76562  0.87698  0.23399  1.0000
  H   H2380     1.0  0.81762  0.94979  0.12380  1.0000
  H   H2381     1.0  0.84847  0.94834  0.12505  1.0000
  H   H2382     1.0  0.70764  0.96717  0.23462  1.0000
  C   C1357     1.0  0.78211  0.98872  0.23899  1.0000
  H   H2383     1.0  0.73712  0.86260  0.20573  1.0000
  H   H2384     1.0  0.67585  0.94605  0.18625  1.0000
  H   H2385     1.0  0.78532  0.87112  0.21303  1.0000
  H   H2386     1.0  0.50819  0.93903  0.01063  1.0000
  H   H2387     1.0  0.95103  0.66912  0.06445  1.0000
  H   H2388     1.0  0.95644  0.63477  0.05042  1.0000
  C   C1358     1.0  0.97318  0.75138  0.23187  1.0000
  H   H2389     1.0  0.78072  0.83233  0.19719  1.0000
  H   H2390     1.0  0.66888  0.98453  0.18083  1.0000
  H   H2391     1.0  0.68056  0.89504  0.18442  1.0000
  H   H2392     1.0  0.70726  0.92802  0.18676  1.0000
  H   H2393     1.0  0.79955  0.95333  0.22181  1.0000
  C   C1359     1.0  0.61664  0.98411  0.00008  1.0000
  C   C1360     1.0  0.74421  0.98163  0.22232  1.0000
  H   H2394     1.0  0.50516  0.92459  0.02980  1.0000
  H   H2395     1.0  0.92366  0.77001  0.23064  1.0000
  C   C1361     1.0  0.79088  0.92319  0.20279  1.0000
  H   H2396     1.0  0.55774  0.56908  0.04774  1.0000
  S   S293      1.0  0.98152  0.78665  0.13696  1.0000
  H   H2397     1.0  0.84249  0.96064  0.21075  1.0000
  C   C1362     1.0  0.72849  0.97331  0.23580  1.0000
  H   H2398     1.0  0.53014  0.60521  0.00251  1.0000
  H   H2399     1.0  0.97020  0.83943  0.21104  1.0000
  C   C1363     1.0  0.49882  0.70031  0.01250  1.0000
  H   H2400     1.0  0.96349  0.59053  0.00108  1.0000
  C   C1364     1.0  0.48785  0.61299  0.99747  1.0000
  H   H2401     1.0  0.79047  0.96154  0.20291  1.0000
  H   H2402     1.0  0.68268  0.97847  0.14607  1.0000
  H   H2403     1.0  0.98175  0.66881  0.00765  1.0000
  H   H2404     1.0  0.54273  0.58988  0.02756  1.0000
  H   H2405     1.0  0.57901  0.57764  0.03096  1.0000
  H   H2406     1.0  0.80381  0.91606  0.20859  1.0000
  H   H2407     1.0  0.98465  0.83629  0.19281  1.0000
  C   C1365     1.0  0.55882  0.56450  0.03496  1.0000
  C   C1366     1.0  0.80133  0.95221  0.20873  1.0000
  N   N77       1.0  0.51893  0.56448  0.99641  1.0000
  H   H2408     1.0  0.88382  0.77448  0.23579  1.0000
  H   H2409     1.0  0.73437  0.89121  0.22457  1.0000
  C   C1367     1.0  0.96526  0.67454  0.03018  1.0000
  H   H2410     1.0  0.75267  0.91761  0.18331  1.0000
  H   H2411     1.0  0.74943  0.93468  0.20032  1.0000
  H   H2412     1.0  0.89292  0.71844  0.22799  1.0000
  H   H2413     1.0  0.62498  0.95201  0.99407  1.0000
  H   H2414     1.0  0.95402  0.75046  0.23292  1.0000
  H   H2415     1.0  0.97377  0.70009  0.08702  1.0000
  C   C1368     1.0  0.88726  0.70113  0.23566  1.0000
  C   C1369     1.0  0.98283  0.83160  0.20565  1.0000
  H   H2416     1.0  0.83903  0.75979  0.23397  1.0000
  H   H2417     1.0  0.84801  0.81769  0.23351  1.0000
  H   H2418     1.0  0.64952  0.61599  0.99744  1.0000
  C   C1370     1.0  0.77131  0.89836  0.23507  1.0000
  H   H2419     1.0  0.79278  0.91000  0.23357  1.0000
  H   H2420     1.0  0.51899  0.55639  0.03017  1.0000
  H   H2421     1.0  0.90078  0.99109  0.13083  1.0000
  H   H2422     1.0  0.87402  0.80987  0.23902  1.0000
  H   H2423     1.0  0.83712  0.98931  0.20942  1.0000
  H   H2424     1.0  0.98182  0.61060  0.04472  1.0000
  H   H2425     1.0  0.49091  0.51926  0.01814  1.0000
  H   H2426     1.0  0.51025  0.71897  0.01954  1.0000
  C   C1371     1.0  0.49502  0.53773  0.99508  1.0000
  C   C1372     1.0  0.98355  0.75239  0.21669  1.0000
  H   H2427     1.0  0.49504  0.65150  0.05039  1.0000
  H   H2428     1.0  0.49448  0.67605  0.06308  1.0000
  H   H2429     1.0  0.50655  0.63140  0.99606  1.0000
  H   H2430     1.0  0.51200  0.69859  0.00353  1.0000
  H   H2431     1.0  0.50621  0.67589  0.02869  1.0000
  C   C1373     1.0  0.49628  0.63864  0.08165  1.0000
  H   H2432     1.0  0.94035  0.63565  0.99529  1.0000
  H   H2433     1.0  0.65495  0.87608  0.00928  1.0000
  H   H2434     1.0  0.98577  0.55925  0.00495  1.0000
  H   H2435     1.0  0.63478  0.99253  0.16474  1.0000
  Fe  Fe147     1.0  0.75358  0.99239  0.18099  1.0000
  C   C1374     1.0  0.74615  0.73279  0.25292  1.0000
  H   H2436     1.0  0.74427  0.89238  0.25442  1.0000
  S   S294      1.0  0.95927  0.80448  0.32654  1.0000
  H   H2437     1.0  0.82063  0.78932  0.25521  1.0000
  H   H2438     1.0  0.93236  0.60463  0.46632  1.0000
  H   H2439     1.0  0.60393  0.61088  0.45429  1.0000
  Fe  Fe148     1.0  0.77383  0.95150  0.32750  1.0000
  S   S295      1.0  0.74032  0.94341  0.31043  1.0000
  S   S296      1.0  0.77659  0.91810  0.34027  1.0000
  H   H2440     1.0  0.70422  0.66905  0.37643  1.0000
  Fe  Fe149     1.0  0.80206  0.75147  0.31775  1.0000
  S   S297      1.0  0.76002  0.71900  0.31656  1.0000
  S   S298      1.0  0.83394  0.73873  0.32251  1.0000
  Fe  Fe150     1.0  0.78485  0.79320  0.30905  1.0000
  S   S299      1.0  0.74212  0.76405  0.30724  1.0000
  S   S300      1.0  0.79872  0.83504  0.30101  1.0000
  Fe  Fe151     1.0  0.74940  0.74725  0.32988  1.0000
  S   S301      1.0  0.72500  0.74207  0.35238  1.0000
  Fe  Fe152     1.0  0.75627  0.73849  0.29417  1.0000
  S   S302      1.0  0.73739  0.71585  0.27108  1.0000
  S   S303      1.0  0.79191  0.77873  0.33244  1.0000
  S   S304      1.0  0.79862  0.76866  0.29459  1.0000
  Fe  Fe153     1.0  0.60094  0.92279  0.41362  1.0000
  S   S305      1.0  0.60398  0.90629  0.43736  1.0000
  S   S306      1.0  0.64128  0.94042  0.40158  1.0000
  Fe  Fe154     1.0  0.54204  0.90747  0.41870  1.0000
  S   S307      1.0  0.54215  0.88934  0.44221  1.0000
  Fe  Fe155     1.0  0.58089  0.92572  0.44733  1.0000
  S   S308      1.0  0.58626  0.94407  0.47256  1.0000
  Fe  Fe156     1.0  0.56551  0.87119  0.43040  1.0000
  S   S309      1.0  0.56179  0.83075  0.43777  1.0000
  S   S310      1.0  0.58017  0.94471  0.42423  1.0000
  S   S311      1.0  0.56302  0.88679  0.40625  1.0000
  Fe  Fe157     1.0  0.58995  0.66072  0.43765  1.0000
  S   S312      1.0  0.57618  0.62591  0.42067  1.0000
  S   S313      1.0  0.61349  0.66560  0.46089  1.0000
  Fe  Fe158     1.0  0.56700  0.68992  0.41646  1.0000
  S   S314      1.0  0.55217  0.65627  0.39821  1.0000
  S   S315      1.0  0.55973  0.72483  0.40873  1.0000
  Fe  Fe159     1.0  0.53772  0.62813  0.41865  1.0000
  Fe  Fe160     1.0  0.59173  0.65709  0.40171  1.0000
  S   S316      1.0  0.61691  0.65518  0.38112  1.0000
  S   S317      1.0  0.55119  0.66199  0.43674  1.0000
  S   S318      1.0  0.60696  0.69168  0.41886  1.0000
  H   H2441     1.0  0.51285  0.55900  0.47169  1.0000
  C   C1375     1.0  0.49101  0.73107  0.43406  1.0000
  C   C1376     1.0  0.60833  0.97573  0.48080  1.0000
  H   H2442     1.0  0.59554  0.75860  0.31102  1.0000
  H   H2443     1.0  0.65489  0.62583  0.39630  1.0000
  H   H2444     1.0  0.85173  0.75227  0.28196  1.0000
  C   C1377     1.0  0.62264  0.64367  0.47096  1.0000
  C   C1378     1.0  0.61555  0.61803  0.46521  1.0000
  C   C1379     1.0  0.87640  0.70523  0.25137  1.0000
  C   C1380     1.0  0.67151  0.72424  0.43723  1.0000
  C   C1381     1.0  0.56276  0.80230  0.42920  1.0000
  C   C1382     1.0  0.56671  0.78488  0.43929  1.0000
  C   C1383     1.0  0.56661  0.76154  0.43325  1.0000
  C   C1384     1.0  0.56195  0.75491  0.41702  1.0000
  C   C1385     1.0  0.55798  0.77231  0.40692  1.0000
  C   C1386     1.0  0.55871  0.79598  0.41290  1.0000
  H   H2445     1.0  0.56985  0.78949  0.45192  1.0000
  H   H2446     1.0  0.56979  0.74855  0.44121  1.0000
  H   H2447     1.0  0.55408  0.76733  0.39436  1.0000
  H   H2448     1.0  0.55539  0.80894  0.40498  1.0000
  C   C1387     1.0  0.94227  0.80913  0.28195  1.0000
  H   H2449     1.0  0.91509  0.60614  0.44857  1.0000
  C   C1388     1.0  0.69390  0.62394  0.45752  1.0000
  C   C1389     1.0  0.69523  0.71727  0.36032  1.0000
  C   C1390     1.0  0.68179  0.69166  0.35371  1.0000
  C   C1391     1.0  0.65797  0.67302  0.36024  1.0000
  C   C1392     1.0  0.64720  0.67958  0.37349  1.0000
  C   C1393     1.0  0.66084  0.70510  0.38024  1.0000
  C   C1394     1.0  0.68464  0.72374  0.37371  1.0000
  H   H2450     1.0  0.68983  0.68611  0.34363  1.0000
  H   H2451     1.0  0.64779  0.65332  0.35496  1.0000
  H   H2452     1.0  0.65288  0.71060  0.39037  1.0000
  H   H2453     1.0  0.69481  0.74344  0.37898  1.0000
  H   H2454     1.0  0.85804  0.70656  0.24864  1.0000
  H   H2455     1.0  0.69974  0.69577  0.44065  1.0000
  C   C1395     1.0  0.49129  0.75422  0.42502  1.0000
  C   C1396     1.0  0.65257  0.64432  0.41878  1.0000
  H   H2456     1.0  0.77009  0.77106  0.26387  1.0000
  C   C1397     1.0  0.78067  0.89415  0.32881  1.0000
  C   C1398     1.0  0.77662  0.87039  0.33576  1.0000
  C   C1399     1.0  0.78093  0.85149  0.32709  1.0000
  C   C1400     1.0  0.78998  0.85663  0.31156  1.0000
  C   C1401     1.0  0.79403  0.88036  0.30464  1.0000
  C   C1402     1.0  0.78908  0.89894  0.31315  1.0000
  H   H2457     1.0  0.77020  0.86666  0.34789  1.0000
  H   H2458     1.0  0.77794  0.83332  0.33255  1.0000
  H   H2459     1.0  0.80114  0.88448  0.29265  1.0000
  H   H2460     1.0  0.79235  0.91724  0.30773  1.0000
  C   C1403     1.0  0.65513  0.94731  0.38227  1.0000
  C   C1404     1.0  0.64001  0.94356  0.36832  1.0000
  H   H2461     1.0  0.50282  0.53245  0.48555  1.0000
  H   H2462     1.0  0.84724  0.78226  0.26089  1.0000
  C   C1405     1.0  0.69437  0.96122  0.36601  1.0000
  C   C1406     1.0  0.68243  0.95645  0.38097  1.0000
  H   H2463     1.0  0.90873  0.68805  0.31012  1.0000
  H   H2464     1.0  0.85359  0.69960  0.27854  1.0000
  C   C1407     1.0  0.50418  0.69179  0.45748  1.0000
  H   H2465     1.0  0.69438  0.95939  0.39164  1.0000
  H   H2466     1.0  0.51220  0.67174  0.40958  1.0000
  H   H2467     1.0  0.94177  0.85864  0.34991  1.0000
  C   C1408     1.0  0.92444  0.78603  0.32552  1.0000
  C   C1409     1.0  0.90909  0.79924  0.32351  1.0000
  C   C1410     1.0  0.88137  0.78507  0.32251  1.0000
  C   C1411     1.0  0.86870  0.75764  0.32392  1.0000
  C   C1412     1.0  0.88404  0.74452  0.32627  1.0000
  C   C1413     1.0  0.91174  0.75858  0.32693  1.0000
  H   H2468     1.0  0.91876  0.82047  0.32246  1.0000
  H   H2469     1.0  0.86971  0.79519  0.32065  1.0000
  H   H2470     1.0  0.87444  0.72331  0.32750  1.0000
  H   H2471     1.0  0.92328  0.74822  0.32876  1.0000
  S   S319      1.0  0.80409  0.98324  0.31293  1.0000
  H   H2472     1.0  0.93359  0.69353  0.29557  1.0000
  H   H2473     1.0  0.96402  0.82040  0.28138  1.0000
  S   S320      1.0  0.50702  0.91250  0.40790  1.0000
  C   C1414     1.0  0.69688  0.67535  0.40911  1.0000
  H   H2474     1.0  0.53096  0.67672  0.46550  1.0000
  H   H2475     1.0  0.69526  0.63400  0.42618  1.0000
  H   H2476     1.0  0.94053  0.77561  0.26905  1.0000
  H   H2477     1.0  0.66539  0.67636  0.44325  1.0000
  H   H2478     1.0  0.63267  0.98956  0.46040  1.0000
  N   N78       1.0  0.86162  0.86311  0.34059  1.0000
  C   C1415     1.0  0.85608  0.84526  0.32607  1.0000
  C   C1416     1.0  0.84322  0.84761  0.35350  1.0000
  C   C1417     1.0  0.85512  0.88506  0.33615  1.0000
  C   C1418     1.0  0.89003  0.87515  0.34640  1.0000
  C   C1419     1.0  0.90488  0.85853  0.34359  1.0000
  C   C1420     1.0  0.86924  0.85927  0.31060  1.0000
  C   C1421     1.0  0.85525  0.90347  0.34998  1.0000
  C   C1422     1.0  0.84615  0.82375  0.35984  1.0000
  C   C1423     1.0  0.82480  0.80851  0.37171  1.0000
  C   C1424     1.0  0.86895  0.83963  0.29793  1.0000
  C   C1425     1.0  0.85445  0.92809  0.34370  1.0000
  H   H2479     1.0  0.83454  0.83447  0.32346  1.0000
  H   H2480     1.0  0.86157  0.82937  0.32821  1.0000
  H   H2481     1.0  0.84599  0.86043  0.36419  1.0000
  H   H2482     1.0  0.82239  0.84041  0.34930  1.0000
  H   H2483     1.0  0.83538  0.87675  0.33016  1.0000
  H   H2484     1.0  0.86913  0.89801  0.32728  1.0000
  H   H2485     1.0  0.90202  0.89434  0.34063  1.0000
  H   H2486     1.0  0.89149  0.88027  0.35934  1.0000
  H   H2487     1.0  0.90885  0.85785  0.33077  1.0000
  H   H2488     1.0  0.89361  0.83787  0.34733  1.0000
  H   H2489     1.0  0.85826  0.86931  0.30554  1.0000
  H   H2490     1.0  0.88988  0.87445  0.31293  1.0000
  H   H2491     1.0  0.87306  0.90992  0.35778  1.0000
  H   H2492     1.0  0.83750  0.89305  0.35722  1.0000
  H   H2493     1.0  0.84462  0.80965  0.35016  1.0000
  H   H2494     1.0  0.86532  0.83074  0.36629  1.0000
  H   H2495     1.0  0.82706  0.79127  0.37587  1.0000
  H   H2496     1.0  0.82643  0.82132  0.38220  1.0000
  H   H2497     1.0  0.80489  0.80106  0.36609  1.0000
  H   H2498     1.0  0.84851  0.82394  0.29547  1.0000
  H   H2499     1.0  0.87684  0.85008  0.28673  1.0000
  H   H2500     1.0  0.88140  0.83048  0.30185  1.0000
  H   H2501     1.0  0.85316  0.94021  0.35379  1.0000
  H   H2502     1.0  0.87246  0.94031  0.33705  1.0000
  H   H2503     1.0  0.83692  0.92245  0.33573  1.0000
  N   N79       1.0  0.64327  0.86370  0.38782  1.0000
  C   C1426     1.0  0.61913  0.86751  0.38501  1.0000
  C   C1427     1.0  0.65079  0.86716  0.40540  1.0000
  C   C1428     1.0  0.66563  0.88510  0.37913  1.0000
  C   C1429     1.0  0.63963  0.83737  0.38136  1.0000
  C   C1430     1.0  0.61598  0.81247  0.38747  1.0000
  C   C1431     1.0  0.60982  0.86627  0.36746  1.0000
  C   C1432     1.0  0.69301  0.88594  0.38126  1.0000
  C   C1433     1.0  0.62816  0.85847  0.41741  1.0000
  C   C1434     1.0  0.63823  0.85935  0.43445  1.0000
  C   C1435     1.0  0.61342  0.78750  0.37887  1.0000
  C   C1436     1.0  0.58401  0.86801  0.36650  1.0000
  C   C1437     1.0  0.71445  0.91029  0.37358  1.0000
  H   H2504     1.0  0.62267  0.88704  0.39014  1.0000
  H   H2505     1.0  0.60204  0.85278  0.39143  1.0000
  H   H2506     1.0  0.66266  0.85682  0.40832  1.0000
  H   H2507     1.0  0.66374  0.88845  0.40855  1.0000
  H   H2508     1.0  0.66770  0.90475  0.38290  1.0000
  H   H2509     1.0  0.66154  0.88325  0.36609  1.0000
  H   H2510     1.0  0.63829  0.83674  0.36813  1.0000
  H   H2511     1.0  0.65726  0.83476  0.38432  1.0000
  H   H2512     1.0  0.59721  0.81328  0.38549  1.0000
  H   H2513     1.0  0.61889  0.81019  0.40030  1.0000
  H   H2514     1.0  0.62439  0.88316  0.36080  1.0000
  H   H2515     1.0  0.60650  0.84752  0.36142  1.0000
  H   H2516     1.0  0.69296  0.86833  0.37542  1.0000
  H   H2517     1.0  0.69870  0.88659  0.39399  1.0000
  H   H2518     1.0  0.61920  0.87205  0.41701  1.0000
  H   H2519     1.0  0.61240  0.83827  0.41478  1.0000
  H   H2520     1.0  0.65350  0.87963  0.43786  1.0000
  H   H2521     1.0  0.62168  0.85364  0.44272  1.0000
  H   H2522     1.0  0.64648  0.84525  0.43572  1.0000
  H   H2523     1.0  0.59688  0.76981  0.38381  1.0000
  H   H2524     1.0  0.60937  0.78797  0.36596  1.0000
  H   H2525     1.0  0.63166  0.78548  0.38058  1.0000
  H   H2526     1.0  0.58658  0.88686  0.37210  1.0000
  H   H2527     1.0  0.57786  0.86742  0.35385  1.0000
  H   H2528     1.0  0.56819  0.85120  0.37260  1.0000
  H   H2529     1.0  0.73345  0.90950  0.37422  1.0000
  H   H2530     1.0  0.70944  0.91115  0.36084  1.0000
  H   H2531     1.0  0.68314  0.61432  0.46835  1.0000
  H   H2532     1.0  0.60254  0.72994  0.36439  1.0000
  C   C1438     1.0  0.81767  0.71575  0.27622  1.0000
  H   H2533     1.0  0.55145  0.55966  0.48538  1.0000
  H   H2534     1.0  0.85150  0.81553  0.26247  1.0000
  H   H2535     1.0  0.51091  0.73804  0.43956  1.0000
  C   C1439     1.0  0.67543  0.70588  0.42535  1.0000
  H   H2536     1.0  0.71348  0.69510  0.41239  1.0000
  C   C1440     1.0  0.49288  0.66710  0.40395  1.0000
  H   H2537     1.0  0.92861  0.87057  0.36559  1.0000
  H   H2538     1.0  0.50304  0.71048  0.45900  1.0000
  H   H2539     1.0  0.50448  0.75902  0.41475  1.0000
  H   H2540     1.0  0.94083  0.63551  0.42642  1.0000
  H   H2541     1.0  0.94867  0.68148  0.41724  1.0000
  C   C1441     1.0  0.50221  0.52714  0.43633  1.0000
  H   H2542     1.0  0.97718  0.56202  0.43040  1.0000
  C   C1442     1.0  0.76650  0.98045  0.25248  1.0000
  H   H2543     1.0  0.91662  0.73259  0.25872  1.0000
  H   H2544     1.0  0.58266  0.73874  0.29305  1.0000
  C   C1443     1.0  0.89660  0.73082  0.26033  1.0000
  H   H2545     1.0  0.90264  0.68825  0.27377  1.0000
  H   H2546     1.0  0.65898  0.61988  0.44550  1.0000
  C   C1444     1.0  0.86362  0.72084  0.28203  1.0000
  C   C1445     1.0  0.63786  0.65254  0.48517  1.0000
  H   H2547     1.0  0.51267  0.54831  0.44018  1.0000
  H   H2548     1.0  0.90508  0.72674  0.30070  1.0000
  H   H2549     1.0  0.97461  0.59411  0.46904  1.0000
  C   C1446     1.0  0.63893  0.61056  0.48779  1.0000
  H   H2550     1.0  0.89667  0.74741  0.25356  1.0000
  H   H2551     1.0  0.89882  0.76562  0.29451  1.0000
  H   H2552     1.0  0.71706  0.92859  0.37993  1.0000
  N   N80       1.0  0.65801  0.74380  0.32006  1.0000
  C   C1447     1.0  0.64430  0.75717  0.31143  1.0000
  C   C1448     1.0  0.68512  0.76469  0.32533  1.0000
  C   C1449     1.0  0.66176  0.72565  0.30818  1.0000
  C   C1450     1.0  0.64279  0.72793  0.33396  1.0000
  C   C1451     1.0  0.62590  0.73830  0.34315  1.0000
  C   C1452     1.0  0.61772  0.73839  0.30293  1.0000
  C   C1453     1.0  0.67413  0.70846  0.31477  1.0000
  C   C1454     1.0  0.68674  0.78522  0.33813  1.0000
  C   C1455     1.0  0.71513  0.80671  0.34079  1.0000
  C   C1456     1.0  0.61674  0.72425  0.35886  1.0000
  H   H2553     1.0  0.68464  0.67902  0.40002  1.0000
  C   C1457     1.0  0.67757  0.69182  0.30146  1.0000
  H   H2554     1.0  0.65725  0.77024  0.30214  1.0000
  H   H2555     1.0  0.64092  0.77073  0.31955  1.0000
  H   H2556     1.0  0.69671  0.75559  0.33052  1.0000
  H   H2557     1.0  0.69625  0.77563  0.31484  1.0000
  H   H2558     1.0  0.67388  0.73723  0.29815  1.0000
  H   H2559     1.0  0.64258  0.71109  0.30278  1.0000
  H   H2560     1.0  0.62878  0.70736  0.32998  1.0000
  H   H2561     1.0  0.65646  0.72566  0.34264  1.0000
  H   H2562     1.0  0.60806  0.73460  0.33598  1.0000
  H   H2563     1.0  0.63658  0.75975  0.34591  1.0000
  H   H2564     1.0  0.92790  0.73224  0.28544  1.0000
  H   H2565     1.0  0.66796  0.73913  0.43072  1.0000
  H   H2566     1.0  0.66123  0.69469  0.32369  1.0000
  H   H2567     1.0  0.69380  0.72041  0.32037  1.0000
  H   H2568     1.0  0.67489  0.79520  0.33469  1.0000
  H   H2569     1.0  0.68005  0.77542  0.34967  1.0000
  H   H2570     1.0  0.71603  0.82096  0.35023  1.0000
  H   H2571     1.0  0.72800  0.79791  0.34456  1.0000
  H   H2572     1.0  0.72276  0.81772  0.32970  1.0000
  C   C1458     1.0  0.60101  0.75241  0.29967  1.0000
  H   H2573     1.0  0.60694  0.70243  0.35698  1.0000
  H   H2574     1.0  0.63375  0.73011  0.36726  1.0000
  H   H2575     1.0  0.64174  0.94707  0.47568  1.0000
  H   H2576     1.0  0.50007  0.64913  0.38289  1.0000
  H   H2577     1.0  0.64373  0.65472  0.41179  1.0000
  H   H2578     1.0  0.68669  0.67996  0.30643  1.0000
  H   H2579     1.0  0.65827  0.67810  0.29581  1.0000
  H   H2580     1.0  0.69071  0.70473  0.29227  1.0000
  C   C1459     1.0  0.93389  0.77954  0.28063  1.0000
  H   H2581     1.0  0.94436  0.77501  0.29038  1.0000
  H   H2582     1.0  0.69569  0.60870  0.45000  1.0000
  H   H2583     1.0  0.73435  0.69375  0.38588  1.0000
  H   H2584     1.0  0.53190  0.70350  0.47755  1.0000
  H   H2585     1.0  0.87634  0.68063  0.28766  1.0000
  N   N81       1.0  0.68075  0.66298  0.42357  1.0000
  S   S321      1.0  0.49480  0.59655  0.42371  1.0000
  H   H2586     1.0  0.65831  0.60916  0.41367  1.0000
  Fe  Fe161     1.0  0.73521  0.97406  0.32525  1.0000
  C   C1460     1.0  0.65213  0.94911  0.35337  1.0000
  H   H2587     1.0  0.96798  0.70471  0.39200  1.0000
  C   C1461     1.0  0.95793  0.62725  0.44754  1.0000
  H   H2588     1.0  0.62148  0.73152  0.29126  1.0000
  C   C1462     1.0  0.64805  0.61973  0.40853  1.0000
  C   C1463     1.0  0.53016  0.69579  0.46514  1.0000
  H   H2589     1.0  0.95905  0.60953  0.44286  1.0000
  C   C1464     1.0  0.84720  0.73379  0.27507  1.0000
  H   H2590     1.0  0.66139  0.93057  0.47192  1.0000
  C   C1465     1.0  0.68059  0.68480  0.43400  1.0000
  H   H2591     1.0  0.81165  0.69716  0.26914  1.0000
  C   C1466     1.0  0.76269  0.76001  0.25278  1.0000
  H   H2592     1.0  0.52036  0.69600  0.43387  1.0000
  H   H2593     1.0  0.53895  0.98415  0.45360  1.0000
  H   H2594     1.0  0.96208  0.61864  0.41029  1.0000
  S   S322      1.0  0.97285  0.74540  0.31090  1.0000
  H   H2595     1.0  0.54713  0.71022  0.45847  1.0000
  H   H2596     1.0  0.71381  0.63943  0.46131  1.0000
  C   C1467     1.0  0.76557  0.90386  0.25204  1.0000
  C   C1468     1.0  0.90369  0.76287  0.28210  1.0000
  H   H2597     1.0  0.69736  0.63924  0.39892  1.0000
  C   C1469     1.0  0.71052  0.66057  0.40083  1.0000
  H   H2598     1.0  0.80655  0.72590  0.27155  1.0000
  H   H2599     1.0  0.96945  0.66277  0.40098  1.0000
  H   H2600     1.0  0.67697  0.65038  0.45683  1.0000
  H   H2601     1.0  0.98132  0.59754  0.39077  1.0000
  H   H2602     1.0  0.81234  0.71091  0.28883  1.0000
  C   C1470     1.0  0.72084  0.67222  0.38466  1.0000
  C   C1471     1.0  0.61890  0.59991  0.40701  1.0000
  H   H2603     1.0  0.50253  0.71378  0.41532  1.0000
  C   C1472     1.0  0.67938  0.95790  0.35208  1.0000
  H   H2604     1.0  0.65783  0.69649  0.41741  1.0000
  H   H2605     1.0  0.61906  0.93675  0.36906  1.0000
  S   S323      1.0  0.76748  0.98061  0.34281  1.0000
  H   H2606     1.0  0.85174  0.73880  0.26244  1.0000
  H   H2607     1.0  0.64030  0.94664  0.34272  1.0000
  H   H2608     1.0  0.94396  0.89112  0.34879  1.0000
  H   H2609     1.0  0.65421  0.71289  0.44465  1.0000
  C   C1473     1.0  0.93141  0.87057  0.35255  1.0000
  H   H2610     1.0  0.93064  0.63459  0.46208  1.0000
  H   H2611     1.0  0.72761  0.66267  0.40830  1.0000
  H   H2612     1.0  0.96647  0.72651  0.40728  1.0000
  N   N82       1.0  0.98294  0.65565  0.42378  1.0000
  H   H2613     1.0  0.60783  0.60877  0.40073  1.0000
  H   H2614     1.0  0.60608  0.72068  0.30999  1.0000
  H   H2615     1.0  0.93340  0.81522  0.27204  1.0000
  H   H2616     1.0  0.68923  0.73475  0.44511  1.0000
  S   S324      1.0  0.69395  0.96605  0.33302  1.0000
  H   H2617     1.0  0.69228  0.71849  0.41795  1.0000
  H   H2618     1.0  0.71385  0.66410  0.43679  1.0000
  H   H2619     1.0  0.87092  0.68728  0.25834  1.0000
  H   H2620     1.0  0.93628  0.81414  0.29348  1.0000
  H   H2621     1.0  0.90487  0.66192  0.29630  1.0000
  H   H2622     1.0  0.64017  0.63763  0.42946  1.0000
  H   H2623     1.0  0.71522  0.96769  0.36524  1.0000
  C   C1474     1.0  0.50170  0.68271  0.43971  1.0000
  H   H2624     1.0  0.48848  0.55551  0.39943  1.0000
  H   H2625     1.0  0.61193  0.77005  0.29237  1.0000
  H   H2626     1.0  0.73173  0.66234  0.37933  1.0000
  C   C1475     1.0  0.90656  0.72252  0.28791  1.0000
  N   N83       1.0  0.89230  0.73376  0.27779  1.0000
  C   C1476     1.0  0.62379  0.60169  0.47353  1.0000
  H   H2627     1.0  0.61849  0.58205  0.46886  1.0000
  C   C1477     1.0  0.84229  0.79687  0.25522  1.0000
  H   H2628     1.0  0.61646  0.58227  0.39993  1.0000
  C   C1478     1.0  0.69330  0.64952  0.43326  1.0000
  H   H2629     1.0  0.61052  0.59341  0.41891  1.0000
  C   C1479     1.0  0.91213  0.68358  0.29772  1.0000
  H   H2630     1.0  0.51577  0.51835  0.43795  1.0000
  H   H2631     1.0  0.77673  0.89809  0.26070  1.0000
  H   H2632     1.0  0.77170  0.92526  0.25399  1.0000
  H   H2633     1.0  0.86176  0.72110  0.29521  1.0000
  H   H2634     1.0  0.72732  0.96632  0.26113  1.0000
  C   C1480     1.0  0.67888  0.63607  0.44854  1.0000
  C   C1481     1.0  0.95903  0.64588  0.43403  1.0000
  C   C1482     1.0  0.89769  0.69259  0.28580  1.0000
  H   H2635     1.0  0.64363  0.67237  0.48970  1.0000
  Fe  Fe162     1.0  0.76992  0.97751  0.29667  1.0000
  H   H2636     1.0  0.89459  0.77235  0.27446  1.0000
  C   C1483     1.0  0.93239  0.61763  0.45661  1.0000
  S   S325      1.0  0.97264  0.74862  0.26439  1.0000
  H   H2637     1.0  0.95724  0.66246  0.43994  1.0000
  C   C1484     1.0  0.53965  0.56733  0.49195  1.0000
  H   H2638     1.0  0.49863  0.77201  0.43304  1.0000
  H   H2639     1.0  0.49936  0.56174  0.49040  1.0000
  H   H2640     1.0  0.59507  0.53391  0.48920  1.0000
  C   C1485     1.0  0.98229  0.63183  0.41512  1.0000
  H   H2641     1.0  0.97435  0.63788  0.45630  1.0000
  H   H2642     1.0  0.49497  0.68410  0.39681  1.0000
  H   H2643     1.0  0.54789  0.58882  0.49000  1.0000
  S   S326      1.0  0.78163  0.97871  0.27071  1.0000
  H   H2644     1.0  0.49682  0.52606  0.42351  1.0000
  H   H2645     1.0  0.50141  0.66305  0.43982  1.0000
  C   C1486     1.0  0.97038  0.69301  0.41634  1.0000
  C   C1487     1.0  0.51190  0.55425  0.48450  1.0000
  C   C1488     1.0  0.73960  0.97287  0.25086  1.0000
  C   C1489     1.0  0.97593  0.71405  0.40390  1.0000
  H   H2646     1.0  0.63818  0.91973  0.48773  1.0000
  H   H2647     1.0  0.56690  0.98010  0.46044  1.0000
  H   H2648     1.0  0.97832  0.70328  0.42792  1.0000
  C   C1490     1.0  0.98198  0.67424  0.41144  1.0000
  C   C1491     1.0  0.65247  0.93732  0.48142  1.0000
  H   H2649     1.0  0.68757  0.97343  0.48580  1.0000
  H   H2650     1.0  0.48820  0.67665  0.46441  1.0000
  Fe  Fe163     1.0  0.98665  0.78769  0.31855  1.0000
  Fe  Fe164     1.0  0.64025  0.55241  0.55146  1.0000
  S   S327      1.0  0.66274  0.54942  0.53049  1.0000
  Fe  Fe165     1.0  0.67940  0.61247  0.55723  1.0000
  S   S328      1.0  0.70237  0.61260  0.53567  1.0000
  S   S329      1.0  0.69553  0.65355  0.56964  1.0000
  Fe  Fe166     1.0  0.66318  0.58784  0.52320  1.0000
  H   H2651     1.0  0.62706  0.98084  0.69944  1.0000
  Fe  Fe167     1.0  0.70029  0.57485  0.54487  1.0000
  S   S330      1.0  0.73854  0.57334  0.55263  1.0000
  S   S331      1.0  0.64023  0.59022  0.54404  1.0000
  S   S332      1.0  0.67750  0.57506  0.56652  1.0000
  Fe  Fe168     1.0  0.87403  0.56496  0.53397  1.0000
  S   S333      1.0  0.88406  0.55831  0.55874  1.0000
  S   S334      1.0  0.83258  0.55495  0.52442  1.0000
  Fe  Fe169     1.0  0.93157  0.58453  0.52356  1.0000
  S   S335      1.0  0.94520  0.58002  0.54826  1.0000
  C   C1492     1.0  0.97787  0.60645  0.62274  1.0000
  Fe  Fe170     1.0  0.90852  0.54059  0.54809  1.0000
  Fe  Fe171     1.0  0.91979  0.59813  0.55717  1.0000
  S   S336      1.0  0.92227  0.62377  0.57923  1.0000
  S   S337      1.0  0.89586  0.54435  0.52330  1.0000
  S   S338      1.0  0.90862  0.60534  0.53250  1.0000
  H   H2652     1.0  0.66823  0.98303  0.68878  1.0000
  H   H2653     1.0  0.60863  0.96642  0.55238  1.0000
  S   S339      1.0  0.96225  0.81079  0.62765  1.0000
  S   S340      1.0  0.96375  0.74875  0.64766  1.0000
  H   H2654     1.0  0.96046  0.55698  0.63705  1.0000
  S   S341      1.0  0.64957  0.58934  0.49742  1.0000
  S   S342      1.0  0.80906  0.95879  0.66560  1.0000
  H   H2655     1.0  0.71930  0.91396  0.68499  1.0000
  C   C1493     1.0  0.97053  0.59838  0.59342  1.0000
  Fe  Fe172     1.0  0.77143  0.80572  0.65317  1.0000
  S   S343      1.0  0.75189  0.76933  0.66802  1.0000
  S   S344      1.0  0.75512  0.83489  0.64825  1.0000
  Fe  Fe173     1.0  0.81729  0.79423  0.64555  1.0000
  S   S345      1.0  0.80210  0.75779  0.66004  1.0000
  S   S346      1.0  0.85247  0.81246  0.62975  1.0000
  Fe  Fe174     1.0  0.76254  0.74806  0.64852  1.0000
  S   S347      1.0  0.73627  0.70517  0.63962  1.0000
  Fe  Fe175     1.0  0.79255  0.78147  0.67828  1.0000
  S   S348      1.0  0.80765  0.79008  0.70413  1.0000
  S   S349      1.0  0.77854  0.78336  0.63301  1.0000
  S   S350      1.0  0.81116  0.81886  0.66443  1.0000
  C   C1494     1.0  0.79103  0.77531  0.72162  1.0000
  C   C1495     1.0  0.76722  0.75200  0.72127  1.0000
  H   H2656     1.0  0.74264  0.79300  0.73266  1.0000
  H   H2657     1.0  0.75797  0.74278  0.70997  1.0000
  C   C1496     1.0  0.98527  0.61090  0.49281  1.0000
  C   C1497     1.0  0.79287  0.92416  0.66122  1.0000
  C   C1498     1.0  0.80365  0.90838  0.66742  1.0000
  C   C1499     1.0  0.79205  0.88099  0.66383  1.0000
  C   C1500     1.0  0.76976  0.86910  0.65375  1.0000
  C   C1501     1.0  0.75881  0.88482  0.64771  1.0000
  C   C1502     1.0  0.77022  0.91217  0.65144  1.0000
  H   H2658     1.0  0.82128  0.91747  0.67486  1.0000
  H   H2659     1.0  0.80034  0.86903  0.66877  1.0000
  H   H2660     1.0  0.74148  0.87581  0.63998  1.0000
  H   H2661     1.0  0.76170  0.92400  0.64654  1.0000
  C   C1503     1.0  0.88491  0.56107  0.60285  1.0000
  H   H2662     1.0  0.96574  0.73857  0.58900  1.0000
  N   N84       1.0  0.96081  0.58770  0.60963  1.0000
  C   C1504     1.0  0.93160  0.81062  0.62985  1.0000
  C   C1505     1.0  0.92523  0.82512  0.61894  1.0000
  C   C1506     1.0  0.90093  0.82518  0.61929  1.0000
  C   C1507     1.0  0.88254  0.81097  0.63064  1.0000
  C   C1508     1.0  0.88867  0.79636  0.64174  1.0000
  C   C1509     1.0  0.91331  0.79617  0.64134  1.0000
  H   H2663     1.0  0.93913  0.83621  0.61000  1.0000
  H   H2664     1.0  0.89621  0.83614  0.61055  1.0000
  H   H2665     1.0  0.87451  0.78529  0.65057  1.0000
  H   H2666     1.0  0.91813  0.78495  0.64984  1.0000
  H   H2667     1.0  0.88526  0.58031  0.60040  1.0000
  C   C1510     1.0  0.70524  0.98004  0.72433  1.0000
  C   C1511     1.0  0.94578  0.65271  0.58968  1.0000
  C   C1512     1.0  0.93798  0.66142  0.60342  1.0000
  C   C1513     1.0  0.95596  0.68387  0.61239  1.0000
  H   H2668     1.0  0.78781  0.50199  0.52590  1.0000
  H   H2669     1.0  0.72543  0.82375  0.73943  1.0000
  C   C1514     1.0  0.97178  0.66693  0.58491  1.0000
  H   H2670     1.0  0.76528  0.81164  0.70806  1.0000
  C   C1515     1.0  0.94925  0.54596  0.62619  1.0000
  H   H2671     1.0  0.60283  0.57236  0.51788  1.0000
  H   H2672     1.0  0.72531  0.62288  0.58603  1.0000
  C   C1516     1.0  0.70719  0.66722  0.58921  1.0000
  C   C1517     1.0  0.70075  0.65178  0.60276  1.0000
  C   C1518     1.0  0.70995  0.66371  0.61800  1.0000
  C   C1519     1.0  0.72570  0.69124  0.61999  1.0000
  C   C1520     1.0  0.73247  0.70664  0.60641  1.0000
  C   C1521     1.0  0.72316  0.69471  0.59118  1.0000
  H   H2673     1.0  0.68825  0.63069  0.60154  1.0000
  H   H2674     1.0  0.70448  0.65155  0.62838  1.0000
  H   H2675     1.0  0.74449  0.72780  0.60768  1.0000
  H   H2676     1.0  0.72817  0.70695  0.58085  1.0000
  C   C1522     1.0  0.76497  0.56928  0.54420  1.0000
  C   C1523     1.0  0.76473  0.56162  0.52828  1.0000
  C   C1524     1.0  0.78573  0.55774  0.52242  1.0000
  C   C1525     1.0  0.80751  0.56186  0.53227  1.0000
  C   C1526     1.0  0.80795  0.56990  0.54814  1.0000
  C   C1527     1.0  0.78671  0.57329  0.55407  1.0000
  H   H2677     1.0  0.74819  0.55831  0.52053  1.0000
  H   H2678     1.0  0.78504  0.55139  0.51016  1.0000
  H   H2679     1.0  0.82434  0.57291  0.55594  1.0000
  H   H2680     1.0  0.78698  0.57879  0.56645  1.0000
  C   C1528     1.0  0.79731  0.91416  0.71179  1.0000
  H   H2681     1.0  0.61387  0.65511  0.51473  1.0000
  C   C1529     1.0  0.53836  0.53918  0.54052  1.0000
  N   N85       1.0  0.78971  0.95259  0.72353  1.0000
  H   H2682     1.0  0.58516  0.50471  0.50084  1.0000
  C   C1530     1.0  0.57774  0.60251  0.51751  1.0000
  C   C1531     1.0  0.58364  0.56360  0.51129  1.0000
  H   H2683     1.0  0.68715  0.98413  0.66598  1.0000
  C   C1532     1.0  0.60358  0.61868  0.52742  1.0000
  H   H2684     1.0  0.71697  0.95127  0.54884  1.0000
  C   C1533     1.0  0.61187  0.64825  0.52714  1.0000
  H   H2685     1.0  0.58292  0.60858  0.50502  1.0000
  Fe  Fe176     1.0  0.98536  0.76235  0.67147  1.0000
  H   H2686     1.0  0.96960  0.59897  0.63454  1.0000
  H   H2687     1.0  0.81280  0.51044  0.55006  1.0000
  H   H2688     1.0  0.61975  0.61568  0.52236  1.0000
  C   C1534     1.0  0.96161  0.56176  0.61108  1.0000
  H   H2689     1.0  0.96212  0.63512  0.62411  1.0000
  H   H2690     1.0  0.96614  0.61495  0.59071  1.0000
  H   H2691     1.0  0.93793  0.50711  0.61525  1.0000
  H   H2692     1.0  0.59721  0.65267  0.53319  1.0000
  H   H2693     1.0  0.63119  0.65939  0.53349  1.0000
  H   H2694     1.0  0.78756  0.95905  0.69835  1.0000
  N   N86       1.0  0.78225  0.65509  0.58933  1.0000
  C   C1535     1.0  0.80998  0.65948  0.58632  1.0000
  C   C1536     1.0  0.78274  0.66975  0.60462  1.0000
  C   C1537     1.0  0.77237  0.66611  0.57616  1.0000
  C   C1538     1.0  0.77016  0.65390  0.55933  1.0000
  C   C1539     1.0  0.80306  0.69958  0.60573  1.0000
  C   C1540     1.0  0.81311  0.63687  0.57754  1.0000
  C   C1541     1.0  0.84157  0.64575  0.57292  1.0000
  C   C1542     1.0  0.76090  0.66764  0.54715  1.0000
  C   C1543     1.0  0.80406  0.71129  0.62236  1.0000
  H   H2695     1.0  0.82098  0.67802  0.57972  1.0000
  H   H2696     1.0  0.82109  0.66239  0.59782  1.0000
  H   H2697     1.0  0.78640  0.65987  0.61500  1.0000
  H   H2698     1.0  0.76332  0.66922  0.60651  1.0000
  H   H2699     1.0  0.75284  0.66457  0.57903  1.0000
  H   H2700     1.0  0.78552  0.68759  0.57510  1.0000
  H   H2701     1.0  0.78963  0.65680  0.55543  1.0000
  H   H2702     1.0  0.79752  0.71103  0.59728  1.0000
  H   H2703     1.0  0.82323  0.70294  0.60316  1.0000
  H   H2704     1.0  0.80059  0.62951  0.56660  1.0000
  H   H2705     1.0  0.84304  0.62913  0.56672  1.0000
  H   H2706     1.0  0.75913  0.65835  0.53519  1.0000
  H   H2707     1.0  0.74140  0.66580  0.55027  1.0000
  H   H2708     1.0  0.77517  0.68892  0.54661  1.0000
  H   H2709     1.0  0.78446  0.70927  0.62541  1.0000
  H   H2710     1.0  0.81032  0.70126  0.63142  1.0000
  H   H2711     1.0  0.81830  0.73268  0.62277  1.0000
  H   H2712     1.0  0.76800  0.51463  0.54919  1.0000
  C   C1544     1.0  0.60484  0.98206  0.49653  1.0000
  H   H2713     1.0  0.73451  0.62830  0.60697  1.0000
  H   H2714     1.0  0.95001  0.74775  0.72703  1.0000
  H   H2715     1.0  0.80748  0.61982  0.58548  1.0000
  C   C1545     1.0  0.96608  0.75505  0.59636  1.0000
  H   H2716     1.0  0.69541  0.95541  0.64595  1.0000
  H   H2717     1.0  0.87891  0.55564  0.61529  1.0000
  H   H2718     1.0  0.63837  0.95322  0.53871  1.0000
  H   H2719     1.0  0.82296  0.95518  0.71029  1.0000
  H   H2720     1.0  0.83525  0.91943  0.70337  1.0000
  H   H2721     1.0  0.84999  0.50202  0.55492  1.0000
  H   H2722     1.0  0.92672  0.58004  0.62368  1.0000
  H   H2723     1.0  0.58007  0.56676  0.54143  1.0000
  H   H2724     1.0  0.72072  0.57697  0.58805  1.0000
  C   C1546     1.0  0.74847  0.92922  0.70432  1.0000
  H   H2725     1.0  0.77269  0.84453  0.71474  1.0000
  H   H2726     1.0  0.92849  0.54184  0.62735  1.0000
  H   H2727     1.0  0.52622  0.56869  0.51574  1.0000
  H   H2728     1.0  0.73887  0.82003  0.71072  1.0000
  S   S351      1.0  0.75256  0.98153  0.65613  1.0000
  H   H2729     1.0  0.71115  0.98854  0.53589  1.0000
  C   C1547     1.0  0.80535  0.98015  0.73071  1.0000
  H   H2730     1.0  0.68474  0.94631  0.49780  1.0000
  C   C1548     1.0  0.80281  0.78702  0.73639  1.0000
  H   H2731     1.0  0.73312  0.92670  0.71295  1.0000
  C   C1549     1.0  0.64587  0.63612  0.49356  1.0000
  C   C1550     1.0  0.80898  0.94242  0.71924  1.0000
  H   H2732     1.0  0.85747  0.49928  0.50144  1.0000
  H   H2733     1.0  0.85185  0.72847  0.72465  1.0000
  H   H2734     1.0  0.75044  0.91086  0.70410  1.0000
  H   H2735     1.0  0.65809  0.97462  0.65438  1.0000
  H   H2736     1.0  0.69961  0.58320  0.60129  1.0000
  C   C1551     1.0  0.73553  0.61820  0.59585  1.0000
  C   C1552     1.0  0.83910  0.75106  0.74061  1.0000
  H   H2737     1.0  0.55852  0.58112  0.54301  1.0000
  H   H2738     1.0  0.79509  0.72020  0.72066  1.0000
  H   H2739     1.0  0.75705  0.85125  0.74089  1.0000
  C   C1553     1.0  0.98120  0.74871  0.71268  1.0000
  S   S352      1.0  0.96413  0.74655  0.69452  1.0000
  H   H2740     1.0  0.91793  0.65059  0.60723  1.0000
  N   N87       1.0  0.86111  0.88955  0.62852  1.0000
  C   C1554     1.0  0.85427  0.88058  0.64538  1.0000
  C   C1555     1.0  0.84088  0.86978  0.61688  1.0000
  C   C1556     1.0  0.88745  0.89052  0.62534  1.0000
  C   C1557     1.0  0.86392  0.91692  0.62628  1.0000
  C   C1558     1.0  0.83918  0.92049  0.62920  1.0000
  C   C1559     1.0  0.87316  0.89903  0.65872  1.0000
  C   C1560     1.0  0.89565  0.89296  0.60766  1.0000
  C   C1561     1.0  0.81179  0.85582  0.62207  1.0000
  C   C1562     1.0  0.79326  0.84003  0.60824  1.0000
  C   C1563     1.0  0.84578  0.94968  0.63001  1.0000
  C   C1564     1.0  0.86502  0.88699  0.67506  1.0000
  C   C1565     1.0  0.92439  0.89876  0.60637  1.0000
  H   H2741     1.0  0.85321  0.86068  0.64657  1.0000
  H   H2742     1.0  0.83445  0.87784  0.64835  1.0000
  H   H2743     1.0  0.84169  0.87913  0.60525  1.0000
  H   H2744     1.0  0.84551  0.85318  0.61433  1.0000
  H   H2745     1.0  0.88791  0.87237  0.62974  1.0000
  H   H2746     1.0  0.90349  0.90740  0.63203  1.0000
  H   H2747     1.0  0.88043  0.93165  0.63387  1.0000
  H   H2748     1.0  0.86956  0.92333  0.61394  1.0000
  H   H2749     1.0  0.83000  0.91181  0.64048  1.0000
  H   H2750     1.0  0.82466  0.91108  0.61924  1.0000
  H   H2751     1.0  0.89362  0.90244  0.65707  1.0000
  H   H2752     1.0  0.87284  0.91834  0.65901  1.0000
  H   H2753     1.0  0.89341  0.90898  0.60171  1.0000
  H   H2754     1.0  0.88344  0.87419  0.60092  1.0000
  H   H2755     1.0  0.80954  0.84171  0.63156  1.0000
  H   H2756     1.0  0.80497  0.86970  0.62680  1.0000
  H   H2757     1.0  0.77278  0.82972  0.61249  1.0000
  H   H2758     1.0  0.79393  0.85334  0.59859  1.0000
  H   H2759     1.0  0.79864  0.82491  0.60351  1.0000
  H   H2760     1.0  0.85526  0.95965  0.61895  1.0000
  H   H2761     1.0  0.82741  0.95144  0.63142  1.0000
  H   H2762     1.0  0.85902  0.95981  0.64044  1.0000
  H   H2763     1.0  0.87888  0.90051  0.68437  1.0000
  H   H2764     1.0  0.84494  0.88394  0.67776  1.0000
  H   H2765     1.0  0.86546  0.86774  0.67555  1.0000
  H   H2766     1.0  0.93766  0.91841  0.61188  1.0000
  H   H2767     1.0  0.92792  0.88345  0.61238  1.0000
  H   H2768     1.0  0.92934  0.89887  0.59365  1.0000
  H   H2769     1.0  0.53843  0.54902  0.56573  1.0000
  C   C1566     1.0  0.66200  0.96607  0.50645  1.0000
  H   H2770     1.0  0.73751  0.72191  0.73527  1.0000
  H   H2771     1.0  0.76958  0.97058  0.71012  1.0000
  H   H2772     1.0  0.87000  0.54584  0.59470  1.0000
  H   H2773     1.0  0.66648  0.93267  0.52815  1.0000
  H   H2774     1.0  0.75243  0.93373  0.67866  1.0000
  S   S353      1.0  0.60253  0.51867  0.56150  1.0000
  H   H2775     1.0  0.98302  0.83410  0.71702  1.0000
  H   H2776     1.0  0.82251  0.74206  0.70899  1.0000
  C   C1567     1.0  0.81451  0.72385  0.71609  1.0000
  C   C1568     1.0  0.91191  0.56267  0.60011  1.0000
  H   H2777     1.0  0.82433  0.70800  0.73655  1.0000
  C   C1569     1.0  0.53972  0.53358  0.55812  1.0000
  C   C1570     1.0  0.77475  0.95406  0.70888  1.0000
  C   C1571     1.0  0.68238  0.94805  0.53568  1.0000
  C   C1572     1.0  0.98209  0.69780  0.60778  1.0000
  H   H2778     1.0  0.67401  0.95184  0.54665  1.0000
  C   C1573     1.0  0.73814  0.93180  0.68793  1.0000
  H   H2779     1.0  0.75597  0.63255  0.55893  1.0000
  C   C1574     1.0  0.93320  0.58418  0.61118  1.0000
  H   H2780     1.0  0.82116  0.80512  0.73676  1.0000
  H   H2781     1.0  0.98228  0.56501  0.61112  1.0000
  C   C1575     1.0  0.69062  0.96524  0.63605  1.0000
  C   C1576     1.0  0.81848  0.90508  0.71021  1.0000
  H   H2782     1.0  0.91021  0.54282  0.60219  1.0000
  H   H2783     1.0  0.65783  0.64344  0.50436  1.0000
  C   C1577     1.0  0.67399  0.95663  0.49291  1.0000
  H   H2784     1.0  0.81010  0.88565  0.70375  1.0000
  C   C1578     1.0  0.67842  0.99095  0.65631  1.0000
  H   H2785     1.0  0.85469  0.65159  0.58369  1.0000
  H   H2786     1.0  0.64176  0.98598  0.56010  1.0000
  H   H2787     1.0  0.51943  0.53968  0.53831  1.0000
  C   C1579     1.0  0.56175  0.56602  0.53615  1.0000
  S   S354      1.0  0.95271  0.59187  0.49967  1.0000
  S   S355      1.0  0.90860  0.50432  0.55995  1.0000
  H   H2788     1.0  0.55442  0.52246  0.50506  1.0000
  H   H2789     1.0  0.60165  0.61309  0.54007  1.0000
  H   H2790     1.0  0.94975  0.69008  0.62304  1.0000
  H   H2791     1.0  0.79217  0.98926  0.73293  1.0000
  H   H2792     1.0  0.61258  0.53522  0.50757  1.0000
  N   N88       1.0  0.91528  0.73568  0.59711  1.0000
  C   C1580     1.0  0.91259  0.71015  0.58987  1.0000
  C   C1581     1.0  0.91426  0.73335  0.61496  1.0000
  C   C1582     1.0  0.89329  0.74057  0.59058  1.0000
  C   C1583     1.0  0.94121  0.75869  0.59308  1.0000
  H   H2793     1.0  0.82578  0.90292  0.72214  1.0000
  C   C1584     1.0  0.91460  0.70938  0.57150  1.0000
  C   C1585     1.0  0.89145  0.76476  0.59796  1.0000
  C   C1586     1.0  0.88729  0.71393  0.62173  1.0000
  C   C1587     1.0  0.88885  0.71381  0.63988  1.0000
  H   H2794     1.0  0.64703  0.94797  0.51195  1.0000
  C   C1588     1.0  0.91677  0.68491  0.56580  1.0000
  C   C1589     1.0  0.86758  0.76683  0.59118  1.0000
  H   H2795     1.0  0.89325  0.69348  0.59265  1.0000
  H   H2796     1.0  0.92726  0.70486  0.59535  1.0000
  H   H2797     1.0  0.92863  0.72669  0.61925  1.0000
  H   H2798     1.0  0.92071  0.75306  0.62091  1.0000
  H   H2799     1.0  0.87397  0.72271  0.59172  1.0000
  H   H2800     1.0  0.89547  0.74398  0.57759  1.0000
  H   H2801     1.0  0.94122  0.76409  0.58044  1.0000
  H   H2802     1.0  0.94419  0.77670  0.59998  1.0000
  C   C1590     1.0  0.69749  0.97414  0.52682  1.0000
  H   H2803     1.0  0.52316  0.51408  0.56086  1.0000
  H   H2804     1.0  0.89673  0.70868  0.56571  1.0000
  H   H2805     1.0  0.93204  0.72683  0.56722  1.0000
  H   H2806     1.0  0.90920  0.78331  0.59526  1.0000
  H   H2807     1.0  0.88959  0.76354  0.61105  1.0000
  H   H2808     1.0  0.87174  0.71955  0.61851  1.0000
  H   H2809     1.0  0.88103  0.69346  0.61726  1.0000
  H   H2810     1.0  0.89469  0.73389  0.64502  1.0000
  H   H2811     1.0  0.86931  0.70010  0.64450  1.0000
  H   H2812     1.0  0.90334  0.70713  0.64389  1.0000
  H   H2813     1.0  0.84921  0.76847  0.73300  1.0000
  H   H2814     1.0  0.58862  0.57110  0.49906  1.0000
  H   H2815     1.0  0.68669  0.96995  0.71778  1.0000
  H   H2816     1.0  0.93601  0.68642  0.56974  1.0000
  H   H2817     1.0  0.90072  0.66658  0.57048  1.0000
  H   H2818     1.0  0.91559  0.68342  0.55260  1.0000
  H   H2819     1.0  0.86884  0.76908  0.57809  1.0000
  H   H2820     1.0  0.84910  0.74911  0.59402  1.0000
  H   H2821     1.0  0.86684  0.78438  0.59657  1.0000
  N   N89       1.0  0.56537  0.57277  0.51869  1.0000
  H   H2822     1.0  0.72909  0.58322  0.60906  1.0000
  C   C1591     1.0  0.76429  0.62605  0.59151  1.0000
  H   H2823     1.0  0.78947  0.91402  0.69961  1.0000
  H   H2824     1.0  0.91667  0.56734  0.58748  1.0000
  C   C1592     1.0  0.98489  0.82104  0.70773  1.0000
  H   H2825     1.0  0.77270  0.61856  0.60102  1.0000
  H   H2826     1.0  0.76291  0.61425  0.58058  1.0000
  H   H2827     1.0  0.73460  0.94935  0.68778  1.0000
  H   H2828     1.0  0.66997  0.95266  0.63188  1.0000
  C   C1593     1.0  0.75834  0.82333  0.71555  1.0000
  C   C1594     1.0  0.75789  0.49515  0.54285  1.0000
  C   C1595     1.0  0.72039  0.58857  0.59872  1.0000
  C   C1596     1.0  0.63882  0.97207  0.53544  1.0000
  H   H2829     1.0  0.84822  0.66254  0.56473  1.0000
  C   C1597     1.0  0.75624  0.81450  0.73275  1.0000
  C   C1598     1.0  0.83341  0.72655  0.72987  1.0000
  H   H2830     1.0  0.97804  0.66069  0.57431  1.0000
  H   H2831     1.0  0.75896  0.91525  0.73156  1.0000
  H   H2832     1.0  0.56342  0.60967  0.52108  1.0000
  H   H2833     1.0  0.95962  0.58310  0.58398  1.0000
  H   H2834     1.0  0.58850  0.96786  0.50310  1.0000
  H   H2835     1.0  0.52843  0.53957  0.51076  1.0000
  H   H2836     1.0  0.96773  0.75099  0.60907  1.0000
  H   H2837     1.0  0.68965  0.91851  0.54762  1.0000
  H   H2838     1.0  0.94089  0.50845  0.63665  1.0000
  H   H2839     1.0  0.70382  0.96723  0.62606  1.0000
  H   H2840     1.0  0.70938  0.93186  0.53044  1.0000
  H   H2841     1.0  0.86613  0.50460  0.58248  1.0000
  C   C1599     1.0  0.77198  0.93552  0.73622  1.0000
  H   H2842     1.0  0.93262  0.60295  0.60856  1.0000
  C   C1600     1.0  0.70082  0.93684  0.54093  1.0000
  H   H2843     1.0  0.81157  0.70693  0.70813  1.0000
  C   C1601     1.0  0.96942  0.74901  0.72716  1.0000
  C   C1602     1.0  0.94963  0.51934  0.62569  1.0000
  C   C1603     1.0  0.62861  0.98180  0.54943  1.0000
  H   H2844     1.0  0.65060  0.97517  0.50075  1.0000
  H   H2845     1.0  0.77578  0.81719  0.73671  1.0000
  H   H2846     1.0  0.95202  0.54866  0.60044  1.0000
  Fe  Fe177     1.0  0.98144  0.79200  0.64287  1.0000
  C   C1604     1.0  0.59293  0.52650  0.50149  1.0000
  H   H2847     1.0  0.97013  0.52223  0.62502  1.0000
  H   H2848     1.0  0.74484  0.49645  0.53336  1.0000
  H   H2849     1.0  0.96670  0.80179  0.70747  1.0000
  C   C1605     1.0  0.70565  0.97855  0.74091  1.0000
  C   C1606     1.0  0.75572  0.74017  0.73563  1.0000
  H   H2850     1.0  0.71052  0.97137  0.51814  1.0000
  H   H2851     1.0  0.74469  0.95298  0.73514  1.0000
  H   H2852     1.0  0.82119  0.94341  0.72995  1.0000
  C   C1607     1.0  0.98118  0.63502  0.62218  1.0000
  H   H2853     1.0  0.83641  0.50551  0.52767  1.0000
  H   H2854     1.0  0.53778  0.52232  0.53353  1.0000
  C   C1608     1.0  0.98277  0.75131  0.74179  1.0000
  H   H2855     1.0  0.57395  0.52655  0.52304  1.0000
  C   C1609     1.0  0.53907  0.56137  0.50993  1.0000
  Fe  Fe178     1.0  0.79405  0.98930  0.66155  1.0000
  H   H2856     1.0  0.62466  0.96774  0.52529  1.0000
  H   H2857     1.0  0.78151  0.89943  0.71898  1.0000
  H   H2858     1.0  0.55840  0.53300  0.56108  1.0000
  C   C1610     1.0  0.57419  0.53347  0.51079  1.0000
  N   N90       1.0  0.68115  0.98520  0.51874  1.0000
  H   H2859     1.0  0.65291  0.99086  0.71446  1.0000
  H   H2860     1.0  0.81388  0.97944  0.74262  1.0000
  H   H2861     1.0  0.89077  0.77304  0.74240  1.0000
  H   H2862     1.0  0.64394  0.99068  0.63411  1.0000
  Fe  Fe179     1.0  0.63638  0.54024  0.91608  1.0000
  S   S356      1.0  0.66197  0.54833  0.93837  1.0000
  Fe  Fe180     1.0  0.66948  0.59758  0.90467  1.0000
  S   S357      1.0  0.69578  0.60920  0.92647  1.0000
  S   S358      1.0  0.67075  0.62358  0.88376  1.0000
  Fe  Fe181     1.0  0.69705  0.57047  0.92270  1.0000
  S   S359      1.0  0.74047  0.57860  0.92527  1.0000
  Fe  Fe182     1.0  0.65923  0.58649  0.94055  1.0000
  S   S360      1.0  0.65337  0.59968  0.96552  1.0000
  S   S361      1.0  0.67166  0.55965  0.90018  1.0000
  S   S362      1.0  0.63272  0.57783  0.91903  1.0000
  Fe  Fe183     1.0  0.87737  0.56180  0.92170  1.0000
  S   S363      1.0  0.90011  0.56247  0.89984  1.0000
  S   S364      1.0  0.83220  0.54399  0.91820  1.0000
  Fe  Fe184     1.0  0.92794  0.58152  0.94333  1.0000
  S   S365      1.0  0.95322  0.58376  0.92266  1.0000
  S   S366      1.0  0.94222  0.58627  0.96947  1.0000
  Fe  Fe185     1.0  0.93117  0.60203  0.90935  1.0000
  S   S367      1.0  0.94848  0.64215  0.89689  1.0000
  Fe  Fe186     1.0  0.91997  0.54381  0.91497  1.0000
  S   S368      1.0  0.90754  0.60198  0.93074  1.0000
  S   S369      1.0  0.89561  0.54095  0.93611  1.0000
  H   H2863     1.0  0.61132  0.60982  0.95224  1.0000
  H   H2864     1.0  0.83139  0.54613  0.86339  1.0000
  S   S370      1.0  0.92053  0.73891  0.80470  1.0000
  C   C1611     1.0  0.97977  0.69570  0.86177  1.0000
  H   H2865     1.0  0.57011  0.59085  0.91165  1.0000
  C   C1612     1.0  0.76841  0.65149  0.91526  1.0000
  H   H2866     1.0  0.84412  0.55191  0.88358  1.0000
  H   H2867     1.0  0.77865  0.98014  0.86986  1.0000
  S   S371      1.0  0.80925  0.95480  0.81260  1.0000
  S   S372      1.0  0.75278  0.97934  0.81225  1.0000
  Fe  Fe187     1.0  0.81713  0.78915  0.81247  1.0000
  S   S373      1.0  0.79176  0.74540  0.80958  1.0000
  S   S374      1.0  0.86167  0.80912  0.81209  1.0000
  Fe  Fe188     1.0  0.76993  0.80078  0.81380  1.0000
  S   S375      1.0  0.74125  0.75728  0.81142  1.0000
  S   S376      1.0  0.75144  0.82883  0.81326  1.0000
  Fe  Fe189     1.0  0.76745  0.75022  0.82900  1.0000
  S   S377      1.0  0.76045  0.72621  0.85186  1.0000
  Fe  Fe190     1.0  0.76819  0.75642  0.79240  1.0000
  S   S378      1.0  0.75302  0.73610  0.76821  1.0000
  S   S379      1.0  0.79437  0.79407  0.83270  1.0000
  S   S380      1.0  0.79517  0.79983  0.79397  1.0000
  C   C1613     1.0  0.90166  0.76356  0.76547  1.0000
  H   H2868     1.0  0.67969  0.74595  0.76878  1.0000
  C   C1614     1.0  0.78628  0.67546  0.85389  1.0000
  H   H2869     1.0  0.83456  0.67089  0.80338  1.0000
  H   H2870     1.0  0.95810  0.75673  0.86517  1.0000
  C   C1615     1.0  0.79305  0.91973  0.81124  1.0000
  C   C1616     1.0  0.80766  0.90606  0.81433  1.0000
  C   C1617     1.0  0.79540  0.87823  0.81447  1.0000
  C   C1618     1.0  0.76821  0.86376  0.81190  1.0000
  C   C1619     1.0  0.75364  0.87738  0.80853  1.0000
  C   C1620     1.0  0.76604  0.90519  0.80789  1.0000
  H   H2871     1.0  0.82860  0.91710  0.81684  1.0000
  H   H2872     1.0  0.80688  0.86803  0.81705  1.0000
  H   H2873     1.0  0.73259  0.86635  0.80654  1.0000
  H   H2874     1.0  0.75466  0.91542  0.80522  1.0000
  H   H2875     1.0  0.71650  0.91865  0.81428  1.0000
  H   H2876     1.0  0.86245  0.62605  0.85681  1.0000
  C   C1621     1.0  0.60585  0.62747  0.91638  1.0000
  C   C1622     1.0  0.90507  0.75910  0.80735  1.0000
  C   C1623     1.0  0.91924  0.78665  0.80857  1.0000
  C   C1624     1.0  0.90577  0.80187  0.81015  1.0000
  C   C1625     1.0  0.87818  0.78962  0.81064  1.0000
  C   C1626     1.0  0.86418  0.76209  0.80948  1.0000
  C   C1627     1.0  0.87754  0.74695  0.80775  1.0000
  H   H2877     1.0  0.94048  0.79622  0.80815  1.0000
  H   H2878     1.0  0.91675  0.82320  0.81097  1.0000
  H   H2879     1.0  0.84304  0.75244  0.80977  1.0000
  H   H2880     1.0  0.86640  0.72574  0.80644  1.0000
  Fe  Fe191     1.0  0.96475  0.75459  0.80479  1.0000
  C   C1628     1.0  0.71884  0.90795  0.83885  1.0000
  C   C1629     1.0  0.96188  0.65643  0.87834  1.0000
  H   H2881     1.0  0.84840  0.51471  0.89743  1.0000
  H   H2882     1.0  0.72092  0.89027  0.83510  1.0000
  C   C1630     1.0  0.70153  0.58327  0.86125  1.0000
  S   S381      1.0  0.72734  0.98781  0.77069  1.0000
  H   H2883     1.0  0.92325  0.74517  0.86723  1.0000
  C   C1631     1.0  0.70480  0.91419  0.82522  1.0000
  H   H2884     1.0  0.70222  0.87700  0.77240  1.0000
  C   C1632     1.0  0.58790  0.50657  0.95642  1.0000
  H   H2885     1.0  0.74236  0.91889  0.76369  1.0000
  H   H2886     1.0  0.79386  0.64232  0.84802  1.0000
  C   C1633     1.0  0.73522  0.69730  0.86025  1.0000
  C   C1634     1.0  0.71115  0.68156  0.85236  1.0000
  C   C1635     1.0  0.69183  0.65898  0.85968  1.0000
  C   C1636     1.0  0.69638  0.65156  0.87485  1.0000
  C   C1637     1.0  0.72047  0.66722  0.88272  1.0000
  C   C1638     1.0  0.73965  0.68999  0.87550  1.0000
  H   H2887     1.0  0.70733  0.68690  0.84068  1.0000
  H   H2888     1.0  0.67318  0.64716  0.85351  1.0000
  H   H2889     1.0  0.72411  0.66206  0.89448  1.0000
  H   H2890     1.0  0.75805  0.70220  0.88180  1.0000
  C   C1639     1.0  0.76576  0.56875  0.92281  1.0000
  C   C1640     1.0  0.76058  0.54377  0.91673  1.0000
  C   C1641     1.0  0.78117  0.53676  0.91534  1.0000
  C   C1642     1.0  0.80731  0.55454  0.91993  1.0000
  C   C1643     1.0  0.81260  0.57972  0.92573  1.0000
  C   C1644     1.0  0.79199  0.58671  0.92715  1.0000
  H   H2891     1.0  0.74062  0.52968  0.91333  1.0000
  H   H2892     1.0  0.77670  0.51723  0.91086  1.0000
  H   H2893     1.0  0.83250  0.59368  0.92934  1.0000
  H   H2894     1.0  0.79634  0.60610  0.93187  1.0000
  C   C1645     1.0  0.63261  0.61197  0.97384  1.0000
  H   H2895     1.0  0.70199  0.58436  0.84808  1.0000
  H   H2896     1.0  0.78412  0.60331  0.86220  1.0000
  C   C1646     1.0  0.61394  0.61547  0.96469  1.0000
  H   H2897     1.0  0.62615  0.68818  0.91860  1.0000
  H   H2898     1.0  0.61064  0.68826  0.96126  1.0000
  N   N91       1.0  0.65151  0.66950  0.91740  1.0000
  C   C1647     1.0  0.66329  0.65712  0.92859  1.0000
  C   C1648     1.0  0.62965  0.64804  0.90747  1.0000
  C   C1649     1.0  0.67285  0.68629  0.90619  1.0000
  C   C1650     1.0  0.64177  0.68674  0.92594  1.0000
  C   C1651     1.0  0.63109  0.67848  0.94291  1.0000
  C   C1652     1.0  0.68905  0.67697  0.93752  1.0000
  C   C1653     1.0  0.66416  0.69780  0.89202  1.0000
  H   H2899     1.0  0.75782  0.93665  0.83200  1.0000
  H   H2900     1.0  0.80369  0.68132  0.77605  1.0000
  C   C1654     1.0  0.98295  0.68122  0.84916  1.0000
  C   C1655     1.0  0.69407  0.66570  0.95279  1.0000
  C   C1656     1.0  0.68788  0.71925  0.88391  1.0000
  H   H2901     1.0  0.66790  0.64278  0.92191  1.0000
  H   H2902     1.0  0.64903  0.64498  0.93752  1.0000
  H   H2903     1.0  0.73770  0.63359  0.86685  1.0000
  H   H2904     1.0  0.63770  0.63706  0.90027  1.0000
  H   H2905     1.0  0.68226  0.67471  0.90105  1.0000
  H   H2906     1.0  0.68892  0.70334  0.91276  1.0000
  H   H2907     1.0  0.65770  0.70747  0.92732  1.0000
  H   H2908     1.0  0.62113  0.65666  0.89879  1.0000
  H   H2909     1.0  0.64738  0.68201  0.95148  1.0000
  H   H2910     1.0  0.72761  0.59020  0.88142  1.0000
  H   H2911     1.0  0.70606  0.68185  0.92970  1.0000
  H   H2912     1.0  0.68860  0.69568  0.94073  1.0000
  H   H2913     1.0  0.65139  0.70651  0.89598  1.0000
  H   H2914     1.0  0.65323  0.68199  0.88289  1.0000
  H   H2915     1.0  0.68873  0.56246  0.86444  1.0000
  H   H2916     1.0  0.84376  0.49765  0.92159  1.0000
  C   C1657     1.0  0.72918  0.59254  0.86838  1.0000
  H   H2917     1.0  0.79837  0.70745  0.83732  1.0000
  C   C1658     1.0  0.97198  0.61039  0.97874  1.0000
  H   H2918     1.0  0.69277  0.59560  0.86598  1.0000
  C   C1659     1.0  0.61750  0.69433  0.94900  1.0000
  H   H2919     1.0  0.95300  0.66351  0.81023  1.0000
  H   H2920     1.0  0.85209  0.73428  0.77771  1.0000
  H   H2921     1.0  0.71291  0.68022  0.95858  1.0000
  H   H2922     1.0  0.70125  0.71133  0.87981  1.0000
  H   H2923     1.0  0.68117  0.72620  0.87336  1.0000
  H   H2924     1.0  0.69895  0.73639  0.89218  1.0000
  N   N92       1.0  0.74716  0.82638  0.76138  1.0000
  C   C1660     1.0  0.74326  0.79923  0.76561  1.0000
  C   C1661     1.0  0.77295  0.84678  0.76877  1.0000
  C   C1662     1.0  0.72549  0.83013  0.76917  1.0000
  H   H2925     1.0  0.69428  0.77630  0.78056  1.0000
  H   H2926     1.0  0.50044  0.52252  0.99063  1.0000
  C   C1663     1.0  0.71668  0.77563  0.75984  1.0000
  H   H2927     1.0  0.72117  0.93367  0.75964  1.0000
  C   C1664     1.0  0.79842  0.84755  0.76231  1.0000
  C   C1665     1.0  0.82245  0.86655  0.77236  1.0000
  H   H2928     1.0  0.90522  0.78188  0.77215  1.0000
  H   H2929     1.0  0.88509  0.84678  0.76240  1.0000
  C   C1666     1.0  0.70071  0.85692  0.77285  1.0000
  H   H2930     1.0  0.74573  0.79817  0.77872  1.0000
  H   H2931     1.0  0.75894  0.79535  0.76074  1.0000
  C   C1667     1.0  0.53005  0.57139  0.97995  1.0000
  H   H2932     1.0  0.77302  0.84410  0.78185  1.0000
  H   H2933     1.0  0.72541  0.82657  0.78219  1.0000
  C   C1668     1.0  0.87409  0.82752  0.76821  1.0000
  C   C1669     1.0  0.78961  0.97934  0.85931  1.0000
  H   H2934     1.0  0.70592  0.81524  0.76442  1.0000
  H   H2935     1.0  0.78082  0.69249  0.78308  1.0000
  H   H2936     1.0  0.70151  0.93137  0.82848  1.0000
  H   H2937     1.0  0.53486  0.53518  0.97603  1.0000
  H   H2938     1.0  0.82077  0.85998  0.78484  1.0000
  H   H2939     1.0  0.89436  0.74698  0.77380  1.0000
  H   H2940     1.0  0.74248  0.87284  0.77472  1.0000
  H   H2941     1.0  0.79796  0.82797  0.76247  1.0000
  N   N93       1.0  0.85497  0.75423  0.75571  1.0000
  H   H2942     1.0  0.76645  0.96323  0.75233  1.0000
  H   H2943     1.0  0.60724  0.51056  0.96184  1.0000
  C   C1670     1.0  0.80191  0.69860  0.78096  1.0000
  H   H2944     1.0  0.86460  0.80634  0.74585  1.0000
  C   C1671     1.0  0.69853  0.76211  0.77356  1.0000
  H   H2945     1.0  0.97367  0.75181  0.75287  1.0000
  H   H2946     1.0  0.84051  0.86700  0.76744  1.0000
  H   H2947     1.0  0.88415  0.82835  0.77977  1.0000
  H   H2948     1.0  0.57151  0.97249  0.93873  1.0000
  H   H2949     1.0  0.68539  0.89688  0.82258  1.0000
  H   H2950     1.0  0.93691  0.78390  0.75151  1.0000
  H   H2951     1.0  0.74412  0.94669  0.90189  1.0000
  H   H2952     1.0  0.80001  0.71400  0.75820  1.0000
  H   H2953     1.0  0.53006  0.54928  0.94917  1.0000
  C   C1672     1.0  0.63520  0.61868  0.99020  1.0000
  C   C1673     1.0  0.60145  0.63322  0.98799  1.0000
  S   S382      1.0  0.97488  0.72330  0.79557  1.0000
  H   H2954     1.0  0.83733  0.77630  0.76701  1.0000
  H   H2955     1.0  0.93838  0.75675  0.84827  1.0000
  C   C1674     1.0  0.96510  0.64194  0.86573  1.0000
  H   H2956     1.0  0.63137  0.71581  0.94937  1.0000
  H   H2957     1.0  0.70597  0.78136  0.75089  1.0000
  H   H2958     1.0  0.79867  0.95219  0.84575  1.0000
  H   H2959     1.0  0.80057  0.78450  0.76192  1.0000
  H   H2960     1.0  0.74225  0.94904  0.84540  1.0000
  H   H2961     1.0  0.57912  0.61376  0.89561  1.0000
  H   H2962     1.0  0.67803  0.66142  0.96128  1.0000
  H   H2963     1.0  0.69687  0.85027  0.78531  1.0000
  H   H2964     1.0  0.77161  0.59821  0.88163  1.0000
  C   C1675     1.0  0.85715  0.77803  0.76505  1.0000
  C   C1676     1.0  0.72626  0.85752  0.76730  1.0000
  H   H2965     1.0  0.83654  0.64087  0.80723  1.0000
  H   H2966     1.0  0.68385  0.84338  0.76506  1.0000
  H   H2967     1.0  0.80454  0.58600  0.89153  1.0000
  N   N94       1.0  0.76156  0.92835  0.85665  1.0000
  H   H2968     1.0  0.98329  0.56715  0.95232  1.0000
  C   C1677     1.0  0.76343  0.90303  0.85352  1.0000
  C   C1678     1.0  0.79117  0.77538  0.75069  1.0000
  C   C1679     1.0  0.74696  0.92671  0.87170  1.0000
  H   H2969     1.0  0.78090  0.94324  0.88876  1.0000
  H   H2970     1.0  0.81291  0.70509  0.79254  1.0000
  C   C1680     1.0  0.73319  0.92524  0.75406  1.0000
  C   C1681     1.0  0.78806  0.90148  0.86027  1.0000
  C   C1682     1.0  0.78445  0.87321  0.85918  1.0000
  H   H2971     1.0  0.58918  0.50519  0.94332  1.0000
  C   C1683     1.0  0.78860  0.95184  0.85703  1.0000
  H   H2972     1.0  0.59954  0.98742  0.95233  1.0000
  H   H2973     1.0  0.80145  0.95028  0.86648  1.0000
  H   H2974     1.0  0.72901  0.86369  0.75475  1.0000
  H   H2975     1.0  0.74551  0.88568  0.85766  1.0000
  H   H2976     1.0  0.76382  0.89944  0.84052  1.0000
  C   C1684     1.0  0.81230  0.72119  0.76928  1.0000
  H   H2977     1.0  0.55885  0.58078  0.95268  1.0000
  H   H2978     1.0  0.78395  0.93294  0.74598  1.0000
  H   H2979     1.0  0.72782  0.90844  0.87145  1.0000
  H   H2980     1.0  0.85384  0.82449  0.77046  1.0000
  H   H2981     1.0  0.76213  0.90752  0.88829  1.0000
  Fe  Fe192     1.0  0.79374  0.98481  0.80885  1.0000
  H   H2982     1.0  0.70577  0.90277  0.84916  1.0000
  H   H2983     1.0  0.80287  0.87291  0.86319  1.0000
  H   H2984     1.0  0.84359  0.71320  0.76073  1.0000
  H   H2985     1.0  0.80545  0.91405  0.85318  1.0000
  H   H2986     1.0  0.79265  0.90834  0.87283  1.0000
  H   H2987     1.0  0.64925  0.97280  0.96969  1.0000
  H   H2988     1.0  0.92589  0.74879  0.75346  1.0000
  H   H2989     1.0  0.77983  0.86533  0.84674  1.0000
  C   C1685     1.0  0.74607  0.93187  0.84299  1.0000
  C   C1686     1.0  0.96933  0.68339  0.87622  1.0000
  C   C1687     1.0  0.54525  0.55659  0.97370  1.0000
  C   C1688     1.0  0.54923  0.55961  0.95577  1.0000
  C   C1689     1.0  0.81297  0.62386  0.88117  1.0000
  H   H2990     1.0  0.95967  0.62127  0.86716  1.0000
  H   H2991     1.0  0.72526  0.91099  0.90139  1.0000
  H   H2992     1.0  0.82449  0.88688  0.77232  1.0000
  S   S383      1.0  0.92857  0.51009  0.90573  1.0000
  H   H2993     1.0  0.61207  0.61792  0.92567  1.0000
  C   C1690     1.0  0.83305  0.49966  0.88939  1.0000
  H   H2994     1.0  0.76828  0.86009  0.86686  1.0000
  C   C1691     1.0  0.64112  0.98305  0.97685  1.0000
  C   C1692     1.0  0.87337  0.80528  0.75749  1.0000
  N   N95       1.0  0.77563  0.63430  0.87095  1.0000
  H   H2995     1.0  0.89401  0.80933  0.75571  1.0000
  C   C1693     1.0  0.76272  0.63372  0.90039  1.0000
  H   H2996     1.0  0.56203  0.55087  0.95188  1.0000
  H   H2997     1.0  0.61684  0.65735  0.94330  1.0000
  N   N96       1.0  0.89972  0.67418  0.84035  1.0000
  C   C1694     1.0  0.87172  0.66177  0.83387  1.0000
  C   C1695     1.0  0.90182  0.65956  0.85477  1.0000
  C   C1696     1.0  0.90685  0.70223  0.84557  1.0000
  C   C1697     1.0  0.91882  0.67529  0.82787  1.0000
  C   C1698     1.0  0.91380  0.64863  0.81997  1.0000
  C   C1699     1.0  0.86618  0.67596  0.81984  1.0000
  C   C1700     1.0  0.93375  0.71787  0.85448  1.0000
  C   C1701     1.0  0.88295  0.62941  0.85519  1.0000
  C   C1702     1.0  0.88991  0.61662  0.86906  1.0000
  C   C1703     1.0  0.93210  0.65286  0.80610  1.0000
  H   H2998     1.0  0.68742  0.96730  0.74695  1.0000
  H   H2999     1.0  0.85829  0.66084  0.84354  1.0000
  H   H3000     1.0  0.92233  0.66252  0.85643  1.0000
  H   H3001     1.0  0.89770  0.66785  0.86585  1.0000
  H   H3002     1.0  0.89144  0.70247  0.85339  1.0000
  H   H3003     1.0  0.90754  0.71423  0.83513  1.0000
  H   H3004     1.0  0.92017  0.68920  0.81838  1.0000
  H   H3005     1.0  0.93911  0.68377  0.83305  1.0000
  H   H3006     1.0  0.89345  0.63742  0.81511  1.0000
  H   H3007     1.0  0.91787  0.63657  0.82874  1.0000
  H   H3008     1.0  0.86756  0.69508  0.82409  1.0000
  H   H3009     1.0  0.88019  0.67968  0.81013  1.0000
  H   H3010     1.0  0.95002  0.71986  0.84682  1.0000
  H   H3011     1.0  0.93480  0.70808  0.86556  1.0000
  H   H3012     1.0  0.88333  0.61889  0.84410  1.0000
  H   H3013     1.0  0.89076  0.62702  0.88052  1.0000
  H   H3014     1.0  0.87485  0.59567  0.86987  1.0000
  H   H3015     1.0  0.90920  0.61702  0.86722  1.0000
  H   H3016     1.0  0.92855  0.66439  0.79671  1.0000
  H   H3017     1.0  0.97844  0.64297  0.84174  1.0000
  H   H3018     1.0  0.92848  0.63346  0.80084  1.0000
  H   H3019     1.0  0.75555  0.92703  0.91297  1.0000
  H   H3020     1.0  0.76893  0.61853  0.90321  1.0000
  H   H3021     1.0  0.77544  0.86706  0.76717  1.0000
  H   H3022     1.0  0.54392  0.59293  0.97947  1.0000
  H   H3023     1.0  0.76934  0.66390  0.88384  1.0000
  C   C1704     1.0  0.76771  0.75172  0.75040  1.0000
  H   H3024     1.0  0.78973  0.66111  0.91848  1.0000
  H   H3025     1.0  0.79767  0.67786  0.82911  1.0000
  H   H3026     1.0  0.86496  0.64098  0.82990  1.0000
  H   H3027     1.0  0.73648  0.57898  0.86351  1.0000
  H   H3028     1.0  0.83894  0.60828  0.88976  1.0000
  H   H3029     1.0  0.76527  0.66743  0.85019  1.0000
  H   H3030     1.0  0.59696  0.59512  0.89920  1.0000
  H   H3031     1.0  0.74117  0.62417  0.89802  1.0000
  H   H3032     1.0  0.74804  0.62087  0.85066  1.0000
  H   H3033     1.0  0.58456  0.62922  0.96441  1.0000
  H   H3034     1.0  0.98602  0.63519  0.95850  1.0000
  C   C1705     1.0  0.78494  0.61379  0.87366  1.0000
  H   H3035     1.0  0.69543  0.64727  0.95017  1.0000
  C   C1706     1.0  0.92818  0.76709  0.75968  1.0000
  C   C1707     1.0  0.88171  0.75747  0.75138  1.0000
  H   H3036     1.0  0.70781  0.75330  0.78156  1.0000
  H   H3037     1.0  0.59465  0.63695  0.92174  1.0000
  H   H3038     1.0  0.75754  0.63936  0.92540  1.0000
  C   C1708     1.0  0.74543  0.92784  0.90177  1.0000
  C   C1709     1.0  0.93855  0.74581  0.85906  1.0000
  C   C1710     1.0  0.83846  0.65953  0.81274  1.0000
  H   H3039     1.0  0.82355  0.65479  0.82204  1.0000
  C   C1711     1.0  0.59866  0.62625  0.97168  1.0000
  C   C1712     1.0  0.74779  0.62148  0.86391  1.0000
  H   H3040     1.0  0.96712  0.69487  0.88591  1.0000
  C   C1713     1.0  0.80271  0.69081  0.83995  1.0000
  H   H3041     1.0  0.82407  0.69915  0.84286  1.0000
  C   C1714     1.0  0.76093  0.92631  0.88751  1.0000
  C   C1715     1.0  0.58690  0.60553  0.90497  1.0000
  C   C1716     1.0  0.84178  0.73034  0.76592  1.0000
  H   H3042     1.0  0.80925  0.73745  0.77458  1.0000
  H   H3043     1.0  0.76195  0.66685  0.91334  1.0000
  H   H3044     1.0  0.81401  0.66397  0.86367  1.0000
  H   H3045     1.0  0.60014  0.69054  0.94129  1.0000
  H   H3046     1.0  0.79836  0.66260  0.88968  1.0000
  H   H3047     1.0  0.81461  0.63367  0.89293  1.0000
  H   H3048     1.0  0.79032  0.68991  0.86388  1.0000
  H   H3049     1.0  0.82825  0.63790  0.87338  1.0000
  H   H3050     1.0  0.81945  0.59115  0.87228  1.0000
  H   H3051     1.0  0.86547  0.77891  0.77721  1.0000
  H   H3052     1.0  0.74163  0.94315  0.87250  1.0000
  S   S384      1.0  0.59585  0.50548  0.90876  1.0000
  C   C1717     1.0  0.81929  0.60089  0.88379  1.0000
  C   C1718     1.0  0.79342  0.65338  0.85897  1.0000
  C   C1719     1.0  0.77743  0.64989  0.88598  1.0000
  H   H3053     1.0  0.58407  0.52345  0.95950  1.0000
  H   H3054     1.0  0.80960  0.53037  0.87946  1.0000
  H   H3055     1.0  0.51414  0.56773  0.97100  1.0000
  C   C1720     1.0  0.82979  0.53683  0.87508  1.0000
  H   H3056     1.0  0.56506  0.56488  0.97960  1.0000
  H   H3057     1.0  0.87982  0.73906  0.74547  1.0000
  C   C1721     1.0  0.97567  0.65431  0.85129  1.0000
  H   H3058     1.0  0.80147  0.85479  0.74998  1.0000
  C   C1722     1.0  0.83561  0.51332  0.87332  1.0000
  H   H3059     1.0  0.81413  0.49625  0.89473  1.0000
  H   H3060     1.0  0.72072  0.76048  0.75375  1.0000
  H   H3061     1.0  0.94192  0.77121  0.77004  1.0000
  H   H3062     1.0  0.49603  0.59187  0.97910  1.0000
  H   H3063     1.0  0.85603  0.52117  0.86917  1.0000
  H   H3064     1.0  0.71995  0.90791  0.74646  1.0000
  H   H3065     1.0  0.78116  0.98418  0.84867  1.0000
  C   C1723     1.0  0.62734  0.97117  0.99069  1.0000
  H   H3066     1.0  0.98592  0.71652  0.86052  1.0000
  C   C1724     1.0  0.72924  0.99147  0.74978  1.0000
  H   H3067     1.0  0.55144  0.98556  0.96119  1.0000
  C   C1725     1.0  0.75439  0.94621  0.74415  1.0000
  C   C1726     1.0  0.49084  0.58895  0.99179  1.0000
  H   H3068     1.0  0.91121  0.51024  0.87015  1.0000
  C   C1727     1.0  0.58940  0.99109  0.94206  1.0000
  C   C1728     1.0  0.74602  0.82990  0.74364  1.0000
  H   H3069     1.0  0.82002  0.75052  0.74338  1.0000
  H   H3070     1.0  0.87796  0.50062  0.89053  1.0000
  H   H3071     1.0  0.82169  0.49966  0.86413  1.0000
  H   H3072     1.0  0.54968  0.98778  0.99156  1.0000
