data_image0
_chemical_formula_structural       FeS4FeS2FeS2FeSFeS3FeS2FeS2FeSFeS4CHCS2H2C2FeSCFeS2H3C2H4SC2SH3SC6H4CH2C6H4C6H5CFeHC6H4C6H4FeCHNC12H26CNC11H26CH2SH5C2H2C3H3CH5CH3CH4CHCHCHC2HC2SC3NCHCH2C3H6CH3FeH8C2H4CH2CHCHCH3C2H2CH5CNHCHC2FeHCHCH4FeHCH4CSCHC3H4CHS2C2HC4HCH2CHCH2FeH2CH2C2HCH2CH6CH3SNC2H5CH3FeHCH2CHSH2NH3CH2C2H10CH10SCHC2H3C2HFeCHC2H3CNCHCHCH4CH2CNH2FeH3CHCH4CHCHCH2C2HCH2CHSFeS2FeS2FeSFeS3FeS2FeS2FeSFeS3FeHS3FeS2FeCSHS2CHSHFeHCH12C6H4C6H5C2HCH2C6H4C6H5C3H2C6H4CHNC12H28NC12H28NCH4CH3NCH4CH3CH5C2H2C2H2C2HCH4C3HC3H2FeCHSH2C2H5CFeHCSH6NH2CFeHCHSHSH2SCH2CH4CHFeCHC3HCH4FeHCHCHCH3C3H2CH3CHCHCHCH2CHCH4C2H2C2H3C3H5CHC2HNCH2SCHCH4CH4CH6NC2HCHC2H5C2H2CHCHCH2CH2NCH2CH4NH2C2HCHC4H3CH2SCHCH2FeH13CHCHCHCH2C2HCH4CH4CSH5SCHSH3CH3C2H2C2H6SH2FeS2H2FeSCS2H3SH2CH2FeS2FeS2FeSFeHS2C2H3CHCSCHCH3C6H6FeHNC6H5CH3SCH3C2H5CHC8HFeC3H7CH7CSH6CH2NCHNC5HC2H3CH11CH2FeH10SCHCH4C4HSH5SCHC2NHFeCH2C2HC3SNC4HC3H2C2H29CH6C3H2CSCH3CHSC2HCHC2NSH2C2H5NHC3H2C3H2CH2FeCSHSH2SCHC2HFeH3SCFeS2FeHSH2FeHS2CHFeSHCH2CSHCH2CHCH2C6H4C2H2SFeHCHCH3CH2CHCH3C6H4C3HCNHC4HCH3C2HFeH5CHC3H3CHCH2CH2CH4FeCHSHCH9CHSCHC3H2CH2CH7CHNCH6NHCH4CHSCH2C2H2CH2CH5CSCHC2HC2HFeNHCHC2HCHCH7CH2C2HCHSH2FeS2H2SCH2C6H6CHC2H3C2H4CH3C5H2FeCH4SCH4C2FeH6CH6NH5CH5C2H2C2HC2HC2SC2HSH2CH3CH4CH2C3H2CH2CFeSNCFeS2C2SH4CHC6H4CH7C2H5SFeHCHCHC4H2NHCH5CHCH5CH3SCH3CSH6CNSH2CHC2H6C2H9CHC2SCH4CHC6H4C2SH6CHCH4C2H3CHC2HNH2CHCHNHCHCH6C4HCH2C3H2SH5CH4SCH2CH4CFeH3CH4SCHFeCSH4SHSHCHCH3C6H3CH7SHCH4CNC2H4CHCHC3H2SHFeH5C2H2C3H4CH2FeS2FeSFeSHCFeS2FeSFeSFeS3FeSHFeHSFeS2FeS2FeHFeS3FeHSC6H6C2H2CHC3HC2H5CHC6H4CHCH2C6H2C4H5CSNHCH5C2NH6SH4C2H2CH5C2H4C2HCNCHCHC2H2C4NCH3C3H5CHCHCH3CHCH6CHCH3C3H3CH3CSCH2CHCH5C2SH2CH4SH5CH3CH5CHCH2CH3NH4NSCH7CH3CH2CHC4H3CH8CHCH2CHC2HCSH2C2H5CH2CH2SC3H2CH2C3H3C3H4C2H8CHCHC2H2CH6SCHCFeHFeS2FeS2FeSFeS2HSCFe3SFeHSFeS3HFeHS2FeSHFeHSH3CH2C7H10C2H2C5HC5HC6H4C6H4C3H4C2HCHNHSH3CHNC2HCH5CHCHCH2FeCH5CH4C2H3CH3SH2NC4HC3SC2H9CH15C2SHCH2CNC8FeC3H15CH12CHCHC2H4CHCHCH4CH2CH2CHCH3C2H3CNHCH2CFeHSH16CHS2HCHSCH2SHCSHFeS2FeS2FeSFeS3FeS2FeS2FeSFeS3Fe2SCFeS2FeS2HFeHSC2H5CH2CHCH2C6H4CHCHC6H4C6H4C7H3C6H5NC12H34CHNH2CH3C2H3NCH2CH4CNC12H17CH8C2NC12H29CHSH2CHCH3CH2CH3FeHCHCH2SH3C2H3CHCH2CH2NHC2H3C2H5CH2CSC3H4CH2CH5CH4CH2NH2CNH2SHCH2CHCSHCHCHCH2CHCHC2HCH3C4H2CH3SC2FeH2CH3CH2CH2CNH4CHC2H3C2H2SH3CHCH11SCHCSC3H2C2HCFeHSCHFeS2FeS2FeSFeS3FeS2FeS2FeSFeS3FeH2FeS2HFeS2Fe2CSH2CH2CHFeCH4CHSH5C7H4C3H2C6H4C6H4CHCH3C6H6C7H4NC4HC3HCH15CSH5NC4FeC2H2CH8C2H5CH8CH3CH2SH2CH3C2HCNHC2HC2HC4H3C3H5C2SCHS2CH3CH6C2H2C3H5CH3NC12H19CH9NHC9H12CH2CHCH2NH5C3HCHC3HCH2CH4CH5CH5CH3CH3CH3C2HC3NC2H4CH6C2H7CH2NH3NHCH3SCHCH5CHC2H10C2H8CH5SHCHCH10C2
_chemical_formula_sum              "Fe128 S256 C1152 H2048 N64"
_cell_length_a       62.7903
_cell_length_b       62.7588
_cell_length_c       40.7306
_cell_angle_alpha    88.8713
_cell_angle_beta     89.1811
_cell_angle_gamma    89.7765

_space_group_name_H-M_alt    "P 1"
_space_group_IT_number       1

loop_
  _space_group_symop_operation_xyz
  'x, y, z'

loop_
  _atom_site_type_symbol
  _atom_site_label
  _atom_site_symmetry_multiplicity
  _atom_site_fract_x
  _atom_site_fract_y
  _atom_site_fract_z
  _atom_site_occupancy
  Fe  Fe1       1.0  0.35794  0.26630  0.35831  1.0000
  S   S1        1.0  0.38152  0.29147  0.37138  1.0000
  S   S2        1.0  0.36248  0.23249  0.37652  1.0000
  S   S3        1.0  0.32965  0.28463  0.37663  1.0000
  S   S4        1.0  0.35511  0.27708  0.30560  1.0000
  Fe  Fe2       1.0  0.29265  0.09506  0.35018  1.0000
  S   S5        1.0  0.32110  0.07469  0.36229  1.0000
  S   S6        1.0  0.25937  0.08527  0.36473  1.0000
  Fe  Fe3       1.0  0.31916  0.12946  0.31793  1.0000
  S   S7        1.0  0.34978  0.11178  0.32625  1.0000
  S   S8        1.0  0.31701  0.16204  0.29409  1.0000
  Fe  Fe4       1.0  0.33187  0.08263  0.31013  1.0000
  S   S9        1.0  0.34544  0.05570  0.27834  1.0000
  Fe  Fe5       1.0  0.33632  0.10542  0.37730  1.0000
  S   S10       1.0  0.35718  0.11384  0.42069  1.0000
  S   S11       1.0  0.30237  0.10115  0.29768  1.0000
  S   S12       1.0  0.30678  0.12492  0.36934  1.0000
  Fe  Fe6       1.0  0.15655  0.13806  0.31677  1.0000
  S   S13       1.0  0.13053  0.11364  0.32203  1.0000
  S   S14       1.0  0.18671  0.13395  0.28703  1.0000
  Fe  Fe7       1.0  0.13387  0.16998  0.35980  1.0000
  S   S15       1.0  0.10615  0.14817  0.36856  1.0000
  S   S16       1.0  0.13399  0.20068  0.38768  1.0000
  Fe  Fe8       1.0  0.13087  0.12263  0.37558  1.0000
  S   S17       1.0  0.13096  0.09780  0.41697  1.0000
  Fe  Fe9       1.0  0.10817  0.14149  0.31434  1.0000
  S   S18       1.0  0.07765  0.14603  0.28470  1.0000
  S   S19       1.0  0.15843  0.14492  0.37042  1.0000
  S   S20       1.0  0.13438  0.16534  0.30537  1.0000
  S   S21       1.0  0.16277  0.28438  0.31170  1.0000
  C   C1        1.0  0.27567  0.02439  0.22942  1.0000
  H   H1        1.0  0.25993  0.01439  0.02045  1.0000
  C   C2        1.0  0.25790  0.02977  0.03327  1.0000
  S   S22       1.0  0.33074  0.00787  0.04593  1.0000
  S   S23       1.0  0.32391  0.02219  0.13441  1.0000
  H   H2        1.0  0.27729  0.01008  0.29935  1.0000
  H   H3        1.0  0.24517  0.06012  0.07516  1.0000
  C   C3        1.0  0.05564  0.18100  0.12255  1.0000
  C   C4        1.0  0.40705  0.29430  0.19553  1.0000
  Fe  Fe10      1.0  0.02945  0.10850  0.03450  1.0000
  S   S24       1.0  0.01712  0.08730  0.07516  1.0000
  C   C5        1.0  0.26948  0.07699  0.23556  1.0000
  Fe  Fe11      1.0  0.02672  0.11369  0.10893  1.0000
  S   S25       1.0  0.04719  0.10264  0.15234  1.0000
  S   S26       1.0  0.04145  0.13353  0.06804  1.0000
  H   H4        1.0  0.11689  0.14347  0.23921  1.0000
  H   H5        1.0  0.24308  0.03640  0.23198  1.0000
  H   H6        1.0  0.14414  0.13490  0.23448  1.0000
  C   C6        1.0  0.06769  0.06443  0.02376  1.0000
  C   C7        1.0  0.08080  0.04626  0.02587  1.0000
  H   H7        1.0  0.26759  0.11058  0.24869  1.0000
  H   H8        1.0  0.06026  0.07070  0.04567  1.0000
  H   H9        1.0  0.08338  0.03857  0.04950  1.0000
  H   H10       1.0  0.10586  0.25037  0.38162  1.0000
  S   S27       1.0  0.43199  0.29915  0.13949  1.0000
  C   C8        1.0  0.01076  0.22845  0.04076  1.0000
  C   C9        1.0  0.40063  0.04268  0.02391  1.0000
  S   S28       1.0  0.29692  0.30065  0.30050  1.0000
  H   H11       1.0  0.42231  0.99222  0.04256  1.0000
  H   H12       1.0  0.38847  0.03967  0.04251  1.0000
  H   H13       1.0  0.13323  0.13884  0.44951  1.0000
  S   S29       1.0  0.99817  0.12504  0.02637  1.0000
  C   C10       1.0  0.15744  0.26060  0.33371  1.0000
  C   C11       1.0  0.15294  0.26085  0.36742  1.0000
  C   C12       1.0  0.14699  0.24203  0.38416  1.0000
  C   C13       1.0  0.14506  0.22297  0.36717  1.0000
  C   C14       1.0  0.15049  0.22249  0.33378  1.0000
  C   C15       1.0  0.15662  0.24132  0.31704  1.0000
  H   H14       1.0  0.15334  0.27562  0.38044  1.0000
  H   H15       1.0  0.14305  0.24241  0.41006  1.0000
  H   H16       1.0  0.14941  0.20779  0.32061  1.0000
  H   H17       1.0  0.16022  0.24103  0.29100  1.0000
  C   C16       1.0  0.13511  0.10496  0.45833  1.0000
  H   H18       1.0  0.20130  0.30223  0.25852  1.0000
  H   H19       1.0  0.08085  0.08841  0.34879  1.0000
  C   C17       1.0  0.05502  0.11492  0.18935  1.0000
  C   C18       1.0  0.07050  0.10476  0.20895  1.0000
  C   C19       1.0  0.07790  0.11420  0.23782  1.0000
  C   C20       1.0  0.06957  0.13377  0.24785  1.0000
  C   C21       1.0  0.05391  0.14381  0.22846  1.0000
  C   C22       1.0  0.04681  0.13458  0.19922  1.0000
  H   H20       1.0  0.07692  0.08953  0.20164  1.0000
  H   H21       1.0  0.08981  0.10618  0.25255  1.0000
  H   H22       1.0  0.04724  0.15887  0.23608  1.0000
  H   H23       1.0  0.03486  0.14256  0.18454  1.0000
  C   C23       1.0  0.23930  0.09990  0.34451  1.0000
  C   C24       1.0  0.24445  0.11488  0.31980  1.0000
  C   C25       1.0  0.22825  0.12513  0.30202  1.0000
  C   C26       1.0  0.20681  0.12112  0.30978  1.0000
  C   C27       1.0  0.20163  0.10669  0.33527  1.0000
  C   C28       1.0  0.21786  0.09590  0.35231  1.0000
  H   H24       1.0  0.26091  0.11838  0.31401  1.0000
  H   H25       1.0  0.23232  0.13640  0.28251  1.0000
  H   H26       1.0  0.18511  0.10354  0.34144  1.0000
  H   H27       1.0  0.21376  0.08444  0.37154  1.0000
  H   H28       1.0  0.18675  0.02774  0.01485  1.0000
  C   C29       1.0  0.09063  0.03799  0.99763  1.0000
  Fe  Fe12      1.0  0.00917  0.14897  0.06274  1.0000
  H   H29       1.0  0.06049  0.07717  0.39891  1.0000
  C   C30       1.0  0.33942  0.04687  0.23803  1.0000
  C   C31       1.0  0.34762  0.02716  0.22754  1.0000
  C   C32       1.0  0.34336  0.01951  0.19587  1.0000
  C   C33       1.0  0.33078  0.03145  0.17414  1.0000
  C   C34       1.0  0.32252  0.05113  0.18467  1.0000
  C   C35       1.0  0.32698  0.05890  0.21620  1.0000
  H   H30       1.0  0.35732  0.01772  0.24409  1.0000
  H   H31       1.0  0.34954  0.00424  0.18848  1.0000
  H   H32       1.0  0.31285  0.06060  0.16812  1.0000
  H   H33       1.0  0.32119  0.07437  0.22338  1.0000
  C   C36       1.0  0.34925  0.21319  0.35388  1.0000
  C   C37       1.0  0.34036  0.21835  0.32346  1.0000
  C   C38       1.0  0.33027  0.20262  0.30536  1.0000
  C   C39       1.0  0.32910  0.18164  0.31755  1.0000
  C   C40       1.0  0.33777  0.17652  0.34814  1.0000
  C   C41       1.0  0.34786  0.19227  0.36627  1.0000
  H   H34       1.0  0.34128  0.23443  0.31376  1.0000
  H   H35       1.0  0.32344  0.20669  0.28181  1.0000
  H   H36       1.0  0.33697  0.16035  0.35771  1.0000
  H   H37       1.0  0.35475  0.18815  0.38976  1.0000
  Fe  Fe13      1.0  0.35279  0.31085  0.38586  1.0000
  C   C42       1.0  0.01564  0.03143  0.10939  1.0000
  H   H38       1.0  0.99959  0.10896  0.43796  1.0000
  N   N1        1.0  0.26723  0.22929  0.33265  1.0000
  C   C43       1.0  0.24395  0.23473  0.32848  1.0000
  C   C44       1.0  0.27011  0.20561  0.32836  1.0000
  C   C45       1.0  0.27383  0.23603  0.36637  1.0000
  C   C46       1.0  0.28094  0.24087  0.30745  1.0000
  C   C47       1.0  0.27574  0.23667  0.27104  1.0000
  C   C48       1.0  0.23850  0.25884  0.32538  1.0000
  C   C49       1.0  0.29692  0.23012  0.37631  1.0000
  C   C50       1.0  0.26001  0.19104  0.35552  1.0000
  C   C51       1.0  0.26331  0.16753  0.34762  1.0000
  C   C52       1.0  0.28912  0.25089  0.24798  1.0000
  C   C53       1.0  0.21445  0.26249  0.32426  1.0000
  C   C54       1.0  0.30085  0.23529  0.41219  1.0000
  H   H39       1.0  0.23443  0.22827  0.34966  1.0000
  H   H40       1.0  0.23738  0.22678  0.30664  1.0000
  H   H41       1.0  0.26309  0.20063  0.30476  1.0000
  H   H42       1.0  0.28727  0.20139  0.32605  1.0000
  H   H43       1.0  0.26262  0.22960  0.38550  1.0000
  H   H44       1.0  0.27274  0.25365  0.36839  1.0000
  H   H45       1.0  0.28053  0.25835  0.31154  1.0000
  H   H46       1.0  0.29792  0.23632  0.31033  1.0000
  H   H47       1.0  0.25874  0.23980  0.26569  1.0000
  H   H48       1.0  0.27945  0.21987  0.26497  1.0000
  H   H49       1.0  0.24457  0.26782  0.34643  1.0000
  H   H50       1.0  0.24545  0.26586  0.30246  1.0000
  H   H51       1.0  0.30852  0.23953  0.36129  1.0000
  H   H52       1.0  0.30041  0.21295  0.37316  1.0000
  H   H53       1.0  0.26735  0.19378  0.37967  1.0000
  H   H54       1.0  0.24261  0.19391  0.35775  1.0000
  H   H55       1.0  0.25573  0.16367  0.32399  1.0000
  H   H56       1.0  0.28057  0.16371  0.34591  1.0000
  H   H57       1.0  0.25600  0.15730  0.36726  1.0000
  H   H58       1.0  0.28590  0.24692  0.22208  1.0000
  H   H59       1.0  0.28500  0.26793  0.25156  1.0000
  H   H60       1.0  0.30638  0.24851  0.25254  1.0000
  H   H61       1.0  0.20658  0.25648  0.34722  1.0000
  H   H62       1.0  0.21108  0.27983  0.32178  1.0000
  H   H63       1.0  0.31776  0.23189  0.41798  1.0000
  H   H64       1.0  0.29771  0.25244  0.41667  1.0000
  C   C55       1.0  0.03103  0.29423  0.34758  1.0000
  N   N2        1.0  0.40266  0.19038  0.27667  1.0000
  C   C56       1.0  0.41838  0.17707  0.25745  1.0000
  C   C57       1.0  0.38220  0.19209  0.25774  1.0000
  C   C58       1.0  0.41177  0.21261  0.27854  1.0000
  C   C59       1.0  0.39857  0.18178  0.31120  1.0000
  C   C60       1.0  0.39997  0.15721  0.31668  1.0000
  C   C61       1.0  0.44161  0.17716  0.27005  1.0000
  C   C62       1.0  0.39730  0.22965  0.29481  1.0000
  C   C63       1.0  0.37037  0.17101  0.25122  1.0000
  C   C64       1.0  0.35216  0.17468  0.22721  1.0000
  C   C65       1.0  0.45463  0.15871  0.25613  1.0000
  C   C66       1.0  0.40966  0.25023  0.30026  1.0000
  H   H65       1.0  0.41903  0.18265  0.23127  1.0000
  H   H66       1.0  0.41317  0.16025  0.25643  1.0000
  H   H67       1.0  0.37038  0.20210  0.27098  1.0000
  H   H68       1.0  0.38524  0.20035  0.23363  1.0000
  H   H69       1.0  0.41623  0.21879  0.25350  1.0000
  H   H70       1.0  0.42672  0.21233  0.29288  1.0000
  H   H71       1.0  0.41001  0.18871  0.32869  1.0000
  H   H72       1.0  0.38260  0.18706  0.32017  1.0000
  H   H73       1.0  0.41654  0.15150  0.31290  1.0000
  H   H74       1.0  0.38973  0.14849  0.29970  1.0000
  H   H75       1.0  0.44961  0.19221  0.26208  1.0000
  H   H76       1.0  0.44206  0.17609  0.29726  1.0000
  H   H77       1.0  0.39109  0.22385  0.31896  1.0000
  H   H78       1.0  0.38364  0.23385  0.27890  1.0000
  H   H79       1.0  0.38089  0.15874  0.24041  1.0000
  H   H80       1.0  0.36329  0.16465  0.27448  1.0000
  H   H81       1.0  0.34089  0.18689  0.23652  1.0000
  H   H82       1.0  0.35844  0.17988  0.20272  1.0000
  H   H83       1.0  0.34323  0.15959  0.22439  1.0000
  H   H84       1.0  0.44788  0.14318  0.26463  1.0000
  H   H85       1.0  0.45478  0.15948  0.22884  1.0000
  H   H86       1.0  0.47131  0.15968  0.26468  1.0000
  H   H87       1.0  0.39920  0.26206  0.31243  1.0000
  H   H88       1.0  0.42351  0.24721  0.31636  1.0000
  H   H89       1.0  0.41529  0.25727  0.27644  1.0000
  H   H90       1.0  0.24496  0.05229  0.32501  1.0000
  C   C67       1.0  0.30801  0.01993  0.31569  1.0000
  H   H91       1.0  0.09322  0.11158  0.14867  1.0000
  H   H92       1.0  0.09272  0.07901  0.11046  1.0000
  S   S30       1.0  0.45266  0.30035  0.04957  1.0000
  H   H93       1.0  0.26662  0.06790  0.21300  1.0000
  H   H94       1.0  0.10445  0.27911  0.27907  1.0000
  H   H95       1.0  0.09924  0.08330  0.06762  1.0000
  H   H96       1.0  0.23798  0.02811  0.13320  1.0000
  H   H97       1.0  0.11481  0.28663  0.39432  1.0000
  C   C68       1.0  0.10316  0.08808  0.09293  1.0000
  C   C69       1.0  0.09945  0.11201  0.09637  1.0000
  H   H98       1.0  0.27685  0.02498  0.33649  1.0000
  H   H99       1.0  0.24888  0.01528  0.25971  1.0000
  C   C70       1.0  0.39342  0.15072  0.35176  1.0000
  C   C71       1.0  0.02912  0.09593  0.45772  1.0000
  C   C72       1.0  0.13114  0.14426  0.22276  1.0000
  H   H100      1.0  0.09168  0.09007  0.44683  1.0000
  H   H101      1.0  0.26191  0.05740  0.15028  1.0000
  H   H102      1.0  0.06000  0.10717  0.33817  1.0000
  C   C73       1.0  0.08352  0.15176  0.12550  1.0000
  H   H103      1.0  0.28178  0.05830  0.30978  1.0000
  H   H104      1.0  0.13639  0.16109  0.22011  1.0000
  H   H105      1.0  0.28479  0.03845  0.22072  1.0000
  H   H106      1.0  0.37645  0.15468  0.35652  1.0000
  H   H107      1.0  0.10692  0.31625  0.25947  1.0000
  C   C74       1.0  0.25054  0.00507  0.08078  1.0000
  H   H108      1.0  0.08512  0.26692  0.44748  1.0000
  H   H109      1.0  0.28508  0.00723  0.18585  1.0000
  H   H110      1.0  0.31592  0.01773  0.29141  1.0000
  C   C75       1.0  0.28014  0.04029  0.03534  1.0000
  H   H111      1.0  0.16083  0.17219  0.09574  1.0000
  H   H112      1.0  0.08170  0.14996  0.09858  1.0000
  H   H113      1.0  0.07053  0.14215  0.13726  1.0000
  H   H114      1.0  0.08239  0.11496  0.09115  1.0000
  C   C76       1.0  0.09328  0.24768  0.32443  1.0000
  H   H115      1.0  0.12007  0.08388  0.09750  1.0000
  C   C77       1.0  0.05449  0.29118  0.35614  1.0000
  H   H116      1.0  0.48571  0.99353  0.18037  1.0000
  C   C78       1.0  0.26060  0.12032  0.43915  1.0000
  H   H117      1.0  0.41156  0.07166  0.04573  1.0000
  C   C79       1.0  0.40094  0.29768  0.22857  1.0000
  C   C80       1.0  0.06855  0.11120  0.40448  1.0000
  H   H118      1.0  0.99500  0.04608  0.07415  1.0000
  C   C81       1.0  0.28421  0.02404  0.31156  1.0000
  C   C82       1.0  0.14806  0.18361  0.10270  1.0000
  S   S31       1.0  0.38567  0.00709  0.99259  1.0000
  C   C83       1.0  0.22198  0.02662  0.05682  1.0000
  C   C84       1.0  0.25637  0.31221  0.31876  1.0000
  C   C85       1.0  0.40291  0.02889  0.99755  1.0000
  N   N3        1.0  0.10490  0.14327  0.13641  1.0000
  C   C86       1.0  0.10481  0.11943  0.13143  1.0000
  H   H119      1.0  0.10931  0.12049  0.07749  1.0000
  C   C87       1.0  0.12679  0.20811  0.48216  1.0000
  H   H120      1.0  0.30189  0.14036  0.46876  1.0000
  H   H121      1.0  0.20746  0.25440  0.30293  1.0000
  C   C88       1.0  0.07552  0.09309  0.45723  1.0000
  C   C89       1.0  0.36496  0.11706  0.48667  1.0000
  C   C90       1.0  0.24919  0.04474  0.08780  1.0000
  H   H122      1.0  0.13907  0.18847  0.08046  1.0000
  H   H123      1.0  0.11729  0.15620  0.09032  1.0000
  H   H124      1.0  0.12632  0.31091  0.29062  1.0000
  H   H125      1.0  0.37845  0.19917  0.46872  1.0000
  H   H126      1.0  0.23776  0.00034  0.09868  1.0000
  H   H127      1.0  0.03943  0.09582  0.38824  1.0000
  C   C91       1.0  0.13724  0.08884  0.48255  1.0000
  H   H128      1.0  0.09257  0.14201  0.18614  1.0000
  H   H129      1.0  0.12060  0.11239  0.13744  1.0000
  H   H130      1.0  0.06303  0.30566  0.34732  1.0000
  Fe  Fe14      1.0  0.45796  0.31002  0.10234  1.0000
  H   H131      1.0  0.38686  0.29003  0.23878  1.0000
  H   H132      1.0  0.99540  0.99819  0.02434  1.0000
  H   H133      1.0  0.23551  0.12345  0.47448  1.0000
  H   H134      1.0  0.39754  0.28402  0.18063  1.0000
  H   H135      1.0  0.25988  0.02079  0.18256  1.0000
  H   H136      1.0  0.98990  0.05622  0.02374  1.0000
  H   H137      1.0  0.27621  0.10587  0.20711  1.0000
  H   H138      1.0  0.28538  0.00246  0.08012  1.0000
  C   C92       1.0  0.10730  0.14697  0.17269  1.0000
  C   C93       1.0  0.12278  0.15294  0.11583  1.0000
  H   H139      1.0  0.40343  0.15885  0.36992  1.0000
  H   H140      1.0  0.02751  0.04452  0.10898  1.0000
  H   H141      1.0  0.20630  0.04506  0.34480  1.0000
  H   H142      1.0  0.24284  0.02553  0.31246  1.0000
  C   C94       1.0  0.13311  0.17361  0.12857  1.0000
  H   H143      1.0  0.10874  0.16415  0.17797  1.0000
  H   H144      1.0  0.13617  0.14137  0.11303  1.0000
  C   C95       1.0  0.29206  0.03953  0.00239  1.0000
  H   H145      1.0  0.40000  0.28781  0.47118  1.0000
  C   C96       1.0  0.42526  0.30414  0.18150  1.0000
  H   H146      1.0  0.08054  0.29391  0.28885  1.0000
  C   C97       1.0  0.27980  0.04512  0.29211  1.0000
  H   H147      1.0  0.38409  0.23852  0.44598  1.0000
  H   H148      1.0  0.20471  0.01998  0.32361  1.0000
  H   H149      1.0  0.29284  0.04768  0.27380  1.0000
  C   C98       1.0  0.24172  0.04232  0.30334  1.0000
  C   C99       1.0  0.20299  0.03754  0.32092  1.0000
  H   H150      1.0  0.04182  0.12528  0.47438  1.0000
  H   H151      1.0  0.01647  0.06259  0.01353  1.0000
  C   C100      1.0  0.21505  0.01028  0.03090  1.0000
  H   H152      1.0  0.99212  0.01758  0.07911  1.0000
  H   H153      1.0  0.42554  0.27507  0.46663  1.0000
  H   H154      1.0  0.10202  0.16923  0.44015  1.0000
  H   H155      1.0  0.10560  0.28634  0.45341  1.0000
  H   H156      1.0  0.25583  0.08034  0.28430  1.0000
  C   C101      1.0  0.21810  0.04628  0.29420  1.0000
  N   N4        1.0  0.25816  0.04656  0.27647  1.0000
  H   H157      1.0  0.12195  0.11800  0.19338  1.0000
  C   C102      1.0  0.37028  0.24378  0.46119  1.0000
  H   H158      1.0  0.18627  0.04128  0.31428  1.0000
  C   C103      1.0  0.12614  0.13505  0.18929  1.0000
  C   C104      1.0  0.09137  0.20788  0.31430  1.0000
  Fe  Fe15      1.0  0.33777  0.99771  0.09813  1.0000
  H   H159      1.0  0.11754  0.28206  0.33540  1.0000
  C   C105      1.0  0.10032  0.28547  0.33177  1.0000
  H   H160      1.0  0.29054  0.22537  0.42871  1.0000
  C   C106      1.0  0.06363  0.27073  0.34059  1.0000
  H   H161      1.0  0.26632  0.04610  0.09376  1.0000
  H   H162      1.0  0.99214  0.18065  0.12864  1.0000
  H   H163      1.0  0.39535  0.13322  0.35532  1.0000
  H   H164      1.0  0.08908  0.18587  0.11677  1.0000
  Fe  Fe16      1.0  0.37684  0.30375  0.31937  1.0000
  H   H165      1.0  0.21480  0.06367  0.29203  1.0000
  C   C107      1.0  0.25463  0.06903  0.26371  1.0000
  H   H166      1.0  0.24851  0.10265  0.21851  1.0000
  H   H167      1.0  0.28638  0.07554  0.24238  1.0000
  H   H168      1.0  0.28658  0.01453  0.24463  1.0000
  H   H169      1.0  0.29015  0.03249  0.05415  1.0000
  C   C108      1.0  0.99219  0.01297  0.00962  1.0000
  S   S32       1.0  0.44450  0.08861  0.00346  1.0000
  C   C109      1.0  0.35122  0.10899  0.46296  1.0000
  H   H170      1.0  0.07876  0.25325  0.39240  1.0000
  C   C110      1.0  0.10069  0.27291  0.43798  1.0000
  C   C111      1.0  0.41301  0.31097  0.24823  1.0000
  C   C112      1.0  0.26512  0.10044  0.22703  1.0000
  H   H171      1.0  0.23835  0.07100  0.25378  1.0000
  H   H172      1.0  0.14078  0.13582  0.17374  1.0000
  H   H173      1.0  0.21423  0.03867  0.27068  1.0000
  H   H174      1.0  0.14271  0.16998  0.15069  1.0000
  C   C113      1.0  0.25535  0.03057  0.24952  1.0000
  H   H175      1.0  0.08848  0.25000  0.29842  1.0000
  S   S33       1.0  0.40609  0.31572  0.29024  1.0000
  S   S34       1.0  0.10658  0.01488  0.00156  1.0000
  C   C114      1.0  0.33345  0.09717  0.47344  1.0000
  C   C115      1.0  0.13456  0.12624  0.46791  1.0000
  H   H176      1.0  0.42930  0.31352  0.47631  1.0000
  C   C116      1.0  0.41367  0.06080  0.02563  1.0000
  C   C117      1.0  0.99885  0.20476  0.99894  1.0000
  C   C118      1.0  0.06353  0.09186  0.35123  1.0000
  C   C119      1.0  0.48577  0.22115  0.00473  1.0000
  H   H177      1.0  0.27493  0.01580  0.11586  1.0000
  C   C120      1.0  0.42919  0.06514  0.00123  1.0000
  H   H178      1.0  0.36144  0.25617  0.44698  1.0000
  H   H179      1.0  0.02393  0.01604  0.11426  1.0000
  C   C121      1.0  0.09893  0.28045  0.40219  1.0000
  H   H180      1.0  0.05469  0.15755  0.45014  1.0000
  C   C122      1.0  0.27215  0.00284  0.09840  1.0000
  H   H181      1.0  0.05321  0.17846  0.09593  1.0000
  H   H182      1.0  0.09718  0.30002  0.34611  1.0000
  Fe  Fe17      1.0  0.36279  0.99481  0.03227  1.0000
  H   H183      1.0  0.34931  0.21928  0.44559  1.0000
  H   H184      1.0  0.01094  0.26218  0.02780  1.0000
  C   C123      1.0  0.00764  0.24628  0.01946  1.0000
  H   H185      1.0  0.99616  0.08702  0.46673  1.0000
  H   H186      1.0  0.24887  0.04022  0.01587  1.0000
  C   C124      1.0  0.31242  0.15352  0.46006  1.0000
  C   C125      1.0  0.35871  0.30968  0.48506  1.0000
  H   H187      1.0  0.05437  0.25732  0.35183  1.0000
  C   C126      1.0  0.00375  0.03083  0.07692  1.0000
  H   H188      1.0  0.08582  0.10973  0.39800  1.0000
  H   H189      1.0  0.40975  0.28055  0.43083  1.0000
  C   C127      1.0  0.19114  0.01169  0.02464  1.0000
  H   H190      1.0  0.11920  0.20895  0.45770  1.0000
  H   H191      1.0  0.05532  0.28992  0.38327  1.0000
  H   H192      1.0  0.10897  0.20652  0.31509  1.0000
  H   H193      1.0  0.31559  0.03344  0.32816  1.0000
  H   H194      1.0  0.05931  0.27078  0.31419  1.0000
  H   H195      1.0  0.05227  0.19802  0.12763  1.0000
  C   C128      1.0  0.08359  0.22598  0.33605  1.0000
  H   H196      1.0  0.06645  0.07860  0.45129  1.0000
  H   H197      1.0  0.30109  0.32256  0.36168  1.0000
  H   H198      1.0  0.03297  0.03816  0.04977  1.0000
  S   S35       1.0  0.99467  0.13016  0.10589  1.0000
  N   N5        1.0  0.24540  0.02647  0.06506  1.0000
  C   C129      1.0  0.05687  0.09290  0.38748  1.0000
  C   C130      1.0  0.23663  0.04395  0.12090  1.0000
  H   H199      1.0  0.30261  0.16583  0.44735  1.0000
  H   H200      1.0  0.23551  0.05987  0.16780  1.0000
  H   H201      1.0  0.04408  0.17106  0.13691  1.0000
  H   H202      1.0  0.32284  0.09074  0.45547  1.0000
  H   H203      1.0  0.03076  0.08417  0.43801  1.0000
  C   C131      1.0  0.09230  0.26176  0.38009  1.0000
  H   H204      1.0  0.34904  0.17487  0.45707  1.0000
  H   H205      1.0  0.15666  0.27783  0.45195  1.0000
  H   H206      1.0  0.36190  0.29645  0.46910  1.0000
  Fe  Fe18      1.0  0.32869  0.29778  0.32514  1.0000
  H   H207      1.0  0.11094  0.24575  0.32386  1.0000
  C   C132      1.0  0.00631  0.20754  0.03083  1.0000
  H   H208      1.0  0.27785  0.11639  0.43741  1.0000
  H   H209      1.0  0.08643  0.21061  0.28847  1.0000
  C   C133      1.0  0.01929  0.02698  0.04777  1.0000
  H   H210      1.0  0.06288  0.12590  0.39181  1.0000
  S   S36       1.0  0.17642  0.31259  0.39436  1.0000
  H   H211      1.0  0.31049  0.00526  0.33084  1.0000
  H   H212      1.0  0.08754  0.29392  0.40119  1.0000
  N   N6        1.0  0.08719  0.26686  0.34452  1.0000
  H   H213      1.0  0.02587  0.01078  0.05256  1.0000
  H   H214      1.0  0.47079  0.22595  0.01579  1.0000
  H   H215      1.0  0.14318  0.23756  0.47395  1.0000
  C   C134      1.0  0.00332  0.05154  0.00735  1.0000
  H   H216      1.0  0.25152  0.10846  0.42515  1.0000
  H   H217      1.0  0.08017  0.17931  0.15833  1.0000
  C   C135      1.0  0.24492  0.06057  0.14450  1.0000
  C   C136      1.0  0.04287  0.11616  0.45120  1.0000
  H   H218      1.0  0.09554  0.12997  0.44286  1.0000
  H   H219      1.0  0.26104  0.13362  0.48715  1.0000
  H   H220      1.0  0.24952  0.08645  0.47741  1.0000
  H   H221      1.0  0.15562  0.19802  0.11278  1.0000
  H   H222      1.0  0.00412  0.03429  0.12981  1.0000
  H   H223      1.0  0.02918  0.29622  0.32060  1.0000
  H   H224      1.0  0.06597  0.22632  0.33483  1.0000
  H   H225      1.0  0.08818  0.22178  0.36160  1.0000
  H   H226      1.0  0.12115  0.18576  0.13544  1.0000
  H   H227      1.0  0.08450  0.19251  0.32327  1.0000
  C   C137      1.0  0.07853  0.17548  0.13205  1.0000
  H   H228      1.0  0.24342  0.07686  0.13358  1.0000
  H   H229      1.0  0.16762  0.29954  0.47483  1.0000
  H   H230      1.0  0.18187  0.00826  0.04756  1.0000
  H   H231      1.0  0.25799  0.13626  0.42753  1.0000
  H   H232      1.0  0.05465  0.07897  0.33917  1.0000
  H   H233      1.0  0.21203  0.02323  0.07913  1.0000
  H   H234      1.0  0.36726  0.06757  0.99493  1.0000
  H   H235      1.0  0.19324  0.31550  0.22098  1.0000
  H   H236      1.0  0.30783  0.04725  0.00461  1.0000
  H   H237      1.0  0.11286  0.26011  0.44018  1.0000
  S   S37       1.0  0.00905  0.18589  0.06005  1.0000
  C   C138      1.0  0.27018  0.01140  0.19939  1.0000
  H   H238      1.0  0.26195  0.99642  0.20694  1.0000
  C   C139      1.0  0.41437  0.28667  0.45512  1.0000
  C   C140      1.0  0.33926  0.18091  0.47807  1.0000
  H   H239      1.0  0.27839  0.05736  0.04171  1.0000
  H   H240      1.0  0.01649  0.23093  0.06530  1.0000
  H   H241      1.0  0.03482  0.12632  0.43233  1.0000
  C   C141      1.0  0.08579  0.17162  0.45077  1.0000
  C   C142      1.0  0.43737  0.31740  0.20118  1.0000
  H   H242      1.0  0.06981  0.15559  0.41267  1.0000
  Fe  Fe19      1.0  0.16418  0.31348  0.34309  1.0000
  C   C143      1.0  0.09754  0.29163  0.29495  1.0000
  H   H243      1.0  0.32413  0.14687  0.44225  1.0000
  C   C144      1.0  0.16988  0.28263  0.46806  1.0000
  C   C145      1.0  0.00553  0.10166  0.46119  1.0000
  H   H244      1.0  0.13774  0.07234  0.47538  1.0000
  H   H245      1.0  0.08680  0.17164  0.47798  1.0000
  H   H246      1.0  0.40880  0.31879  0.40832  1.0000
  C   C146      1.0  0.07876  0.13181  0.45146  1.0000
  N   N7        1.0  0.06589  0.11276  0.44131  1.0000
  C   C147      1.0  0.25287  0.12037  0.47492  1.0000
  H   H247      1.0  0.07933  0.13288  0.47862  1.0000
  C   C148      1.0  0.07073  0.15413  0.43970  1.0000
  H   H248      1.0  0.14140  0.19814  0.48006  1.0000
  C   C149      1.0  0.28441  0.32210  0.35551  1.0000
  H   H249      1.0  0.21950  0.04744  0.11681  1.0000
  H   H250      1.0  0.37892  0.12590  0.47875  1.0000
  H   H251      1.0  0.32886  0.19363  0.46761  1.0000
  H   H252      1.0  0.21707  0.04276  0.04770  1.0000
  C   C150      1.0  0.06426  0.07442  0.99332  1.0000
  H   H253      1.0  0.25134  0.30478  0.29645  1.0000
  H   H254      1.0  0.18509  0.28130  0.45400  1.0000
  C   C151      1.0  0.27801  0.31251  0.32662  1.0000
  N   N8        1.0  0.01010  0.02873  0.01373  1.0000
  H   H255      1.0  0.03393  0.08784  0.48095  1.0000
  H   H256      1.0  0.22335  0.01325  0.00705  1.0000
  Fe  Fe20      1.0  0.48715  0.29037  0.04870  1.0000
  H   H257      1.0  0.07986  0.18744  0.44218  1.0000
  H   H258      1.0  0.02146  0.28037  0.35648  1.0000
  H   H259      1.0  0.00297  0.11297  0.48154  1.0000
  C   C152      1.0  0.10900  0.31242  0.28597  1.0000
  H   H260      1.0  0.21855  0.99373  0.03931  1.0000
  C   C153      1.0  0.35553  0.22500  0.46922  1.0000
  H   H261      1.0  0.05098  0.00353  0.01528  1.0000
  H   H262      1.0  0.02475  0.30878  0.35951  1.0000
  H   H263      1.0  0.25048  0.99234  0.06214  1.0000
  H   H264      1.0  0.22451  0.32053  0.33420  1.0000
  C   C154      1.0  0.19655  0.31781  0.24739  1.0000
  H   H265      1.0  0.34200  0.23102  0.48423  1.0000
  C   C155      1.0  0.36752  0.20657  0.48715  1.0000
  H   H266      1.0  0.18671  0.99971  0.00621  1.0000
  C   C156      1.0  0.43129  0.32074  0.23429  1.0000
  H   H267      1.0  0.37609  0.25100  0.48407  1.0000
  H   H268      1.0  0.27487  0.09529  0.48922  1.0000
  C   C157      1.0  0.03963  0.00220  0.99471  1.0000
  C   C158      1.0  0.42514  0.30841  0.45134  1.0000
  H   H269      1.0  0.43988  0.30601  0.43654  1.0000
  C   C159      1.0  0.24117  0.32134  0.33994  1.0000
  H   H270      1.0  0.29475  0.02276  0.99505  1.0000
  H   H271      1.0  0.99527  0.18889  0.99077  1.0000
  C   C160      1.0  0.32381  0.16293  0.48935  1.0000
  H   H272      1.0  0.09669  0.30715  0.99289  1.0000
  S   S38       1.0  0.32647  0.26047  0.69827  1.0000
  Fe  Fe21      1.0  0.36605  0.15427  0.64489  1.0000
  S   S39       1.0  0.38361  0.12407  0.63267  1.0000
  S   S40       1.0  0.37832  0.18678  0.63009  1.0000
  Fe  Fe22      1.0  0.32916  0.13066  0.67693  1.0000
  S   S41       1.0  0.34412  0.09873  0.66841  1.0000
  S   S42       1.0  0.29619  0.13591  0.69771  1.0000
  Fe  Fe23      1.0  0.37468  0.11403  0.68484  1.0000
  S   S43       1.0  0.39886  0.09777  0.71917  1.0000
  Fe  Fe24      1.0  0.35149  0.11195  0.61744  1.0000
  S   S44       1.0  0.33912  0.09428  0.57304  1.0000
  S   S45       1.0  0.35881  0.14495  0.69727  1.0000
  S   S46       1.0  0.33497  0.14305  0.62589  1.0000
  Fe  Fe25      1.0  0.19329  0.09301  0.63832  1.0000
  S   S47       1.0  0.16397  0.07528  0.62337  1.0000
  S   S48       1.0  0.22662  0.08309  0.62437  1.0000
  Fe  Fe26      1.0  0.16821  0.12676  0.67357  1.0000
  S   S49       1.0  0.13693  0.11182  0.66228  1.0000
  S   S50       1.0  0.17190  0.15667  0.70222  1.0000
  Fe  Fe27      1.0  0.15304  0.08072  0.67585  1.0000
  S   S51       1.0  0.13594  0.05559  0.70798  1.0000
  Fe  Fe28      1.0  0.15074  0.10788  0.61124  1.0000
  S   S52       1.0  0.13282  0.12188  0.56754  1.0000
  S   S53       1.0  0.18332  0.09623  0.69110  1.0000
  S   S54       1.0  0.18106  0.12499  0.62236  1.0000
  Fe  Fe29      1.0  0.12526  0.26608  0.66907  1.0000
  H   H273      1.0  0.07508  0.26901  0.82236  1.0000
  S   S55       1.0  0.11480  0.23378  0.65183  1.0000
  S   S56       1.0  0.15346  0.28064  0.64319  1.0000
  S   S57       1.0  0.13794  0.27113  0.71923  1.0000
  Fe  Fe30      1.0  0.46492  0.11750  0.89065  1.0000
  S   S58       1.0  0.45957  0.13272  0.93988  1.0000
  S   S59       1.0  0.43973  0.12899  0.85353  1.0000
  Fe  Fe31      1.0  0.46579  0.10007  0.96132  1.0000
  C   C161      1.0  0.45289  0.19071  0.81892  1.0000
  S   S60       1.0  0.46903  0.08450  0.91246  1.0000
  H   H274      1.0  0.03955  0.18346  0.85598  1.0000
  S   S61       1.0  0.15663  0.00444  0.94192  1.0000
  S   S62       1.0  0.16028  0.01932  0.85091  1.0000
  C   C162      1.0  0.27608  0.31679  0.51427  1.0000
  H   H275      1.0  0.02149  0.02369  0.96395  1.0000
  S   S63       1.0  0.10866  0.30864  0.77088  1.0000
  H   H276      1.0  0.37395  0.18736  0.71578  1.0000
  Fe  Fe32      1.0  0.00140  0.30175  0.95757  1.0000
  H   H277      1.0  0.32619  0.20733  0.52135  1.0000
  C   C163      1.0  0.07411  0.06620  0.96507  1.0000
  H   H278      1.0  0.09479  0.04178  0.94531  1.0000
  H   H279      1.0  0.07148  0.07387  0.94144  1.0000
  H   H280      1.0  0.41165  0.14175  0.91828  1.0000
  H   H281      1.0  0.23282  0.31069  0.51252  1.0000
  H   H282      1.0  0.24378  0.27648  0.70274  1.0000
  H   H283      1.0  0.39973  0.18645  0.52194  1.0000
  H   H284      1.0  0.17990  0.24552  0.55040  1.0000
  H   H285      1.0  0.01403  0.23447  0.87785  1.0000
  H   H286      1.0  0.01125  0.23476  0.83485  1.0000
  H   H287      1.0  0.06371  0.10062  0.50726  1.0000
  H   H288      1.0  0.27463  0.30518  0.49404  1.0000
  H   H289      1.0  0.06372  0.00927  0.95687  1.0000
  C   C164      1.0  0.14337  0.04490  0.74707  1.0000
  C   C165      1.0  0.16174  0.05155  0.76287  1.0000
  C   C166      1.0  0.16650  0.04362  0.79461  1.0000
  C   C167      1.0  0.15311  0.02877  0.81096  1.0000
  C   C168      1.0  0.13481  0.02195  0.79504  1.0000
  C   C169      1.0  0.13005  0.02992  0.76326  1.0000
  H   H290      1.0  0.17208  0.06298  0.75071  1.0000
  H   H291      1.0  0.18062  0.04909  0.80674  1.0000
  H   H292      1.0  0.12436  0.01051  0.80717  1.0000
  H   H293      1.0  0.11581  0.02459  0.75128  1.0000
  C   C170      1.0  0.15701  0.17819  0.68628  1.0000
  C   C171      1.0  0.15759  0.19768  0.70218  1.0000
  C   C172      1.0  0.14516  0.21489  0.69110  1.0000
  C   C173      1.0  0.13161  0.21262  0.66446  1.0000
  C   C174      1.0  0.13125  0.19315  0.64813  1.0000
  C   C175      1.0  0.14413  0.17601  0.65877  1.0000
  H   H294      1.0  0.16733  0.19935  0.72357  1.0000
  H   H295      1.0  0.14562  0.22968  0.70390  1.0000
  H   H296      1.0  0.12090  0.19125  0.62738  1.0000
  H   H297      1.0  0.14364  0.16101  0.64618  1.0000
  H   H298      1.0  0.42110  0.08277  0.87360  1.0000
  C   C176      1.0  0.35554  0.06310  0.97610  1.0000
  C   C177      1.0  0.13617  0.11508  0.52575  1.0000
  H   H299      1.0  0.41166  0.13872  0.96239  1.0000
  C   C178      1.0  0.14311  0.23015  0.52710  1.0000
  H   H300      1.0  0.13901  0.08129  0.53456  1.0000
  H   H301      1.0  0.31925  0.28876  0.54750  1.0000
  C   C179      1.0  0.41006  0.10670  0.75656  1.0000
  C   C180      1.0  0.42726  0.09538  0.77043  1.0000
  C   C181      1.0  0.43654  0.10182  0.80008  1.0000
  C   C182      1.0  0.42874  0.11977  0.81625  1.0000
  C   C183      1.0  0.41139  0.13096  0.80257  1.0000
  C   C184      1.0  0.40198  0.12437  0.77316  1.0000
  H   H302      1.0  0.43353  0.08156  0.75805  1.0000
  H   H303      1.0  0.44980  0.09297  0.81024  1.0000
  H   H304      1.0  0.40501  0.14467  0.81508  1.0000
  H   H305      1.0  0.38829  0.13273  0.76350  1.0000
  C   C185      1.0  0.27702  0.12263  0.67478  1.0000
  C   C186      1.0  0.28307  0.10656  0.65321  1.0000
  C   C187      1.0  0.26753  0.09464  0.63745  1.0000
  C   C188      1.0  0.24588  0.09904  0.64264  1.0000
  C   C189      1.0  0.23983  0.11577  0.66300  1.0000
  C   C190      1.0  0.25539  0.12748  0.67918  1.0000
  H   H306      1.0  0.29972  0.10293  0.64923  1.0000
  H   H307      1.0  0.27237  0.08179  0.62166  1.0000
  H   H308      1.0  0.22315  0.11940  0.66693  1.0000
  H   H309      1.0  0.25068  0.13991  0.69576  1.0000
  H   H310      1.0  0.43109  0.17072  0.77207  1.0000
  C   C191      1.0  0.36111  0.11329  0.52049  1.0000
  C   C192      1.0  0.34367  0.10101  0.53095  1.0000
  C   C193      1.0  0.13804  0.09387  0.51611  1.0000
  H   H311      1.0  0.37206  0.11917  0.53841  1.0000
  H   H312      1.0  0.18354  0.22038  0.63311  1.0000
  C   C194      1.0  0.33983  0.24034  0.67680  1.0000
  C   C195      1.0  0.35611  0.24518  0.65408  1.0000
  C   C196      1.0  0.36765  0.22866  0.63917  1.0000
  C   C197      1.0  0.36266  0.20732  0.64654  1.0000
  C   C198      1.0  0.34570  0.20256  0.66800  1.0000
  C   C199      1.0  0.33453  0.21903  0.68349  1.0000
  H   H313      1.0  0.36020  0.26164  0.64876  1.0000
  H   H314      1.0  0.38068  0.23242  0.62242  1.0000
  H   H315      1.0  0.34149  0.18617  0.67337  1.0000
  H   H316      1.0  0.32189  0.21525  0.70091  1.0000
  C   C200      1.0  0.32989  0.09297  0.50723  1.0000
  H   H317      1.0  0.13062  0.27127  0.57945  1.0000
  N   N9        1.0  0.23769  0.20515  0.70187  1.0000
  C   C201      1.0  0.23483  0.18662  0.67925  1.0000
  C   C202      1.0  0.25169  0.19807  0.72995  1.0000
  C   C203      1.0  0.21600  0.21051  0.71626  1.0000
  C   C204      1.0  0.24661  0.22482  0.68462  1.0000
  C   C205      1.0  0.26275  0.22129  0.65589  1.0000
  C   C206      1.0  0.21790  0.18981  0.65226  1.0000
  C   C207      1.0  0.21547  0.22776  0.74310  1.0000
  C   C208      1.0  0.27466  0.19090  0.72113  1.0000
  C   C209      1.0  0.28558  0.18074  0.75089  1.0000
  C   C210      1.0  0.27378  0.24212  0.64567  1.0000
  C   C211      1.0  0.21967  0.17261  0.62631  1.0000
  C   C212      1.0  0.19260  0.23339  0.75309  1.0000
  H   H318      1.0  0.22999  0.17213  0.69375  1.0000
  H   H319      1.0  0.25001  0.18223  0.66688  1.0000
  H   H320      1.0  0.25387  0.21123  0.74743  1.0000
  H   H321      1.0  0.24380  0.18483  0.74412  1.0000
  H   H322      1.0  0.20826  0.19588  0.72684  1.0000
  H   H323      1.0  0.20521  0.21653  0.69665  1.0000
  H   H324      1.0  0.23355  0.23483  0.67410  1.0000
  H   H325      1.0  0.25433  0.23525  0.70278  1.0000
  H   H326      1.0  0.25443  0.21534  0.63407  1.0000
  H   H327      1.0  0.27527  0.20954  0.66208  1.0000
  H   H328      1.0  0.20164  0.18869  0.66326  1.0000
  H   H329      1.0  0.21957  0.20562  0.63996  1.0000
  H   H330      1.0  0.22345  0.24256  0.73415  1.0000
  H   H331      1.0  0.22341  0.22201  0.76578  1.0000
  H   H332      1.0  0.27514  0.17900  0.70146  1.0000
  H   H333      1.0  0.28430  0.20497  0.71345  1.0000
  H   H334      1.0  0.28644  0.19219  0.77127  1.0000
  H   H335      1.0  0.27691  0.16619  0.75937  1.0000
  H   H336      1.0  0.30203  0.17592  0.74386  1.0000
  H   H337      1.0  0.28523  0.23920  0.62519  1.0000
  H   H338      1.0  0.26191  0.25415  0.63733  1.0000
  H   H339      1.0  0.28282  0.24860  0.66650  1.0000
  H   H340      1.0  0.23528  0.17355  0.61321  1.0000
  H   H341      1.0  0.21791  0.15655  0.63798  1.0000
  H   H342      1.0  0.20677  0.17481  0.60815  1.0000
  H   H343      1.0  0.19268  0.24685  0.77038  1.0000
  H   H344      1.0  0.18321  0.23840  0.73132  1.0000
  H   H345      1.0  0.18472  0.21954  0.76546  1.0000
  N   N10       1.0  0.12193  0.11512  0.77310  1.0000
  C   C213      1.0  0.14327  0.10400  0.77138  1.0000
  C   C214      1.0  0.10536  0.10082  0.75855  1.0000
  C   C215      1.0  0.12339  0.13502  0.75157  1.0000
  C   C216      1.0  0.11568  0.12138  0.80763  1.0000
  C   C217      1.0  0.12335  0.10660  0.83630  1.0000
  C   C218      1.0  0.16270  0.11785  0.78047  1.0000
  C   C219      1.0  0.10256  0.14828  0.74790  1.0000
  C   C220      1.0  0.10020  0.07991  0.77775  1.0000
  C   C221      1.0  0.08501  0.06595  0.75864  1.0000
  C   C222      1.0  0.11226  0.11222  0.86867  1.0000
  C   C223      1.0  0.18211  0.10427  0.78933  1.0000
  C   C224      1.0  0.10683  0.16971  0.73063  1.0000
  H   H346      1.0  0.14636  0.09814  0.74606  1.0000
  H   H347      1.0  0.14336  0.08940  0.78708  1.0000
  H   H348      1.0  0.08979  0.10911  0.75672  1.0000
  H   H349      1.0  0.11014  0.09667  0.73292  1.0000
  H   H350      1.0  0.12913  0.13099  0.72642  1.0000
  H   H351      1.0  0.13548  0.14613  0.76116  1.0000
  H   H352      1.0  0.12187  0.13754  0.81310  1.0000
  H   H353      1.0  0.09803  0.12292  0.80973  1.0000
  H   H354      1.0  0.14073  0.10839  0.83984  1.0000
  H   H355      1.0  0.12043  0.08954  0.83197  1.0000
  H   H356      1.0  0.16732  0.12822  0.75918  1.0000
  H   H357      1.0  0.15895  0.12835  0.80136  1.0000
  H   H358      1.0  0.09512  0.15148  0.77217  1.0000
  H   H359      1.0  0.09093  0.13985  0.73259  1.0000
  H   H360      1.0  0.11470  0.07041  0.78273  1.0000
  H   H361      1.0  0.09208  0.08356  0.80138  1.0000
  H   H362      1.0  0.08177  0.05100  0.77286  1.0000
  H   H363      1.0  0.06967  0.07436  0.75440  1.0000
  H   H364      1.0  0.09220  0.06162  0.73459  1.0000
  H   H365      1.0  0.09481  0.10967  0.86709  1.0000
  H   H366      1.0  0.11842  0.10179  0.88879  1.0000
  H   H367      1.0  0.11536  0.12908  0.87488  1.0000
  H   H368      1.0  0.19521  0.11483  0.79693  1.0000
  H   H369      1.0  0.17828  0.09307  0.81003  1.0000
  H   H370      1.0  0.18769  0.09516  0.76777  1.0000
  H   H371      1.0  0.11881  0.17907  0.74397  1.0000
  H   H372      1.0  0.11263  0.16711  0.70517  1.0000
  H   H373      1.0  0.09186  0.17916  0.72931  1.0000
  N   N11       1.0  0.03251  0.25893  0.85254  1.0000
  C   C225      1.0  0.04998  0.26183  0.87716  1.0000
  H   H374      1.0  0.03010  0.25721  0.79956  1.0000
  H   H375      1.0  0.25638  0.07454  0.56822  1.0000
  H   H376      1.0  0.23369  0.05447  0.52594  1.0000
  H   H377      1.0  0.02148  0.29078  0.86389  1.0000
  C   C226      1.0  0.04405  0.25648  0.91348  1.0000
  H   H378      1.0  0.42347  0.13431  0.67674  1.0000
  H   H379      1.0  0.13386  0.21914  0.54368  1.0000
  H   H380      1.0  0.28482  0.15088  0.55375  1.0000
  N   N12       1.0  0.35371  0.18975  0.50382  1.0000
  C   C227      1.0  0.06314  0.25930  0.93583  1.0000
  H   H381      1.0  0.25319  0.13004  0.54016  1.0000
  H   H382      1.0  0.05571  0.27860  0.87590  1.0000
  H   H383      1.0  0.06416  0.25200  0.87126  1.0000
  H   H384      1.0  0.18220  0.03980  0.69093  1.0000
  C   C228      1.0  0.99659  0.27647  0.83546  1.0000
  H   H385      1.0  0.08464  0.07253  0.53651  1.0000
  H   H386      1.0  0.39838  0.25998  0.68583  1.0000
  H   H387      1.0  0.06460  0.27753  0.76405  1.0000
  C   C229      1.0  0.25973  0.03544  0.54335  1.0000
  H   H388      1.0  0.05294  0.21941  0.86669  1.0000
  H   H389      1.0  0.10476  0.30962  0.50494  1.0000
  H   H390      1.0  0.03135  0.26722  0.92236  1.0000
  H   H391      1.0  0.03851  0.23979  0.91659  1.0000
  H   H392      1.0  0.35535  0.16668  0.76166  1.0000
  C   C230      1.0  0.30038  0.05328  0.70215  1.0000
  C   C231      1.0  0.36312  0.30794  0.51895  1.0000
  H   H393      1.0  0.33946  0.06790  0.98491  1.0000
  H   H394      1.0  0.25932  0.31621  0.77491  1.0000
  C   C232      1.0  0.41541  0.21920  0.73973  1.0000
  C   C233      1.0  0.25966  0.07586  0.54127  1.0000
  H   H395      1.0  0.00710  0.27022  0.88479  1.0000
  H   H396      1.0  0.39148  0.22234  0.69987  1.0000
  C   C234      1.0  0.11855  0.31780  0.51396  1.0000
  C   C235      1.0  0.03894  0.21796  0.85068  1.0000
  H   H397      1.0  0.25405  0.03514  0.56933  1.0000
  C   C236      1.0  0.41873  0.16017  0.71063  1.0000
  H   H398      1.0  0.28374  0.06791  0.74192  1.0000
  H   H399      1.0  0.38168  0.19140  0.55553  1.0000
  H   H400      1.0  0.22935  0.03135  0.67361  1.0000
  H   H401      1.0  0.41953  0.19647  0.81467  1.0000
  C   C237      1.0  0.22104  0.02724  0.77655  1.0000
  C   C238      1.0  0.29094  0.13634  0.56644  1.0000
  C   C239      1.0  0.39659  0.16042  0.55646  1.0000
  H   H402      1.0  0.33939  0.18773  0.74393  1.0000
  C   C240      1.0  0.02318  0.23680  0.85440  1.0000
  C   C241      1.0  0.06855  0.26109  0.77260  1.0000
  C   C242      1.0  0.99966  0.24358  0.98788  1.0000
  H   H403      1.0  0.31599  0.05450  0.71448  1.0000
  H   H404      1.0  0.40992  0.16599  0.57168  1.0000
  Fe  Fe33      1.0  0.12280  0.99867  0.95850  1.0000
  C   C243      1.0  0.04061  0.26436  0.81816  1.0000
  H   H405      1.0  0.10020  0.24419  0.53861  1.0000
  S   S64       1.0  0.04726  0.09675  0.98960  1.0000
  H   H406      1.0  0.30033  0.03844  0.68773  1.0000
  H   H407      1.0  0.04213  0.99269  0.94347  1.0000
  C   C244      1.0  0.08444  0.31566  0.79114  1.0000
  C   C245      1.0  0.25414  0.29772  0.66356  1.0000
  H   H408      1.0  0.24356  0.01699  0.73874  1.0000
  H   H409      1.0  0.15012  0.28496  0.53259  1.0000
  H   H410      1.0  0.21962  0.08831  0.50913  1.0000
  H   H411      1.0  0.27080  0.29421  0.66701  1.0000
  H   H412      1.0  0.41869  0.26115  0.71662  1.0000
  C   C246      1.0  0.31976  0.19751  0.58481  1.0000
  Fe  Fe34      1.0  0.14479  0.99764  0.89084  1.0000
  H   H413      1.0  0.18425  0.27388  0.51379  1.0000
  C   C247      1.0  0.43248  0.18801  0.76579  1.0000
  S   S65       1.0  0.10561  0.29629  0.66857  1.0000
  H   H414      1.0  0.37528  0.11014  0.90605  1.0000
  H   H415      1.0  0.43935  0.02646  0.86286  1.0000
  H   H416      1.0  0.07613  0.24806  0.92920  1.0000
  H   H417      1.0  0.25832  0.09298  0.72396  1.0000
  H   H418      1.0  0.41842  0.22640  0.68684  1.0000
  H   H419      1.0  0.01409  0.19423  0.84402  1.0000
  N   N13       1.0  0.41457  0.19514  0.74358  1.0000
  H   H420      1.0  0.40579  0.18964  0.69285  1.0000
  H   H421      1.0  0.32663  0.17090  0.55401  1.0000
  C   C248      1.0  0.06474  0.31887  0.84331  1.0000
  Fe  Fe35      1.0  0.16469  0.28804  0.69331  1.0000
  H   H422      1.0  0.39547  0.10342  0.95948  1.0000
  C   C249      1.0  0.37333  0.19366  0.74094  1.0000
  H   H423      1.0  0.40275  0.14827  0.53922  1.0000
  S   S66       1.0  0.03387  0.31205  0.93902  1.0000
  H   H424      1.0  0.37008  0.29343  0.52884  1.0000
  S   S67       1.0  0.99355  0.26560  0.96072  1.0000
  H   H425      1.0  0.14033  0.32046  0.90977  1.0000
  H   H426      1.0  0.19724  0.05116  0.65660  1.0000
  S   S68       1.0  0.19851  0.28050  0.70676  1.0000
  C   C250      1.0  0.99540  0.22264  0.97782  1.0000
  H   H427      1.0  0.10597  0.27197  0.52926  1.0000
  H   H428      1.0  0.29131  0.10256  0.56217  1.0000
  C   C251      1.0  0.25133  0.05527  0.52532  1.0000
  H   H429      1.0  0.38444  0.15301  0.57310  1.0000
  H   H430      1.0  0.31592  0.18712  0.60646  1.0000
  H   H431      1.0  0.25392  0.11222  0.57424  1.0000
  H   H432      1.0  0.39981  0.11147  0.88450  1.0000
  C   C252      1.0  0.28411  0.11631  0.54877  1.0000
  H   H433      1.0  0.01180  0.05880  0.95592  1.0000
  Fe  Fe36      1.0  0.13537  0.31132  0.64588  1.0000
  C   C253      1.0  0.19575  0.03722  0.67358  1.0000
  H   H434      1.0  0.12460  0.24362  0.58399  1.0000
  C   C254      1.0  0.08841  0.26594  0.57400  1.0000
  C   C255      1.0  0.13458  0.13122  0.50147  1.0000
  C   C256      1.0  0.35378  0.18423  0.75862  1.0000
  H   H435      1.0  0.28516  0.03928  0.74480  1.0000
  C   C257      1.0  0.08305  0.31271  0.82542  1.0000
  H   H436      1.0  0.39414  0.17073  0.76486  1.0000
  H   H437      1.0  0.21460  0.01903  0.70711  1.0000
  H   H438      1.0  0.43619  0.21674  0.79605  1.0000
  H   H439      1.0  0.30860  0.13700  0.56644  1.0000
  Fe  Fe37      1.0  0.12043  0.30245  0.71811  1.0000
  H   H440      1.0  0.37084  0.21117  0.73982  1.0000
  C   C258      1.0  0.25450  0.32068  0.74956  1.0000
  H   H441      1.0  0.45113  0.17331  0.82390  1.0000
  C   C259      1.0  0.42403  0.15201  0.67637  1.0000
  H   H442      1.0  0.39184  0.19562  0.78399  1.0000
  C   C260      1.0  0.36757  0.07865  0.81103  1.0000
  H   H443      1.0  0.42007  0.10452  0.93644  1.0000
  H   H444      1.0  0.23338  0.10967  0.78365  1.0000
  H   H445      1.0  0.26204  0.10674  0.77986  1.0000
  C   C261      1.0  0.40326  0.11000  0.93690  1.0000
  C   C262      1.0  0.22664  0.09569  0.53115  1.0000
  C   C263      1.0  0.43197  0.05092  0.97552  1.0000
  H   H446      1.0  0.30466  0.20194  0.57251  1.0000
  H   H447      1.0  0.35994  0.09181  0.94773  1.0000
  C   C264      1.0  0.40682  0.22921  0.70720  1.0000
  H   H448      1.0  0.20627  0.02737  0.76195  1.0000
  H   H449      1.0  0.44027  0.15707  0.66848  1.0000
  H   H450      1.0  0.38245  0.10297  0.83879  1.0000
  C   C265      1.0  0.24708  0.10950  0.76614  1.0000
  H   H451      1.0  0.24816  0.12537  0.75369  1.0000
  C   C266      1.0  0.39159  0.10316  0.90548  1.0000
  H   H452      1.0  0.43352  0.19068  0.69963  1.0000
  C   C267      1.0  0.43400  0.19930  0.79933  1.0000
  H   H453      1.0  0.29096  0.11720  0.52356  1.0000
  C   C268      1.0  0.14974  0.26957  0.51938  1.0000
  H   H454      1.0  0.18215  0.12908  0.54054  1.0000
  H   H455      1.0  0.38147  0.05017  0.92492  1.0000
  C   C269      1.0  0.17073  0.26838  0.49883  1.0000
  H   H456      1.0  0.35004  0.21353  0.54167  1.0000
  C   C270      1.0  0.23881  0.28750  0.68356  1.0000
  H   H457      1.0  0.20758  0.00357  0.81023  1.0000
  H   H458      1.0  0.15952  0.21744  0.58563  1.0000
  H   H459      1.0  0.08636  0.25324  0.59319  1.0000
  H   H460      1.0  0.11026  0.31190  0.56512  1.0000
  C   C271      1.0  0.24117  0.03108  0.75458  1.0000
  C   C272      1.0  0.21717  0.29202  0.67948  1.0000
  H   H461      1.0  0.36789  0.06107  0.80829  1.0000
  H   H462      1.0  0.25917  0.06429  0.69239  1.0000
  C   C273      1.0  0.38275  0.08531  0.83795  1.0000
  C   C274      1.0  0.24422  0.09229  0.74057  1.0000
  H   H463      1.0  0.22983  0.09638  0.72621  1.0000
  H   H464      1.0  0.22673  0.07074  0.77193  1.0000
  H   H465      1.0  0.04434  0.21696  0.82470  1.0000
  C   C275      1.0  0.16553  0.24987  0.56513  1.0000
  C   C276      1.0  0.41821  0.18488  0.71069  1.0000
  C   C277      1.0  0.02815  0.19680  0.85971  1.0000
  H   H466      1.0  0.39899  0.08021  0.83050  1.0000
  H   H467      1.0  0.21760  0.12210  0.56309  1.0000
  H   H468      1.0  0.37799  0.21416  0.50538  1.0000
  H   H469      1.0  0.30310  0.28115  0.51353  1.0000
  H   H470      1.0  0.37261  0.08609  0.78721  1.0000
  C   C278      1.0  0.41310  0.07188  0.89184  1.0000
  H   H471      1.0  0.42309  0.07262  0.91408  1.0000
  C   C279      1.0  0.37594  0.07551  0.87177  1.0000
  C   C280      1.0  0.10548  0.25949  0.54886  1.0000
  H   H472      1.0  0.35991  0.08226  0.87729  1.0000
  N   N14       1.0  0.39081  0.07950  0.89970  1.0000
  C   C281      1.0  0.24173  0.06999  0.75713  1.0000
  H   H473      1.0  0.25461  0.06778  0.77542  1.0000
  H   H474      1.0  0.20724  0.05671  0.72921  1.0000
  S   S69       1.0  0.14867  0.31986  0.69534  1.0000
  C   C282      1.0  0.34102  0.20002  0.53123  1.0000
  H   H475      1.0  0.44716  0.04247  0.89678  1.0000
  C   C283      1.0  0.16430  0.23341  0.59406  1.0000
  H   H476      1.0  0.26478  0.31149  0.53405  1.0000
  H   H477      1.0  0.06917  0.27591  0.93401  1.0000
  H   H478      1.0  0.35161  0.19140  0.78316  1.0000
  H   H479      1.0  0.17430  0.25187  0.49119  1.0000
  C   C284      1.0  0.38277  0.06748  0.92983  1.0000
  H   H480      1.0  0.22277  0.06730  0.69642  1.0000
  H   H481      1.0  0.16900  0.26574  0.57571  1.0000
  H   H482      1.0  0.05913  0.24955  0.75850  1.0000
  H   H483      1.0  0.26203  0.30925  0.73246  1.0000
  C   C285      1.0  0.28240  0.05304  0.72786  1.0000
  H   H484      1.0  0.39444  0.06842  0.95001  1.0000
  H   H485      1.0  0.21956  0.03964  0.79550  1.0000
  H   H486      1.0  0.35106  0.08395  0.81672  1.0000
  H   H487      1.0  0.44621  0.05406  0.85569  1.0000
  H   H488      1.0  0.42079  0.02217  0.95336  1.0000
  H   H489      1.0  0.18633  0.10966  0.50913  1.0000
  N   N15       1.0  0.24119  0.05143  0.73418  1.0000
  C   C286      1.0  0.22147  0.05332  0.71359  1.0000
  C   C287      1.0  0.39389  0.18817  0.75965  1.0000
  H   H490      1.0  0.26077  0.03638  0.69705  1.0000
  C   C288      1.0  0.06403  0.25837  0.80943  1.0000
  H   H491      1.0  0.25498  0.03075  0.77139  1.0000
  C   C289      1.0  0.24788  0.31255  0.63952  1.0000
  C   C290      1.0  0.40361  0.25326  0.70986  1.0000
  H   H492      1.0  0.34890  0.18088  0.57536  1.0000
  H   H493      1.0  0.40296  0.15372  0.71800  1.0000
  H   H494      1.0  0.40693  0.22681  0.76072  1.0000
  H   H495      1.0  0.06807  0.24180  0.81662  1.0000
  H   H496      1.0  0.37330  0.05811  0.86902  1.0000
  C   C291      1.0  0.43841  0.04266  0.87327  1.0000
  C   C292      1.0  0.41510  0.04880  0.87906  1.0000
  H   H497      1.0  0.38670  0.14048  0.94120  1.0000
  H   H498      1.0  0.12945  0.29704  0.86514  1.0000
  C   C293      1.0  0.08728  0.04804  0.96719  1.0000
  H   H499      1.0  0.45362  0.19882  0.84288  1.0000
  C   C294      1.0  0.12731  0.25656  0.56545  1.0000
  H   H500      1.0  0.39104  0.25680  0.72847  1.0000
  C   C295      1.0  0.22617  0.31614  0.63413  1.0000
  H   H501      1.0  0.40824  0.03709  0.89693  1.0000
  H   H502      1.0  0.44421  0.05384  0.95710  1.0000
  C   C296      1.0  0.36066  0.07444  0.94340  1.0000
  H   H503      1.0  0.40686  0.04712  0.85536  1.0000
  H   H504      1.0  0.19406  0.30946  0.65088  1.0000
  N   N16       1.0  0.14615  0.25134  0.54352  1.0000
  C   C297      1.0  0.21648  0.03384  0.69211  1.0000
  H   H505      1.0  0.19097  0.24695  0.62025  1.0000
  H   H506      1.0  0.13307  0.14766  0.50869  1.0000
  C   C298      1.0  0.19048  0.11396  0.53459  1.0000
  H   H507      1.0  0.41234  0.15813  0.65828  1.0000
  H   H508      1.0  0.34795  0.07031  0.92600  1.0000
  H   H509      1.0  0.00264  0.28246  0.81128  1.0000
  H   H510      1.0  0.27743  0.03514  0.54272  1.0000
  N   N17       1.0  0.25075  0.09662  0.52784  1.0000
  H   H511      1.0  0.15870  0.22195  0.52326  1.0000
  H   H512      1.0  0.43095  0.15341  0.72723  1.0000
  C   C299      1.0  0.02777  0.02372  0.98937  1.0000
  C   C300      1.0  0.18559  0.23123  0.61143  1.0000
  H   H513      1.0  0.08575  0.25826  0.76740  1.0000
  C   C301      1.0  0.12169  0.31892  0.54813  1.0000
  H   H514      1.0  0.19788  0.22448  0.59470  1.0000
  C   C302      1.0  0.21079  0.30602  0.65431  1.0000
  C   C303      1.0  0.25949  0.11431  0.54828  1.0000
  C   C304      1.0  0.36822  0.17214  0.51591  1.0000
  C   C305      1.0  0.40325  0.13425  0.93973  1.0000
  H   H515      1.0  0.15269  0.23868  0.61289  1.0000
  H   H516      1.0  0.44813  0.19004  0.75283  1.0000
  H   H517      1.0  0.32757  0.21212  0.59376  1.0000
  C   C306      1.0  0.26036  0.05130  0.71135  1.0000
  H   H518      1.0  0.05817  0.25598  0.96173  1.0000
  H   H519      1.0  0.29131  0.28350  0.55432  1.0000
  S   S70       1.0  0.32121  0.29937  0.62275  1.0000
  C   C307      1.0  0.33464  0.18567  0.56128  1.0000
  H   H520      1.0  0.22179  0.08505  0.55220  1.0000
  C   C308      1.0  0.38691  0.17929  0.53762  1.0000
  H   H521      1.0  0.28511  0.13590  0.59235  1.0000
  H   H522      1.0  0.35917  0.15969  0.52978  1.0000
  Fe  Fe38      1.0  0.32875  0.29339  0.67556  1.0000
  H   H523      1.0  0.29872  0.06723  0.68515  1.0000
  H   H524      1.0  0.31657  0.08316  0.51503  1.0000
  H   H525      1.0  0.27728  0.07529  0.53823  1.0000
  H   H526      1.0  0.43220  0.22484  0.74077  1.0000
  H   H527      1.0  0.18461  0.10133  0.55191  1.0000
  H   H528      1.0  0.25385  0.02091  0.53130  1.0000
  H   H529      1.0  0.09279  0.28096  0.58612  1.0000
  H   H530      1.0  0.13900  0.31621  0.83459  1.0000
  H   H531      1.0  0.03978  0.28194  0.81350  1.0000
  H   H532      1.0  0.29897  0.32201  0.55344  1.0000
  H   H533      1.0  0.06780  0.06102  0.50605  1.0000
  H   H534      1.0  0.99146  0.00766  0.98373  1.0000
  H   H535      1.0  0.07295  0.26842  0.56156  1.0000
  C   C309      1.0  0.01484  0.27451  0.86081  1.0000
  H   H536      1.0  0.42756  0.32287  0.91664  1.0000
  C   C310      1.0  0.29837  0.31385  0.52955  1.0000
  H   H537      1.0  0.46810  0.19361  0.80532  1.0000
  C   C311      1.0  0.30318  0.29032  0.53658  1.0000
  H   H538      1.0  0.09622  0.30534  0.83805  1.0000
  C   C312      1.0  0.21452  0.11686  0.53767  1.0000
  H   H539      1.0  0.35583  0.04552  0.97331  1.0000
  H   H540      1.0  0.23689  0.31942  0.74801  1.0000
  C   C313      1.0  0.08183  0.07138  0.50973  1.0000
  C   C314      1.0  0.48773  0.20069  0.99007  1.0000
  H   H541      1.0  0.06403  0.31670  0.86970  1.0000
  C   C315      1.0  0.41878  0.03294  0.97359  1.0000
  H   H542      1.0  0.13625  0.27136  0.50225  1.0000
  H   H543      1.0  0.99513  0.09132  0.97740  1.0000
  H   H544      1.0  0.19228  0.02298  0.65885  1.0000
  H   H545      1.0  0.25685  0.05443  0.49936  1.0000
  C   C316      1.0  0.99715  0.05705  0.97140  1.0000
  H   H546      1.0  0.02297  0.19656  0.88594  1.0000
  H   H547      1.0  0.25712  0.99247  0.95999  1.0000
  H   H548      1.0  0.22279  0.99251  0.77675  1.0000
  H   H549      1.0  0.28295  0.04803  0.98294  1.0000
  C   C317      1.0  0.22210  0.00569  0.79456  1.0000
  S   S71       1.0  0.11042  0.99444  0.90756  1.0000
  H   H550      1.0  0.23625  0.00482  0.81060  1.0000
  H   H551      1.0  0.33213  0.14962  0.50203  1.0000
  H   H552      1.0  0.11549  0.20040  0.49989  1.0000
  H   H553      1.0  0.31121  0.31986  0.51306  1.0000
  H   H554      1.0  0.04006  0.03646  0.98923  1.0000
  S   S72       1.0  0.35563  0.31681  0.67710  1.0000
  C   C318      1.0  0.07796  0.09364  0.49511  1.0000
  H   H555      1.0  0.37546  0.16364  0.49469  1.0000
  S   S73       1.0  0.30474  0.31682  0.69369  1.0000
  H   H556      1.0  0.09197  0.10346  0.50133  1.0000
  H   H557      1.0  0.12386  0.31579  0.98667  1.0000
  H   H558      1.0  0.37848  0.31934  0.80304  1.0000
  C   C319      1.0  0.05271  0.99618  0.96429  1.0000
  H   H559      1.0  0.31132  0.16944  0.50592  1.0000
  H   H560      1.0  0.21940  0.12985  0.52050  1.0000
  H   H561      1.0  0.11754  0.24016  0.49277  1.0000
  C   C320      1.0  0.10693  0.32086  0.98546  1.0000
  C   C321      1.0  0.25753  0.09873  0.49221  1.0000
  H   H562      1.0  0.15742  0.30303  0.86183  1.0000
  H   H563      1.0  0.10485  0.31479  0.93427  1.0000
  C   C322      1.0  0.14116  0.30995  0.86008  1.0000
  C   C323      1.0  0.13232  0.23058  0.49296  1.0000
  H   H564      1.0  0.09614  0.06403  0.49816  1.0000
  H   H565      1.0  0.47423  0.19004  0.99004  1.0000
  H   H566      1.0  0.44968  0.40170  0.03469  1.0000
  H   H567      1.0  0.47769  0.38975  0.14416  1.0000
  H   H568      1.0  0.32829  0.33955  0.03960  1.0000
  H   H569      1.0  0.27440  0.33899  0.39838  1.0000
  S   S74       1.0  0.12759  0.32632  0.44870  1.0000
  H   H570      1.0  0.00643  0.47425  0.11405  1.0000
  H   H571      1.0  0.47628  0.42563  0.09603  1.0000
  Fe  Fe39      1.0  0.19486  0.34151  0.37874  1.0000
  S   S75       1.0  0.16915  0.36470  0.39343  1.0000
  S   S76       1.0  0.22905  0.34385  0.39475  1.0000
  H   H572      1.0  0.28814  0.42490  0.99469  1.0000
  H   H573      1.0  0.48079  0.50421  0.01282  1.0000
  Fe  Fe40      1.0  0.15784  0.36180  0.34095  1.0000
  S   S77       1.0  0.14958  0.39176  0.30997  1.0000
  C   C324      1.0  0.47188  0.56983  0.02802  1.0000
  S   S78       1.0  0.99981  0.62309  0.09708  1.0000
  S   S79       1.0  0.18492  0.34057  0.32620  1.0000
  H   H574      1.0  0.26246  0.42200  0.02970  1.0000
  H   H575      1.0  0.20480  0.34821  0.48953  1.0000
  H   H576      1.0  0.38962  0.36465  0.48406  1.0000
  S   S80       1.0  0.02478  0.56128  0.08754  1.0000
  H   H577      1.0  0.06219  0.61760  0.04989  1.0000
  H   H578      1.0  0.02953  0.47326  0.06376  1.0000
  C   C325      1.0  0.43736  0.35020  0.41075  1.0000
  H   H579      1.0  0.22839  0.32797  0.23724  1.0000
  H   H580      1.0  0.03117  0.43086  0.01913  1.0000
  Fe  Fe41      1.0  0.13278  0.48093  0.08175  1.0000
  S   S81       1.0  0.14894  0.47228  0.03406  1.0000
  S   S82       1.0  0.11657  0.51427  0.07787  1.0000
  Fe  Fe42      1.0  0.14719  0.43787  0.11457  1.0000
  S   S83       1.0  0.16308  0.42688  0.06756  1.0000
  S   S84       1.0  0.14854  0.41098  0.15416  1.0000
  Fe  Fe43      1.0  0.17683  0.45984  0.06281  1.0000
  S   S85       1.0  0.21278  0.46665  0.05404  1.0000
  Fe  Fe44      1.0  0.13411  0.44007  0.04240  1.0000
  H   H581      1.0  0.46248  0.36191  0.44259  1.0000
  S   S86       1.0  0.16204  0.47071  0.11083  1.0000
  S   S87       1.0  0.11709  0.44889  0.08899  1.0000
  C   C326      1.0  0.42189  0.35590  0.46656  1.0000
  C   C327      1.0  0.10071  0.39116  0.02953  1.0000
  H   H582      1.0  0.06525  0.44461  0.00200  1.0000
  H   H583      1.0  0.11260  0.39358  0.04808  1.0000
  H   H584      1.0  0.07861  0.64504  0.01358  1.0000
  C   C328      1.0  0.23284  0.46422  0.02246  1.0000
  H   H585      1.0  0.28827  0.36033  0.21527  1.0000
  C   C329      1.0  0.06112  0.64480  0.01779  1.0000
  S   S88       1.0  0.05640  0.34652  0.01004  1.0000
  C   C330      1.0  0.12447  0.63971  0.06620  1.0000
  H   H586      1.0  0.01135  0.45467  0.04560  1.0000
  C   C331      1.0  0.41448  0.36726  0.01893  1.0000
  H   H587      1.0  0.10282  0.62220  0.09734  1.0000
  H   H588      1.0  0.41692  0.35553  0.03837  1.0000
  H   H589      1.0  0.38371  0.37717  0.03732  1.0000
  C   C332      1.0  0.05018  0.54807  0.08279  1.0000
  C   C333      1.0  0.05281  0.52717  0.09565  1.0000
  C   C334      1.0  0.07266  0.51633  0.09359  1.0000
  C   C335      1.0  0.09048  0.52636  0.07911  1.0000
  C   C336      1.0  0.08780  0.54720  0.06608  1.0000
  C   C337      1.0  0.06784  0.55784  0.06747  1.0000
  H   H590      1.0  0.03940  0.51934  0.10761  1.0000
  H   H591      1.0  0.07431  0.50044  0.10400  1.0000
  H   H592      1.0  0.10132  0.55520  0.05473  1.0000
  H   H593      1.0  0.06621  0.57369  0.05697  1.0000
  H   H594      1.0  0.38387  0.38881  0.36988  1.0000
  H   H595      1.0  0.13040  0.64988  0.08612  1.0000
  Fe  Fe45      1.0  0.46408  0.33341  0.03625  1.0000
  H   H596      1.0  0.29160  0.34011  0.24689  1.0000
  N   N18       1.0  0.30314  0.40183  0.02775  1.0000
  C   C338      1.0  0.15010  0.39677  0.26652  1.0000
  C   C339      1.0  0.15172  0.38037  0.24378  1.0000
  C   C340      1.0  0.15140  0.38510  0.20967  1.0000
  C   C341      1.0  0.14943  0.40624  0.19765  1.0000
  C   C342      1.0  0.14814  0.42265  0.22038  1.0000
  C   C343      1.0  0.14840  0.41792  0.25450  1.0000
  H   H597      1.0  0.15271  0.36401  0.25248  1.0000
  H   H598      1.0  0.15235  0.37223  0.19243  1.0000
  H   H599      1.0  0.14665  0.43898  0.21172  1.0000
  H   H600      1.0  0.14706  0.43076  0.27175  1.0000
  H   H601      1.0  0.48353  0.58228  0.02043  1.0000
  C   C344      1.0  0.39457  0.35643  0.38170  1.0000
  H   H602      1.0  0.21850  0.33431  0.27769  1.0000
  H   H603      1.0  0.07601  0.48658  0.03611  1.0000
  H   H604      1.0  0.45912  0.42101  0.00554  1.0000
  S   S89       1.0  0.11632  0.42752  0.99866  1.0000
  C   C345      1.0  0.07215  0.36968  0.00728  1.0000
  H   H605      1.0  0.00696  0.40453  0.99368  1.0000
  H   H606      1.0  0.42411  0.49057  0.99440  1.0000
  H   H607      1.0  0.30209  0.34754  0.48458  1.0000
  C   C346      1.0  0.37789  0.37221  0.36888  1.0000
  C   C347      1.0  0.48051  0.54779  0.01962  1.0000
  H   H608      1.0  0.29388  0.38833  0.41959  1.0000
  H   H609      1.0  0.26603  0.51656  0.01569  1.0000
  H   H610      1.0  0.25439  0.34396  0.26470  1.0000
  H   H611      1.0  0.27572  0.38209  0.03923  1.0000
  H   H612      1.0  0.25740  0.47676  0.05301  1.0000
  C   C348      1.0  0.24761  0.33132  0.36856  1.0000
  H   H613      1.0  0.15896  0.53166  0.08676  1.0000
  C   C349      1.0  0.05712  0.59634  0.14352  1.0000
  C   C350      1.0  0.01754  0.40417  0.04477  1.0000
  C   C351      1.0  0.05863  0.63196  0.11264  1.0000
  C   C352      1.0  0.10195  0.63185  0.07426  1.0000
  C   C353      1.0  0.31707  0.41798  0.04426  1.0000
  C   C354      1.0  0.45841  0.41713  0.03229  1.0000
  C   C355      1.0  0.28383  0.39639  0.04878  1.0000
  C   C356      1.0  0.26690  0.41420  0.05325  1.0000
  H   H614      1.0  0.12473  0.64896  0.04265  1.0000
  Fe  Fe46      1.0  0.14976  0.33533  0.40561  1.0000
  C   C357      1.0  0.31219  0.44190  0.03783  1.0000
  C   C358      1.0  0.32676  0.45605  0.05769  1.0000
  C   C359      1.0  0.24637  0.40538  0.06880  1.0000
  H   H615      1.0  0.45141  0.32508  0.19091  1.0000
  H   H616      1.0  0.24935  0.32779  0.46365  1.0000
  H   H617      1.0  0.19682  0.49055  0.99555  1.0000
  H   H618      1.0  0.45649  0.57296  0.01564  1.0000
  H   H619      1.0  0.31706  0.41509  0.07133  1.0000
  H   H620      1.0  0.33394  0.41608  0.03602  1.0000
  H   H621      1.0  0.38780  0.34023  0.37963  1.0000
  C   C360      1.0  0.01831  0.45993  0.06891  1.0000
  H   H622      1.0  0.06966  0.63646  0.13251  1.0000
  H   H623      1.0  0.28873  0.39160  0.07399  1.0000
  H   H624      1.0  0.43551  0.34758  0.47820  1.0000
  H   H625      1.0  0.27289  0.42632  0.07021  1.0000
  H   H626      1.0  0.40417  0.37828  0.41943  1.0000
  H   H627      1.0  0.04176  0.60074  0.15551  1.0000
  H   H628      1.0  0.31577  0.36911  0.07467  1.0000
  C   C361      1.0  0.05931  0.60735  0.10986  1.0000
  S   S90       1.0  0.00030  0.60485  0.02247  1.0000
  H   H629      1.0  0.29562  0.44594  0.04439  1.0000
  H   H630      1.0  0.32421  0.45311  0.08443  1.0000
  H   H631      1.0  0.34374  0.45299  0.05117  1.0000
  H   H632      1.0  0.32318  0.47307  0.05200  1.0000
  H   H633      1.0  0.23898  0.39360  0.05248  1.0000
  H   H634      1.0  0.24956  0.39775  0.09308  1.0000
  C   C362      1.0  0.28004  0.36622  0.45550  1.0000
  H   H635      1.0  0.20527  0.54150  0.06697  1.0000
  H   H636      1.0  0.05736  0.57877  0.14052  1.0000
  N   N19       1.0  0.41778  0.34759  0.43266  1.0000
  C   C363      1.0  0.22249  0.52264  0.01241  1.0000
  H   H637      1.0  0.02361  0.38213  0.00503  1.0000
  N   N20       1.0  0.04648  0.42977  0.06684  1.0000
  C   C364      1.0  0.03683  0.41908  0.03765  1.0000
  C   C365      1.0  0.06439  0.44456  0.05583  1.0000
  C   C366      1.0  0.05608  0.41245  0.08841  1.0000
  C   C367      1.0  0.03006  0.44151  0.08689  1.0000
  C   C368      1.0  0.17621  0.53330  0.09167  1.0000
  H   H638      1.0  0.46340  0.40110  0.08820  1.0000
  C   C369      1.0  0.06746  0.41999  0.11978  1.0000
  C   C370      1.0  0.06242  0.45617  0.02196  1.0000
  H   H639      1.0  0.32880  0.38433  0.00438  1.0000
  H   H640      1.0  0.13538  0.62584  0.06371  1.0000
  H   H641      1.0  0.44079  0.33103  0.24918  1.0000
  C   C371      1.0  0.08256  0.40285  0.13320  1.0000
  H   H642      1.0  0.04934  0.40969  0.02481  1.0000
  H   H643      1.0  0.31214  0.37917  0.45062  1.0000
  H   H644      1.0  0.06706  0.45694  0.07457  1.0000
  H   H645      1.0  0.07971  0.43558  0.05392  1.0000
  H   H646      1.0  0.06757  0.40282  0.07372  1.0000
  H   H647      1.0  0.04384  0.40103  0.09754  1.0000
  H   H648      1.0  0.01810  0.43018  0.09752  1.0000
  H   H649      1.0  0.03761  0.44885  0.10847  1.0000
  H   H650      1.0  0.26236  0.54342  0.99969  1.0000
  H   H651      1.0  0.18176  0.55489  0.05130  1.0000
  H   H652      1.0  0.08909  0.36183  0.05160  1.0000
  C   C372      1.0  0.39227  0.39468  0.99303  1.0000
  H   H653      1.0  0.05544  0.42347  0.13925  1.0000
  H   H654      1.0  0.07688  0.43463  0.11540  1.0000
  Fe  Fe47      1.0  0.99355  0.63676  0.04592  1.0000
  H   H655      1.0  0.04654  0.46344  0.01832  1.0000
  H   H656      1.0  0.44244  0.43215  0.07494  1.0000
  H   H657      1.0  0.20776  0.56761  0.02001  1.0000
  H   H658      1.0  0.22485  0.50850  0.02889  1.0000
  H   H659      1.0  0.18833  0.50645  0.04556  1.0000
  H   H660      1.0  0.28763  0.33256  0.45657  1.0000
  H   H661      1.0  0.17819  0.54585  0.11021  1.0000
  H   H662      1.0  0.07380  0.38785  0.13889  1.0000
  H   H663      1.0  0.09553  0.39959  0.11509  1.0000
  H   H664      1.0  0.09001  0.40843  0.15606  1.0000
  S   S91       1.0  0.45371  0.35501  0.99384  1.0000
  C   C373      1.0  0.41049  0.32471  0.43365  1.0000
  H   H665      1.0  0.99283  0.48266  0.07745  1.0000
  C   C374      1.0  0.05556  0.63394  0.05147  1.0000
  H   H666      1.0  0.42669  0.37298  0.46472  1.0000
  H   H667      1.0  0.18233  0.51800  0.10209  1.0000
  H   H668      1.0  0.04236  0.63545  0.12257  1.0000
  H   H669      1.0  0.34803  0.34646  0.06926  1.0000
  C   C375      1.0  0.32742  0.37276  0.05465  1.0000
  C   C376      1.0  0.26926  0.33152  0.37632  1.0000
  C   C377      1.0  0.39563  0.37944  0.01816  1.0000
  C   C378      1.0  0.47734  0.34691  0.40128  1.0000
  H   H670      1.0  0.16846  0.52292  0.02767  1.0000
  S   S92       1.0  0.13607  0.33435  0.35454  1.0000
  H   H671      1.0  0.07052  0.60071  0.15953  1.0000
  H   H672      1.0  0.46062  0.33341  0.44291  1.0000
  H   H673      1.0  0.22745  0.53626  0.02735  1.0000
  H   H674      1.0  0.30472  0.36173  0.41790  1.0000
  H   H675      1.0  0.41359  0.41956  0.04025  1.0000
  S   S93       1.0  0.36845  0.40968  0.99317  1.0000
  C   C379      1.0  0.43000  0.37014  0.99435  1.0000
  H   H676      1.0  0.24299  0.35357  0.47816  1.0000
  C   C380      1.0  0.47820  0.41040  0.08272  1.0000
  C   C381      1.0  0.25378  0.47083  0.02897  1.0000
  N   N21       1.0  0.06314  0.64516  0.08170  1.0000
  H   H677      1.0  0.39421  0.32346  0.44463  1.0000
  Fe  Fe48      1.0  0.00372  0.59064  0.07348  1.0000
  C   C382      1.0  0.31614  0.38169  0.02353  1.0000
  H   H678      1.0  0.03796  0.63180  0.05295  1.0000
  H   H679      1.0  0.23481  0.41864  0.07243  1.0000
  C   C383      1.0  0.40015  0.36103  0.41795  1.0000
  C   C384      1.0  0.42185  0.43469  0.03367  1.0000
  H   H680      1.0  0.04578  0.60201  0.09486  1.0000
  C   C385      1.0  0.01075  0.39292  0.01366  1.0000
  C   C386      1.0  0.28588  0.34548  0.47486  1.0000
  C   C387      1.0  0.07895  0.47391  0.01791  1.0000
  S   S94       1.0  0.46693  0.34390  0.08848  1.0000
  N   N22       1.0  0.22362  0.37413  0.24234  1.0000
  C   C388      1.0  0.22638  0.37952  0.27808  1.0000
  C   C389      1.0  0.24500  0.36849  0.22706  1.0000
  C   C390      1.0  0.21502  0.39377  0.22481  1.0000
  C   C391      1.0  0.20781  0.35633  0.23832  1.0000
  H   H681      1.0  0.42249  0.43669  0.00651  1.0000
  C   C392      1.0  0.20707  0.39007  0.29564  1.0000
  C   C393      1.0  0.21339  0.39275  0.18679  1.0000
  C   C394      1.0  0.26148  0.35704  0.24971  1.0000
  H   H682      1.0  0.09531  0.46750  0.02124  1.0000
  H   H683      1.0  0.99635  0.38312  0.01895  1.0000
  C   C395      1.0  0.21105  0.39239  0.33234  1.0000
  C   C396      1.0  0.20812  0.41468  0.17194  1.0000
  H   H684      1.0  0.23987  0.39085  0.28043  1.0000
  H   H685      1.0  0.23073  0.36517  0.29291  1.0000
  H   H686      1.0  0.24269  0.35857  0.20499  1.0000
  H   H687      1.0  0.25331  0.38316  0.21789  1.0000
  H   H688      1.0  0.22493  0.40787  0.23072  1.0000
  H   H689      1.0  0.19853  0.39743  0.23361  1.0000
  H   H690      1.0  0.19222  0.36053  0.24966  1.0000
  H   H691      1.0  0.20442  0.35409  0.21195  1.0000
  H   H692      1.0  0.35142  0.35498  0.02703  1.0000
  H   H693      1.0  0.43762  0.36640  0.39893  1.0000
  H   H694      1.0  0.20406  0.40635  0.28552  1.0000
  H   H695      1.0  0.19251  0.38055  0.29280  1.0000
  H   H696      1.0  0.20038  0.38187  0.17983  1.0000
  H   H697      1.0  0.22842  0.38725  0.17507  1.0000
  H   H698      1.0  0.26829  0.36859  0.26701  1.0000
  H   H699      1.0  0.36289  0.37080  0.38356  1.0000
  H   H700      1.0  0.47724  0.36146  0.38527  1.0000
  H   H701      1.0  0.41237  0.44804  0.04391  1.0000
  H   H702      1.0  0.33925  0.38423  0.06382  1.0000
  H   H703      1.0  0.28577  0.47615  0.00973  1.0000
  H   H704      1.0  0.44414  0.48949  0.02564  1.0000
  H   H705      1.0  0.26670  0.36323  0.43861  1.0000
  H   H706      1.0  0.22486  0.40298  0.33636  1.0000
  H   H707      1.0  0.19673  0.39945  0.34431  1.0000
  H   H708      1.0  0.21417  0.37663  0.34420  1.0000
  H   H709      1.0  0.20567  0.41337  0.14509  1.0000
  H   H710      1.0  0.19323  0.42112  0.18307  1.0000
  H   H711      1.0  0.22130  0.42604  0.17593  1.0000
  H   H712      1.0  0.31488  0.44613  0.01153  1.0000
  C   C397      1.0  0.27997  0.34766  0.22987  1.0000
  H   H713      1.0  0.27482  0.37906  0.47213  1.0000
  H   H714      1.0  0.37430  0.36866  0.34292  1.0000
  H   H715      1.0  0.43679  0.33890  0.38997  1.0000
  H   H716      1.0  0.45106  0.45065  0.04320  1.0000
  H   H717      1.0  0.34113  0.36092  0.48274  1.0000
  H   H718      1.0  0.20854  0.32345  0.46813  1.0000
  C   C398      1.0  0.44420  0.43464  0.04800  1.0000
  C   C399      1.0  0.18841  0.53944  0.06016  1.0000
  C   C400      1.0  0.29889  0.37431  0.43468  1.0000
  H   H719      1.0  0.16115  0.34660  0.48655  1.0000
  H   H720      1.0  0.07426  0.60170  0.09824  1.0000
  C   C401      1.0  0.24855  0.33748  0.48636  1.0000
  S   S95       1.0  0.99895  0.32791  0.99469  1.0000
  C   C402      1.0  0.08742  0.37318  0.03143  1.0000
  H   H721      1.0  0.02122  0.39143  0.06300  1.0000
  H   H722      1.0  0.38505  0.35893  0.43217  1.0000
  H   H723      1.0  0.09705  0.62145  0.05405  1.0000
  C   C403      1.0  0.33948  0.35218  0.04705  1.0000
  H   H724      1.0  0.40870  0.35767  0.36513  1.0000
  S   S96       1.0  0.34995  0.32545  0.33499  1.0000
  C   C404      1.0  0.35102  0.32891  0.47173  1.0000
  C   C405      1.0  0.27002  0.47032  0.00452  1.0000
  H   H725      1.0  0.30605  0.36855  0.01459  1.0000
  C   C406      1.0  0.21445  0.33399  0.25138  1.0000
  H   H726      1.0  0.46936  0.53597  0.03071  1.0000
  C   C407      1.0  0.09895  0.40564  0.00322  1.0000
  C   C408      1.0  0.45947  0.34787  0.42709  1.0000
  N   N23       1.0  0.48054  0.41468  0.04609  1.0000
  S   S97       1.0  0.34763  0.33322  0.42891  1.0000
  H   H727      1.0  0.27415  0.33522  0.21321  1.0000
  H   H728      1.0  0.00368  0.41347  0.05389  1.0000
  C   C409      1.0  0.44150  0.48905  0.99877  1.0000
  C   C410      1.0  0.29713  0.40970  0.99382  1.0000
  H   H729      1.0  0.03368  0.63349  0.99116  1.0000
  H   H730      1.0  0.10407  0.33381  0.00320  1.0000
  H   H731      1.0  0.07799  0.48116  0.99289  1.0000
  H   H732      1.0  0.48143  0.38115  0.03509  1.0000
  H   H733      1.0  0.47553  0.33264  0.38583  1.0000
  N   N24       1.0  0.19938  0.52453  0.00292  1.0000
  H   H734      1.0  0.10237  0.32582  0.30038  1.0000
  C   C411      1.0  0.08642  0.65077  0.07906  1.0000
  C   C412      1.0  0.00024  0.46877  0.09022  1.0000
  C   C413      1.0  0.18565  0.52238  0.03363  1.0000
  H   H735      1.0  0.46928  0.57085  0.05496  1.0000
  H   H736      1.0  0.48535  0.44839  0.05346  1.0000
  C   C414      1.0  0.22847  0.45693  0.99099  1.0000
  C   C415      1.0  0.26131  0.52625  0.99385  1.0000
  C   C416      1.0  0.20743  0.56506  0.99326  1.0000
  H   H737      1.0  0.18167  0.32315  0.25987  1.0000
  H   H738      1.0  0.44653  0.52245  0.99103  1.0000
  C   C417      1.0  0.15025  0.33868  0.50354  1.0000
  H   H739      1.0  0.15539  0.40647  0.91635  1.0000
  H   H740      1.0  0.37393  0.33824  0.85604  1.0000
  Fe  Fe49      1.0  0.33088  0.34126  0.69235  1.0000
  C   C418      1.0  0.40163  0.35544  0.89279  1.0000
  S   S98       1.0  0.32690  0.35934  0.74102  1.0000
  H   H741      1.0  0.25729  0.36725  0.52437  1.0000
  S   S99       1.0  0.48625  0.61401  0.96753  1.0000
  H   H742      1.0  0.41160  0.38051  0.83638  1.0000
  H   H743      1.0  0.26893  0.38946  0.98668  1.0000
  S   S100      1.0  0.32344  0.35108  0.63969  1.0000
  C   C419      1.0  0.11417  0.34857  0.94044  1.0000
  H   H744      1.0  0.23858  0.34453  0.70230  1.0000
  C   C420      1.0  0.04857  0.33052  0.79257  1.0000
  C   C421      1.0  0.24473  0.45646  0.96654  1.0000
  H   H745      1.0  0.20797  0.59914  0.98311  1.0000
  Fe  Fe50      1.0  0.29934  0.32472  0.64085  1.0000
  H   H746      1.0  0.15179  0.48512  0.93736  1.0000
  H   H747      1.0  0.26425  0.36970  0.64839  1.0000
  H   H748      1.0  0.43514  0.57334  0.95842  1.0000
  S   S101      1.0  0.45974  0.57826  0.89601  1.0000
  C   C422      1.0  0.45313  0.50742  0.98123  1.0000
  Fe  Fe51      1.0  0.35564  0.44648  0.88245  1.0000
  S   S102      1.0  0.33524  0.42943  0.91990  1.0000
  S   S103      1.0  0.36315  0.43372  0.83088  1.0000
  Fe  Fe52      1.0  0.36812  0.48184  0.93071  1.0000
  H   H749      1.0  0.41231  0.51614  0.88396  1.0000
  S   S104      1.0  0.38773  0.51123  0.94648  1.0000
  H   H750      1.0  0.24102  0.45100  0.94225  1.0000
  H   H751      1.0  0.25457  0.39570  0.65697  1.0000
  Fe  Fe53      1.0  0.32236  0.46157  0.93431  1.0000
  H   H752      1.0  0.39287  0.34151  0.90343  1.0000
  S   S105      1.0  0.38330  0.45055  0.91697  1.0000
  S   S106      1.0  0.34140  0.47882  0.89396  1.0000
  C   C423      1.0  0.10140  0.32829  0.95065  1.0000
  H   H753      1.0  0.18160  0.58795  0.98597  1.0000
  Fe  Fe54      1.0  0.01665  0.33349  0.90349  1.0000
  S   S107      1.0  0.01592  0.36188  0.93683  1.0000
  H   H754      1.0  0.19621  0.32344  0.50841  1.0000
  C   C424      1.0  0.06698  0.32442  0.77469  1.0000
  H   H755      1.0  0.17970  0.48480  0.92618  1.0000
  H   H756      1.0  0.08403  0.33161  0.95028  1.0000
  C   C425      1.0  0.07004  0.38442  0.98138  1.0000
  S   S108      1.0  0.26703  0.32781  0.61793  1.0000
  H   H757      1.0  0.46727  0.54918  0.97054  1.0000
  C   C426      1.0  0.42673  0.38552  0.96937  1.0000
  H   H758      1.0  0.43989  0.54236  0.86567  1.0000
  H   H759      1.0  0.23736  0.40270  0.70827  1.0000
  C   C427      1.0  0.36997  0.37811  0.89177  1.0000
  H   H760      1.0  0.21101  0.39955  0.76775  1.0000
  C   C428      1.0  0.42271  0.41921  0.85568  1.0000
  H   H761      1.0  0.40570  0.40984  0.94979  1.0000
  H   H762      1.0  0.13919  0.41629  0.88271  1.0000
  C   C429      1.0  0.43984  0.55968  0.91085  1.0000
  C   C430      1.0  0.43303  0.54338  0.89010  1.0000
  C   C431      1.0  0.41730  0.52842  0.90042  1.0000
  C   C432      1.0  0.40786  0.52958  0.93173  1.0000
  C   C433      1.0  0.41468  0.54589  0.95249  1.0000
  C   C434      1.0  0.43047  0.56078  0.94222  1.0000
  H   H763      1.0  0.29304  0.37963  0.96749  1.0000
  H   H764      1.0  0.40495  0.34764  0.81393  1.0000
  H   H765      1.0  0.38716  0.36751  0.79754  1.0000
  H   H766      1.0  0.05809  0.38201  0.96298  1.0000
  C   C435      1.0  0.26924  0.35449  0.52953  1.0000
  C   C436      1.0  0.16821  0.48526  0.94716  1.0000
  H   H767      1.0  0.34274  0.38440  0.94541  1.0000
  H   H768      1.0  0.24848  0.39131  0.74417  1.0000
  S   S109      1.0  0.02402  0.33606  0.84838  1.0000
  Fe  Fe55      1.0  0.03037  0.33931  0.97385  1.0000
  H   H769      1.0  0.16874  0.51932  0.95060  1.0000
  C   C437      1.0  0.28765  0.37870  0.56971  1.0000
  H   H770      1.0  0.17036  0.47073  0.96284  1.0000
  C   C438      1.0  0.35915  0.32512  0.53994  1.0000
  H   H771      1.0  0.15153  0.33927  0.88039  1.0000
  H   H772      1.0  0.43551  0.41157  0.84088  1.0000
  H   H773      1.0  0.10893  0.36112  0.95775  1.0000
  C   C439      1.0  0.22890  0.37599  0.61328  1.0000
  H   H774      1.0  0.22991  0.33587  0.53283  1.0000
  H   H775      1.0  0.41549  0.37795  0.52479  1.0000
  C   C440      1.0  0.30563  0.41114  0.71202  1.0000
  H   H776      1.0  0.29038  0.37077  0.69331  1.0000
  C   C441      1.0  0.21934  0.37641  0.73033  1.0000
  H   H777      1.0  0.21257  0.37229  0.60494  1.0000
  H   H778      1.0  0.32656  0.38232  0.90906  1.0000
  H   H779      1.0  0.29451  0.37796  0.51822  1.0000
  C   C442      1.0  0.33759  0.37988  0.76572  1.0000
  C   C443      1.0  0.35499  0.39235  0.75561  1.0000
  C   C444      1.0  0.36244  0.40873  0.77582  1.0000
  C   C445      1.0  0.35268  0.41293  0.80641  1.0000
  C   C446      1.0  0.33541  0.40029  0.81669  1.0000
  C   C447      1.0  0.32793  0.38394  0.79645  1.0000
  H   H780      1.0  0.36261  0.38952  0.73211  1.0000
  H   H781      1.0  0.37583  0.41833  0.76757  1.0000
  H   H782      1.0  0.32768  0.40327  0.84006  1.0000
  H   H783      1.0  0.31443  0.37446  0.80457  1.0000
  C   C448      1.0  0.35065  0.34399  0.52668  1.0000
  C   C449      1.0  0.47762  0.50581  0.98607  1.0000
  C   C450      1.0  0.17142  0.50534  0.96717  1.0000
  H   H784      1.0  0.34810  0.35752  0.54233  1.0000
  C   C451      1.0  0.48852  0.52260  0.93393  1.0000
  N   N25       1.0  0.11167  0.35631  0.90535  1.0000
  H   H785      1.0  0.36345  0.35255  0.92837  1.0000
  C   C452      1.0  0.12711  0.37433  0.89884  1.0000
  C   C453      1.0  0.08893  0.36346  0.90077  1.0000
  C   C454      1.0  0.26191  0.34333  0.74126  1.0000
  C   C455      1.0  0.37674  0.35453  0.84557  1.0000
  H   H786      1.0  0.17726  0.54878  0.98646  1.0000
  C   C456      1.0  0.08365  0.37376  0.86690  1.0000
  H   H787      1.0  0.41797  0.33371  0.85936  1.0000
  H   H788      1.0  0.42173  0.39431  0.89250  1.0000
  H   H789      1.0  0.30258  0.38749  0.57450  1.0000
  C   C457      1.0  0.22982  0.37347  0.65066  1.0000
  C   C458      1.0  0.06106  0.38289  0.86707  1.0000
  H   H790      1.0  0.43882  0.38796  0.95050  1.0000
  Fe  Fe56      1.0  0.34606  0.32475  0.62457  1.0000
  H   H791      1.0  0.14350  0.36932  0.90565  1.0000
  H   H792      1.0  0.12818  0.37834  0.87211  1.0000
  H   H793      1.0  0.08416  0.37475  0.92016  1.0000
  H   H794      1.0  0.07785  0.34975  0.90406  1.0000
  H   H795      1.0  0.43180  0.35868  0.86434  1.0000
  C   C459      1.0  0.19457  0.54496  0.98418  1.0000
  H   H796      1.0  0.32619  0.36141  0.94004  1.0000
  C   C460      1.0  0.13844  0.32773  0.88494  1.0000
  C   C461      1.0  0.20872  0.33101  0.49259  1.0000
  C   C462      1.0  0.40306  0.35423  0.49160  1.0000
  H   H797      1.0  0.08461  0.36169  0.84735  1.0000
  H   H798      1.0  0.09462  0.38698  0.86022  1.0000
  H   H799      1.0  0.44697  0.47351  0.98908  1.0000
  C   C463      1.0  0.19420  0.50578  0.98165  1.0000
  H   H800      1.0  0.48260  0.49028  0.97568  1.0000
  C   C464      1.0  0.08351  0.40228  0.97925  1.0000
  H   H801      1.0  0.31871  0.40075  0.70289  1.0000
  H   H802      1.0  0.27434  0.39035  0.56779  1.0000
  C   C465      1.0  0.40797  0.39782  0.96878  1.0000
  H   H803      1.0  0.39845  0.41123  0.89081  1.0000
  H   H804      1.0  0.16629  0.34932  0.54683  1.0000
  C   C466      1.0  0.28443  0.40466  0.69725  1.0000
  H   H805      1.0  0.22493  0.35701  0.65718  1.0000
  H   H806      1.0  0.05971  0.39629  0.88441  1.0000
  H   H807      1.0  0.05702  0.38887  0.84207  1.0000
  H   H808      1.0  0.04934  0.37043  0.87443  1.0000
  Fe  Fe57      1.0  0.36162  0.43554  0.95498  1.0000
  C   C467      1.0  0.12255  0.39518  0.91762  1.0000
  H   H809      1.0  0.20503  0.50521  0.95989  1.0000
  S   S110      1.0  0.34788  0.46671  0.97154  1.0000
  H   H810      1.0  0.05652  0.61574  0.98999  1.0000
  C   C468      1.0  0.43625  0.33577  0.90311  1.0000
  H   H811      1.0  0.43010  0.43077  0.87235  1.0000
  H   H812      1.0  0.38804  0.39572  0.83764  1.0000
  H   H813      1.0  0.36016  0.38943  0.87679  1.0000
  H   H814      1.0  0.23914  0.50392  0.97500  1.0000
  H   H815      1.0  0.20001  0.40532  0.72760  1.0000
  H   H816      1.0  0.31184  0.41362  0.97931  1.0000
  H   H817      1.0  0.22183  0.36342  0.74875  1.0000
  H   H818      1.0  0.28220  0.37906  0.73298  1.0000
  H   H819      1.0  0.38467  0.33481  0.76636  1.0000
  C   C469      1.0  0.42213  0.34620  0.87700  1.0000
  H   H820      1.0  0.12298  0.39221  0.94451  1.0000
  S   S111      1.0  0.28554  0.46225  0.94096  1.0000
  C   C470      1.0  0.20395  0.39245  0.74564  1.0000
  H   H821      1.0  0.28455  0.36765  0.59081  1.0000
  C   C471      1.0  0.33645  0.37331  0.92703  1.0000
  C   C472      1.0  0.24091  0.38710  0.72057  1.0000
  C   C473      1.0  0.29016  0.36630  0.53796  1.0000
  H   H822      1.0  0.13126  0.34578  0.94610  1.0000
  H   H823      1.0  0.18894  0.38425  0.75311  1.0000
  C   C474      1.0  0.13927  0.41215  0.90935  1.0000
  H   H824      1.0  0.25573  0.35408  0.76047  1.0000
  H   H825      1.0  0.26325  0.34635  0.55236  1.0000
  C   C475      1.0  0.25229  0.37858  0.66338  1.0000
  H   H826      1.0  0.30939  0.42788  0.70481  1.0000
  H   H827      1.0  0.28622  0.40669  0.67021  1.0000
  H   H828      1.0  0.21800  0.38480  0.66100  1.0000
  H   H829      1.0  0.47182  0.52603  0.92667  1.0000
  H   H830      1.0  0.27200  0.41583  0.70617  1.0000
  H   H831      1.0  0.23442  0.53103  0.96230  1.0000
  H   H832      1.0  0.21130  0.36926  0.70928  1.0000
  C   C476      1.0  0.27872  0.38119  0.70638  1.0000
  H   H833      1.0  0.30485  0.40998  0.73927  1.0000
  N   N26       1.0  0.25615  0.37438  0.69947  1.0000
  C   C477      1.0  0.25483  0.35069  0.70640  1.0000
  H   H834      1.0  0.29140  0.40989  0.92633  1.0000
  H   H835      1.0  0.41184  0.42814  0.83902  1.0000
  H   H836      1.0  0.34757  0.35077  0.89204  1.0000
  H   H837      1.0  0.23284  0.39258  0.60543  1.0000
  H   H838      1.0  0.30385  0.35535  0.54085  1.0000
  H   H839      1.0  0.47806  0.39684  0.97948  1.0000
  N   N27       1.0  0.38735  0.36845  0.87059  1.0000
  H   H840      1.0  0.39732  0.33760  0.49418  1.0000
  C   C478      1.0  0.39918  0.38649  0.85348  1.0000
  H   H841      1.0  0.45062  0.32876  0.89127  1.0000
  H   H842      1.0  0.26860  0.39256  0.92585  1.0000
  H   H843      1.0  0.06777  0.32680  0.74832  1.0000
  H   H844      1.0  0.36064  0.36096  0.83946  1.0000
  C   C479      1.0  0.13890  0.33030  0.56026  1.0000
  H   H845      1.0  0.15886  0.50543  0.98643  1.0000
  S   S112      1.0  0.14181  0.33463  0.60302  1.0000
  C   C480      1.0  0.41034  0.40251  0.87593  1.0000
  H   H846      1.0  0.37683  0.38774  0.91167  1.0000
  H   H847      1.0  0.48304  0.53689  0.86955  1.0000
  C   C481      1.0  0.23046  0.32809  0.50858  1.0000
  C   C482      1.0  0.35474  0.36195  0.90946  1.0000
  H   H848      1.0  0.10681  0.40201  0.91122  1.0000
  H   H849      1.0  0.13560  0.42678  0.92335  1.0000
  C   C483      1.0  0.05134  0.63269  0.98955  1.0000
  H   H850      1.0  0.24018  0.36483  0.60124  1.0000
  H   H851      1.0  0.44155  0.34777  0.92095  1.0000
  C   C484      1.0  0.19815  0.58512  0.97699  1.0000
  H   H852      1.0  0.11583  0.34519  0.85571  1.0000
  H   H853      1.0  0.40626  0.36488  0.91441  1.0000
  H   H854      1.0  0.19762  0.54287  0.95740  1.0000
  H   H855      1.0  0.44908  0.50670  0.95486  1.0000
  H   H856      1.0  0.00278  0.44762  0.97353  1.0000
  C   C485      1.0  0.38800  0.35217  0.81162  1.0000
  S   S113      1.0  0.36894  0.32456  0.58063  1.0000
  C   C486      1.0  0.15314  0.34016  0.53774  1.0000
  H   H857      1.0  0.26643  0.41810  0.94484  1.0000
  C   C487      1.0  0.26571  0.46298  0.97311  1.0000
  C   C488      1.0  0.28375  0.39416  0.97334  1.0000
  H   H858      1.0  0.19814  0.58360  0.94985  1.0000
  C   C489      1.0  0.11645  0.33885  0.88142  1.0000
  C   C490      1.0  0.48277  0.54516  0.98188  1.0000
  H   H859      1.0  0.03522  0.33749  0.77967  1.0000
  Fe  Fe58      1.0  0.48408  0.60252  0.91580  1.0000
  N   N28       1.0  0.27031  0.33887  0.50172  1.0000
  H   H860      1.0  0.39584  0.36026  0.54283  1.0000
  C   C491      1.0  0.37707  0.33534  0.79114  1.0000
  H   H861      1.0  0.35994  0.33930  0.78800  1.0000
  C   C492      1.0  0.34682  0.34591  0.49280  1.0000
  C   C493      1.0  0.04742  0.32793  0.82697  1.0000
  H   H862      1.0  0.22119  0.32732  0.61516  1.0000
  C   C494      1.0  0.27721  0.40435  0.94063  1.0000
  H   H863      1.0  0.40752  0.54715  0.97669  1.0000
  C   C495      1.0  0.40974  0.36124  0.52566  1.0000
  H   H864      1.0  0.05640  0.64013  0.96574  1.0000
  H   H865      1.0  0.26500  0.34195  0.68850  1.0000
  H   H866      1.0  0.10389  0.32646  0.88295  1.0000
  H   H867      1.0  0.27272  0.52286  0.97348  1.0000
  H   H868      1.0  0.08196  0.41355  0.95897  1.0000
  H   H869      1.0  0.42244  0.35061  0.53545  1.0000
  H   H870      1.0  0.27957  0.34340  0.74263  1.0000
  C   C496      1.0  0.23875  0.52062  0.98351  1.0000
  H   H871      1.0  0.22419  0.56357  0.98459  1.0000
  H   H872      1.0  0.21251  0.45186  0.98534  1.0000
  C   C497      1.0  0.13276  0.32770  0.49145  1.0000
  C   C498      1.0  0.43921  0.93146  0.15296  1.0000
  H   H873      1.0  0.38344  0.96865  0.20005  1.0000
  C   C499      1.0  0.25930  0.96973  0.00019  1.0000
  H   H874      1.0  0.05508  0.66137  0.01598  1.0000
  S   S114      1.0  0.45057  0.85425  0.09134  1.0000
  H   H875      1.0  0.39347  0.95860  0.12801  1.0000
  H   H876      1.0  0.02854  0.84412  0.02355  1.0000
  Fe  Fe59      1.0  0.35735  0.95505  0.07444  1.0000
  S   S115      1.0  0.34956  0.96244  0.02163  1.0000
  S   S116      1.0  0.37449  0.92385  0.09108  1.0000
  H   H877      1.0  0.40025  0.81475  0.00146  1.0000
  H   H878      1.0  0.37341  0.87732  0.04905  1.0000
  S   S117      1.0  0.32398  0.96484  0.09173  1.0000
  C   C500      1.0  0.45951  0.89640  0.15592  1.0000
  H   H879      1.0  0.43922  0.93020  0.18027  1.0000
  H   H880      1.0  0.07115  0.68659  0.11237  1.0000
  C   C501      1.0  0.43048  0.87474  0.08919  1.0000
  C   C502      1.0  0.41239  0.87221  0.10942  1.0000
  C   C503      1.0  0.39587  0.88742  0.10946  1.0000
  C   C504      1.0  0.39657  0.90552  0.08877  1.0000
  C   C505      1.0  0.41451  0.90811  0.06779  1.0000
  C   C506      1.0  0.43153  0.89297  0.06839  1.0000
  H   H881      1.0  0.41117  0.85836  0.12559  1.0000
  H   H882      1.0  0.38224  0.88500  0.12568  1.0000
  H   H883      1.0  0.41532  0.92182  0.05131  1.0000
  H   H884      1.0  0.44534  0.89538  0.05268  1.0000
  H   H885      1.0  0.12448  0.91705  0.02068  1.0000
  H   H886      1.0  0.45640  0.98350  0.14266  1.0000
  C   C507      1.0  0.46713  0.96420  0.18333  1.0000
  H   H887      1.0  0.47221  0.88676  0.14399  1.0000
  C   C508      1.0  0.42378  0.81706  0.03948  1.0000
  C   C509      1.0  0.43035  0.97759  0.08958  1.0000
  H   H888      1.0  0.02624  0.71128  0.02005  1.0000
  H   H889      1.0  0.47184  0.87807  0.01880  1.0000
  H   H890      1.0  0.25581  0.94578  0.03834  1.0000
  C   C510      1.0  0.45832  0.91841  0.13927  1.0000
  C   C511      1.0  0.48502  0.73927  0.00191  1.0000
  H   H891      1.0  0.42202  0.79325  0.07866  1.0000
  H   H892      1.0  0.45660  0.91604  0.11253  1.0000
  H   H893      1.0  0.42229  0.78237  0.03803  1.0000
  H   H894      1.0  0.21829  0.93724  0.02490  1.0000
  C   C512      1.0  0.01111  0.71144  0.00770  1.0000
  H   H895      1.0  0.44491  0.98745  0.09130  1.0000
  H   H896      1.0  0.41036  0.96652  0.04990  1.0000
  H   H897      1.0  0.06851  0.94038  0.01420  1.0000
  C   C513      1.0  0.00444  0.73027  0.99086  1.0000
  C   C514      1.0  0.05497  0.67957  0.11439  1.0000
  C   C515      1.0  0.45847  0.96614  0.14788  1.0000
  C   C516      1.0  0.01749  0.85772  0.02758  1.0000
  C   C517      1.0  0.00377  0.89253  0.00297  1.0000
  H   H898      1.0  0.03310  0.66186  0.08492  1.0000
  H   H899      1.0  0.44420  0.88780  0.15371  1.0000
  Fe  Fe60      1.0  0.31755  0.97497  0.03914  1.0000
  C   C518      1.0  0.39743  0.95712  0.15428  1.0000
  H   H900      1.0  0.45565  0.97100  0.20127  1.0000
  H   H901      1.0  0.42271  0.96319  0.18753  1.0000
  H   H902      1.0  0.44746  0.94790  0.09161  1.0000
  H   H903      1.0  0.36465  0.96406  0.16785  1.0000
  S   S118      1.0  0.28634  0.97673  0.00901  1.0000
  C   C519      1.0  0.43389  0.95516  0.10530  1.0000
  H   H904      1.0  0.03810  0.91485  0.02192  1.0000
  H   H905      1.0  0.04277  0.70814  0.13754  1.0000
  H   H906      1.0  0.05371  0.67029  0.13779  1.0000
  H   H907      1.0  0.14044  0.89315  0.02303  1.0000
  C   C520      1.0  0.03908  0.69806  0.11627  1.0000
  C   C521      1.0  0.41673  0.82078  0.00341  1.0000
  Fe  Fe61      1.0  0.48335  0.84001  0.07628  1.0000
  H   H908      1.0  0.36308  0.87828  0.00785  1.0000
  H   H909      1.0  0.42465  0.92277  0.14557  1.0000
  H   H910      1.0  0.44477  0.85081  0.02221  1.0000
  H   H911      1.0  0.43632  0.88531  0.99163  1.0000
  H   H912      1.0  0.47429  0.75276  0.00274  1.0000
  H   H913      1.0  0.03995  0.70812  0.09352  1.0000
  C   C522      1.0  0.47002  0.87882  0.99171  1.0000
  H   H914      1.0  0.41995  0.94516  0.09953  1.0000
  H   H915      1.0  0.41106  0.86483  0.03014  1.0000
  H   H916      1.0  0.47123  0.96100  0.13045  1.0000
  H   H917      1.0  0.47378  0.92631  0.14323  1.0000
  H   H918      1.0  0.02166  0.86542  0.05093  1.0000
  H   H919      1.0  0.38373  0.83924  0.04169  1.0000
  N   N29       1.0  0.43799  0.95449  0.14170  1.0000
  H   H920      1.0  0.02257  0.69194  0.11942  1.0000
  H   H921      1.0  0.41769  0.82976  0.05569  1.0000
  H   H922      1.0  0.42049  0.98280  0.15611  1.0000
  H   H923      1.0  0.27232  0.96812  0.10177  1.0000
  H   H924      1.0  0.99518  0.93333  0.01153  1.0000
  C   C523      1.0  0.36647  0.86769  0.02934  1.0000
  H   H925      1.0  0.44145  0.81698  0.04075  1.0000
  H   H926      1.0  0.00626  0.89944  0.02755  1.0000
  H   H927      1.0  0.41701  0.98610  0.10172  1.0000
  H   H928      1.0  0.47027  0.94737  0.19057  1.0000
  H   H929      1.0  0.00102  0.85135  0.02959  1.0000
  C   C524      1.0  0.12911  0.90236  0.00752  1.0000
  C   C525      1.0  0.22664  0.94943  0.01074  1.0000
  H   H930      1.0  0.28836  0.98116  0.13185  1.0000
  H   H931      1.0  0.39567  0.94017  0.16208  1.0000
  C   C526      1.0  0.99847  0.69286  0.00867  1.0000
  C   C527      1.0  0.24801  0.95423  0.01844  1.0000
  H   H932      1.0  0.11455  0.89274  0.00383  1.0000
  C   C528      1.0  0.38084  0.97007  0.17318  1.0000
  C   C529      1.0  0.38166  0.84971  0.01967  1.0000
  H   H933      1.0  0.08912  0.66280  0.05896  1.0000
  C   C530      1.0  0.44124  0.85051  0.99558  1.0000
  C   C531      1.0  0.03814  0.92654  0.00118  1.0000
  S   S119      1.0  0.00820  0.66929  0.02974  1.0000
  C   C532      1.0  0.41609  0.79558  0.05326  1.0000
  C   C533      1.0  0.42027  0.96525  0.16066  1.0000
  H   H934      1.0  0.38159  0.98713  0.16541  1.0000
  S   S120      1.0  0.37132  0.98737  0.08465  1.0000
  H   H935      1.0  0.39841  0.79505  0.05411  1.0000
  H   H936      1.0  0.43841  0.96849  0.03939  1.0000
  C   C534      1.0  0.01943  0.87357  0.99874  1.0000
  H   H937      1.0  0.46327  0.89786  0.18234  1.0000
  H   H938      1.0  0.35118  0.86090  0.03867  1.0000
  H   H939      1.0  0.03623  0.87893  0.99739  1.0000
  C   C535      1.0  0.40357  0.85863  0.00774  1.0000
  H   H940      1.0  0.03013  0.94136  0.00934  1.0000
  H   H941      1.0  0.09168  0.65870  0.10171  1.0000
  H   H942      1.0  0.25989  0.98104  0.13665  1.0000
  H   H943      1.0  0.05300  0.67614  0.06237  1.0000
  C   C536      1.0  0.05045  0.66560  0.08426  1.0000
  H   H944      1.0  0.48634  0.76796  0.15680  1.0000
  H   H945      1.0  0.37371  0.84018  0.00097  1.0000
  C   C537      1.0  0.42507  0.97601  0.05317  1.0000
  C   C538      1.0  0.27313  0.98197  0.11832  1.0000
  C   C539      1.0  0.48806  0.97632  0.18631  1.0000
  H   H946      1.0  0.02835  0.98905  0.00047  1.0000
  H   H947      1.0  0.40070  0.87302  0.99193  1.0000
  C   C540      1.0  0.06140  0.93198  0.99328  1.0000
  H   H948      1.0  0.13410  0.86072  0.88698  1.0000
  H   H949      1.0  0.13365  0.91615  0.81656  1.0000
  C   C541      1.0  0.45125  0.70900  0.89866  1.0000
  Fe  Fe62      1.0  0.00809  0.83157  0.92177  1.0000
  S   S121      1.0  0.04198  0.84616  0.92370  1.0000
  N   N30       1.0  0.41853  0.84344  0.99046  1.0000
  C   C542      1.0  0.19482  0.90519  0.90311  1.0000
  Fe  Fe63      1.0  0.11742  0.95925  0.91602  1.0000
  S   S122      1.0  0.12822  0.96371  0.96773  1.0000
  S   S123      1.0  0.09029  0.93613  0.90167  1.0000
  C   C543      1.0  0.48605  0.69865  0.87078  1.0000
  C   C544      1.0  0.47452  0.71518  0.89247  1.0000
  S   S124      1.0  0.15127  0.96222  0.89561  1.0000
  H   H950      1.0  0.42729  0.83400  0.94136  1.0000
  H   H951      1.0  0.12528  0.89382  0.90037  1.0000
  H   H952      1.0  0.12371  0.93072  0.85113  1.0000
  H   H953      1.0  0.99355  0.84494  0.56902  1.0000
  C   C545      1.0  0.15582  0.83436  0.88828  1.0000
  H   H954      1.0  0.19010  0.90540  0.87709  1.0000
  C   C546      1.0  0.05424  0.87186  0.91848  1.0000
  C   C547      1.0  0.07278  0.87633  0.93619  1.0000
  C   C548      1.0  0.08365  0.89593  0.93193  1.0000
  C   C549      1.0  0.07654  0.91136  0.90928  1.0000
  C   C550      1.0  0.05795  0.90693  0.89162  1.0000
  C   C551      1.0  0.04684  0.88744  0.89624  1.0000
  H   H955      1.0  0.45262  0.83884  0.98468  1.0000
  H   H956      1.0  0.09757  0.89904  0.94613  1.0000
  H   H957      1.0  0.05223  0.91857  0.87385  1.0000
  H   H958      1.0  0.03296  0.88420  0.88181  1.0000
  C   C552      1.0  0.14602  0.88839  0.95503  1.0000
  H   H959      1.0  0.16809  0.82706  0.90441  1.0000
  H   H960      1.0  0.42659  0.80993  0.98798  1.0000
  H   H961      1.0  0.21665  0.92316  0.93321  1.0000
  H   H962      1.0  0.12782  0.91821  0.96072  1.0000
  H   H963      1.0  0.03716  0.90514  0.95980  1.0000
  H   H964      1.0  0.16001  0.91831  0.86111  1.0000
  H   H965      1.0  0.44329  0.72125  0.91391  1.0000
  C   C553      1.0  0.22719  0.97587  0.96698  1.0000
  C   C554      1.0  0.12867  0.91468  0.84277  1.0000
  H   H966      1.0  0.17293  0.87311  0.88566  1.0000
  H   H967      1.0  0.02704  0.93089  0.95200  1.0000
  H   H968      1.0  0.07071  0.91719  0.98910  1.0000
  H   H969      1.0  0.14294  0.82253  0.88494  1.0000
  H   H970      1.0  0.44265  0.70784  0.87513  1.0000
  S   S125      1.0  0.18900  0.95301  0.97622  1.0000
  Fe  Fe64      1.0  0.16156  0.96916  0.94748  1.0000
  H   H971      1.0  0.47456  0.73102  0.87984  1.0000
  C   C555      1.0  0.21059  0.92336  0.90770  1.0000
  H   H972      1.0  0.20345  0.88999  0.90809  1.0000
  C   C556      1.0  0.17545  0.90708  0.92706  1.0000
  H   H973      1.0  0.39613  0.85058  0.89305  1.0000
  C   C557      1.0  0.16412  0.87121  0.90931  1.0000
  C   C558      1.0  0.41485  0.84380  0.95389  1.0000
  C   C559      1.0  0.14048  0.90287  0.89963  1.0000
  C   C560      1.0  0.39277  0.83637  0.94225  1.0000
  H   H974      1.0  0.18235  0.90428  0.95189  1.0000
  H   H975      1.0  0.15346  0.91863  0.97970  1.0000
  N   N31       1.0  0.15665  0.89247  0.92196  1.0000
  H   H976      1.0  0.47809  0.70017  0.84670  1.0000
  C   C561      1.0  0.14650  0.85441  0.90372  1.0000
  H   H977      1.0  0.11480  0.90375  0.84471  1.0000
  H   H978      1.0  0.17010  0.92401  0.92695  1.0000
  H   H979      1.0  0.17584  0.86400  0.92665  1.0000
  H   H980      1.0  0.15265  0.89119  0.85199  1.0000
  H   H981      1.0  0.40407  0.82282  0.89616  1.0000
  C   C562      1.0  0.14722  0.90623  0.86321  1.0000
  H   H982      1.0  0.13117  0.87902  0.95235  1.0000
  C   C563      1.0  0.39238  0.83489  0.90482  1.0000
  H   H983      1.0  0.13600  0.91888  0.90863  1.0000
  H   H984      1.0  0.20288  0.93902  0.90258  1.0000
  H   H985      1.0  0.48174  0.86775  0.98040  1.0000
  H   H986      1.0  0.16305  0.83819  0.86382  1.0000
  H   H987      1.0  0.22436  0.92157  0.89055  1.0000
  C   C564      1.0  0.21596  0.96024  0.98508  1.0000
  H   H988      1.0  0.44708  0.87359  0.95476  1.0000
  H   H989      1.0  0.13879  0.84941  0.92729  1.0000
  H   H990      1.0  0.07877  0.86448  0.95339  1.0000
  S   S126      1.0  0.99742  0.81607  0.96992  1.0000
  C   C565      1.0  0.24867  0.98046  0.97438  1.0000
  H   H991      1.0  0.38041  0.84819  0.94927  1.0000
  H   H992      1.0  0.21940  0.98428  0.94704  1.0000
  H   H993      1.0  0.38845  0.82046  0.95246  1.0000
  C   C566      1.0  0.02689  0.91771  0.97066  1.0000
  S   S127      1.0  0.99528  0.80395  0.89217  1.0000
  H   H994      1.0  0.15665  0.87859  0.97109  1.0000
  H   H995      1.0  0.37626  0.83001  0.89701  1.0000
  H   H996      1.0  0.41651  0.86025  0.94361  1.0000
  H   H997      1.0  0.45027  0.69346  0.91217  1.0000
  H   H998      1.0  0.48202  0.71659  0.91667  1.0000
  H   H999      1.0  0.00813  0.88759  0.93641  1.0000
  C   C567      1.0  0.13952  0.90849  0.97454  1.0000
  N   N32       1.0  0.00453  0.90960  0.97633  1.0000
  S   S128      1.0  0.48371  0.67919  0.96320  1.0000
  H   H1000     1.0  0.99453  0.89137  0.87810  1.0000
  H   H1001     1.0  0.06250  0.98181  0.96981  1.0000
  C   C568      1.0  0.47889  0.72042  0.98592  1.0000
  H   H1002     1.0  0.01582  0.86478  0.97618  1.0000
  C   C569      1.0  0.44735  0.87299  0.98198  1.0000
  C   C570      1.0  0.99686  0.90011  0.94490  1.0000
  H   H1003     1.0  0.46343  0.71974  0.97466  1.0000
  H   H1004     1.0  0.06272  0.94245  0.97102  1.0000
  H   H1005     1.0  0.48211  0.68240  0.88064  1.0000
  H   H1006     1.0  0.47378  0.89526  0.98292  1.0000
  H   H1007     1.0  0.98977  0.84175  0.61278  1.0000
  H   H1008     1.0  0.00995  0.92224  0.90717  1.0000
  C   C571      1.0  0.99424  0.91590  0.91538  1.0000
  C   C572      1.0  0.99051  0.92790  0.98682  1.0000
  H   H1009     1.0  0.99293  0.94203  0.97026  1.0000
  H   H1010     1.0  0.01444  0.74426  0.99044  1.0000
  H   H1011     1.0  0.62242  0.25965  0.02833  1.0000
  H   H1012     1.0  0.86658  0.17819  0.06878  1.0000
  H   H1013     1.0  0.91383  0.20169  0.11154  1.0000
  H   H1014     1.0  0.55147  0.25830  0.11724  1.0000
  H   H1015     1.0  0.97825  0.16984  0.16407  1.0000
  H   H1016     1.0  0.96170  0.19237  0.03632  1.0000
  H   H1017     1.0  0.95745  0.99031  0.03813  1.0000
  C   C573      1.0  0.59247  0.27164  0.04793  1.0000
  H   H1018     1.0  0.53640  0.21218  0.06545  1.0000
  C   C574      1.0  0.94581  0.18700  0.04547  1.0000
  C   C575      1.0  0.55775  0.31485  0.16398  1.0000
  S   S129      1.0  0.95417  0.08759  0.05967  1.0000
  C   C576      1.0  0.95405  0.23481  0.04874  1.0000
  H   H1019     1.0  0.76422  0.01004  0.01018  1.0000
  H   H1020     1.0  0.59792  0.01185  0.04796  1.0000
  H   H1021     1.0  0.62531  0.27786  0.06163  1.0000
  H   H1022     1.0  0.93714  0.00833  0.02383  1.0000
  C   C577      1.0  0.55782  0.11750  0.00642  1.0000
  H   H1023     1.0  0.53267  0.29216  0.05006  1.0000
  C   C578      1.0  0.91809  0.02442  0.08599  1.0000
  C   C579      1.0  0.91107  0.03833  0.06103  1.0000
  C   C580      1.0  0.92235  0.05738  0.05338  1.0000
  C   C581      1.0  0.94090  0.06296  0.07035  1.0000
  C   C582      1.0  0.94799  0.04900  0.09521  1.0000
  C   C583      1.0  0.93672  0.02995  0.10285  1.0000
  H   H1024     1.0  0.89683  0.03451  0.04777  1.0000
  H   H1025     1.0  0.91653  0.06796  0.03421  1.0000
  H   H1026     1.0  0.96198  0.05302  0.10893  1.0000
  H   H1027     1.0  0.94236  0.01949  0.12231  1.0000
  C   C584      1.0  0.88037  0.17892  0.08551  1.0000
  C   C585      1.0  0.89915  0.18971  0.06770  1.0000
  S   S130      1.0  0.50275  0.26129  0.02317  1.0000
  H   H1028     1.0  0.53695  0.22106  0.10734  1.0000
  H   H1029     1.0  0.51738  0.23169  0.07911  1.0000
  H   H1030     1.0  0.59245  0.28473  0.02921  1.0000
  H   H1031     1.0  0.87551  0.18805  0.10750  1.0000
  H   H1032     1.0  0.96054  0.22695  0.02662  1.0000
  H   H1033     1.0  0.56596  0.23734  0.07351  1.0000
  C   C586      1.0  0.55038  0.29128  0.04895  1.0000
  H   H1034     1.0  0.92095  0.17536  0.10184  1.0000
  C   C587      1.0  0.59193  0.99520  0.00249  1.0000
  H   H1035     1.0  0.96294  0.15880  0.06343  1.0000
  H   H1036     1.0  0.54666  0.24748  0.04464  1.0000
  H   H1037     1.0  0.95649  0.16629  0.11471  1.0000
  H   H1038     1.0  0.54796  0.28329  0.15319  1.0000
  C   C588      1.0  0.94792  0.16256  0.05047  1.0000
  C   C589      1.0  0.54671  0.26373  0.09230  1.0000
  H   H1039     1.0  0.55377  0.27977  0.02925  1.0000
  H   H1040     1.0  0.92760  0.23192  0.08336  1.0000
  H   H1041     1.0  0.53685  0.30497  0.10577  1.0000
  C   C590      1.0  0.53414  0.22615  0.08150  1.0000
  H   H1042     1.0  0.97964  0.19836  0.15777  1.0000
  C   C591      1.0  0.50323  0.23525  0.00506  1.0000
  C   C592      1.0  0.91858  0.19142  0.09062  1.0000
  H   H1043     1.0  0.96211  0.26593  0.02809  1.0000
  N   N33       1.0  0.55883  0.28350  0.08160  1.0000
  H   H1044     1.0  0.56178  0.31058  0.18974  1.0000
  H   H1045     1.0  0.96829  0.02815  0.04265  1.0000
  C   C593      1.0  0.95748  0.18214  0.12590  1.0000
  H   H1046     1.0  0.92253  0.22261  0.04321  1.0000
  C   C594      1.0  0.55829  0.31362  0.03717  1.0000
  H   H1047     1.0  0.93558  0.25733  0.01901  1.0000
  N   N34       1.0  0.93888  0.19976  0.07484  1.0000
  H   H1048     1.0  0.89366  0.20574  0.05943  1.0000
  C   C595      1.0  0.54960  0.24383  0.07082  1.0000
  H   H1049     1.0  0.53866  0.31432  0.99335  1.0000
  C   C596      1.0  0.94787  0.25751  0.03835  1.0000
  H   H1050     1.0  0.61649  0.25077  0.06979  1.0000
  H   H1051     1.0  0.94406  0.18356  0.14384  1.0000
  H   H1052     1.0  0.58686  0.26766  0.10053  1.0000
  H   H1053     1.0  0.96691  0.23599  0.06700  1.0000
  H   H1054     1.0  0.88464  0.16237  0.09318  1.0000
  H   H1055     1.0  0.95486  0.21538  0.11467  1.0000
  C   C597      1.0  0.58258  0.27941  0.08082  1.0000
  C   C598      1.0  0.95635  0.20060  0.10002  1.0000
  C   C599      1.0  0.55942  0.29510  0.14267  1.0000
  C   C600      1.0  0.93455  0.22236  0.06300  1.0000
  H   H1056     1.0  0.90308  0.18014  0.04580  1.0000
  C   C601      1.0  0.55401  0.30055  0.10638  1.0000
  H   H1057     1.0  0.94177  0.26653  0.05973  1.0000
  H   H1058     1.0  0.53398  0.99085  0.02196  1.0000
  C   C602      1.0  0.61559  0.26457  0.05234  1.0000
  C   C603      1.0  0.95345  0.00223  0.01863  1.0000
  C   C604      1.0  0.96925  0.02068  0.01839  1.0000
  H   H1059     1.0  0.61929  0.01315  0.01794  1.0000
  H   H1060     1.0  0.93436  0.15546  0.06439  1.0000
  S   S131      1.0  0.49203  0.29835  0.10207  1.0000
  H   H1061     1.0  0.58365  0.25817  0.03766  1.0000
  H   H1062     1.0  0.96363  0.03271  0.00014  1.0000
  H   H1063     1.0  0.52933  0.26742  0.09397  1.0000
  H   H1064     1.0  0.59147  0.29416  0.08677  1.0000
  H   H1065     1.0  0.57580  0.28859  0.14480  1.0000
  C   C605      1.0  0.97815  0.18289  0.14524  1.0000
  H   H1066     1.0  0.51424  0.02472  0.00642  1.0000
  H   H1067     1.0  0.95077  0.13393  0.02171  1.0000
  H   H1068     1.0  0.57530  0.31608  0.04293  1.0000
  H   H1069     1.0  0.56281  0.31545  0.09989  1.0000
  S   S132      1.0  0.90448  0.00004  0.09718  1.0000
  C   C606      1.0  0.94904  0.15139  0.01747  1.0000
  H   H1070     1.0  0.97214  0.20184  0.08754  1.0000
  H   H1071     1.0  0.55596  0.13365  0.01681  1.0000
  C   C607      1.0  0.60685  0.00266  0.02921  1.0000
  H   H1072     1.0  0.93496  0.19020  0.02452  1.0000
  H   H1073     1.0  0.54124  0.32132  0.16369  1.0000
  H   H1074     1.0  0.56650  0.10723  0.02431  1.0000
  H   H1075     1.0  0.83155  0.00688  0.99532  1.0000
  C   C608      1.0  0.76019  0.99335  0.00858  1.0000
  Fe  Fe65      1.0  0.98608  0.10472  0.06929  1.0000
  H   H1076     1.0  0.93422  0.15423  0.00346  1.0000
  H   H1077     1.0  0.54180  0.11054  0.00291  1.0000
  H   H1078     1.0  0.95338  0.99448  0.99438  1.0000
  C   C609      1.0  0.55548  0.31699  0.00022  1.0000
  H   H1079     1.0  0.96294  0.15720  0.00269  1.0000
  H   H1080     1.0  0.55249  0.01977  0.99181  1.0000
  H   H1081     1.0  0.58395  0.12157  0.85474  1.0000
  H   H1082     1.0  0.57768  0.17941  0.90234  1.0000
  S   S133      1.0  0.61682  0.01776  0.93208  1.0000
  C   C610      1.0  0.55653  0.15176  0.89574  1.0000
  H   H1083     1.0  0.57789  0.08964  0.82353  1.0000
  Fe  Fe66      1.0  0.50421  0.09193  0.91664  1.0000
  C   C611      1.0  0.56361  0.11345  0.89823  1.0000
  S   S134      1.0  0.52778  0.06535  0.90052  1.0000
  H   H1084     1.0  0.58503  0.08123  0.86451  1.0000
  H   H1085     1.0  0.97016  0.07745  0.98438  1.0000
  H   H1086     1.0  0.55119  0.18980  0.85961  1.0000
  H   H1087     1.0  0.55976  0.14952  0.96026  1.0000
  S   S135      1.0  0.98402  0.32218  0.91988  1.0000
  H   H1088     1.0  0.53001  0.18753  0.89019  1.0000
  S   S136      1.0  0.50028  0.12424  0.89109  1.0000
  H   H1089     1.0  0.53904  0.14891  0.89746  1.0000
  C   C612      1.0  0.56934  0.11241  0.86099  1.0000
  H   H1090     1.0  0.58636  0.12457  0.97924  1.0000
  C   C613      1.0  0.57021  0.11855  0.97384  1.0000
  H   H1091     1.0  0.54633  0.10965  0.90075  1.0000
  H   H1092     1.0  0.63127  0.13657  0.94621  1.0000
  H   H1093     1.0  0.64136  0.11415  0.92374  1.0000
  C   C614      1.0  0.59122  0.02963  0.92417  1.0000
  C   C615      1.0  0.57873  0.02400  0.89750  1.0000
  C   C616      1.0  0.55940  0.03493  0.89092  1.0000
  C   C617      1.0  0.55196  0.05149  0.91108  1.0000
  C   C618      1.0  0.56413  0.05669  0.93830  1.0000
  C   C619      1.0  0.58373  0.04614  0.94441  1.0000
  H   H1094     1.0  0.58432  0.01169  0.88125  1.0000
  H   H1095     1.0  0.55025  0.03068  0.86973  1.0000
  H   H1096     1.0  0.55845  0.06889  0.95458  1.0000
  C   C620      1.0  0.59188  0.13948  0.91403  1.0000
  H   H1097     1.0  0.82730  0.99999  0.92133  1.0000
  H   H1098     1.0  0.63572  0.13885  0.90218  1.0000
  H   H1099     1.0  0.59534  0.15088  0.93391  1.0000
  H   H1100     1.0  0.59315  0.05074  0.96513  1.0000
  H   H1101     1.0  0.55611  0.11940  0.84640  1.0000
  H   H1102     1.0  0.57160  0.09999  0.91115  1.0000
  H   H1103     1.0  0.50697  0.01420  0.96697  1.0000
  S   S137      1.0  0.51180  0.16866  0.95684  1.0000
  H   H1104     1.0  0.96637  0.29277  0.82865  1.0000
  C   C621      1.0  0.60768  0.12037  0.91693  1.0000
  H   H1105     1.0  0.60348  0.10908  0.93711  1.0000
  H   H1106     1.0  0.54196  0.12952  0.94830  1.0000
  H   H1107     1.0  0.55658  0.17763  0.93231  1.0000
  H   H1108     1.0  0.85322  0.00635  0.96560  1.0000
  C   C622      1.0  0.97936  0.29201  0.84686  1.0000
  N   N35       1.0  0.56837  0.13437  0.91430  1.0000
  C   C623      1.0  0.55922  0.13367  0.94885  1.0000
  C   C624      1.0  0.50719  0.19411  0.97571  1.0000
  H   H1109     1.0  0.55754  0.08052  0.85176  1.0000
  H   H1110     1.0  0.56067  0.15162  0.86916  1.0000
  H   H1111     1.0  0.55040  0.20732  0.89422  1.0000
  H   H1112     1.0  0.60798  0.11115  0.89397  1.0000
  C   C625      1.0  0.54726  0.19083  0.88620  1.0000
  H   H1113     1.0  0.97246  0.28674  0.87094  1.0000
  C   C626      1.0  0.57267  0.08954  0.84969  1.0000
  H   H1114     1.0  0.59649  0.14799  0.89074  1.0000
  C   C627      1.0  0.56070  0.17507  0.90624  1.0000
  C   C628      1.0  0.52438  0.20833  0.97625  1.0000
  C   C629      1.0  0.63037  0.12806  0.92260  1.0000
  H   H1115     1.0  0.56589  0.30588  0.98638  1.0000
  H   H1116     1.0  0.57148  0.10214  0.96468  1.0000
  S   S138      1.0  0.50095  0.10576  0.96711  1.0000
  H   H1117     1.0  0.54502  0.00902  0.95271  1.0000
  Fe  Fe67      1.0  0.49476  0.13769  0.94192  1.0000
  H   H1118     1.0  0.83301  0.02679  0.96308  1.0000
  H   H1119     1.0  0.98053  0.08147  0.94319  1.0000
  H   H1120     1.0  0.80568  0.00011  0.95122  1.0000
  H   H1121     1.0  0.72964  0.99974  0.98601  1.0000
  H   H1122     1.0  0.98604  0.30826  0.84901  1.0000
  C   C630      1.0  0.82266  0.99578  0.94693  1.0000
  C   C631      1.0  0.98496  0.07811  0.96907  1.0000
  H   H1123     1.0  0.52174  0.03861  0.96894  1.0000
  H   H1124     1.0  0.53946  0.20378  0.96539  1.0000
  C   C632      1.0  0.83597  0.00971  0.96911  1.0000
  C   C633      1.0  0.51955  0.02258  0.98056  1.0000
  C   C634      1.0  0.54055  0.01018  0.97903  1.0000
  H   H1125     1.0  0.79220  0.99018  0.90317  1.0000
  H   H1126     1.0  0.98871  0.26094  0.83197  1.0000
  H   H1127     1.0  0.98726  0.04438  0.96079  1.0000
  H   H1128     1.0  0.53594  0.23911  0.98987  1.0000
  C   C635      1.0  0.52240  0.22852  0.99045  1.0000
  H   H1129     1.0  0.98916  0.22023  0.95357  1.0000
  H   H1130     1.0  0.58498  0.00945  0.99051  1.0000
  Fe  Fe68      1.0  0.83502  0.62537  0.31467  1.0000
  S   S139      1.0  0.85554  0.59739  0.32823  1.0000
  S   S140      1.0  0.80591  0.61971  0.28454  1.0000
  Fe  Fe69      1.0  0.88305  0.61822  0.31272  1.0000
  S   S141      1.0  0.91099  0.60355  0.28449  1.0000
  Fe  Fe70      1.0  0.85734  0.61212  0.37809  1.0000
  S   S142      1.0  0.85198  0.58975  0.42227  1.0000
  H   H1131     1.0  0.62038  0.54111  0.07962  1.0000
  C   C636      1.0  0.62537  0.55801  0.08052  1.0000
  Fe  Fe71      1.0  0.69227  0.61174  0.35203  1.0000
  S   S143      1.0  0.68213  0.57752  0.35689  1.0000
  S   S144      1.0  0.72231  0.62597  0.37207  1.0000
  Fe  Fe72      1.0  0.64942  0.62617  0.32537  1.0000
  S   S145      1.0  0.63558  0.59318  0.32877  1.0000
  Fe  Fe73      1.0  0.65172  0.59124  0.37827  1.0000
  S   S146      1.0  0.63602  0.58003  0.42664  1.0000
  Fe  Fe74      1.0  0.66697  0.58238  0.30686  1.0000
  S   S147      1.0  0.67357  0.56339  0.25976  1.0000
  S   S148      1.0  0.66287  0.62492  0.37591  1.0000
  S   S149      1.0  0.67980  0.61588  0.30106  1.0000
  Fe  Fe75      1.0  0.96457  0.61638  0.09957  1.0000
  S   S150      1.0  0.95841  0.63127  0.04963  1.0000
  H   H1132     1.0  0.62867  0.58328  0.11581  1.0000
  Fe  Fe76      1.0  0.96520  0.59877  0.02978  1.0000
  H   H1133     1.0  0.81063  0.62805  0.46434  1.0000
  S   S151      1.0  0.96849  0.58334  0.07953  1.0000
  Fe  Fe77      1.0  0.61068  0.45414  0.06732  1.0000
  S   S152      1.0  0.63113  0.46767  0.02573  1.0000
  S   S153      1.0  0.58679  0.42824  0.05147  1.0000
  Fe  Fe78      1.0  0.62949  0.48656  0.11558  1.0000
  S   S154      1.0  0.65085  0.50199  0.07736  1.0000
  S   S155      1.0  0.62524  0.49729  0.16885  1.0000
  Fe  Fe79      1.0  0.62228  0.49994  0.04462  1.0000
  H   H1134     1.0  0.66737  0.44894  0.20512  1.0000
  Fe  Fe80      1.0  0.65838  0.46874  0.06089  1.0000
  S   S156      1.0  0.69183  0.45593  0.04727  1.0000
  S   S157      1.0  0.60023  0.48682  0.08374  1.0000
  S   S158      1.0  0.63870  0.45291  0.10166  1.0000
  Fe  Fe81      1.0  0.50080  0.33182  0.08448  1.0000
  H   H1135     1.0  0.95238  0.45902  0.02077  1.0000
  S   S159      1.0  0.52880  0.35042  0.10632  1.0000
  C   C637      1.0  0.57116  0.40643  0.06758  1.0000
  C   C638      1.0  0.56957  0.40139  0.10119  1.0000
  C   C639      1.0  0.55669  0.38420  0.11250  1.0000
  C   C640      1.0  0.54501  0.37185  0.09054  1.0000
  C   C641      1.0  0.54673  0.37675  0.05695  1.0000
  C   C642      1.0  0.55968  0.39386  0.04562  1.0000
  H   H1136     1.0  0.57826  0.41076  0.11849  1.0000
  H   H1137     1.0  0.55564  0.38057  0.13855  1.0000
  H   H1138     1.0  0.53824  0.36720  0.03968  1.0000
  H   H1139     1.0  0.56085  0.39742  0.01956  1.0000
  H   H1140     1.0  0.77694  0.44741  0.09587  1.0000
  H   H1141     1.0  0.90764  0.59132  0.35932  1.0000
  C   C643      1.0  0.57555  0.53839  0.03082  1.0000
  C   C644      1.0  0.55698  0.55103  0.02992  1.0000
  H   H1142     1.0  0.57774  0.52673  0.05039  1.0000
  H   H1143     1.0  0.54495  0.54910  0.04901  1.0000
  C   C645      1.0  0.71822  0.45870  0.03030  1.0000
  H   H1144     1.0  0.49299  0.34584  0.41361  1.0000
  C   C646      1.0  0.74844  0.47877  0.00619  1.0000
  C   C647      1.0  0.65140  0.61230  0.46542  1.0000
  C   C648      1.0  0.49085  0.39585  0.02955  1.0000
  H   H1145     1.0  0.51968  0.46980  0.04222  1.0000
  C   C649      1.0  0.92042  0.56023  0.02728  1.0000
  C   C650      1.0  0.90359  0.54583  0.03265  1.0000
  H   H1146     1.0  0.92893  0.56649  0.04781  1.0000
  H   H1147     1.0  0.89934  0.54078  0.05738  1.0000
  H   H1148     1.0  0.60500  0.53555  0.15011  1.0000
  H   H1149     1.0  0.91225  0.63554  0.08242  1.0000
  H   H1150     1.0  0.70270  0.46295  0.18848  1.0000
  C   C651      1.0  0.76191  0.63872  0.35167  1.0000
  H   H1151     1.0  0.63231  0.55726  0.13199  1.0000
  C   C652      1.0  0.63831  0.51653  0.19311  1.0000
  C   C653      1.0  0.63093  0.51996  0.22540  1.0000
  C   C654      1.0  0.64103  0.53468  0.24584  1.0000
  C   C655      1.0  0.65891  0.54598  0.23439  1.0000
  C   C656      1.0  0.66613  0.54271  0.20193  1.0000
  C   C657      1.0  0.65577  0.52829  0.18130  1.0000
  H   H1152     1.0  0.61739  0.51102  0.23484  1.0000
  H   H1153     1.0  0.63531  0.53689  0.27073  1.0000
  H   H1154     1.0  0.67985  0.55145  0.19275  1.0000
  H   H1155     1.0  0.66138  0.52615  0.15642  1.0000
  C   C658      1.0  0.59620  0.64116  0.41507  1.0000
  H   H1156     1.0  0.65106  0.55193  0.04578  1.0000
  C   C659      1.0  0.66859  0.46207  0.18654  1.0000
  H   H1157     1.0  0.86804  0.55437  0.12052  1.0000
  H   H1158     1.0  0.92480  0.54074  0.15477  1.0000
  C   C660      1.0  0.91948  0.61114  0.24409  1.0000
  C   C661      1.0  0.93662  0.60024  0.22928  1.0000
  C   C662      1.0  0.94364  0.60559  0.19708  1.0000
  C   C663      1.0  0.93348  0.62186  0.17927  1.0000
  C   C664      1.0  0.95711  0.50906  0.02975  1.0000
  C   C665      1.0  0.90951  0.62760  0.22641  1.0000
  H   H1159     1.0  0.94452  0.58755  0.24278  1.0000
  H   H1160     1.0  0.95687  0.59712  0.18604  1.0000
  C   C666      1.0  0.78195  0.62288  0.30691  1.0000
  C   C667      1.0  0.76412  0.61059  0.29943  1.0000
  C   C668      1.0  0.74541  0.61189  0.31869  1.0000
  C   C669      1.0  0.74449  0.62563  0.34529  1.0000
  H   H1161     1.0  0.94388  0.51411  0.04633  1.0000
  H   H1162     1.0  0.58166  0.64979  0.40730  1.0000
  H   H1163     1.0  0.76498  0.59959  0.27933  1.0000
  H   H1164     1.0  0.73193  0.60188  0.31346  1.0000
  H   H1165     1.0  0.88703  0.54213  0.39619  1.0000
  C   C670      1.0  0.69265  0.47890  0.14209  1.0000
  S   S160      1.0  0.88673  0.63070  0.36396  1.0000
  N   N36       1.0  0.77665  0.62251  0.46166  1.0000
  H   H1166     1.0  0.70923  0.56663  0.44227  1.0000
  C   C671      1.0  0.77638  0.61001  0.43035  1.0000
  H   H1167     1.0  0.83525  0.57286  0.10989  1.0000
  H   H1168     1.0  0.57383  0.64837  0.47303  1.0000
  H   H1169     1.0  0.75738  0.64745  0.48350  1.0000
  H   H1170     1.0  0.88141  0.60042  0.06239  1.0000
  H   H1171     1.0  0.70299  0.52042  0.17121  1.0000
  C   C672      1.0  0.79744  0.59869  0.42061  1.0000
  C   C673      1.0  0.79505  0.58660  0.38866  1.0000
  N   N37       1.0  0.93680  0.48373  0.99160  1.0000
  H   H1172     1.0  0.50677  0.39237  0.03967  1.0000
  H   H1173     1.0  0.65571  0.46010  0.16851  1.0000
  H   H1174     1.0  0.50611  0.38702  0.14815  1.0000
  H   H1175     1.0  0.73364  0.61127  0.44813  1.0000
  H   H1176     1.0  0.76398  0.59741  0.43184  1.0000
  H   H1177     1.0  0.77163  0.62035  0.40929  1.0000
  S   S161      1.0  0.83473  0.63862  0.36538  1.0000
  H   H1178     1.0  0.56890  0.32744  0.15496  1.0000
  H   H1179     1.0  0.86483  0.52464  0.35380  1.0000
  H   H1180     1.0  0.52504  0.42131  0.03768  1.0000
  H   H1181     1.0  0.89629  0.63610  0.23740  1.0000
  C   C674      1.0  0.73545  0.62310  0.46775  1.0000
  C   C675      1.0  0.87118  0.53636  0.33538  1.0000
  H   H1182     1.0  0.87850  0.59598  0.20283  1.0000
  H   H1183     1.0  0.93756  0.61879  0.33779  1.0000
  C   C676      1.0  0.95831  0.52076  0.37288  1.0000
  H   H1184     1.0  0.89862  0.58831  0.41869  1.0000
  H   H1185     1.0  0.80235  0.58705  0.43989  1.0000
  H   H1186     1.0  0.79086  0.59772  0.36820  1.0000
  H   H1187     1.0  0.81038  0.57872  0.38223  1.0000
  H   H1188     1.0  0.78254  0.57421  0.39133  1.0000
  C   C677      1.0  0.94541  0.54102  0.36596  1.0000
  C   C678      1.0  0.93233  0.55625  0.14810  1.0000
  H   H1189     1.0  0.90642  0.62751  0.04137  1.0000
  H   H1190     1.0  0.94103  0.55026  0.41590  1.0000
  H   H1191     1.0  0.93716  0.56426  0.17085  1.0000
  H   H1192     1.0  0.93340  0.60661  0.39528  1.0000
  C   C679      1.0  0.87010  0.57022  0.10804  1.0000
  C   C680      1.0  0.89349  0.54361  0.34470  1.0000
  H   H1193     1.0  0.55787  0.60492  0.07103  1.0000
  C   C681      1.0  0.79756  0.65347  0.43324  1.0000
  N   N38       1.0  0.87853  0.58622  0.13175  1.0000
  C   C682      1.0  0.84888  0.59771  0.46364  1.0000
  H   H1194     1.0  0.70297  0.49883  0.20023  1.0000
  C   C683      1.0  0.92116  0.58062  0.36567  1.0000
  H   H1195     1.0  0.59259  0.53498  0.11163  1.0000
  C   C684      1.0  0.72719  0.47811  0.01900  1.0000
  C   C685      1.0  0.92618  0.56650  0.99527  1.0000
  H   H1196     1.0  0.58148  0.58229  0.16739  1.0000
  H   H1197     1.0  0.49432  0.41325  0.14685  1.0000
  C   C686      1.0  0.57074  0.54038  0.15159  1.0000
  C   C687      1.0  0.75159  0.44083  0.01550  1.0000
  C   C688      1.0  0.89049  0.46179  0.04831  1.0000
  C   C689      1.0  0.60926  0.58467  0.21866  1.0000
  N   N39       1.0  0.59926  0.56675  0.12847  1.0000
  C   C690      1.0  0.61061  0.57002  0.18915  1.0000
  H   H1198     1.0  0.90359  0.52911  0.34570  1.0000
  H   H1199     1.0  0.83619  0.61981  0.19251  1.0000
  H   H1200     1.0  0.92735  0.48211  0.04301  1.0000
  C   C691      1.0  0.89229  0.53781  0.00617  1.0000
  C   C692      1.0  0.91648  0.63287  0.19420  1.0000
  C   C693      1.0  0.64886  0.55907  0.07037  1.0000
  H   H1201     1.0  0.60490  0.59575  0.15470  1.0000
  H   H1202     1.0  0.89206  0.58683  0.48167  1.0000
  H   H1203     1.0  0.51214  0.40371  0.09386  1.0000
  H   H1204     1.0  0.66629  0.47743  0.19925  1.0000
  H   H1205     1.0  0.55784  0.54584  0.13506  1.0000
  C   C694      1.0  0.91695  0.57027  0.12841  1.0000
  H   H1206     1.0  0.58694  0.61087  0.11222  1.0000
  C   C695      1.0  0.57494  0.60644  0.06376  1.0000
  H   H1207     1.0  0.55091  0.51451  0.17048  1.0000
  C   C696      1.0  0.75653  0.63571  0.46343  1.0000
  H   H1208     1.0  0.70715  0.49073  0.08227  1.0000
  H   H1209     1.0  0.60402  0.55435  0.19709  1.0000
  H   H1210     1.0  0.87185  0.52868  0.31105  1.0000
  C   C697      1.0  0.89983  0.62862  0.06675  1.0000
  H   H1211     1.0  0.86263  0.62877  0.45619  1.0000
  C   C698      1.0  0.52760  0.45504  0.03355  1.0000
  H   H1212     1.0  0.89981  0.46054  0.07124  1.0000
  H   H1213     1.0  0.88034  0.47634  0.04895  1.0000
  H   H1214     1.0  0.87991  0.44769  0.04711  1.0000
  H   H1215     1.0  0.88579  0.63944  0.06631  1.0000
  H   H1216     1.0  0.75931  0.47770  0.12426  1.0000
  H   H1217     1.0  0.97886  0.53036  0.05400  1.0000
  C   C699      1.0  0.89728  0.57651  0.14954  1.0000
  H   H1218     1.0  0.71734  0.45537  0.10581  1.0000
  C   C700      1.0  0.72746  0.52183  0.20706  1.0000
  H   H1219     1.0  0.73497  0.48299  0.17641  1.0000
  H   H1220     1.0  0.89199  0.56213  0.16396  1.0000
  H   H1221     1.0  0.54445  0.45516  0.04163  1.0000
  C   C701      1.0  0.58413  0.57651  0.10395  1.0000
  C   C702      1.0  0.86728  0.60447  0.18624  1.0000
  C   C703      1.0  0.69192  0.56804  0.44790  1.0000
  H   H1222     1.0  0.56816  0.50725  0.13670  1.0000
  H   H1223     1.0  0.87472  0.61950  0.17721  1.0000
  H   H1224     1.0  0.92573  0.58487  0.12064  1.0000
  C   C704      1.0  0.58940  0.59953  0.09193  1.0000
  H   H1225     1.0  0.68634  0.58420  0.44038  1.0000
  H   H1226     1.0  0.90954  0.49673  0.01757  1.0000
  H   H1227     1.0  0.65872  0.54999  0.08824  1.0000
  C   C705      1.0  0.59829  0.57953  0.15946  1.0000
  S   S162      1.0  0.63082  0.65412  0.30463  1.0000
  C   C706      1.0  0.89350  0.60644  0.07946  1.0000
  H   H1228     1.0  0.82861  0.56668  0.05161  1.0000
  H   H1229     1.0  0.90361  0.58774  0.16772  1.0000
  C   C707      1.0  0.72698  0.49520  0.16056  1.0000
  H   H1230     1.0  0.61827  0.57747  0.23943  1.0000
  C   C708      1.0  0.84451  0.56275  0.06176  1.0000
  H   H1231     1.0  0.74019  0.50525  0.15040  1.0000
  H   H1232     1.0  0.86010  0.55015  0.33377  1.0000
  H   H1233     1.0  0.57896  0.51069  0.17721  1.0000
  H   H1234     1.0  0.49564  0.38067  0.09149  1.0000
  H   H1235     1.0  0.56772  0.57724  0.11454  1.0000
  C   C709      1.0  0.59142  0.54120  0.00670  1.0000
  C   C710      1.0  0.84775  0.61029  0.20714  1.0000
  S   S163      1.0  0.61563  0.52677  0.00791  1.0000
  H   H1236     1.0  0.70127  0.62853  0.46811  1.0000
  H   H1237     1.0  0.84717  0.59797  0.14551  1.0000
  C   C711      1.0  0.62190  0.56692  0.11549  1.0000
  H   H1238     1.0  0.92429  0.58065  0.43265  1.0000
  H   H1239     1.0  0.92592  0.57375  0.34178  1.0000
  H   H1240     1.0  0.75521  0.49375  0.99776  1.0000
  H   H1241     1.0  0.58277  0.56620  0.08221  1.0000
  S   S164      1.0  0.86231  0.64525  0.29552  1.0000
  H   H1242     1.0  0.61631  0.56720  0.06181  1.0000
  H   H1243     1.0  0.68327  0.49305  0.14953  1.0000
  H   H1244     1.0  0.69364  0.52406  0.05536  1.0000
  H   H1245     1.0  0.57809  0.59652  0.04191  1.0000
  H   H1246     1.0  0.89631  0.61573  0.13023  1.0000
  C   C712      1.0  0.78064  0.63727  0.33266  1.0000
  H   H1247     1.0  0.84492  0.54546  0.06819  1.0000
  H   H1248     1.0  0.56925  0.54899  0.17501  1.0000
  H   H1249     1.0  0.61641  0.60045  0.21252  1.0000
  C   C713      1.0  0.71341  0.50904  0.18438  1.0000
  H   H1250     1.0  0.59244  0.58687  0.22675  1.0000
  H   H1251     1.0  0.88225  0.55677  0.44469  1.0000
  H   H1252     1.0  0.73755  0.53320  0.19261  1.0000
  H   H1253     1.0  0.59246  0.63057  0.43649  1.0000
  H   H1254     1.0  0.66193  0.61633  0.44510  1.0000
  C   C714      1.0  0.86119  0.59017  0.15716  1.0000
  H   H1255     1.0  0.72422  0.42517  0.03715  1.0000
  C   C715      1.0  0.90934  0.57426  0.42239  1.0000
  H   H1256     1.0  0.65433  0.57587  0.06895  1.0000
  H   H1257     1.0  0.94688  0.55309  0.13309  1.0000
  C   C716      1.0  0.72674  0.46438  0.12393  1.0000
  H   H1258     1.0  0.93674  0.53880  0.34285  1.0000
  H   H1259     1.0  0.85530  0.57475  0.16787  1.0000
  H   H1260     1.0  0.71778  0.49256  0.02009  1.0000
  N   N40       1.0  0.71530  0.48478  0.13290  1.0000
  H   H1261     1.0  0.96460  0.49458  0.04059  1.0000
  H   H1262     1.0  0.61328  0.57668  0.48867  1.0000
  H   H1263     1.0  0.83222  0.65572  0.43541  1.0000
  H   H1264     1.0  0.85274  0.61997  0.22823  1.0000
  N   N41       1.0  0.91386  0.56361  0.38999  1.0000
  S   S165      1.0  0.94075  0.62881  0.13812  1.0000
  C   C717      1.0  0.59286  0.54389  0.13496  1.0000
  H   H1265     1.0  0.69739  0.54908  0.07549  1.0000
  H   H1266     1.0  0.73777  0.51103  0.22188  1.0000
  H   H1267     1.0  0.88169  0.56732  0.08791  1.0000
  H   H1268     1.0  0.85675  0.56615  0.04240  1.0000
  H   H1269     1.0  0.71723  0.53112  0.22415  1.0000
  H   H1270     1.0  0.90850  0.64546  0.18057  1.0000
  H   H1271     1.0  0.60606  0.60100  0.08287  1.0000
  C   C718      1.0  0.88448  0.60722  0.11521  1.0000
  H   H1272     1.0  0.61694  0.61717  0.39346  1.0000
  H   H1273     1.0  0.87043  0.61809  0.11415  1.0000
  H   H1274     1.0  0.96791  0.52248  0.39538  1.0000
  C   C719      1.0  0.51649  0.43521  0.04771  1.0000
  H   H1275     1.0  0.84781  0.59316  0.08471  1.0000
  H   H1276     1.0  0.83978  0.59571  0.21709  1.0000
  C   C720      1.0  0.55404  0.56636  0.00476  1.0000
  H   H1277     1.0  0.88067  0.56720  0.37768  1.0000
  C   C721      1.0  0.89922  0.55997  0.44999  1.0000
  C   C722      1.0  0.84848  0.57606  0.09209  1.0000
  C   C723      1.0  0.56702  0.51676  0.15940  1.0000
  C   C724      1.0  0.63724  0.59529  0.46291  1.0000
  H   H1278     1.0  0.91274  0.56125  0.10642  1.0000
  H   H1279     1.0  0.68820  0.52012  0.11550  1.0000
  H   H1280     1.0  0.62772  0.56791  0.18294  1.0000
  C   C725      1.0  0.91992  0.48234  0.01840  1.0000
  H   H1281     1.0  0.71432  0.53125  0.12216  1.0000
  H   H1282     1.0  0.73162  0.50240  0.09375  1.0000
  H   H1283     1.0  0.51843  0.43547  0.07472  1.0000
  H   H1284     1.0  0.68328  0.55624  0.43312  1.0000
  H   H1285     1.0  0.62755  0.64615  0.43272  1.0000
  H   H1286     1.0  0.90766  0.59603  0.07752  1.0000
  H   H1287     1.0  0.76347  0.43860  0.13311  1.0000
  H   H1288     1.0  0.69230  0.44542  0.15843  1.0000
  C   C726      1.0  0.49372  0.39769  0.99168  1.0000
  H   H1289     1.0  0.72805  0.45360  0.14583  1.0000
  C   C727      1.0  0.69038  0.46139  0.16946  1.0000
  H   H1290     1.0  0.83503  0.56776  0.47944  1.0000
  H   H1291     1.0  0.74910  0.47316  0.08380  1.0000
  C   C728      1.0  0.95124  0.46447  0.99463  1.0000
  H   H1292     1.0  0.95579  0.59708  0.32943  1.0000
  C   C729      1.0  0.74964  0.46682  0.10942  1.0000
  C   C730      1.0  0.70397  0.53279  0.07245  1.0000
  H   H1293     1.0  0.68418  0.47294  0.12021  1.0000
  C   C731      1.0  0.70472  0.52123  0.10585  1.0000
  S   S166      1.0  0.87073  0.52056  0.01438  1.0000
  H   H1294     1.0  0.92233  0.53117  0.40354  1.0000
  H   H1295     1.0  0.75180  0.43389  0.09348  1.0000
  C   C732      1.0  0.76110  0.44532  0.10800  1.0000
  C   C733      1.0  0.60277  0.62682  0.38678  1.0000
  H   H1296     1.0  0.72020  0.53421  0.06144  1.0000
  H   H1297     1.0  0.95692  0.55417  0.36151  1.0000
  H   H1298     1.0  0.96935  0.51775  0.35190  1.0000
  H   H1299     1.0  0.89930  0.55458  0.32488  1.0000
  H   H1300     1.0  0.60646  0.63647  0.36426  1.0000
  C   C734      1.0  0.71515  0.49901  0.10257  1.0000
  H   H1301     1.0  0.95227  0.58538  0.38922  1.0000
  H   H1302     1.0  0.79399  0.64739  0.33776  1.0000
  C   C735      1.0  0.89310  0.55446  0.37850  1.0000
  H   H1303     1.0  0.98360  0.47725  0.99910  1.0000
  H   H1304     1.0  0.81043  0.61036  0.41655  1.0000
  S   S167      1.0  0.53125  0.58292  0.00604  1.0000
  C   C736      1.0  0.94955  0.60781  0.34873  1.0000
  C   C737      1.0  0.76072  0.45995  0.00406  1.0000
  C   C738      1.0  0.97351  0.52703  0.02873  1.0000
  H   H1305     1.0  0.52764  0.45481  0.00630  1.0000
  H   H1306     1.0  0.90770  0.54450  0.45245  1.0000
  C   C739      1.0  0.73076  0.44024  0.02858  1.0000
  H   H1307     1.0  0.57811  0.62333  0.05675  1.0000
  H   H1308     1.0  0.91481  0.44755  0.01831  1.0000
  C   C740      1.0  0.93031  0.54623  0.39535  1.0000
  C   C741      1.0  0.93959  0.59497  0.37723  1.0000
  C   C742      1.0  0.71614  0.63800  0.46609  1.0000
  H   H1309     1.0  0.94759  0.50680  0.37602  1.0000
  H   H1310     1.0  0.58961  0.61573  0.38129  1.0000
  H   H1311     1.0  0.89503  0.46275  0.99633  1.0000
  C   C743      1.0  0.90529  0.46247  0.01819  1.0000
  C   C744      1.0  0.49328  0.39691  0.13701  1.0000
  C   C745      1.0  0.94831  0.50466  0.99513  1.0000
  H   H1312     1.0  0.76071  0.42619  0.01417  1.0000
  H   H1313     1.0  0.71637  0.64954  0.48642  1.0000
  H   H1314     1.0  0.96293  0.61750  0.35777  1.0000
  H   H1315     1.0  0.49619  0.54596  0.03160  1.0000
  C   C746      1.0  0.79551  0.63730  0.46241  1.0000
  C   C747      1.0  0.85589  0.61755  0.47393  1.0000
  H   H1316     1.0  0.75481  0.64545  0.44045  1.0000
  H   H1317     1.0  0.55987  0.33361  0.99314  1.0000
  H   H1318     1.0  0.61483  0.64881  0.48533  1.0000
  H   H1319     1.0  0.96644  0.54188  0.01820  1.0000
  H   H1320     1.0  0.71593  0.64683  0.44216  1.0000
  H   H1321     1.0  0.49081  0.44023  0.01308  1.0000
  H   H1322     1.0  0.51443  0.51983  0.00826  1.0000
  H   H1323     1.0  0.79772  0.64541  0.40931  1.0000
  C   C748      1.0  0.49613  0.39738  0.09969  1.0000
  H   H1324     1.0  0.76103  0.64979  0.37165  1.0000
  C   C749      1.0  0.89978  0.57089  0.48321  1.0000
  H   H1325     1.0  0.54852  0.49966  0.00717  1.0000
  C   C750      1.0  0.68742  0.56377  0.48444  1.0000
  C   C751      1.0  0.49252  0.43516  0.03925  1.0000
  H   H1326     1.0  0.92352  0.39633  0.00355  1.0000
  H   H1327     1.0  0.79488  0.64709  0.48485  1.0000
  C   C752      1.0  0.84035  0.58324  0.48713  1.0000
  H   H1328     1.0  0.66985  0.56396  0.48811  1.0000
  H   H1329     1.0  0.54890  0.32615  0.04980  1.0000
  H   H1330     1.0  0.98534  0.43744  0.00575  1.0000
  H   H1331     1.0  0.98784  0.45645  0.09486  1.0000
  H   H1332     1.0  0.76584  0.59433  0.48857  1.0000
  H   H1333     1.0  0.98767  0.52250  0.01373  1.0000
  S   S168      1.0  0.49833  0.32307  0.03167  1.0000
  C   C753      1.0  0.62416  0.58994  0.49020  1.0000
  H   H1334     1.0  0.79367  0.59831  0.48935  1.0000
  C   C754      1.0  0.77816  0.60695  0.49027  1.0000
  Fe  Fe82      1.0  0.86380  0.65626  0.34764  1.0000
  H   H1335     1.0  0.69334  0.54752  0.49052  1.0000
  Fe  Fe83      1.0  0.83026  0.60295  0.61955  1.0000
  S   S169      1.0  0.80333  0.62460  0.63426  1.0000
  S   S170      1.0  0.84863  0.61432  0.57341  1.0000
  Fe  Fe84      1.0  0.82652  0.57675  0.68572  1.0000
  S   S171      1.0  0.79925  0.59668  0.70402  1.0000
  S   S172      1.0  0.84216  0.55000  0.71631  1.0000
  Fe  Fe85      1.0  0.78721  0.59469  0.65239  1.0000
  S   S173      1.0  0.75329  0.58746  0.63894  1.0000
  Fe  Fe86      1.0  0.81800  0.62469  0.68416  1.0000
  S   S174      1.0  0.81322  0.57271  0.63471  1.0000
  S   S175      1.0  0.84613  0.60499  0.66875  1.0000
  H   H1336     1.0  0.52283  0.53578  0.97447  1.0000
  S   S176      1.0  0.63498  0.61774  0.65570  1.0000
  C   C755      1.0  0.52566  0.50170  0.96719  1.0000
  Fe  Fe87      1.0  0.60525  0.63272  0.67797  1.0000
  Fe  Fe88      1.0  0.98424  0.34936  0.95552  1.0000
  Fe  Fe89      1.0  0.62879  0.63788  0.61012  1.0000
  S   S177      1.0  0.64040  0.63516  0.55659  1.0000
  Fe  Fe90      1.0  0.86255  0.46272  0.93253  1.0000
  H   H1337     1.0  0.72572  0.59637  0.54750  1.0000
  S   S178      1.0  0.88897  0.43952  0.91522  1.0000
  Fe  Fe91      1.0  0.83578  0.50065  0.90535  1.0000
  S   S179      1.0  0.82267  0.50817  0.95583  1.0000
  S   S180      1.0  0.82145  0.52276  0.86576  1.0000
  S   S181      1.0  0.68247  0.64661  0.70204  1.0000
  H   H1338     1.0  0.61621  0.57631  0.82390  1.0000
  Fe  Fe92      1.0  0.81749  0.47307  0.96250  1.0000
  H   H1339     1.0  0.88722  0.64079  0.57990  1.0000
  S   S182      1.0  0.86958  0.49769  0.92304  1.0000
  S   S183      1.0  0.82933  0.46547  0.91117  1.0000
  Fe  Fe93      1.0  0.52081  0.60433  0.96335  1.0000
  S   S184      1.0  0.51864  0.59226  0.91204  1.0000
  H   H1340     1.0  0.87624  0.61213  0.89622  1.0000
  Fe  Fe94      1.0  0.52620  0.62574  0.89505  1.0000
  H   H1341     1.0  0.72174  0.55301  0.52852  1.0000
  S   S185      1.0  0.53157  0.63715  0.94677  1.0000
  H   H1342     1.0  0.77566  0.60656  0.57630  1.0000
  H   H1343     1.0  0.55679  0.48654  0.97015  1.0000
  H   H1344     1.0  0.49372  0.55802  0.97294  1.0000
  C   C756      1.0  0.57030  0.64598  0.79655  1.0000
  H   H1345     1.0  0.70795  0.58480  0.64126  1.0000
  H   H1346     1.0  0.51941  0.65343  0.79454  1.0000
  C   C757      1.0  0.70933  0.59489  0.55806  1.0000
  C   C758      1.0  0.90808  0.42114  0.93225  1.0000
  C   C759      1.0  0.90844  0.41551  0.96569  1.0000
  C   C760      1.0  0.58077  0.64526  0.52434  1.0000
  C   C761      1.0  0.93874  0.39103  0.95662  1.0000
  C   C762      1.0  0.93849  0.39680  0.92323  1.0000
  C   C763      1.0  0.92333  0.41172  0.91123  1.0000
  H   H1347     1.0  0.55743  0.51519  0.97169  1.0000
  H   H1348     1.0  0.74145  0.52621  0.56435  1.0000
  H   H1349     1.0  0.94984  0.38961  0.90653  1.0000
  H   H1350     1.0  0.92326  0.41579  0.88530  1.0000
  H   H1351     1.0  0.91754  0.50546  0.89935  1.0000
  H   H1352     1.0  0.66721  0.56093  0.54301  1.0000
  H   H1353     1.0  0.86132  0.63760  0.51517  1.0000
  H   H1354     1.0  0.51945  0.53723  0.91943  1.0000
  H   H1355     1.0  0.76146  0.62557  0.52849  1.0000
  H   H1356     1.0  0.65526  0.57766  0.82848  1.0000
  C   C764      1.0  0.77163  0.52375  0.92180  1.0000
  C   C765      1.0  0.92547  0.48405  0.95910  1.0000
  H   H1357     1.0  0.88981  0.53742  0.95354  1.0000
  H   H1358     1.0  0.92000  0.56241  0.94387  1.0000
  C   C766      1.0  0.57243  0.62134  0.75099  1.0000
  C   C767      1.0  0.57730  0.64107  0.76447  1.0000
  C   C768      1.0  0.55772  0.63161  0.81533  1.0000
  C   C769      1.0  0.55211  0.61223  0.80142  1.0000
  C   C770      1.0  0.55962  0.60707  0.76963  1.0000
  H   H1359     1.0  0.54238  0.60102  0.81539  1.0000
  C   C771      1.0  0.68554  0.58987  0.84263  1.0000
  C   C772      1.0  0.49997  0.53508  0.87678  1.0000
  C   C773      1.0  0.63883  0.61900  0.52146  1.0000
  C   C774      1.0  0.62489  0.60176  0.51934  1.0000
  C   C775      1.0  0.63377  0.65484  0.80264  1.0000
  H   H1360     1.0  0.61456  0.59764  0.53997  1.0000
  C   C776      1.0  0.73398  0.60372  0.65777  1.0000
  C   C777      1.0  0.73973  0.62150  0.67581  1.0000
  C   C778      1.0  0.72384  0.63455  0.68965  1.0000
  C   C779      1.0  0.70223  0.63015  0.68477  1.0000
  C   C780      1.0  0.69658  0.61239  0.66672  1.0000
  C   C781      1.0  0.71241  0.59898  0.65392  1.0000
  H   H1361     1.0  0.75637  0.62518  0.67913  1.0000
  H   H1362     1.0  0.66354  0.63682  0.49622  1.0000
  H   H1363     1.0  0.68001  0.60875  0.66317  1.0000
  H   H1364     1.0  0.71159  0.59185  0.58462  1.0000
  C   C782      1.0  0.82650  0.52864  0.82334  1.0000
  C   C783      1.0  0.81467  0.54505  0.80801  1.0000
  C   C784      1.0  0.81908  0.55162  0.77529  1.0000
  C   C785      1.0  0.83532  0.54172  0.75725  1.0000
  C   C786      1.0  0.84685  0.52498  0.77235  1.0000
  C   C787      1.0  0.84248  0.51845  0.80517  1.0000
  H   H1365     1.0  0.80223  0.55306  0.82174  1.0000
  H   H1366     1.0  0.81002  0.56445  0.76408  1.0000
  H   H1367     1.0  0.85935  0.51710  0.75858  1.0000
  H   H1368     1.0  0.85159  0.50569  0.81645  1.0000
  C   C788      1.0  0.83914  0.58841  0.52069  1.0000
  C   C789      1.0  0.84692  0.60796  0.53117  1.0000
  C   C790      1.0  0.85512  0.62252  0.50751  1.0000
  H   H1369     1.0  0.83306  0.57693  0.53861  1.0000
  H   H1370     1.0  0.89880  0.59846  0.94149  1.0000
  H   H1371     1.0  0.77704  0.51888  0.94669  1.0000
  H   H1372     1.0  0.97570  0.47439  0.95743  1.0000
  C   C791      1.0  0.65121  0.57959  0.72005  1.0000
  C   C792      1.0  0.51350  0.52119  0.98105  1.0000
  H   H1373     1.0  0.74023  0.52948  0.60819  1.0000
  C   C793      1.0  0.67128  0.57273  0.59144  1.0000
  H   H1374     1.0  0.95115  0.49921  0.92885  1.0000
  N   N42       1.0  0.49061  0.52368  0.97072  1.0000
  H   H1375     1.0  0.64514  0.57142  0.62688  1.0000
  S   S186      1.0  0.58260  0.61350  0.71178  1.0000
  H   H1376     1.0  0.73624  0.56406  0.58009  1.0000
  H   H1377     1.0  0.91449  0.47702  0.89431  1.0000
  H   H1378     1.0  0.56754  0.58056  0.96073  1.0000
  C   C794      1.0  0.63487  0.63544  0.77957  1.0000
  H   H1379     1.0  0.89098  0.56111  0.50192  1.0000
  N   N43       1.0  0.63618  0.61369  0.79614  1.0000
  C   C795      1.0  0.88825  0.65605  0.65263  1.0000
  C   C796      1.0  0.61726  0.61154  0.81933  1.0000
  H   H1380     1.0  0.80934  0.57456  0.88049  1.0000
  C   C797      1.0  0.65694  0.61210  0.81444  1.0000
  H   H1381     1.0  0.86776  0.64226  0.69100  1.0000
  H   H1382     1.0  0.78329  0.53528  0.91104  1.0000
  H   H1383     1.0  0.90800  0.65614  0.59659  1.0000
  H   H1384     1.0  0.82158  0.56339  0.91689  1.0000
  H   H1385     1.0  0.79004  0.62762  0.52924  1.0000
  C   C798      1.0  0.69838  0.61707  0.55570  1.0000
  H   H1386     1.0  0.71883  0.47395  0.94787  1.0000
  C   C799      1.0  0.50744  0.37947  0.97855  1.0000
  H   H1387     1.0  0.61802  0.59799  0.75892  1.0000
  C   C800      1.0  0.63428  0.59731  0.76971  1.0000
  H   H1388     1.0  0.61731  0.62421  0.83798  1.0000
  H   H1389     1.0  0.60226  0.61375  0.80541  1.0000
  Fe  Fe95      1.0  0.49690  0.64619  0.94723  1.0000
  C   C801      1.0  0.77657  0.61666  0.52501  1.0000
  H   H1390     1.0  0.66951  0.62188  0.80179  1.0000
  H   H1391     1.0  0.65500  0.61919  0.83917  1.0000
  H   H1392     1.0  0.49679  0.55484  0.91865  1.0000
  H   H1393     1.0  0.59369  0.57496  0.87454  1.0000
  H   H1394     1.0  0.64537  0.61310  0.72425  1.0000
  C   C802      1.0  0.77754  0.59928  0.55178  1.0000
  H   H1395     1.0  0.58666  0.65247  0.75031  1.0000
  H   H1396     1.0  0.71342  0.62988  0.59908  1.0000
  H   H1397     1.0  0.55555  0.59184  0.75945  1.0000
  H   H1398     1.0  0.63892  0.56044  0.58758  1.0000
  C   C803      1.0  0.67503  0.57494  0.55395  1.0000
  C   C804      1.0  0.61536  0.59051  0.83960  1.0000
  H   H1399     1.0  0.62815  0.58967  0.85811  1.0000
  H   H1400     1.0  0.69803  0.60108  0.83342  1.0000
  H   H1401     1.0  0.91352  0.49726  0.95857  1.0000
  C   C805      1.0  0.59414  0.58947  0.85849  1.0000
  H   H1402     1.0  0.94835  0.47073  0.92400  1.0000
  H   H1403     1.0  0.72754  0.63550  0.56085  1.0000
  H   H1404     1.0  0.63569  0.58090  0.77996  1.0000
  S   S187      1.0  0.59737  0.65008  0.63021  1.0000
  H   H1405     1.0  0.72830  0.64821  0.70377  1.0000
  H   H1406     1.0  0.64625  0.65376  0.82160  1.0000
  N   N44       1.0  0.87372  0.57684  0.85313  1.0000
  C   C806      1.0  0.87064  0.59568  0.82988  1.0000
  C   C807      1.0  0.89023  0.58170  0.87874  1.0000
  C   C808      1.0  0.88199  0.55854  0.83294  1.0000
  C   C809      1.0  0.85310  0.56995  0.86935  1.0000
  H   H1407     1.0  0.69799  0.43260  0.92548  1.0000
  C   C810      1.0  0.85447  0.59275  0.80173  1.0000
  C   C811      1.0  0.88730  0.53760  0.85220  1.0000
  C   C812      1.0  0.89195  0.60516  0.88991  1.0000
  S   S188      1.0  0.82474  0.65363  0.71470  1.0000
  C   C813      1.0  0.85190  0.61327  0.78127  1.0000
  C   C814      1.0  0.89890  0.52179  0.83006  1.0000
  H   H1408     1.0  0.88622  0.60012  0.81823  1.0000
  H   H1409     1.0  0.86529  0.61001  0.84321  1.0000
  H   H1410     1.0  0.88767  0.57142  0.90110  1.0000
  H   H1411     1.0  0.90655  0.57758  0.86963  1.0000
  H   H1412     1.0  0.89647  0.56356  0.81867  1.0000
  H   H1413     1.0  0.87012  0.55384  0.81450  1.0000
  H   H1414     1.0  0.84202  0.56404  0.85075  1.0000
  H   H1415     1.0  0.85577  0.55610  0.88631  1.0000
  H   H1416     1.0  0.83820  0.60158  0.87553  1.0000
  C   C815      1.0  0.92368  0.40070  0.97773  1.0000
  H   H1417     1.0  0.85984  0.58030  0.78450  1.0000
  H   H1418     1.0  0.83848  0.58845  0.81162  1.0000
  H   H1419     1.0  0.87241  0.52980  0.86111  1.0000
  H   H1420     1.0  0.89751  0.54042  0.87366  1.0000
  H   H1421     1.0  0.89920  0.61509  0.86982  1.0000
  H   H1422     1.0  0.92412  0.65353  0.50878  1.0000
  H   H1423     1.0  0.51766  0.48663  0.97465  1.0000
  H   H1424     1.0  0.50165  0.41278  0.98411  1.0000
  H   H1425     1.0  0.50797  0.38034  0.95129  1.0000
  H   H1426     1.0  0.84049  0.61057  0.76115  1.0000
  H   H1427     1.0  0.84555  0.62636  0.79659  1.0000
  H   H1428     1.0  0.86737  0.61818  0.76997  1.0000
  H   H1429     1.0  0.91513  0.52765  0.82362  1.0000
  H   H1430     1.0  0.90031  0.50612  0.84299  1.0000
  H   H1431     1.0  0.88995  0.51935  0.80711  1.0000
  C   C816      1.0  0.72229  0.55319  0.58070  1.0000
  C   C817      1.0  0.64750  0.57342  0.59991  1.0000
  S   S189      1.0  0.55026  0.63853  0.85623  1.0000
  H   H1432     1.0  0.62079  0.63632  0.76334  1.0000
  C   C818      1.0  0.65227  0.62393  0.49452  1.0000
  H   H1433     1.0  0.66578  0.58891  0.54491  1.0000
  H   H1434     1.0  0.60051  0.55854  0.96253  1.0000
  C   C819      1.0  0.91532  0.55791  0.96869  1.0000
  N   N45       1.0  0.75245  0.46695  0.89680  1.0000
  C   C820      1.0  0.77385  0.45614  0.89327  1.0000
  C   C821      1.0  0.75514  0.48739  0.91524  1.0000
  C   C822      1.0  0.73841  0.45244  0.91780  1.0000
  C   C823      1.0  0.74179  0.47116  0.86421  1.0000
  C   C824      1.0  0.75658  0.47556  0.83384  1.0000
  C   C825      1.0  0.77327  0.43297  0.88060  1.0000
  C   C826      1.0  0.71657  0.46180  0.92879  1.0000
  C   C827      1.0  0.77008  0.50441  0.89968  1.0000
  Fe  Fe96      1.0  0.85581  0.50203  0.97356  1.0000
  C   C828      1.0  0.74394  0.48421  0.80465  1.0000
  C   C829      1.0  0.79526  0.42551  0.86895  1.0000
  C   C830      1.0  0.70220  0.44455  0.94404  1.0000
  H   H1435     1.0  0.78193  0.45538  0.91742  1.0000
  H   H1436     1.0  0.78482  0.46556  0.87717  1.0000
  H   H1437     1.0  0.73957  0.49560  0.91861  1.0000
  H   H1438     1.0  0.76115  0.48367  0.94026  1.0000
  H   H1439     1.0  0.74690  0.44731  0.94053  1.0000
  H   H1440     1.0  0.73490  0.43753  0.90460  1.0000
  H   H1441     1.0  0.73171  0.45739  0.85745  1.0000
  H   H1442     1.0  0.73042  0.48476  0.86633  1.0000
  H   H1443     1.0  0.76448  0.46062  0.82602  1.0000
  H   H1444     1.0  0.76936  0.48709  0.83875  1.0000
  H   H1445     1.0  0.76803  0.42193  0.90079  1.0000
  H   H1446     1.0  0.76198  0.43142  0.86010  1.0000
  H   H1447     1.0  0.70813  0.46929  0.90776  1.0000
  H   H1448     1.0  0.71023  0.43638  0.96493  1.0000
  H   H1449     1.0  0.76374  0.51038  0.87598  1.0000
  C   C831      1.0  0.97460  0.46703  0.98227  1.0000
  H   H1450     1.0  0.97812  0.43493  0.96320  1.0000
  H   H1451     1.0  0.89527  0.64038  0.64602  1.0000
  H   H1452     1.0  0.69847  0.54204  0.54706  1.0000
  H   H1453     1.0  0.75481  0.48661  0.78313  1.0000
  H   H1454     1.0  0.73131  0.47281  0.79791  1.0000
  H   H1455     1.0  0.73656  0.49982  0.81056  1.0000
  H   H1456     1.0  0.80664  0.42555  0.88958  1.0000
  H   H1457     1.0  0.79421  0.40898  0.85985  1.0000
  H   H1458     1.0  0.80139  0.43597  0.84866  1.0000
  H   H1459     1.0  0.79317  0.59093  0.55097  1.0000
  H   H1460     1.0  0.68727  0.45192  0.95354  1.0000
  H   H1461     1.0  0.92219  0.60020  0.91504  1.0000
  C   C832      1.0  0.90609  0.60696  0.91997  1.0000
  H   H1462     1.0  0.69633  0.62250  0.52995  1.0000
  C   C833      1.0  0.66687  0.58952  0.81897  1.0000
  H   H1463     1.0  0.78640  0.49801  0.89609  1.0000
  C   C834      1.0  0.70965  0.55574  0.54834  1.0000
  C   C835      1.0  0.81953  0.57818  0.90175  1.0000
  H   H1464     1.0  0.59195  0.60365  0.87414  1.0000
  H   H1465     1.0  0.68254  0.61669  0.56806  1.0000
  H   H1466     1.0  0.50946  0.54723  0.86287  1.0000
  H   H1467     1.0  0.58068  0.58867  0.84118  1.0000
  C   C836      1.0  0.69791  0.58100  0.50574  1.0000
  H   H1468     1.0  0.65677  0.56575  0.73507  1.0000
  C   C837      1.0  0.73085  0.53052  0.58527  1.0000
  H   H1469     1.0  0.56390  0.64248  0.53177  1.0000
  C   C838      1.0  0.65037  0.59970  0.74059  1.0000
  H   H1470     1.0  0.71242  0.55690  0.60254  1.0000
  H   H1471     1.0  0.76461  0.58747  0.54896  1.0000
  H   H1472     1.0  0.71753  0.51895  0.58739  1.0000
  H   H1473     1.0  0.89660  0.42213  0.98214  1.0000
  C   C839      1.0  0.84116  0.58673  0.88993  1.0000
  H   H1474     1.0  0.91231  0.63212  0.53284  1.0000
  H   H1475     1.0  0.66250  0.58195  0.69909  1.0000
  C   C840      1.0  0.56963  0.56877  0.98017  1.0000
  H   H1476     1.0  0.67312  0.58362  0.79519  1.0000
  H   H1477     1.0  0.81128  0.59027  0.91693  1.0000
  C   C841      1.0  0.58831  0.55632  0.98130  1.0000
  H   H1478     1.0  0.67751  0.55721  0.60061  1.0000
  C   C842      1.0  0.92617  0.49005  0.89735  1.0000
  H   H1479     1.0  0.64896  0.63813  0.76307  1.0000
  H   H1480     1.0  0.70326  0.64963  0.57077  1.0000
  H   H1481     1.0  0.52397  0.38066  0.98762  1.0000
  C   C843      1.0  0.91877  0.64857  0.53389  1.0000
  C   C844      1.0  0.54845  0.50077  0.97991  1.0000
  H   H1482     1.0  0.69268  0.57369  0.84478  1.0000
  H   H1483     1.0  0.89378  0.64973  0.70441  1.0000
  H   H1484     1.0  0.66668  0.60327  0.74899  1.0000
  C   C845      1.0  0.50230  0.53851  0.91359  1.0000
  N   N46       1.0  0.69788  0.57661  0.54237  1.0000
  H   H1485     1.0  0.93662  0.49077  0.87512  1.0000
  C   C846      1.0  0.93964  0.48595  0.92776  1.0000
  H   H1486     1.0  0.91632  0.46913  0.95588  1.0000
  H   H1487     1.0  0.64053  0.58902  0.59220  1.0000
  C   C847      1.0  0.71155  0.63399  0.57261  1.0000
  Fe  Fe97      1.0  0.65130  0.64646  0.67524  1.0000
  H   H1488     1.0  0.67887  0.58585  0.60470  1.0000
  S   S190      1.0  0.95729  0.37198  0.97348  1.0000
  H   H1489     1.0  0.52669  0.50249  0.94000  1.0000
  H   H1490     1.0  0.86111  0.64676  0.62403  1.0000
  H   H1491     1.0  0.68004  0.59477  0.86743  1.0000
  H   H1492     1.0  0.63520  0.57613  0.71016  1.0000
  H   H1493     1.0  0.58869  0.62954  0.52163  1.0000
  H   H1494     1.0  0.50067  0.36380  0.98623  1.0000
  H   H1495     1.0  0.50579  0.51899  0.87005  1.0000
  H   H1496     1.0  0.75592  0.53183  0.92402  1.0000
  H   H1497     1.0  0.93747  0.51821  0.98889  1.0000
  H   H1498     1.0  0.85040  0.59036  0.91212  1.0000
  H   H1499     1.0  0.68924  0.59597  0.49975  1.0000
  H   H1500     1.0  0.90796  0.62398  0.92632  1.0000
  H   H1501     1.0  0.94413  0.45072  0.98173  1.0000
  H   H1502     1.0  0.93275  0.64861  0.55029  1.0000
  H   H1503     1.0  0.71454  0.58327  0.49656  1.0000
  H   H1504     1.0  0.58870  0.65409  0.54414  1.0000
  C   C848      1.0  0.88041  0.65444  0.68824  1.0000
  H   H1505     1.0  0.61791  0.65575  0.81499  1.0000
  S   S191      1.0  0.94679  0.58500  0.98757  1.0000
  S   S192      1.0  0.85007  0.46720  0.98398  1.0000
  H   H1506     1.0  0.96172  0.50623  0.97729  1.0000
  C   C849      1.0  0.89833  0.54367  0.97409  1.0000
  H   H1507     1.0  0.49188  0.50621  0.92523  1.0000
  S   S193      1.0  0.49161  0.63559  0.89499  1.0000
  C   C850      1.0  0.98587  0.44542  0.98117  1.0000
  H   H1508     1.0  0.73492  0.61469  0.49189  1.0000
  H   H1509     1.0  0.91645  0.57276  0.49138  1.0000
  S   S194      1.0  0.78708  0.45856  0.98648  1.0000
  H   H1510     1.0  0.57412  0.71824  0.37044  1.0000
  C   C851      1.0  0.51231  0.70370  0.99961  1.0000
  S   S195      1.0  0.87079  0.68966  0.36339  1.0000
  H   H1511     1.0  0.78407  0.66495  0.43339  1.0000
  Fe  Fe98      1.0  0.63542  0.77124  0.35608  1.0000
  S   S196      1.0  0.61071  0.79585  0.36850  1.0000
  S   S197      1.0  0.63960  0.73954  0.38198  1.0000
  Fe  Fe99      1.0  0.66074  0.80169  0.31268  1.0000
  S   S198      1.0  0.63828  0.82902  0.32131  1.0000
  S   S199      1.0  0.69169  0.80201  0.28395  1.0000
  Fe  Fe100     1.0  0.63835  0.81801  0.37449  1.0000
  S   S200      1.0  0.64568  0.84129  0.41510  1.0000
  Fe  Fe101     1.0  0.61229  0.80481  0.31417  1.0000
  S   S201      1.0  0.58028  0.81090  0.28873  1.0000
  S   S202      1.0  0.66278  0.79275  0.36575  1.0000
  S   S203      1.0  0.63500  0.77809  0.30185  1.0000
  Fe  Fe102     1.0  0.82694  0.79895  0.31983  1.0000
  S   S204      1.0  0.85752  0.81437  0.33414  1.0000
  S   S205      1.0  0.82377  0.76744  0.29452  1.0000
  Fe  Fe103     1.0  0.79999  0.83460  0.34754  1.0000
  S   S206      1.0  0.82845  0.85278  0.36465  1.0000
  S   S207      1.0  0.76673  0.84633  0.35905  1.0000
  Fe  Fe104     1.0  0.84255  0.84494  0.31485  1.0000
  S   S208      1.0  0.86098  0.87014  0.28445  1.0000
  Fe  Fe105     1.0  0.84071  0.82086  0.38250  1.0000
  S   S209      1.0  0.85473  0.80867  0.43105  1.0000
  S   S210      1.0  0.81320  0.82879  0.29702  1.0000
  S   S211      1.0  0.81105  0.80344  0.36869  1.0000
  Fe  Fe106     1.0  0.83001  0.97013  0.05732  1.0000
  Fe  Fe107     1.0  0.86723  0.94025  0.04001  1.0000
  S   S212      1.0  0.88251  0.94319  0.08909  1.0000
  C   C852      1.0  0.59261  0.69883  0.40422  1.0000
  Fe  Fe108     1.0  0.84931  0.94026  0.11074  1.0000
  S   S213      1.0  0.83591  0.91531  0.14781  1.0000
  S   S214      1.0  0.83455  0.93481  0.06145  1.0000
  Fe  Fe109     1.0  0.52863  0.82958  0.10141  1.0000
  S   S215      1.0  0.53847  0.81728  0.05182  1.0000
  S   S216      1.0  0.55674  0.82887  0.13742  1.0000
  H   H1512     1.0  0.70875  0.85913  0.45864  1.0000
  Fe  Fe110     1.0  0.52106  0.84516  0.03011  1.0000
  H   H1513     1.0  0.58974  0.76512  0.02833  1.0000
  S   S217      1.0  0.51345  0.85926  0.07919  1.0000
  C   C853      1.0  0.92847  0.88495  0.02983  1.0000
  C   C854      1.0  0.56763  0.87910  0.01767  1.0000
  H   H1514     1.0  0.55926  0.80816  0.39851  1.0000
  H   H1515     1.0  0.56305  0.86829  0.03756  1.0000
  H   H1516     1.0  0.59535  0.89055  0.04233  1.0000
  H   H1517     1.0  0.53729  0.69817  0.13657  1.0000
  H   H1518     1.0  0.93050  0.65980  0.33738  1.0000
  C   C855      1.0  0.91169  0.89986  0.02832  1.0000
  H   H1519     1.0  0.61489  0.98881  0.04119  1.0000
  H   H1520     1.0  0.90784  0.90946  0.04934  1.0000
  C   C856      1.0  0.85317  0.81704  0.47248  1.0000
  H   H1521     1.0  0.66872  0.75961  0.24918  1.0000
  C   C857      1.0  0.93614  0.69200  0.18849  1.0000
  H   H1522     1.0  0.84807  0.85033  0.46164  1.0000
  H   H1523     1.0  0.71016  0.65776  0.28863  1.0000
  C   C858      1.0  0.85355  0.88286  0.24677  1.0000
  C   C859      1.0  0.86501  0.90078  0.23511  1.0000
  C   C860      1.0  0.85979  0.91111  0.20512  1.0000
  C   C861      1.0  0.84299  0.90359  0.18637  1.0000
  C   C862      1.0  0.83159  0.88562  0.19799  1.0000
  C   C863      1.0  0.83694  0.87523  0.22781  1.0000
  H   H1524     1.0  0.87799  0.90677  0.24945  1.0000
  H   H1525     1.0  0.86871  0.92491  0.19660  1.0000
  H   H1526     1.0  0.81875  0.87948  0.18352  1.0000
  H   H1527     1.0  0.82859  0.86100  0.23580  1.0000
  C   C864      1.0  0.64197  0.83677  0.45801  1.0000
  H   H1528     1.0  0.60462  0.71164  0.40558  1.0000
  C   C865      1.0  0.80271  0.77661  0.45848  1.0000
  H   H1529     1.0  0.61205  0.82064  0.45410  1.0000
  C   C866      1.0  0.57412  0.81561  0.24642  1.0000
  C   C867      1.0  0.55266  0.81536  0.23665  1.0000
  C   C868      1.0  0.54696  0.81937  0.20360  1.0000
  C   C869      1.0  0.56269  0.82390  0.17977  1.0000
  C   C870      1.0  0.58413  0.82415  0.18956  1.0000
  C   C871      1.0  0.58983  0.81998  0.22254  1.0000
  H   H1530     1.0  0.54032  0.81208  0.25484  1.0000
  H   H1531     1.0  0.53041  0.81914  0.19665  1.0000
  H   H1532     1.0  0.59647  0.82763  0.17146  1.0000
  H   H1533     1.0  0.60638  0.82035  0.22952  1.0000
  C   C872      1.0  0.71246  0.81451  0.30473  1.0000
  C   C873      1.0  0.70808  0.82791  0.33104  1.0000
  C   C874      1.0  0.72483  0.83775  0.34739  1.0000
  C   C875      1.0  0.74605  0.83364  0.33834  1.0000
  C   C876      1.0  0.75044  0.82007  0.31228  1.0000
  C   C877      1.0  0.73366  0.81097  0.29498  1.0000
  H   H1534     1.0  0.69175  0.83095  0.33848  1.0000
  H   H1535     1.0  0.72128  0.84851  0.36712  1.0000
  H   H1536     1.0  0.76675  0.81672  0.30528  1.0000
  H   H1537     1.0  0.73713  0.80094  0.27428  1.0000
  C   C878      1.0  0.63479  0.67858  0.32385  1.0000
  C   C879      1.0  0.64929  0.68019  0.34933  1.0000
  C   C880      1.0  0.65114  0.69925  0.36624  1.0000
  C   C881      1.0  0.63880  0.71698  0.35740  1.0000
  C   C882      1.0  0.62501  0.71584  0.33086  1.0000
  C   C883      1.0  0.62291  0.69656  0.31422  1.0000
  C   C884      1.0  0.56722  0.90540  0.38111  1.0000
  H   H1538     1.0  0.66220  0.70023  0.38620  1.0000
  H   H1539     1.0  0.61539  0.72951  0.32397  1.0000
  H   H1540     1.0  0.61175  0.69543  0.29433  1.0000
  C   C885      1.0  0.85588  0.71078  0.34618  1.0000
  C   C886      1.0  0.84106  0.70734  0.32151  1.0000
  C   C887      1.0  0.83099  0.72481  0.30600  1.0000
  C   C888      1.0  0.83521  0.74567  0.31581  1.0000
  C   C889      1.0  0.84925  0.74897  0.34152  1.0000
  C   C890      1.0  0.85977  0.73159  0.35635  1.0000
  H   H1541     1.0  0.83774  0.69130  0.31386  1.0000
  H   H1542     1.0  0.82000  0.72218  0.28628  1.0000
  H   H1543     1.0  0.85247  0.76499  0.34944  1.0000
  H   H1544     1.0  0.87108  0.73434  0.37560  1.0000
  H   H1545     1.0  0.74943  0.81534  0.46924  1.0000
  N   N47       1.0  0.88876  0.86922  0.13196  1.0000
  C   C891      1.0  0.86761  0.86794  0.11491  1.0000
  C   C892      1.0  0.88632  0.86002  0.16637  1.0000
  C   C893      1.0  0.89420  0.89257  0.13480  1.0000
  C   C894      1.0  0.90667  0.85830  0.11347  1.0000
  C   C895      1.0  0.90080  0.83870  0.09273  1.0000
  C   C896      1.0  0.86613  0.88067  0.08196  1.0000
  C   C897      1.0  0.91356  0.89786  0.15638  1.0000
  C   C898      1.0  0.87998  0.83626  0.16958  1.0000
  C   C899      1.0  0.87600  0.82975  0.20555  1.0000
  C   C900      1.0  0.92079  0.82721  0.08043  1.0000
  C   C901      1.0  0.84651  0.87447  0.06270  1.0000
  C   C902      1.0  0.92010  0.92119  0.15183  1.0000
  H   H1546     1.0  0.85463  0.87403  0.13120  1.0000
  H   H1547     1.0  0.86314  0.85123  0.11031  1.0000
  H   H1548     1.0  0.90148  0.86121  0.17994  1.0000
  H   H1549     1.0  0.87440  0.86951  0.18043  1.0000
  H   H1550     1.0  0.88032  0.90162  0.14462  1.0000
  H   H1551     1.0  0.89762  0.89970  0.11006  1.0000
  H   H1552     1.0  0.91459  0.86962  0.09584  1.0000
  H   H1553     1.0  0.91946  0.85338  0.13073  1.0000
  H   H1554     1.0  0.89170  0.84382  0.07076  1.0000
  H   H1555     1.0  0.89093  0.82700  0.10664  1.0000
  H   H1556     1.0  0.86478  0.89798  0.08677  1.0000
  H   H1557     1.0  0.88044  0.87816  0.06627  1.0000
  H   H1558     1.0  0.92749  0.88770  0.15014  1.0000
  H   H1559     1.0  0.90939  0.89543  0.18280  1.0000
  H   H1560     1.0  0.86522  0.83283  0.15610  1.0000
  H   H1561     1.0  0.89316  0.82609  0.16038  1.0000
  H   H1562     1.0  0.87232  0.81247  0.20742  1.0000
  H   H1563     1.0  0.89026  0.83289  0.22055  1.0000
  H   H1564     1.0  0.86226  0.83867  0.21589  1.0000
  H   H1565     1.0  0.91623  0.81389  0.06441  1.0000
  H   H1566     1.0  0.93107  0.83831  0.06580  1.0000
  H   H1567     1.0  0.93000  0.82056  0.10136  1.0000
  H   H1568     1.0  0.84715  0.85735  0.05635  1.0000
  H   H1569     1.0  0.83177  0.87775  0.07723  1.0000
  H   H1570     1.0  0.84601  0.88409  0.03957  1.0000
  H   H1571     1.0  0.90658  0.93192  0.15820  1.0000
  H   H1572     1.0  0.93357  0.92472  0.16821  1.0000
  H   H1573     1.0  0.92526  0.92455  0.12604  1.0000
  H   H1574     1.0  0.61696  0.86477  0.36710  1.0000
  H   H1575     1.0  0.59233  0.77795  0.08531  1.0000
  H   H1576     1.0  0.58693  0.69926  0.45671  1.0000
  H   H1577     1.0  0.55910  0.69739  0.39101  1.0000
  H   H1578     1.0  0.93636  0.93881  0.00095  1.0000
  H   H1579     1.0  0.87731  0.76883  0.29552  1.0000
  C   C903      1.0  0.79278  0.81561  0.46461  1.0000
  H   H1580     1.0  0.53929  0.69365  0.09309  1.0000
  N   N48       1.0  0.77839  0.83266  0.47850  1.0000
  H   H1581     1.0  0.96903  0.67948  0.99255  1.0000
  H   H1582     1.0  0.63360  0.91098  0.45661  1.0000
  C   C904      1.0  0.60506  0.66351  0.48211  1.0000
  H   H1583     1.0  0.66985  0.70241  0.44305  1.0000
  H   H1584     1.0  0.65489  0.66547  0.44695  1.0000
  H   H1585     1.0  0.96304  0.91042  0.00790  1.0000
  C   C905      1.0  0.62353  0.82706  0.47068  1.0000
  C   C906      1.0  0.57466  0.97985  0.01663  1.0000
  H   H1586     1.0  0.79413  0.89501  0.44528  1.0000
  H   H1587     1.0  0.81945  0.67759  0.41414  1.0000
  H   H1588     1.0  0.62396  0.70192  0.46636  1.0000
  N   N49       1.0  0.55722  0.97309  0.99364  1.0000
  C   C907      1.0  0.81806  0.66640  0.43556  1.0000
  H   H1589     1.0  0.98761  0.88539  0.00457  1.0000
  H   H1590     1.0  0.71266  0.83080  0.45481  1.0000
  C   C908      1.0  0.53825  0.98792  0.99582  1.0000
  H   H1591     1.0  0.92009  0.67028  0.28140  1.0000
  H   H1592     1.0  0.52292  0.69010  0.99913  1.0000
  H   H1593     1.0  0.80965  0.81861  0.47083  1.0000
  H   H1594     1.0  0.60578  0.86118  0.43469  1.0000
  C   C909      1.0  0.54720  0.70118  0.11416  1.0000
  N   N50       1.0  0.70946  0.73073  0.31788  1.0000
  C   C910      1.0  0.73327  0.73348  0.31472  1.0000
  C   C911      1.0  0.70483  0.70755  0.32530  1.0000
  C   C912      1.0  0.69938  0.73802  0.28615  1.0000
  C   C913      1.0  0.70024  0.74390  0.34532  1.0000
  C   C914      1.0  0.71087  0.74097  0.37929  1.0000
  C   C915      1.0  0.74120  0.75676  0.31053  1.0000
  C   C916      1.0  0.67532  0.73296  0.28277  1.0000
  C   C917      1.0  0.71163  0.69164  0.29835  1.0000
  C   C918      1.0  0.70389  0.66914  0.30700  1.0000
  C   C919      1.0  0.70071  0.75569  0.40458  1.0000
  C   C920      1.0  0.76554  0.75771  0.30989  1.0000
  C   C921      1.0  0.53691  0.92575  0.04974  1.0000
  H   H1595     1.0  0.73950  0.72491  0.29292  1.0000
  H   H1596     1.0  0.74148  0.72589  0.33602  1.0000
  H   H1597     1.0  0.71308  0.70216  0.34797  1.0000
  H   H1598     1.0  0.68762  0.70525  0.33082  1.0000
  H   H1599     1.0  0.70801  0.73134  0.26461  1.0000
  H   H1600     1.0  0.70094  0.75561  0.28298  1.0000
  H   H1601     1.0  0.70044  0.76119  0.33849  1.0000
  H   H1602     1.0  0.68311  0.74010  0.34930  1.0000
  H   H1603     1.0  0.72810  0.74476  0.37801  1.0000
  H   H1604     1.0  0.70895  0.72438  0.38871  1.0000
  H   H1605     1.0  0.73553  0.76372  0.28698  1.0000
  H   H1606     1.0  0.73550  0.76697  0.33078  1.0000
  H   H1607     1.0  0.66585  0.74005  0.30298  1.0000
  H   H1608     1.0  0.50398  0.78945  0.16663  1.0000
  H   H1609     1.0  0.70501  0.69609  0.27408  1.0000
  H   H1610     1.0  0.72925  0.69093  0.29602  1.0000
  H   H1611     1.0  0.62783  0.88417  0.47046  1.0000
  C   C922      1.0  0.54092  0.94907  0.04007  1.0000
  H   H1612     1.0  0.56943  0.78459  0.03688  1.0000
  H   H1613     1.0  0.70828  0.75304  0.42879  1.0000
  H   H1614     1.0  0.70301  0.77265  0.39700  1.0000
  H   H1615     1.0  0.68339  0.75241  0.40734  1.0000
  H   H1616     1.0  0.77083  0.77448  0.30639  1.0000
  H   H1617     1.0  0.77212  0.75152  0.33341  1.0000
  H   H1618     1.0  0.77223  0.74828  0.28933  1.0000
  H   H1619     1.0  0.56311  0.69366  0.11735  1.0000
  C   C923      1.0  0.78762  0.79230  0.47530  1.0000
  C   C924      1.0  0.92913  0.67699  0.33072  1.0000
  N   N51       1.0  0.76781  0.88547  0.26585  1.0000
  C   C925      1.0  0.74459  0.88288  0.27516  1.0000
  C   C926      1.0  0.77670  0.86387  0.25738  1.0000
  C   C927      1.0  0.77939  0.89293  0.29583  1.0000
  C   C928      1.0  0.77163  0.90143  0.23805  1.0000
  C   C929      1.0  0.75403  0.90381  0.21180  1.0000
  C   C930      1.0  0.73386  0.90246  0.29121  1.0000
  C   C931      1.0  0.80406  0.89402  0.29281  1.0000
  C   C932      1.0  0.76710  0.85277  0.22745  1.0000
  C   C933      1.0  0.77646  0.83041  0.22352  1.0000
  C   C934      1.0  0.76199  0.91695  0.18211  1.0000
  C   C935      1.0  0.70962  0.90026  0.29210  1.0000
  C   C936      1.0  0.81364  0.90602  0.32130  1.0000
  H   H1620     1.0  0.74258  0.86928  0.29298  1.0000
  H   H1621     1.0  0.73500  0.87839  0.25375  1.0000
  H   H1622     1.0  0.79394  0.86495  0.25169  1.0000
  H   H1623     1.0  0.77508  0.85287  0.27907  1.0000
  H   H1624     1.0  0.77550  0.88248  0.31751  1.0000
  H   H1625     1.0  0.77394  0.90920  0.30245  1.0000
  H   H1626     1.0  0.77392  0.91775  0.24771  1.0000
  H   H1627     1.0  0.78694  0.89773  0.22510  1.0000
  H   H1628     1.0  0.73993  0.91216  0.22219  1.0000
  H   H1629     1.0  0.74849  0.88831  0.20282  1.0000
  H   H1630     1.0  0.73914  0.90373  0.31703  1.0000
  H   H1631     1.0  0.73811  0.91747  0.27790  1.0000
  H   H1632     1.0  0.80921  0.90216  0.26962  1.0000
  H   H1633     1.0  0.81101  0.87774  0.29356  1.0000
  H   H1634     1.0  0.74958  0.85106  0.22988  1.0000
  H   H1635     1.0  0.77118  0.86185  0.20459  1.0000
  H   H1636     1.0  0.76966  0.82294  0.20154  1.0000
  H   H1637     1.0  0.79405  0.83114  0.22032  1.0000
  H   H1638     1.0  0.77253  0.82017  0.24529  1.0000
  H   H1639     1.0  0.76705  0.93305  0.18969  1.0000
  H   H1640     1.0  0.77569  0.90887  0.16992  1.0000
  H   H1641     1.0  0.74904  0.91884  0.16397  1.0000
  H   H1642     1.0  0.70329  0.89983  0.26678  1.0000
  H   H1643     1.0  0.70488  0.88544  0.30569  1.0000
  H   H1644     1.0  0.70240  0.91409  0.30477  1.0000
  H   H1645     1.0  0.80833  0.92292  0.32085  1.0000
  H   H1646     1.0  0.80892  0.89839  0.34512  1.0000
  H   H1647     1.0  0.83130  0.90563  0.31910  1.0000
  H   H1648     1.0  0.60795  0.90800  0.41148  1.0000
  C   C937      1.0  0.58597  0.89167  0.02027  1.0000
  H   H1649     1.0  0.57553  0.67740  0.43690  1.0000
  S   S218      1.0  0.79953  0.98634  0.03703  1.0000
  H   H1650     1.0  0.56645  0.72109  0.41294  1.0000
  H   H1651     1.0  0.53482  0.91235  0.39812  1.0000
  C   C938      1.0  0.92480  0.68936  0.22178  1.0000
  H   H1652     1.0  0.55198  0.95568  0.05824  1.0000
  C   C939      1.0  0.66640  0.69441  0.46708  1.0000
  H   H1653     1.0  0.54642  0.93241  0.37120  1.0000
  H   H1654     1.0  0.92452  0.69591  0.16893  1.0000
  H   H1655     1.0  0.92668  0.71156  0.29202  1.0000
  C   C940      1.0  0.80111  0.88223  0.42995  1.0000
  H   H1656     1.0  0.62429  0.87297  0.30467  1.0000
  H   H1657     1.0  0.58385  0.96568  0.02569  1.0000
  C   C941      1.0  0.60728  0.87729  0.30137  1.0000
  H   H1658     1.0  0.80044  0.88747  0.40379  1.0000
  H   H1659     1.0  0.53329  0.73165  0.10311  1.0000
  H   H1660     1.0  0.55147  0.84455  0.41983  1.0000
  Fe  Fe111     1.0  0.50745  0.79931  0.05148  1.0000
  H   H1661     1.0  0.61140  0.78320  0.19325  1.0000
  C   C942      1.0  0.74943  0.95054  0.00397  1.0000
  H   H1662     1.0  0.60206  0.87113  0.27739  1.0000
  C   C943      1.0  0.59715  0.87517  0.42416  1.0000
  H   H1663     1.0  0.85719  0.71180  0.22999  1.0000
  H   H1664     1.0  0.60570  0.89493  0.30078  1.0000
  S   S219      1.0  0.86215  0.97550  0.03241  1.0000
  H   H1665     1.0  0.93712  0.68479  0.23987  1.0000
  H   H1666     1.0  0.93758  0.88321  0.05204  1.0000
  H   H1667     1.0  0.51757  0.74439  0.14684  1.0000
  C   C944      1.0  0.59344  0.86762  0.32898  1.0000
  C   C945      1.0  0.57988  0.76608  0.07957  1.0000
  H   H1668     1.0  0.74535  0.93387  0.00244  1.0000
  H   H1669     1.0  0.61741  0.75531  0.18704  1.0000
  H   H1670     1.0  0.54291  0.76276  0.18150  1.0000
  C   C946      1.0  0.61402  0.89321  0.42329  1.0000
  H   H1671     1.0  0.57425  0.91356  0.40222  1.0000
  C   C947      1.0  0.56586  0.88114  0.38828  1.0000
  H   H1672     1.0  0.80531  0.85404  0.47921  1.0000
  H   H1673     1.0  0.58173  0.78615  0.14848  1.0000
  C   C948      1.0  0.66670  0.74201  0.25047  1.0000
  H   H1674     1.0  0.55769  0.78765  0.10273  1.0000
  H   H1675     1.0  0.84020  0.68201  0.20249  1.0000
  N   N52       1.0  0.60907  0.67346  0.44836  1.0000
  H   H1676     1.0  0.94423  0.67682  0.18205  1.0000
  C   C949      1.0  0.84999  0.83836  0.48084  1.0000
  C   C950      1.0  0.54506  0.91497  0.37593  1.0000
  H   H1677     1.0  0.84032  0.67746  0.24626  1.0000
  H   H1678     1.0  0.58138  0.80587  0.42639  1.0000
  H   H1679     1.0  0.51658  0.76708  0.11872  1.0000
  C   C951      1.0  0.89071  0.77007  0.27751  1.0000
  C   C952      1.0  0.57172  0.70950  0.39420  1.0000
  H   H1680     1.0  0.59510  0.76216  0.13833  1.0000
  H   H1681     1.0  0.58675  0.75000  0.08415  1.0000
  H   H1682     1.0  0.90537  0.71720  0.21048  1.0000
  H   H1683     1.0  0.92293  0.68555  0.35252  1.0000
  H   H1684     1.0  0.68119  0.68645  0.47569  1.0000
  C   C953      1.0  0.78841  0.85410  0.47125  1.0000
  H   H1685     1.0  0.80096  0.77757  0.43140  1.0000
  H   H1686     1.0  0.65904  0.66673  0.35616  1.0000
  C   C954      1.0  0.60635  0.76661  0.19925  1.0000
  S   S220      1.0  0.84328  0.97584  0.10799  1.0000
  C   C955      1.0  0.55982  0.77005  0.10146  1.0000
  C   C956      1.0  0.58075  0.76845  0.15127  1.0000
  C   C957      1.0  0.58226  0.84584  0.39320  1.0000
  H   H1687     1.0  0.57437  0.84074  0.37036  1.0000
  H   H1688     1.0  0.55598  0.87930  0.41105  1.0000
  H   H1689     1.0  0.77948  0.94423  0.02814  1.0000
  H   H1690     1.0  0.67510  0.73477  0.22923  1.0000
  C   C958      1.0  0.93377  0.87248  0.00259  1.0000
  H   H1691     1.0  0.57785  0.73020  0.13473  1.0000
  H   H1692     1.0  0.60738  0.76407  0.22626  1.0000
  C   C959      1.0  0.76893  0.95637  0.01842  1.0000
  H   H1693     1.0  0.63225  0.69503  0.42614  1.0000
  H   H1694     1.0  0.60645  0.89068  0.36177  1.0000
  H   H1695     1.0  0.59757  0.83681  0.39442  1.0000
  H   H1696     1.0  0.55615  0.87384  0.36882  1.0000
  H   H1697     1.0  0.79617  0.84936  0.41898  1.0000
  C   C960      1.0  0.58346  0.76296  0.18834  1.0000
  H   H1698     1.0  0.57930  0.74611  0.19399  1.0000
  H   H1699     1.0  0.67241  0.71553  0.28308  1.0000
  H   H1700     1.0  0.80955  0.90067  0.01216  1.0000
  H   H1701     1.0  0.94833  0.70476  0.18928  1.0000
  C   C961      1.0  0.77462  0.97786  0.02050  1.0000
  H   H1702     1.0  0.81809  0.87977  0.43648  1.0000
  H   H1703     1.0  0.64789  0.76614  0.43974  1.0000
  N   N53       1.0  0.56068  0.76036  0.13563  1.0000
  H   H1704     1.0  0.54559  0.76465  0.08829  1.0000
  H   H1705     1.0  0.70959  0.66395  0.33158  1.0000
  C   C962      1.0  0.74048  0.98755  0.99481  1.0000
  N   N54       1.0  0.58677  0.86948  0.39206  1.0000
  H   H1706     1.0  0.59379  0.85005  0.32632  1.0000
  H   H1707     1.0  0.88423  0.77453  0.25307  1.0000
  S   S221      1.0  0.95478  0.85376  0.00595  1.0000
  H   H1708     1.0  0.52549  0.95767  0.04197  1.0000
  C   C963      1.0  0.57506  0.76824  0.04299  1.0000
  H   H1709     1.0  0.57674  0.90899  0.35855  1.0000
  H   H1710     1.0  0.85898  0.66338  0.22004  1.0000
  C   C964      1.0  0.74025  0.84815  0.47233  1.0000
  H   H1711     1.0  0.88091  0.73601  0.24202  1.0000
  C   C965      1.0  0.56115  0.73624  0.13576  1.0000
  S   S222      1.0  0.49799  0.81093  0.10204  1.0000
  H   H1712     1.0  0.57693  0.87325  0.32497  1.0000
  C   C966      1.0  0.62108  0.89853  0.45794  1.0000
  H   H1713     1.0  0.77224  0.86454  0.42600  1.0000
  C   C967      1.0  0.59028  0.68698  0.43790  1.0000
  H   H1714     1.0  0.87512  0.72951  0.28386  1.0000
  C   C968      1.0  0.72035  0.84663  0.45139  1.0000
  H   H1715     1.0  0.90142  0.78299  0.28538  1.0000
  H   H1716     1.0  0.50346  0.76548  0.19188  1.0000
  C   C969      1.0  0.55011  0.95106  0.00456  1.0000
  H   H1717     1.0  0.81951  0.78005  0.46462  1.0000
  C   C970      1.0  0.63443  0.76665  0.45770  1.0000
  H   H1718     1.0  0.55847  0.72710  0.08394  1.0000
  C   C971      1.0  0.91393  0.67981  0.30200  1.0000
  C   C972      1.0  0.97898  0.69351  0.99233  1.0000
  H   H1719     1.0  0.58489  0.87911  0.44314  1.0000
  C   C973      1.0  0.54942  0.72510  0.10737  1.0000
  H   H1720     1.0  0.55460  0.72983  0.15952  1.0000
  H   H1721     1.0  0.52636  0.91802  0.03183  1.0000
  H   H1722     1.0  0.62319  0.75362  0.45219  1.0000
  C   C974      1.0  0.50479  0.74046  0.01730  1.0000
  C   C975      1.0  0.95359  0.94279  0.99931  1.0000
  C   C976      1.0  0.88835  0.73058  0.26538  1.0000
  C   C977      1.0  0.85060  0.67878  0.22387  1.0000
  H   H1723     1.0  0.87097  0.69228  0.27928  1.0000
  H   H1724     1.0  0.91335  0.67616  0.21945  1.0000
  C   C978      1.0  0.60175  0.87368  0.36331  1.0000
  H   H1725     1.0  0.57304  0.77344  0.20336  1.0000
  H   H1726     1.0  0.62844  0.88800  0.40944  1.0000
  H   H1727     1.0  0.64944  0.73841  0.24888  1.0000
  S   S223      1.0  0.49045  0.82678  0.02602  1.0000
  C   C979      1.0  0.86658  0.69692  0.22706  1.0000
  C   C980      1.0  0.90304  0.74903  0.27598  1.0000
  Fe  Fe112     1.0  0.87590  0.97869  0.08295  1.0000
  H   H1728     1.0  0.90216  0.71047  0.31435  1.0000
  H   H1729     1.0  0.90963  0.74582  0.30074  1.0000
  C   C981      1.0  0.91375  0.71033  0.23216  1.0000
  H   H1730     1.0  0.55222  0.91686  0.05083  1.0000
  H   H1731     1.0  0.92689  0.72164  0.23674  1.0000
  H   H1732     1.0  0.53364  0.72300  0.02776  1.0000
  C   C982      1.0  0.56777  0.83784  0.42211  1.0000
  H   H1733     1.0  0.59731  0.68784  0.38437  1.0000
  H   H1734     1.0  0.53736  0.90774  0.35444  1.0000
  C   C983      1.0  0.88128  0.69297  0.25687  1.0000
  H   H1735     1.0  0.74664  0.86449  0.46897  1.0000
  H   H1736     1.0  0.56271  0.75662  0.03598  1.0000
  C   C984      1.0  0.51834  0.72246  0.01597  1.0000
  N   N55       1.0  0.89881  0.70899  0.26150  1.0000
  H   H1737     1.0  0.88773  0.67661  0.25460  1.0000
  H   H1738     1.0  0.87596  0.69798  0.20382  1.0000
  H   H1739     1.0  0.91647  0.75144  0.25838  1.0000
  H   H1740     1.0  0.67051  0.85358  0.47040  1.0000
  C   C985      1.0  0.54198  0.76845  0.15556  1.0000
  H   H1741     1.0  0.54240  0.78616  0.15621  1.0000
  C   C986      1.0  0.91078  0.70375  0.29269  1.0000
  C   C987      1.0  0.62803  0.68811  0.45061  1.0000
  H   H1742     1.0  0.60745  0.90461  0.47275  1.0000
  H   H1743     1.0  0.52919  0.92474  0.07442  1.0000
  H   H1744     1.0  0.64620  0.67041  0.48851  1.0000
  C   C988      1.0  0.78865  0.86152  0.43475  1.0000
  C   C989      1.0  0.51954  0.76189  0.14443  1.0000
  H   H1745     1.0  0.57417  0.84237  0.44624  1.0000
  H   H1746     1.0  0.79899  0.76009  0.46691  1.0000
  S   S224      1.0  0.61447  0.92220  0.00060  1.0000
  H   H1747     1.0  0.55463  0.80836  0.44232  1.0000
  H   H1748     1.0  0.68621  0.66848  0.30682  1.0000
  H   H1749     1.0  0.95867  0.94829  0.02374  1.0000
  C   C990      1.0  0.50233  0.77184  0.16631  1.0000
  H   H1750     1.0  0.94521  0.68309  0.32394  1.0000
  C   C991      1.0  0.75689  0.83090  0.46273  1.0000
  H   H1751     1.0  0.62622  0.78223  0.45450  1.0000
  H   H1752     1.0  0.81802  0.67582  0.45837  1.0000
  H   H1753     1.0  0.56370  0.93971  0.00254  1.0000
  H   H1754     1.0  0.50040  0.96969  0.16953  1.0000
  H   H1755     1.0  0.66170  0.70661  0.48515  1.0000
  H   H1756     1.0  0.79255  0.81621  0.43729  1.0000
  H   H1757     1.0  0.75862  0.83091  0.43543  1.0000
  H   H1758     1.0  0.89847  0.67280  0.30996  1.0000
  H   H1759     1.0  0.72451  0.84918  0.42503  1.0000
  H   H1760     1.0  0.49388  0.97480  0.21189  1.0000
  H   H1761     1.0  0.56772  0.98719  0.03904  1.0000
  S   S225      1.0  0.51330  0.76367  0.03887  1.0000
  C   C992      1.0  0.56568  0.81358  0.42223  1.0000
  H   H1762     1.0  0.62082  0.66384  0.40049  1.0000
  C   C993      1.0  0.64882  0.67782  0.46387  1.0000
  S   S226      1.0  0.87830  0.92041  0.99684  1.0000
  C   C994      1.0  0.59212  0.90581  0.99479  1.0000
  C   C995      1.0  0.89992  0.90229  0.99958  1.0000
  C   C996      1.0  0.65646  0.84559  0.47996  1.0000
  H   H1763     1.0  0.77115  0.78796  0.46876  1.0000
  H   H1764     1.0  0.78055  0.86678  0.48590  1.0000
  C   C997      1.0  0.73496  0.96605  0.99208  1.0000
  C   C998      1.0  0.61441  0.65653  0.42368  1.0000
  H   H1765     1.0  0.81726  0.93767  0.99797  1.0000
  C   C999      1.0  0.90306  0.71851  0.94077  1.0000
  Fe  Fe113     1.0  0.61653  0.67659  0.65102  1.0000
  H   H1766     1.0  0.95572  0.95585  0.98078  1.0000
  S   S227      1.0  0.60488  0.71040  0.64518  1.0000
  C   C1000     1.0  0.51586  0.72259  0.85287  1.0000
  H   H1767     1.0  0.83261  0.92698  0.87841  1.0000
  Fe  Fe114     1.0  0.66349  0.81345  0.67188  1.0000
  S   S228      1.0  0.63278  0.83084  0.66283  1.0000
  S   S229      1.0  0.66939  0.78022  0.69181  1.0000
  Fe  Fe115     1.0  0.69023  0.84989  0.64599  1.0000
  S   S230      1.0  0.66174  0.87040  0.63397  1.0000
  S   S231      1.0  0.72397  0.86029  0.63451  1.0000
  Fe  Fe116     1.0  0.64917  0.85946  0.68375  1.0000
  S   S232      1.0  0.63189  0.88327  0.71698  1.0000
  Fe  Fe117     1.0  0.64771  0.84042  0.61391  1.0000
  S   S233      1.0  0.62668  0.83635  0.56906  1.0000
  S   S234      1.0  0.67866  0.84105  0.69677  1.0000
  S   S235      1.0  0.67728  0.82095  0.62199  1.0000
  Fe  Fe118     1.0  0.83927  0.77071  0.65295  1.0000
  S   S236      1.0  0.87021  0.78524  0.63548  1.0000
  S   S237      1.0  0.82407  0.74081  0.63449  1.0000
  Fe  Fe119     1.0  0.82632  0.80978  0.69028  1.0000
  S   S238      1.0  0.85602  0.82790  0.67630  1.0000
  S   S239      1.0  0.79801  0.82051  0.72024  1.0000
  Fe  Fe120     1.0  0.85108  0.81489  0.62557  1.0000
  S   S240      1.0  0.85391  0.83720  0.58081  1.0000
  Fe  Fe121     1.0  0.87313  0.79706  0.68762  1.0000
  S   S241      1.0  0.90558  0.79357  0.71264  1.0000
  S   S242      1.0  0.82003  0.79953  0.63925  1.0000
  S   S243      1.0  0.84362  0.77980  0.70535  1.0000
  Fe  Fe122     1.0  0.96731  0.83497  0.96248  1.0000
  H   H1768     1.0  0.87671  0.74178  0.78532  1.0000
  H   H1769     1.0  0.58666  0.76050  0.58164  1.0000
  Fe  Fe123     1.0  0.96440  0.82265  0.88989  1.0000
  S   S244      1.0  0.93897  0.82828  0.85008  1.0000
  S   S245      1.0  0.95156  0.80811  0.93713  1.0000
  H   H1770     1.0  0.96822  0.89894  0.89256  1.0000
  Fe  Fe124     1.0  0.65154  0.94522  0.89260  1.0000
  S   S246      1.0  0.66283  0.93133  0.94050  1.0000
  S   S247      1.0  0.66172  0.92090  0.85373  1.0000
  Fe  Fe125     1.0  0.67686  0.96317  0.95171  1.0000
  Fe  Fe126     1.0  0.63192  0.94222  0.96196  1.0000
  C   C1001     1.0  0.51743  0.68400  0.84330  1.0000
  S   S248      1.0  0.61919  0.95417  0.91386  1.0000
  H   H1771     1.0  0.90223  0.88795  0.66498  1.0000
  H   H1772     1.0  0.80461  0.68643  0.56994  1.0000
  C   C1002     1.0  0.75519  0.71833  0.66731  1.0000
  H   H1773     1.0  0.58425  0.91841  0.94700  1.0000
  H   H1774     1.0  0.55172  0.89605  0.94216  1.0000
  C   C1003     1.0  0.60235  0.83873  0.93396  1.0000
  H   H1775     1.0  0.69292  0.75011  0.58523  1.0000
  Fe  Fe127     1.0  0.98258  0.78994  0.94056  1.0000
  C   C1004     1.0  0.58573  0.89682  0.86953  1.0000
  H   H1776     1.0  0.56693  0.92379  0.85234  1.0000
  H   H1777     1.0  0.54968  0.67854  0.89008  1.0000
  H   H1778     1.0  0.88758  0.82930  0.91745  1.0000
  H   H1779     1.0  0.62308  0.79308  0.57124  1.0000
  C   C1005     1.0  0.88703  0.69366  0.60064  1.0000
  H   H1780     1.0  0.89644  0.89184  0.94984  1.0000
  S   S249      1.0  0.71052  0.95767  0.97380  1.0000
  H   H1781     1.0  0.77173  0.71966  0.67623  1.0000
  H   H1782     1.0  0.51449  0.66780  0.85405  1.0000
  H   H1783     1.0  0.89950  0.87518  0.70487  1.0000
  H   H1784     1.0  0.78612  0.96360  0.95374  1.0000
  H   H1785     1.0  0.96857  0.76412  0.83267  1.0000
  C   C1006     1.0  0.85595  0.80174  0.49780  1.0000
  C   C1007     1.0  0.91463  0.80356  0.75078  1.0000
  C   C1008     1.0  0.90244  0.81759  0.76967  1.0000
  C   C1009     1.0  0.91035  0.82517  0.79958  1.0000
  C   C1010     1.0  0.93039  0.81863  0.81140  1.0000
  C   C1011     1.0  0.94259  0.80460  0.79247  1.0000
  C   C1012     1.0  0.93479  0.79723  0.76233  1.0000
  H   H1786     1.0  0.88697  0.82272  0.76117  1.0000
  H   H1787     1.0  0.90079  0.83612  0.81378  1.0000
  H   H1788     1.0  0.95808  0.79954  0.80096  1.0000
  H   H1789     1.0  0.94443  0.78645  0.74794  1.0000
  C   C1013     1.0  0.85008  0.84427  0.51412  1.0000
  C   C1014     1.0  0.85285  0.82892  0.53941  1.0000
  C   C1015     1.0  0.85552  0.80756  0.53107  1.0000
  H   H1790     1.0  0.84813  0.86086  0.52031  1.0000
  H   H1791     1.0  0.85773  0.79558  0.55019  1.0000
  C   C1016     1.0  0.74439  0.84819  0.65756  1.0000
  C   C1017     1.0  0.76570  0.85180  0.64844  1.0000
  C   C1018     1.0  0.78227  0.84282  0.66703  1.0000
  C   C1019     1.0  0.77757  0.83099  0.69566  1.0000
  C   C1020     1.0  0.75630  0.82760  0.70502  1.0000
  C   C1021     1.0  0.73976  0.83561  0.68545  1.0000
  H   H1792     1.0  0.76942  0.86157  0.62695  1.0000
  H   H1793     1.0  0.79869  0.84555  0.65972  1.0000
  H   H1794     1.0  0.75266  0.81849  0.72719  1.0000
  H   H1795     1.0  0.72343  0.83216  0.69206  1.0000
  C   C1022     1.0  0.64017  0.89350  0.75519  1.0000
  C   C1023     1.0  0.65637  0.88379  0.77336  1.0000
  C   C1024     1.0  0.66280  0.89255  0.80325  1.0000
  C   C1025     1.0  0.65274  0.91080  0.81586  1.0000
  C   C1026     1.0  0.63611  0.92019  0.79818  1.0000
  C   C1027     1.0  0.62992  0.91159  0.76798  1.0000
  H   H1796     1.0  0.66355  0.86926  0.76464  1.0000
  H   H1797     1.0  0.67545  0.88494  0.81698  1.0000
  H   H1798     1.0  0.62822  0.93422  0.80750  1.0000
  H   H1799     1.0  0.61719  0.91910  0.75429  1.0000
  C   C1028     1.0  0.58255  0.92074  0.86402  1.0000
  H   H1800     1.0  0.95748  0.71230  0.96232  1.0000
  C   C1029     1.0  0.63374  0.83573  0.52671  1.0000
  H   H1801     1.0  0.61192  0.69683  0.55332  1.0000
  H   H1802     1.0  0.66374  0.85181  0.53076  1.0000
  H   H1803     1.0  0.60441  0.82038  0.51413  1.0000
  C   C1030     1.0  0.62231  0.72945  0.66060  1.0000
  C   C1031     1.0  0.61634  0.75098  0.65990  1.0000
  C   C1032     1.0  0.63061  0.76667  0.66984  1.0000
  C   C1033     1.0  0.65081  0.76083  0.68093  1.0000
  C   C1034     1.0  0.65657  0.73923  0.68256  1.0000
  C   C1035     1.0  0.64238  0.72355  0.67223  1.0000
  H   H1804     1.0  0.60073  0.75554  0.65124  1.0000
  H   H1805     1.0  0.62600  0.78328  0.66881  1.0000
  H   H1806     1.0  0.67215  0.73463  0.69126  1.0000
  H   H1807     1.0  0.64704  0.70694  0.67300  1.0000
  H   H1808     1.0  0.88032  0.86994  0.67358  1.0000
  H   H1809     1.0  0.91295  0.75785  0.92310  1.0000
  C   C1036     1.0  0.79275  0.95877  0.92945  1.0000
  C   C1037     1.0  0.82302  0.67853  0.69427  1.0000
  C   C1038     1.0  0.81036  0.68117  0.66658  1.0000
  C   C1039     1.0  0.81007  0.70076  0.64943  1.0000
  C   C1040     1.0  0.82260  0.71775  0.65961  1.0000
  C   C1041     1.0  0.83474  0.71542  0.68799  1.0000
  C   C1042     1.0  0.83480  0.69585  0.70544  1.0000
  H   H1810     1.0  0.90116  0.66806  0.65135  1.0000
  H   H1811     1.0  0.80049  0.70258  0.62769  1.0000
  H   H1812     1.0  0.84446  0.72847  0.69598  1.0000
  H   H1813     1.0  0.84446  0.69393  0.72709  1.0000
  N   N56       1.0  0.74609  0.75718  0.68372  1.0000
  C   C1043     1.0  0.74010  0.73387  0.68569  1.0000
  C   C1044     1.0  0.73003  0.77043  0.70257  1.0000
  C   C1045     1.0  0.74531  0.76406  0.64795  1.0000
  C   C1046     1.0  0.76839  0.76110  0.69558  1.0000
  H   H1814     1.0  0.89392  0.79079  0.92357  1.0000
  C   C1047     1.0  0.74752  0.78837  0.64063  1.0000
  C   C1048     1.0  0.72026  0.76061  0.73471  1.0000
  C   C1049     1.0  0.71093  0.77785  0.75677  1.0000
  H   H1815     1.0  0.74898  0.69064  0.69932  1.0000
  C   C1050     1.0  0.74568  0.79336  0.60393  1.0000
  H   H1816     1.0  0.72369  0.73174  0.67612  1.0000
  H   H1817     1.0  0.80684  0.74646  0.72062  1.0000
  H   H1818     1.0  0.73703  0.78614  0.70834  1.0000
  H   H1819     1.0  0.71597  0.77421  0.68703  1.0000
  H   H1820     1.0  0.73003  0.75887  0.63706  1.0000
  H   H1821     1.0  0.75826  0.75625  0.63358  1.0000
  H   H1822     1.0  0.78042  0.75413  0.67846  1.0000
  H   H1823     1.0  0.77195  0.77847  0.69513  1.0000
  H   H1824     1.0  0.89402  0.77459  0.80486  1.0000
  H   H1825     1.0  0.73186  0.75143  0.74947  1.0000
  H   H1826     1.0  0.76319  0.79436  0.64862  1.0000
  H   H1827     1.0  0.73476  0.79754  0.65310  1.0000
  H   H1828     1.0  0.75408  0.98862  0.88745  1.0000
  H   H1829     1.0  0.72384  0.78808  0.76603  1.0000
  H   H1830     1.0  0.69939  0.78799  0.74315  1.0000
  C   C1051     1.0  0.55664  0.96935  0.89834  1.0000
  S   S250      1.0  0.64731  0.66562  0.62907  1.0000
  H   H1831     1.0  0.95583  0.80111  0.62252  1.0000
  H   H1832     1.0  0.91738  0.72051  0.89283  1.0000
  H   H1833     1.0  0.75826  0.78485  0.58987  1.0000
  H   H1834     1.0  0.72979  0.78862  0.59502  1.0000
  H   H1835     1.0  0.74752  0.81079  0.59952  1.0000
  N   N57       1.0  0.61267  0.86880  0.89208  1.0000
  C   C1052     1.0  0.63606  0.86669  0.89965  1.0000
  C   C1053     1.0  0.60779  0.85488  0.86341  1.0000
  C   C1054     1.0  0.60795  0.89196  0.88426  1.0000
  C   C1055     1.0  0.59897  0.86191  0.92108  1.0000
  Fe  Fe128     1.0  0.63458  0.98530  0.92752  1.0000
  C   C1056     1.0  0.64312  0.87612  0.93269  1.0000
  C   C1057     1.0  0.61938  0.86090  0.83063  1.0000
  H   H1836     1.0  0.49068  0.67864  0.81011  1.0000
  H   H1837     1.0  0.94616  0.73964  0.88922  1.0000
  C   C1058     1.0  0.66734  0.87546  0.93574  1.0000
  H   H1838     1.0  0.64581  0.87473  0.87998  1.0000
  H   H1839     1.0  0.64122  0.84971  0.89938  1.0000
  H   H1840     1.0  0.61238  0.83808  0.86901  1.0000
  H   H1841     1.0  0.59032  0.85442  0.85915  1.0000
  H   H1842     1.0  0.62016  0.89880  0.86705  1.0000
  H   H1843     1.0  0.60926  0.90162  0.90674  1.0000
  H   H1844     1.0  0.60115  0.87286  0.94189  1.0000
  H   H1845     1.0  0.58180  0.86319  0.91508  1.0000
  C   C1059     1.0  0.85866  0.67323  0.57287  1.0000
  C   C1060     1.0  0.77565  0.83002  0.51520  1.0000
  H   H1846     1.0  0.63784  0.89289  0.93485  1.0000
  H   H1847     1.0  0.63631  0.86695  0.95389  1.0000
  H   H1848     1.0  0.61644  0.87771  0.82317  1.0000
  H   H1849     1.0  0.63682  0.85853  0.83299  1.0000
  H   H1850     1.0  0.55327  0.98657  0.89438  1.0000
  C   C1061     1.0  0.62404  0.73907  0.56325  1.0000
  H   H1851     1.0  0.65612  0.74698  0.60687  1.0000
  H   H1852     1.0  0.83147  0.67204  0.60746  1.0000
  H   H1853     1.0  0.95988  0.91791  0.96542  1.0000
  H   H1854     1.0  0.67194  0.88216  0.95967  1.0000
  H   H1855     1.0  0.67332  0.85881  0.93458  1.0000
  H   H1856     1.0  0.67500  0.88521  0.91580  1.0000
  H   H1857     1.0  0.54723  0.96029  0.88049  1.0000
  H   H1858     1.0  0.98371  0.92948  0.92162  1.0000
  C   C1062     1.0  0.51936  0.67014  0.78499  1.0000
  H   H1859     1.0  0.86735  0.81480  0.89625  1.0000
  H   H1860     1.0  0.88097  0.73885  0.64901  1.0000
  H   H1861     1.0  0.88889  0.72038  0.89309  1.0000
  C   C1063     1.0  0.61193  0.84696  0.80270  1.0000
  H   H1862     1.0  0.84602  0.95347  0.83653  1.0000
  H   H1863     1.0  0.88567  0.75565  0.91273  1.0000
  S   S251      1.0  0.97821  0.85102  0.91568  1.0000
  H   H1864     1.0  0.97436  0.76513  0.87608  1.0000
  H   H1865     1.0  0.61093  0.75745  0.51100  1.0000
  C   C1064     1.0  0.57979  0.90730  0.96648  1.0000
  H   H1866     1.0  0.80971  0.89346  0.96952  1.0000
  H   H1867     1.0  0.62011  0.78375  0.51584  1.0000
  H   H1868     1.0  0.69990  0.94283  0.79600  1.0000
  C   C1065     1.0  0.89811  0.79860  0.89970  1.0000
  C   C1066     1.0  0.52186  0.76226  0.86030  1.0000
  H   H1869     1.0  0.94149  0.77945  0.66858  1.0000
  C   C1067     1.0  0.61769  0.77644  0.57570  1.0000
  N   N58       1.0  0.90677  0.76271  0.87124  1.0000
  H   H1870     1.0  0.53603  0.67565  0.78137  1.0000
  C   C1068     1.0  0.94539  0.74811  0.86509  1.0000
  C   C1069     1.0  0.79212  0.82603  0.57157  1.0000
  H   H1871     1.0  0.63849  0.68652  0.54635  1.0000
  C   C1070     1.0  0.56135  0.89474  0.96391  1.0000
  C   C1071     1.0  0.68543  0.76359  0.59841  1.0000
  H   H1872     1.0  0.60698  0.73642  0.55770  1.0000
  C   C1072     1.0  0.90244  0.75916  0.80819  1.0000
  C   C1073     1.0  0.92228  0.87517  0.97365  1.0000
  C   C1074     1.0  0.77331  0.75313  0.73083  1.0000
  C   C1075     1.0  0.52005  0.69605  0.89956  1.0000
  H   H1873     1.0  0.57139  0.69490  0.93236  1.0000
  H   H1874     1.0  0.57460  0.66110  0.80684  1.0000
  H   H1875     1.0  0.92456  0.83850  0.51224  1.0000
  C   C1076     1.0  0.98505  0.73085  0.97418  1.0000
  C   C1077     1.0  0.87796  0.70741  0.62884  1.0000
  C   C1078     1.0  0.90309  0.72697  0.90531  1.0000
  H   H1876     1.0  0.93585  0.77665  0.88893  1.0000
  H   H1877     1.0  0.55213  0.70660  0.88253  1.0000
  H   H1878     1.0  0.83402  0.90210  0.98855  1.0000
  H   H1879     1.0  0.82597  0.93609  0.82071  1.0000
  H   H1880     1.0  0.96213  0.82267  0.58128  1.0000
  C   C1079     1.0  0.90210  0.75171  0.90398  1.0000
  C   C1080     1.0  0.89872  0.74961  0.84327  1.0000
  S   S252      1.0  0.62225  0.66028  0.69945  1.0000
  C   C1081     1.0  0.90539  0.88999  0.97222  1.0000
  H   H1881     1.0  0.76676  0.81515  0.52156  1.0000
  S   S253      1.0  0.66655  0.97725  0.90271  1.0000
  S   S254      1.0  0.64625  0.97317  0.97691  1.0000
  C   C1082     1.0  0.91014  0.84958  0.55792  1.0000
  H   H1882     1.0  0.65078  0.74818  0.49434  1.0000
  H   H1883     1.0  0.89921  0.79322  0.84811  1.0000
  H   H1884     1.0  0.88129  0.74680  0.84659  1.0000
  C   C1083     1.0  0.65260  0.84470  0.51420  1.0000
  H   H1885     1.0  0.53372  0.96812  0.93755  1.0000
  H   H1886     1.0  0.63142  0.69788  0.58525  1.0000
  H   H1887     1.0  0.82437  0.68972  0.53770  1.0000
  H   H1888     1.0  0.58019  0.96086  0.95882  1.0000
  H   H1889     1.0  0.91967  0.76159  0.80314  1.0000
  H   H1890     1.0  0.57384  0.96639  0.89358  1.0000
  C   C1084     1.0  0.82303  0.94155  0.87303  1.0000
  C   C1085     1.0  0.64298  0.76398  0.49246  1.0000
  H   H1891     1.0  0.87726  0.78070  0.86868  1.0000
  H   H1892     1.0  0.65535  0.77640  0.49550  1.0000
  C   C1086     1.0  0.50730  0.68459  0.80870  1.0000
  C   C1087     1.0  0.55521  0.88064  0.98955  1.0000
  C   C1088     1.0  0.81134  0.92764  0.97812  1.0000
  H   H1893     1.0  0.88887  0.82772  0.87343  1.0000
  H   H1894     1.0  0.91487  0.80373  0.90036  1.0000
  H   H1895     1.0  0.92682  0.81977  0.56655  1.0000
  H   H1896     1.0  0.80084  0.66809  0.65829  1.0000
  H   H1897     1.0  0.51148  0.67045  0.76075  1.0000
  C   C1089     1.0  0.78410  0.97459  0.90296  1.0000
  H   H1898     1.0  0.62062  0.77300  0.60202  1.0000
  H   H1899     1.0  0.83834  0.69866  0.59243  1.0000
  H   H1900     1.0  0.73920  0.72788  0.71142  1.0000
  N   N59       1.0  0.72345  0.89587  0.73332  1.0000
  C   C1090     1.0  0.71207  0.90478  0.70361  1.0000
  C   C1091     1.0  0.74702  0.89314  0.72584  1.0000
  C   C1092     1.0  0.71441  0.87402  0.74065  1.0000
  C   C1093     1.0  0.71977  0.90920  0.76337  1.0000
  C   C1094     1.0  0.72385  0.93340  0.75955  1.0000
  C   C1095     1.0  0.68751  0.90697  0.70702  1.0000
  C   C1096     1.0  0.72539  0.86079  0.76831  1.0000
  C   C1097     1.0  0.75761  0.90946  0.70169  1.0000
  C   C1098     1.0  0.78174  0.90617  0.69997  1.0000
  C   C1099     1.0  0.71722  0.94494  0.79086  1.0000
  C   C1100     1.0  0.67827  0.91968  0.67816  1.0000
  C   C1101     1.0  0.71427  0.83935  0.77388  1.0000
  H   H1901     1.0  0.71530  0.89449  0.68206  1.0000
  H   H1902     1.0  0.71835  0.92067  0.69622  1.0000
  H   H1903     1.0  0.75629  0.89271  0.74896  1.0000
  H   H1904     1.0  0.75011  0.87742  0.71428  1.0000
  H   H1905     1.0  0.71490  0.86444  0.71803  1.0000
  H   H1906     1.0  0.69740  0.87517  0.74788  1.0000
  H   H1907     1.0  0.70318  0.90710  0.77295  1.0000
  H   H1908     1.0  0.73004  0.90354  0.78380  1.0000
  H   H1909     1.0  0.71457  0.94064  0.73922  1.0000
  H   H1910     1.0  0.74104  0.93644  0.75533  1.0000
  H   H1911     1.0  0.67998  0.89100  0.70711  1.0000
  H   H1912     1.0  0.68275  0.91517  0.72986  1.0000
  H   H1913     1.0  0.72470  0.86924  0.79195  1.0000
  H   H1914     1.0  0.74233  0.85749  0.76202  1.0000
  H   H1915     1.0  0.75149  0.90724  0.67649  1.0000
  H   H1916     1.0  0.75442  0.92610  0.70873  1.0000
  H   H1917     1.0  0.78893  0.90887  0.72429  1.0000
  H   H1918     1.0  0.78563  0.88973  0.69204  1.0000
  H   H1919     1.0  0.78888  0.91761  0.68184  1.0000
  C   C1102     1.0  0.82890  0.94910  0.83817  1.0000
  H   H1920     1.0  0.72630  0.93875  0.81227  1.0000
  H   H1921     1.0  0.72043  0.96227  0.78785  1.0000
  H   H1922     1.0  0.68286  0.91230  0.65451  1.0000
  H   H1923     1.0  0.66060  0.91980  0.68029  1.0000
  H   H1924     1.0  0.68398  0.93640  0.67821  1.0000
  H   H1925     1.0  0.71471  0.82991  0.75113  1.0000
  H   H1926     1.0  0.72249  0.83009  0.79349  1.0000
  H   H1927     1.0  0.69740  0.84178  0.78161  1.0000
  H   H1928     1.0  0.81902  0.96309  0.83086  1.0000
  N   N60       1.0  0.92364  0.83502  0.61386  1.0000
  H   H1929     1.0  0.97853  0.74085  0.85432  1.0000
  C   C1103     1.0  0.92460  0.81478  0.63451  1.0000
  C   C1104     1.0  0.90749  0.84958  0.62992  1.0000
  C   C1105     1.0  0.94506  0.84601  0.61276  1.0000
  C   C1106     1.0  0.96065  0.84006  0.58436  1.0000
  C   C1107     1.0  0.91115  0.85431  0.66671  1.0000
  C   C1108     1.0  0.93884  0.79649  0.62157  1.0000
  C   C1109     1.0  0.93638  0.77638  0.64309  1.0000
  C   C1110     1.0  0.89743  0.87301  0.67810  1.0000
  C   C1111     1.0  0.97245  0.71225  0.97511  1.0000
  H   H1930     1.0  0.93472  0.79209  0.59625  1.0000
  H   H1931     1.0  0.93063  0.81806  0.65947  1.0000
  H   H1932     1.0  0.90826  0.80841  0.63847  1.0000
  H   H1933     1.0  0.89114  0.84283  0.62806  1.0000
  H   H1934     1.0  0.90689  0.86524  0.61665  1.0000
  H   H1935     1.0  0.94303  0.86365  0.61082  1.0000
  H   H1936     1.0  0.95345  0.84324  0.63640  1.0000
  H   H1937     1.0  0.51523  0.70785  0.91817  1.0000
  H   H1938     1.0  0.53529  0.76202  0.84224  1.0000
  H   H1939     1.0  0.92804  0.85823  0.67129  1.0000
  H   H1940     1.0  0.90669  0.84022  0.68225  1.0000
  H   H1941     1.0  0.57273  0.89114  0.88612  1.0000
  C   C1112     1.0  0.63679  0.67584  0.78349  1.0000
  H   H1942     1.0  0.90325  0.70081  0.94103  1.0000
  H   H1943     1.0  0.80676  0.82913  0.58560  1.0000
  C   C1113     1.0  0.61923  0.82698  0.50474  1.0000
  H   H1944     1.0  0.58392  0.88920  0.84539  1.0000
  C   C1114     1.0  0.90871  0.84348  0.52186  1.0000
  H   H1945     1.0  0.76447  0.76289  0.74891  1.0000
  H   H1946     1.0  0.80014  0.74935  0.76347  1.0000
  N   N61       1.0  0.81666  0.95614  0.93148  1.0000
  H   H1947     1.0  0.58271  0.92896  0.88784  1.0000
  H   H1948     1.0  0.61936  0.83521  0.93860  1.0000
  H   H1949     1.0  0.59224  0.81804  0.97466  1.0000
  H   H1950     1.0  0.89695  0.75169  0.75727  1.0000
  H   H1951     1.0  0.53498  0.68501  0.83931  1.0000
  C   C1115     1.0  0.90160  0.66394  0.54612  1.0000
  C   C1116     1.0  0.56588  0.97146  0.95900  1.0000
  C   C1117     1.0  0.58250  0.79355  0.59184  1.0000
  H   H1952     1.0  0.51411  0.68054  0.90975  1.0000
  C   C1118     1.0  0.76027  0.97861  0.90801  1.0000
  H   H1953     1.0  0.90600  0.73351  0.84323  1.0000
  C   C1119     1.0  0.98442  0.90492  0.88609  1.0000
  C   C1120     1.0  0.59000  0.83480  0.96614  1.0000
  C   C1121     1.0  0.74827  0.69518  0.67285  1.0000
  H   H1954     1.0  0.59464  0.84938  0.79843  1.0000
  C   C1122     1.0  0.83712  0.68168  0.58603  1.0000
  H   H1955     1.0  0.80813  0.81833  0.52654  1.0000
  H   H1956     1.0  0.76560  0.84312  0.52508  1.0000
  C   C1123     1.0  0.55028  0.96259  0.93336  1.0000
  H   H1957     1.0  0.86280  0.68331  0.55093  1.0000
  H   H1958     1.0  0.59531  0.92740  0.84768  1.0000
  H   H1959     1.0  0.73515  0.84597  0.49839  1.0000
  H   H1960     1.0  0.73179  0.69276  0.66406  1.0000
  C   C1124     1.0  0.88722  0.72988  0.62767  1.0000
  H   H1961     1.0  0.65475  0.77551  0.61172  1.0000
  H   H1962     1.0  0.94647  0.76339  0.63308  1.0000
  H   H1963     1.0  0.90441  0.69213  0.60536  1.0000
  H   H1964     1.0  0.70249  0.77029  0.77809  1.0000
  H   H1965     1.0  0.58753  0.80947  0.58225  1.0000
  C   C1125     1.0  0.79651  0.83041  0.53512  1.0000
  H   H1966     1.0  0.78755  0.80913  0.57578  1.0000
  H   H1967     1.0  0.88861  0.72398  0.95425  1.0000
  H   H1968     1.0  0.80407  0.84634  0.53297  1.0000
  H   H1969     1.0  0.63331  0.72192  0.51907  1.0000
  H   H1970     1.0  0.98307  0.91643  0.86517  1.0000
  C   C1126     1.0  0.82172  0.93399  0.94458  1.0000
  H   H1971     1.0  0.61508  0.82986  0.80834  1.0000
  H   H1972     1.0  0.62504  0.73625  0.59022  1.0000
  H   H1973     1.0  0.56492  0.79241  0.58993  1.0000
  C   C1127     1.0  0.66119  0.76257  0.59624  1.0000
  H   H1974     1.0  0.55039  0.94487  0.93486  1.0000
  H   H1975     1.0  0.91955  0.77095  0.64373  1.0000
  H   H1976     1.0  0.92217  0.86236  0.55994  1.0000
  C   C1128     1.0  0.59311  0.77589  0.57205  1.0000
  H   H1977     1.0  0.90061  0.82026  0.58252  1.0000
  H   H1978     1.0  0.80144  0.77264  0.73700  1.0000
  H   H1979     1.0  0.90842  0.68023  0.54597  1.0000
  C   C1129     1.0  0.49246  0.70245  0.98446  1.0000
  C   C1130     1.0  0.93023  0.76753  0.86764  1.0000
  H   H1980     1.0  0.62352  0.67841  0.76611  1.0000
  C   C1131     1.0  0.58173  0.65790  0.49187  1.0000
  C   C1132     1.0  0.79691  0.75555  0.73830  1.0000
  C   C1133     1.0  0.91546  0.82995  0.58022  1.0000
  N   N62       1.0  0.87712  0.67194  0.59634  1.0000
  C   C1134     1.0  0.62907  0.69928  0.55837  1.0000
  C   C1135     1.0  0.88456  0.81879  0.89639  1.0000
  H   H1981     1.0  0.87401  0.67000  0.69643  1.0000
  H   H1982     1.0  0.85831  0.67204  0.64158  1.0000
  H   H1983     1.0  0.69007  0.76254  0.62463  1.0000
  H   H1984     1.0  0.50727  0.70095  0.79792  1.0000
  C   C1136     1.0  0.81990  0.68016  0.55997  1.0000
  H   H1985     1.0  0.60184  0.98685  0.98397  1.0000
  H   H1986     1.0  0.57234  0.67276  0.49532  1.0000
  H   H1987     1.0  0.92626  0.86570  0.95249  1.0000
  H   H1988     1.0  0.80597  0.93700  0.87369  1.0000
  H   H1989     1.0  0.78501  0.94323  0.92449  1.0000
  H   H1990     1.0  0.53757  0.94490  0.98828  1.0000
  C   C1137     1.0  0.96807  0.75508  0.85639  1.0000
  C   C1138     1.0  0.54473  0.69441  0.89906  1.0000
  H   H1991     1.0  0.89452  0.85644  0.56538  1.0000
  H   H1992     1.0  0.88604  0.70330  0.57746  1.0000
  H   H1993     1.0  0.93321  0.77830  0.84615  1.0000
  H   H1994     1.0  0.75915  0.68443  0.65911  1.0000
  H   H1995     1.0  0.89726  0.83023  0.51895  1.0000
  H   H1996     1.0  0.58830  0.77805  0.54610  1.0000
  H   H1997     1.0  0.69139  0.77891  0.58779  1.0000
  C   C1139     1.0  0.55380  0.69672  0.93342  1.0000
  H   H1998     1.0  0.62067  0.85140  0.77967  1.0000
  H   H1999     1.0  0.95505  0.84691  0.56068  1.0000
  N   N63       1.0  0.63039  0.76159  0.55417  1.0000
  H   H2000     1.0  0.91747  0.72406  0.95362  1.0000
  H   H2001     1.0  0.90252  0.72874  0.78307  1.0000
  H   H2002     1.0  0.63681  0.68930  0.80078  1.0000
  N   N64       1.0  0.50992  0.70088  0.86685  1.0000
  H   H2003     1.0  0.61037  0.67435  0.50171  1.0000
  C   C1140     1.0  0.89358  0.65735  0.58109  1.0000
  H   H2004     1.0  0.88239  0.73845  0.60482  1.0000
  H   H2005     1.0  0.81619  0.92171  0.92739  1.0000
  H   H2006     1.0  0.65376  0.72221  0.55011  1.0000
  S   S255      1.0  0.97592  0.75393  0.95123  1.0000
  C   C1141     1.0  0.63642  0.72116  0.54576  1.0000
  H   H2007     1.0  0.54986  0.71265  0.94335  1.0000
  C   C1142     1.0  0.62502  0.76676  0.51869  1.0000
  H   H2008     1.0  0.59581  0.84547  0.98553  1.0000
  H   H2009     1.0  0.54721  0.68419  0.95028  1.0000
  H   H2010     1.0  0.53080  0.72160  0.83783  1.0000
  H   H2011     1.0  0.83931  0.93176  0.94668  1.0000
  H   H2012     1.0  0.65767  0.78243  0.55285  1.0000
  C   C1143     1.0  0.65369  0.76568  0.56032  1.0000
  H   H2013     1.0  0.70722  0.74953  0.72835  1.0000
  C   C1144     1.0  0.89471  0.78364  0.87035  1.0000
  C   C1145     1.0  0.82791  0.95881  0.89865  1.0000
  H   H2014     1.0  0.75518  0.72158  0.64045  1.0000
  H   H2015     1.0  0.94040  0.73695  0.84597  1.0000
  H   H2016     1.0  0.77931  0.83662  0.58101  1.0000
  H   H2017     1.0  0.88187  0.70026  0.65314  1.0000
  H   H2018     1.0  0.66403  0.75546  0.54491  1.0000
  H   H2019     1.0  0.57269  0.83769  0.96268  1.0000
  H   H2020     1.0  0.58678  0.79205  0.61818  1.0000
  H   H2021     1.0  0.76930  0.73607  0.73456  1.0000
  H   H2022     1.0  0.90487  0.72936  0.62900  1.0000
  H   H2023     1.0  0.86054  0.70889  0.62761  1.0000
  C   C1146     1.0  0.82599  0.97178  0.95505  1.0000
  C   C1147     1.0  0.89412  0.74434  0.78200  1.0000
  H   H2024     1.0  0.90307  0.85737  0.50702  1.0000
  H   H2025     1.0  0.78636  0.96797  0.87810  1.0000
  H   H2026     1.0  0.65217  0.67590  0.76961  1.0000
  H   H2027     1.0  0.84551  0.95872  0.90203  1.0000
  H   H2028     1.0  0.59646  0.82720  0.91591  1.0000
  H   H2029     1.0  0.79376  0.92916  0.97727  1.0000
  H   H2030     1.0  0.84341  0.96873  0.95778  1.0000
  H   H2031     1.0  0.98150  0.89163  0.94923  1.0000
  C   C1148     1.0  0.87000  0.66176  0.62855  1.0000
  H   H2032     1.0  0.81898  0.96954  0.97997  1.0000
  H   H2033     1.0  0.53457  0.73770  0.89149  1.0000
  H   H2034     1.0  0.82440  0.97459  0.88727  1.0000
  H   H2035     1.0  0.52385  0.98027  0.98569  1.0000
  H   H2036     1.0  0.75127  0.96338  0.90905  1.0000
  S   S256      1.0  0.53202  0.86510  0.98587  1.0000
  H   H2037     1.0  0.78948  0.78992  0.50217  1.0000
  C   C1149     1.0  0.51966  0.74061  0.87782  1.0000
  H   H2038     1.0  0.75739  0.98722  0.93120  1.0000
  C   C1150     1.0  0.81651  0.90452  0.98753  1.0000
  H   H2039     1.0  0.57184  0.98709  0.94961  1.0000
  H   H2040     1.0  0.85529  0.65717  0.56336  1.0000
  H   H2041     1.0  0.52508  0.77472  0.87857  1.0000
  H   H2042     1.0  0.88850  0.66362  0.52817  1.0000
  H   H2043     1.0  0.81749  0.66327  0.55315  1.0000
  H   H2044     1.0  0.50347  0.72821  0.83539  1.0000
  H   H2045     1.0  0.85852  0.78524  0.49161  1.0000
  H   H2046     1.0  0.50691  0.76653  0.84742  1.0000
  H   H2047     1.0  0.98233  0.86651  0.59227  1.0000
  H   H2048     1.0  0.50667  0.74189  0.89626  1.0000
  C   C1151     1.0  0.98291  0.84890  0.59008  1.0000
  C   C1152     1.0  0.96626  0.92309  0.98921  1.0000
