data_image0
_chemical_formula_structural       H2SCHFeHC2FeS2FeS2FeSHS2HC3HCSH2CH4C7H7CHCNCH3C2H2CHC3HC3HCHCH2C2HC2HC2H3CHCH2SH5CH2CHSH4CH10NH6C3H2CHCH2CH6CH3CH3FeHCHCH7C2FeHCH3SC2SH4CHSHCH2CNH3FeS2FeS2FeSFeS3FeS2FeSHFeSFeS3C6H4CHC6H4CH3C2H2CHC4H7C6H4CH7CH2CHFeCHNC5HCH3CHCH7CNH6CH3CHCH5SH2FeSC2HCSHCH3C2H4SHCH3CHCHCFeCHC3H3NC12H27C2FeHC3HCHCH7CH2NH4CH2CHCHCHCH3CH2CH6CH7C2H2C2SCHC2H5CH3C2HCH4CHC2NH3C2HC2H4CHCH7CH6C2H2CHNHCHCH2CH6C3H2CHC2H2C2SHFeHSHCNCH2FeS2HCHCHCH4C2FeS2FeS2FeSFeS3FeS2FeS2FeSFeS3H4C2H2C6H4C3H7C4FeCH2CHC6H4CH2NCH4CH2C7H4C6H4CH2C3HCH4FeH3CSHS2HCHC2HFeHC4H2CHC2HNH2CH9CH3CH8CH2C2H7CH5C2H4CH4C2NCH3CHCH5C2H5CH2C2SC2HCHSH4NC12H32CHCHC2H2CHCH3CSHC3H6SHCHCH2CHC2H2CFeH4CSH3CHSHC2HCH2NC2HCH4FeH2C3HCH4SH3CNH7CHCNS2C2FeH3CH3SFeSCH2SH5SH2C6H4CHC5H5CH2CH2C3H2CH2SHFeHCH3SH2CHC2H2NH2CH2C3H2C2H2NCHC4HC2H3CH2CH3FeHC2H10C2H3CHSH2FeH4CHC2H7CHCH6CHCHC2HCH6FeS2FeSFeS3HC2FeS2H2CHSCFeS2FeS2FeSFeS3HC6H4C6H5FeH2C2H2C5HCHC2H2CHCHCHCHCHC7H6SH5C2H3CH2C4HCH3CHCHSH2CH7CH2C2HCH3CH2C2H2NHC2H2NHCHC2H9CHC2H5C2HCHNHCSH4CH2SH2CH5C2HC2H4CH3SCH6CH3CNHC2H4C2H4NC2H2NCHC3H10CH9C2H5C2H4CHC2HC2H2NHCHC2H7FeH3CH7CHC2H4C2H9C3H3CH2C3SCFeS2FeSFeSFeS3FeS2FeS2FeSFeS3CHCSHC6H4CHC3H2C6H6C6H4CHFeH3CH2CSC2FeC6H7C2HC3H6CHCH2NH2FeCH5CHFeSCHCHCH2SH2FeSHCH3NHCHC2H4C2H6CHC2H2CH6CH2CH4CS2FeH4N2C10H26CHCHSH9C2H2C2HCH2SCH2CH6CHCHCH2SHFeC4H5C3H5C4SHCHCHCHCH3SH2CH6CH6C2HCH4NC2H2CH7C5H2SH3CNC2H3CSH5CH4NH2C2H2CH4SCH4C6HCH2CH3CH2CHC2HFeCH2FeS2FeSH2FeSHSFeS2FeS2FeHFeS3FeS2HCHFeS2FeSFeSFeS3H2NHC5HC8H4C6H6CHNH5C6H7C4H3C4H4CH3C2H2C2SCH3CHCHCH3CNH3CH4SCHCHCH4CH3CH2CSH3SH2CSH6FeCHC2H3C2H2CH3CHC2H5C2H4CHCH6C2NHC6HCH5C2H4CH13SH3CH2FeSC2H2CH3CNHSHCH3CH5CH2CFeCHC3H7CH3C3H2SH4NHCHC4HCHCH4C3H8CHC2H6CH2CH9SCHSH3CH2FeSCSHFeS2FeS2FeHFeS3CH2C2FeH2C6H4SFeCHC2HSCHSCH3SH2FeC6H4C2HC3H2CH6CSHCH2CH3C2H4C2H2CH2CHCH2CHC2HC2SH2SC2H4C2H4CH3NH2CH5CH5NHC2HC2HCHCHSH4CH2CH2FeH4CH4CH3FeCH4CHC2HCHC2H3SH2CHC2H2C2H2C3SHNCHCH5FeH4CHCH2CH3CHCH5C3H2CHC2H4NCH2CH5C4HCH4FeSFeS2FeSFeS3HFeHSFeS2FeSHFeSFeSHSFeS2FeS2FeSFeS3C3H4C6H4C6H5CHCH2CH3CHC2H3CHC6H4C6H4C4HCSHCH7C2H3NH4CSHC3H2CNFeHSH3C2H2CH2NCH2C2HCH3C5H5CHCSC2H3CH4CH3CHSCHCH6CH2CH4CH6C2H5C2H2C2H3C2H6CSH3CH2CHCH4CHCH2CH3CHSH6NC9H9CH3CH4C4H2CHNC12H28NC8H18C2H2FeCHNS2H3CNH2CHCHCH3CH3C2H4NC2H4CH5CHNH3C2HFeSH2CSHCFeSHSFeS2FeS2FeSFeS3H2CHC2H6C3H4C7H4C5FeH7C2NC3HCHC3H2CHCH10FeH9CHCH3CHNHC3H4SC3H3CHCH3CH5CH3CH2CFeH3C3HCHNHCHCH2C2HCHFeHSH3CHC2H2CSHSH5C2HCHCH4C2H2CH3CHSHCHC2HCSHCHCHC2HCH2SH2CHCHCH4NH2CH4CHFeCHC2H2CH5CHNHSHNC2HC2HCHCH4CH2SHCHCHFeS2FeSHFeSFeS3FeS2FeS2FeCFeS2C2H3CH3C5H2C2FeCHC2H3C6H9SH2C6H4CH3CH2CHCH3CH6NCH3NH3C2H2C2FeHSH4CHCH2C2H5NCH5CHS2H8CHC6HC3H3CHCH6CH5C2H2CHCH2CHCHCH2CH3CH2SCH9CHN2SH2CH4C2HCHCHCSCH2CH2CH2CH2C2H2CHSC4SH3CH2FeHCHCHSH2C2HCHCHCHCHFeS2FeS2FeSFeS3CFeS2Fe2S3C2H3FeS2FeS2FeCFeCS4FeHFeSFeS2HCSC3H2C6H5C2H2SH2C2H2C6H4C4HCH3C6H4C6H4C4H3C3HC2H4SH3SHCH3SH4CH2NHCNC11H23C4H10NC8HFeCH19FeCH10C2FeSH6CHSCH4C3HCNC9HC2H19NCH3SH2CSCSCH2CH6C2HCHSH3FeCH2CHCHCNH2CHCH2CH3CH3C2H4CFeH6CFeCHC3HCH2CHCSH3C3H4C2H2CH4CHCHNCH5NHFeC2H2C2H2CH2CH2CHCH2CH5NHCHCH4C2HCH2CHC3H2CH5CHCHCH6SHCH4SCH7FeHCH2C2H5CH6CH2CH4C2FeH4CHC2HCHSHCHCHSCH2SCHSH2NC4H2C3H7C4H2CSHFeS2FeSFeS2CHS2CFeS2FeS2FeSFeS3FeS2FeS2FeSFeS3HSCH4CH2C6H4C2H2C2H3C4H5C7H5CHC6H4C6H4SCH3CHSCHCHC3HSH2C2H2C2H2CH6NC7H7NH4CH4C3HC3H7NC7HC3NH2FeH10CH13CH2C7H3CH2C3FeCH2SH4NC8HC2H18C2H11CH2CHSC2HCH4CH2FeNH2FeCH3CSCH2C2H2CHC2H3CHSCH2CHCH5SH3CHCH4CH7CH3C2H2CHC2HC4HSCH4NCH9CH4C3H11SC2H6FeH2SCH3Fe2HCH3CH3CHCH3CH2CH2C2HCHC2H4C2HCHCH5C2HFeC2H2S3FeSH3C2HC3H6NC5H10CH4C3SHCH2NSH2CH2C2H2C2H3C5H8CHCH3C2H2CH2NSHCH3CHC2H2CHSCHFeH3C2HCHC2H4CH3CH4FeH2SHCHCHCH8CH2C2HNH2C2HC4H2C2HCHCHCHCSC2H2C2HC3H3CH4CH6NC2H9CHCH4CHCHCH4C3SCH6CHCHSC2H3FeS2FeSFeCS2NCFeHSCH2SHC2SHCH4SH4CFeSFe2S2FeS2FeSFeSCSCHCH2C2HCHC2H2CH2C2H7CHC6H5C3H2SFeCHC2H2CHC6H4C6H5CHC3H2C2HNCH2CHC3SH3CHCH2SH7C2SFeH2NC2HC3HCHC2H4CH9CH2CH11CH2CH2C2H2CHC2HCSH8CH8CH2SHCHCNCNC12H28C2H6C2NCH6NC9HFeCH8SH7CSHCHC2H3SH2SCHSHCHC2H2C2H2FeCH3C3HCHCH2CH2CFeCH3SH2CH9CH2NCH3C2SCH6CHC2H2CHCH4C2H3CHCHSCHSHC3H2NCSH4CHCHCHCH2CSH2NFeSHCHCHCHCHC3HC2H5SC2H2CH14CSCHCH3CH4SHFeSCFeSFeS2CFeS2FeS2FeSHS2H4FeC3H6C2HCHC3H2NCH3C6H6C2H2C5H3CH4C2HCH8C3H2CHNH2CH3CH9SH5C2NCH3C4H3C4H3C2H5CH4CH2CH4CHCH3SFeHCHC2H2CNCH2C6H2CH2C2H3CH3CH5CHCHCHSHC2H2C2H11C2H2CH2CH3CHSH3CHCH3FeHFeS2FeHFeHS2CSHSFeS2FeS2FeSFeS3HSCFeS2FeS2FeS2FeSFeS3CH2CHCH4CH3C6H4C6H4C6H6FeCHCHC6H5FeSNC6H6CHSCHC4H2C2NHC4H8C2NH3CH3CHFeCH5C2H2SH4FeH3NHC2HC6H17SCH11C2H2SHCHCH3C2H2SH4C3SHNC2H4C2H2C2H4C2H3C2HCHCHCHSH5CH3FeCSHC3FeC2HCHNC12H23SH3NC10H23FeH5CH4SH3CH4C2H2C2H3C2H3CHC2H2CHC2H4SHCHCHC2HSH2CH6CH4CHFeS2FeSFeHS2H5FeS2FeSCFeSFeS3FeS2FeS2FeHFeS3HC6H6C3HCH3C7H4C3H4CH2C2H3C2H2CH3C2SCH2C2H5C2H2C2H2CH3C2H7CH2C3H2CHSHC2SC2HC2H2CH7CHCH2C2NH4CH2CHC4H2C2H5NC11H18NH3NCHC5H2C3H3CH3NH9CH2CH2CSH4NCH2CHCH3CH3CH2C2H3CHC3HCH2CH3CHCHC3H2SH4CH9CHCH4CFeH4CH2CHSH2C2H2CH3CH3CH3CH2CHCH2CH2CH3S2H3CH3CH9CH4CHCNH3CHC5H3SH2CH2CH2CH3SHSCSHFeHSFeHSH3S3FeS2FeS2NH2CH4C6H4C2H2SCHC2H2FeSHFe2H2SH2C6H4C2NC10H5CH8SH10FeH2C5H10CFeH3CNC12H30SH6C2HCH5CH2CH6C2SCSFeS2FeSFeS2FeS2FeS2FeSFeS4H5CH2CFeS2H2FeCSH2SH2CH3C3HCH5C6H4C6H5C2H2FeCH3C6H4CHSC2HCH2CH3CHSCHCH4CH2C2H3FeH2C2H12CHCH3C2H7NH6SHSNC11H26C3H3SH2CHCH2CSCH2CH3C2H4CH7CFeHCH4CH3CHC3H2NCH2CH5CH7CH2C2HC2H2C2HNHCHCH6CNHC5H10CHCH3CHCHNCHCH4CH2CNCHSCFeS2Fe2SCSHCHCH2SH3CH2CH2S2HFeS2FeS2FeS2FeS2FeSFeS3CFeSCH3FeC6H4CHC4H3C6H4C7H4CFeH5CH3C7H5CHC2H3C2NC4HC4HCNH6CH13SH4SH3SC4H5FeH4CHCSCH2C3H12CHCHNHC2H2CH2CHCH4SH3CH2CH2NC12H28CHCH3NCH4C4NHCH2SHCHC2H3C2FeH3CFeCH2C2H6CHCHC2H3CH3CSH2CHNHCH2CH4CH2CH6SH5CH3FeC2HNHCH2FeCH4C2HCHC2HCH6CH4C2H2CFeS2FeSCFeHFeHS2FeS2FeS2FeSFeS3H2FeS2FeS2FeSFeS3H7C2H3CHCNC3H2C7H5C6H7CH8C2H3SH2CH2CH2CHCH6CH5C2H4C3HCH3CHC2H2CNCHCH4CH9C2H3CHCH3CHCNCHCH4C2H4CHCH3C4H6CH2CH3C2HCH2C3NC3HCHCHCH6C2H8C2H3C2H3CH5C4H7C2NH10CH3CH2CH5CHCHCHCHCH4CH4CH3CH2NHCHC3HCH3SHCHCHC2HCHCHC5HSC2FeCHFeS2FeH3S2FeSCFeS2Fe2SCSCHC6H5SC2H2CHCH3CH4C5H5C6H5C3HCH4NFeCHC3H3C3H4SHSHC2H2CH5SH7NFeHSC2HNC12H16CHCH9CH5CH2CH4NCH2CH2CHCHC2H5CH8SCNFeHSH4CH3C2H7CHCH2C2HCH2SCSCH4CHC3H5CHCH2CH3C2H4CHSHC2NH3
_chemical_formula_sum              "H4608 S576 C2592 Fe288 N144"
_cell_length_a       69.3979
_cell_length_b       68.9847
_cell_length_c       71.1212
_cell_angle_alpha    78.8236
_cell_angle_beta     78.3735
_cell_angle_gamma    78.8082

_space_group_name_H-M_alt    "P 1"
_space_group_IT_number       1

loop_
  _space_group_symop_operation_xyz
  'x, y, z'

loop_
  _atom_site_type_symbol
  _atom_site_label
  _atom_site_symmetry_multiplicity
  _atom_site_fract_x
  _atom_site_fract_y
  _atom_site_fract_z
  _atom_site_occupancy
  H   H1        1.0  0.01619  0.38491  0.18306  1.0000
  H   H2        1.0  0.30719  0.31018  0.13957  1.0000
  S   S1        1.0  0.29112  0.34587  0.08279  1.0000
  C   C1        1.0  0.11979  0.44322  0.09664  1.0000
  H   H3        1.0  0.07456  0.38909  0.21494  1.0000
  Fe  Fe1       1.0  0.17453  0.46672  0.12701  1.0000
  H   H4        1.0  0.08260  0.42005  0.14728  1.0000
  C   C2        1.0  0.22878  0.35408  0.98935  1.0000
  C   C3        1.0  0.08537  0.45948  0.09772  1.0000
  Fe  Fe2       1.0  0.17921  0.42549  0.15234  1.0000
  S   S2        1.0  0.20063  0.44729  0.13894  1.0000
  S   S3        1.0  0.17480  0.41167  0.18421  1.0000
  Fe  Fe3       1.0  0.16123  0.43132  0.11595  1.0000
  S   S4        1.0  0.18059  0.45348  0.09956  1.0000
  S   S5        1.0  0.13715  0.42248  0.10411  1.0000
  Fe  Fe4       1.0  0.20529  0.43226  0.11245  1.0000
  S   S6        1.0  0.23439  0.42891  0.09107  1.0000
  H   H5        1.0  0.29872  0.41612  0.01513  1.0000
  S   S7        1.0  0.18618  0.40882  0.12688  1.0000
  S   S8        1.0  0.15288  0.44616  0.14235  1.0000
  H   H6        1.0  0.24790  0.31375  0.06852  1.0000
  C   C4        1.0  0.15557  0.39699  0.19179  1.0000
  C   C5        1.0  0.14941  0.38805  0.17847  1.0000
  C   C6        1.0  0.13469  0.37573  0.18482  1.0000
  H   H7        1.0  0.26478  0.41100  0.03134  1.0000
  C   C7        1.0  0.28635  0.29104  0.13915  1.0000
  S   S9        1.0  0.10621  0.35809  0.21125  1.0000
  H   H8        1.0  0.15627  0.39031  0.16331  1.0000
  H   H9        1.0  0.13041  0.36844  0.17451  1.0000
  C   C8        1.0  0.25785  0.35859  0.03839  1.0000
  H   H10       1.0  0.26862  0.35014  0.02779  1.0000
  H   H11       1.0  0.06261  0.37610  0.19083  1.0000
  H   H12       1.0  0.20323  0.39193  0.03989  1.0000
  H   H13       1.0  0.29747  0.31521  0.11778  1.0000
  C   C9        1.0  0.23456  0.39056  0.04217  1.0000
  C   C10       1.0  0.27546  0.36900  0.08502  1.0000
  C   C11       1.0  0.25776  0.36961  0.09870  1.0000
  C   C12       1.0  0.24503  0.38789  0.10082  1.0000
  C   C13       1.0  0.24998  0.40566  0.08925  1.0000
  C   C14       1.0  0.26773  0.40503  0.07565  1.0000
  C   C15       1.0  0.28047  0.38677  0.07358  1.0000
  H   H14       1.0  0.25387  0.35591  0.10769  1.0000
  H   H15       1.0  0.23141  0.38824  0.11139  1.0000
  H   H16       1.0  0.27173  0.41874  0.06678  1.0000
  H   H17       1.0  0.29435  0.38648  0.06339  1.0000
  H   H18       1.0  0.10697  0.39720  0.12825  1.0000
  H   H19       1.0  0.29104  0.27992  0.15157  1.0000
  H   H20       1.0  0.07553  0.39549  0.15116  1.0000
  C   C16       1.0  0.10678  0.39578  0.14409  1.0000
  H   H21       1.0  0.28230  0.38830  0.03384  1.0000
  C   C17       1.0  0.30469  0.28983  0.09013  1.0000
  N   N1        1.0  0.24655  0.37715  0.02793  1.0000
  C   C18       1.0  0.08607  0.40419  0.15414  1.0000
  H   H22       1.0  0.28209  0.42095  0.99766  1.0000
  H   H23       1.0  0.02818  0.42458  0.17282  1.0000
  H   H24       1.0  0.25407  0.40038  0.00362  1.0000
  C   C19       1.0  0.08563  0.40306  0.17617  1.0000
  C   C20       1.0  0.04186  0.43136  0.16692  1.0000
  H   H25       1.0  0.03373  0.46849  0.05411  1.0000
  H   H26       1.0  0.26390  0.31642  0.04514  1.0000
  C   C21       1.0  0.20415  0.39917  0.06764  1.0000
  H   H27       1.0  0.03962  0.46983  0.98443  1.0000
  C   C22       1.0  0.26162  0.38861  0.01408  1.0000
  C   C23       1.0  0.26812  0.30532  0.14716  1.0000
  C   C24       1.0  0.23326  0.37208  0.01577  1.0000
  H   H28       1.0  0.25603  0.29672  0.15473  1.0000
  C   C25       1.0  0.03376  0.39097  0.20292  1.0000
  C   C26       1.0  0.12607  0.46045  0.08505  1.0000
  C   C27       1.0  0.08295  0.41799  0.21337  1.0000
  H   H29       1.0  0.26742  0.36268  0.04731  1.0000
  C   C28       1.0  0.24376  0.35853  0.00038  1.0000
  H   H30       1.0  0.00638  0.37844  0.20843  1.0000
  C   C29       1.0  0.05227  0.47827  0.98137  1.0000
  H   H31       1.0  0.04007  0.47783  0.01847  1.0000
  H   H32       1.0  0.06223  0.47167  0.99220  1.0000
  C   C30       1.0  0.28960  0.40914  0.00800  1.0000
  C   C31       1.0  0.25747  0.32365  0.05818  1.0000
  H   H33       1.0  0.02682  0.46113  0.17228  1.0000
  C   C32       1.0  0.02030  0.37851  0.19757  1.0000
  C   C33       1.0  0.18191  0.34047  0.21988  1.0000
  H   H34       1.0  0.11822  0.40405  0.14623  1.0000
  C   C34       1.0  0.05512  0.42823  0.18279  1.0000
  C   C35       1.0  0.09941  0.44261  0.10253  1.0000
  H   H35       1.0  0.04837  0.46103  0.15302  1.0000
  H   H36       1.0  0.14181  0.46077  0.08024  1.0000
  H   H37       1.0  0.08974  0.46501  0.16256  1.0000
  C   C36       1.0  0.30351  0.30268  0.12855  1.0000
  H   H38       1.0  0.29052  0.29841  0.09662  1.0000
  C   C37       1.0  0.12545  0.37281  0.20436  1.0000
  H   H39       1.0  0.25120  0.34395  0.00734  1.0000
  H   H40       1.0  0.22121  0.36817  0.98163  1.0000
  S   S10       1.0  0.30175  0.34728  0.98699  1.0000
  H   H41       1.0  0.21244  0.39386  0.07998  1.0000
  H   H42       1.0  0.27190  0.31335  0.15770  1.0000
  H   H43       1.0  0.10828  0.44846  0.14894  1.0000
  H   H44       1.0  0.11072  0.37964  0.14981  1.0000
  H   H45       1.0  0.08514  0.45865  0.14043  1.0000
  C   C38       1.0  0.14672  0.39367  0.21148  1.0000
  H   H46       1.0  0.04955  0.42447  0.15406  1.0000
  H   H47       1.0  0.04988  0.39246  0.17339  1.0000
  C   C39       1.0  0.24195  0.47676  0.10450  1.0000
  H   H48       1.0  0.09534  0.41382  0.17698  1.0000
  S   S11       1.0  0.31005  0.31794  0.03952  1.0000
  H   H49       1.0  0.18832  0.39736  0.07305  1.0000
  H   H50       1.0  0.21745  0.34599  0.99949  1.0000
  H   H51       1.0  0.06634  0.43851  0.17779  1.0000
  H   H52       1.0  0.25505  0.36583  0.98942  1.0000
  C   C40       1.0  0.05350  0.39129  0.18808  1.0000
  H   H53       1.0  0.23272  0.40651  0.03494  1.0000
  H   H54       1.0  0.22107  0.36455  0.02490  1.0000
  H   H55       1.0  0.22067  0.47101  0.08925  1.0000
  H   H56       1.0  0.25001  0.46112  0.10528  1.0000
  H   H57       1.0  0.06966  0.45911  0.10288  1.0000
  H   H58       1.0  0.24278  0.38988  0.05429  1.0000
  H   H59       1.0  0.09446  0.42925  0.11120  1.0000
  H   H60       1.0  0.05430  0.40858  0.21934  1.0000
  H   H61       1.0  0.02540  0.40629  0.20380  1.0000
  H   H62       1.0  0.07861  0.43398  0.20734  1.0000
  N   N2        1.0  0.06545  0.40717  0.18877  1.0000
  H   H63       1.0  0.27250  0.37849  0.00509  1.0000
  H   H64       1.0  0.21206  0.37112  0.05710  1.0000
  H   H65       1.0  0.26252  0.31646  0.13513  1.0000
  H   H66       1.0  0.04518  0.43408  0.19555  1.0000
  H   H67       1.0  0.22554  0.38615  0.00801  1.0000
  H   H68       1.0  0.28152  0.28308  0.12923  1.0000
  C   C41       1.0  0.24505  0.34404  0.05252  1.0000
  C   C42       1.0  0.29938  0.27562  0.07864  1.0000
  C   C43       1.0  0.06872  0.40494  0.20954  1.0000
  H   H69       1.0  0.23282  0.34118  0.04612  1.0000
  H   H70       1.0  0.23870  0.35035  0.06611  1.0000
  C   C44       1.0  0.21294  0.38702  0.05117  1.0000
  H   H71       1.0  0.09337  0.38797  0.18166  1.0000
  C   C45       1.0  0.03527  0.45361  0.15993  1.0000
  H   H72       1.0  0.26968  0.32524  0.06540  1.0000
  H   H73       1.0  0.29035  0.26486  0.08845  1.0000
  C   C46       1.0  0.27421  0.39918  0.02344  1.0000
  H   H74       1.0  0.29974  0.39791  0.99976  1.0000
  H   H75       1.0  0.20476  0.41536  0.06254  1.0000
  H   H76       1.0  0.23673  0.34447  0.97840  1.0000
  H   H77       1.0  0.02543  0.45538  0.14897  1.0000
  H   H78       1.0  0.09857  0.41287  0.20678  1.0000
  H   H79       1.0  0.29053  0.28433  0.06752  1.0000
  C   C47       1.0  0.09660  0.46194  0.14771  1.0000
  H   H80       1.0  0.31311  0.26720  0.07107  1.0000
  H   H81       1.0  0.11385  0.47531  0.12173  1.0000
  H   H82       1.0  0.02791  0.36277  0.19748  1.0000
  C   C48       1.0  0.13148  0.38185  0.21771  1.0000
  H   H83       1.0  0.29752  0.06617  0.21702  1.0000
  H   H84       1.0  0.30951  0.26564  0.11428  1.0000
  H   H85       1.0  0.31315  0.05289  0.19192  1.0000
  Fe  Fe5       1.0  0.31339  0.34210  0.05514  1.0000
  H   H86       1.0  0.23123  0.47790  0.11827  1.0000
  C   C49       1.0  0.09159  0.47679  0.08627  1.0000
  H   H87       1.0  0.17469  0.47461  0.05260  1.0000
  C   C50       1.0  0.11196  0.47709  0.07949  1.0000
  H   H88       1.0  0.31334  0.30047  0.07971  1.0000
  H   H89       1.0  0.03701  0.38405  0.21765  1.0000
  H   H90       1.0  0.21266  0.37509  0.19469  1.0000
  H   H91       1.0  0.18861  0.32956  0.20976  1.0000
  H   H92       1.0  0.19223  0.36757  0.18739  1.0000
  H   H93       1.0  0.21470  0.34980  0.19033  1.0000
  H   H94       1.0  0.16842  0.34901  0.21412  1.0000
  C   C51       1.0  0.20435  0.36249  0.19618  1.0000
  C   C52       1.0  0.31719  0.27811  0.10572  1.0000
  Fe  Fe6       1.0  0.31927  0.33840  0.01189  1.0000
  H   H95       1.0  0.14670  0.32987  0.21669  1.0000
  C   C53       1.0  0.19578  0.35623  0.21759  1.0000
  H   H96       1.0  0.31928  0.02377  0.21337  1.0000
  H   H97       1.0  0.16028  0.07493  0.43652  1.0000
  H   H98       1.0  0.17383  0.06364  0.39560  1.0000
  S   S12       1.0  0.13596  0.12093  0.43430  1.0000
  C   C54       1.0  0.99132  0.11224  0.44329  1.0000
  C   C55       1.0  0.00403  0.35475  0.25329  1.0000
  S   S13       1.0  0.08035  0.11028  0.44772  1.0000
  H   H99       1.0  0.99019  0.40844  0.44899  1.0000
  H   H100      1.0  0.10612  0.22411  0.43057  1.0000
  H   H101      1.0  0.22204  0.28527  0.25952  1.0000
  H   H102      1.0  0.07056  0.23582  0.36513  1.0000
  C   C56       1.0  0.98865  0.13071  0.43103  1.0000
  H   H103      1.0  0.14985  0.05342  0.46683  1.0000
  S   S14       1.0  0.31044  0.09020  0.27106  1.0000
  H   H104      1.0  0.02385  0.41119  0.27927  1.0000
  C   C57       1.0  0.12239  0.06796  0.45461  1.0000
  H   H105      1.0  0.15258  0.35454  0.24566  1.0000
  H   H106      1.0  0.04027  0.01251  0.36775  1.0000
  C   C58       1.0  0.01349  0.04907  0.41833  1.0000
  N   N3        1.0  0.12656  0.05271  0.44107  1.0000
  H   H107      1.0  0.10147  0.18452  0.41964  1.0000
  H   H108      1.0  0.26790  0.06591  0.24320  1.0000
  H   H109      1.0  0.19010  0.30867  0.26244  1.0000
  Fe  Fe7       1.0  0.17233  0.20454  0.36433  1.0000
  S   S15       1.0  0.20201  0.18841  0.37106  1.0000
  S   S16       1.0  0.14635  0.19020  0.36294  1.0000
  Fe  Fe8       1.0  0.18330  0.24548  0.36137  1.0000
  S   S17       1.0  0.21408  0.23294  0.36838  1.0000
  S   S18       1.0  0.16939  0.27820  0.35643  1.0000
  Fe  Fe9       1.0  0.21485  0.21153  0.34788  1.0000
  S   S19       1.0  0.24086  0.20471  0.32392  1.0000
  Fe  Fe10      1.0  0.19880  0.21073  0.39124  1.0000
  S   S20       1.0  0.20526  0.19596  0.42119  1.0000
  S   S21       1.0  0.18528  0.22577  0.33925  1.0000
  S   S22       1.0  0.16806  0.22503  0.38600  1.0000
  Fe  Fe11      1.0  0.07181  0.36732  0.28051  1.0000
  S   S23       1.0  0.06501  0.33709  0.29601  1.0000
  S   S24       1.0  0.06454  0.39637  0.29238  1.0000
  Fe  Fe12      1.0  0.09020  0.35276  0.24240  1.0000
  S   S25       1.0  0.08391  0.32176  0.25459  1.0000
  H   H110      1.0  0.05272  0.40552  0.45044  1.0000
  Fe  Fe13      1.0  0.05407  0.33601  0.26860  1.0000
  S   S26       1.0  0.02695  0.32138  0.27090  1.0000
  Fe  Fe14      1.0  0.09550  0.32535  0.28073  1.0000
  S   S27       1.0  0.11826  0.29822  0.28876  1.0000
  S   S28       1.0  0.05909  0.36691  0.25392  1.0000
  S   S29       1.0  0.10334  0.35574  0.26767  1.0000
  C   C59       1.0  0.15611  0.28546  0.33681  1.0000
  C   C60       1.0  0.13918  0.30045  0.33773  1.0000
  C   C61       1.0  0.12771  0.30527  0.32269  1.0000
  C   C62       1.0  0.13330  0.29520  0.30667  1.0000
  C   C63       1.0  0.15068  0.28091  0.30542  1.0000
  C   C64       1.0  0.16202  0.27606  0.32039  1.0000
  H   H111      1.0  0.13463  0.30792  0.35033  1.0000
  H   H112      1.0  0.11431  0.31633  0.32377  1.0000
  H   H113      1.0  0.15527  0.27333  0.29291  1.0000
  H   H114      1.0  0.17541  0.26509  0.31918  1.0000
  C   C65       1.0  0.20085  0.20851  0.44148  1.0000
  H   H115      1.0  0.12438  0.37984  0.23278  1.0000
  C   C66       1.0  0.26684  0.13949  0.31809  1.0000
  C   C67       1.0  0.27114  0.15491  0.30276  1.0000
  C   C68       1.0  0.26302  0.17489  0.30467  1.0000
  C   C69       1.0  0.25066  0.17954  0.32193  1.0000
  C   C70       1.0  0.24675  0.16414  0.33740  1.0000
  C   C71       1.0  0.25468  0.14416  0.33544  1.0000
  H   H116      1.0  0.28038  0.15145  0.28927  1.0000
  H   H117      1.0  0.26620  0.18678  0.29268  1.0000
  H   H118      1.0  0.23782  0.16766  0.35095  1.0000
  H   H119      1.0  0.25137  0.13231  0.34740  1.0000
  C   C72       1.0  0.07410  0.26218  0.31895  1.0000
  H   H120      1.0  0.00741  0.00338  0.36976  1.0000
  H   H121      1.0  0.31115  0.12848  0.32826  1.0000
  H   H122      1.0  0.09162  0.20647  0.44585  1.0000
  C   C73       1.0  0.30999  0.02907  0.29087  1.0000
  C   C74       1.0  0.29762  0.01479  0.29205  1.0000
  H   H123      1.0  0.30365  0.04470  0.29069  1.0000
  H   H124      1.0  0.28171  0.01945  0.29277  1.0000
  C   C75       1.0  0.11150  0.07747  0.41304  1.0000
  H   H125      1.0  0.30836  0.18303  0.36113  1.0000
  C   C76       1.0  0.03725  0.41567  0.31902  1.0000
  C   C77       1.0  0.04666  0.39710  0.31380  1.0000
  C   C78       1.0  0.04173  0.37949  0.32572  1.0000
  C   C79       1.0  0.02295  0.41662  0.33604  1.0000
  H   H126      1.0  0.04100  0.42934  0.30988  1.0000
  H   H127      1.0  0.02489  0.03906  0.44493  1.0000
  H   H128      1.0  0.23918  0.28700  0.23680  1.0000
  H   H129      1.0  0.09390  0.09628  0.39232  1.0000
  H   H130      1.0  0.01968  0.45337  0.39816  1.0000
  H   H131      1.0  0.01592  0.43099  0.34005  1.0000
  H   H132      1.0  0.13393  0.33226  0.24101  1.0000
  C   C80       1.0  0.13779  0.14121  0.41544  1.0000
  C   C81       1.0  0.12327  0.14719  0.40348  1.0000
  C   C82       1.0  0.12577  0.16244  0.38738  1.0000
  C   C83       1.0  0.14236  0.17219  0.38377  1.0000
  C   C84       1.0  0.15618  0.16696  0.39648  1.0000
  C   C85       1.0  0.15418  0.15115  0.41198  1.0000
  H   H133      1.0  0.11045  0.13963  0.40627  1.0000
  H   H134      1.0  0.11497  0.16652  0.37769  1.0000
  H   H135      1.0  0.16863  0.17482  0.39425  1.0000
  H   H136      1.0  0.16524  0.14675  0.42144  1.0000
  C   C86       1.0  0.01959  0.13802  0.43718  1.0000
  H   H137      1.0  0.18716  0.36985  0.22328  1.0000
  H   H138      1.0  0.13861  0.21988  0.28771  1.0000
  H   H139      1.0  0.12551  0.24550  0.44186  1.0000
  H   H140      1.0  0.09177  0.07007  0.39603  1.0000
  H   H141      1.0  0.12914  0.29667  0.24654  1.0000
  H   H142      1.0  0.11928  0.25836  0.30863  1.0000
  H   H143      1.0  0.11224  0.04603  0.41908  1.0000
  C   C87       1.0  0.28156  0.21530  0.34944  1.0000
  H   H144      1.0  0.04904  0.36514  0.32197  1.0000
  H   H145      1.0  0.31593  0.01463  0.25048  1.0000
  C   C88       1.0  0.13884  0.23727  0.43370  1.0000
  H   H146      1.0  0.03763  0.00878  0.39384  1.0000
  Fe  Fe15      1.0  0.10514  0.12470  0.45159  1.0000
  C   C89       1.0  0.13338  0.30465  0.23157  1.0000
  H   H147      1.0  0.07752  0.26422  0.34782  1.0000
  N   N4        1.0  0.10413  0.24475  0.33621  1.0000
  C   C90       1.0  0.15530  0.33614  0.27364  1.0000
  C   C91       1.0  0.00521  0.33473  0.26226  1.0000
  C   C92       1.0  0.11103  0.05791  0.42798  1.0000
  C   C93       1.0  0.15686  0.07047  0.42354  1.0000
  C   C94       1.0  0.14821  0.35244  0.28644  1.0000
  H   H148      1.0  0.01311  0.39791  0.26556  1.0000
  C   C95       1.0  0.07441  0.20386  0.36877  1.0000
  H   H149      1.0  0.26635  0.22212  0.34651  1.0000
  H   H150      1.0  0.31000  0.05200  0.32522  1.0000
  H   H151      1.0  0.04927  0.46529  0.36235  1.0000
  C   C96       1.0  0.03341  0.00383  0.38147  1.0000
  H   H152      1.0  0.01561  0.45198  0.45003  1.0000
  C   C97       1.0  0.12498  0.01493  0.44270  1.0000
  H   H153      1.0  0.09415  0.27650  0.32923  1.0000
  H   H154      1.0  0.06564  0.20247  0.38374  1.0000
  H   H155      1.0  0.16586  0.32444  0.28103  1.0000
  H   H156      1.0  0.14226  0.32937  0.27304  1.0000
  H   H157      1.0  0.16780  0.24442  0.41865  1.0000
  H   H158      1.0  0.13517  0.02804  0.46329  1.0000
  H   H159      1.0  0.08280  0.26286  0.30398  1.0000
  C   C98       1.0  0.12655  0.99494  0.45654  1.0000
  N   N5        1.0  0.02235  0.46900  0.42091  1.0000
  H   H160      1.0  0.29185  0.22612  0.34249  1.0000
  H   H161      1.0  0.12850  0.25761  0.34100  1.0000
  H   H162      1.0  0.04846  0.28029  0.30741  1.0000
  H   H163      1.0  0.13827  0.36520  0.27942  1.0000
  H   H164      1.0  0.13982  0.34617  0.30061  1.0000
  H   H165      1.0  0.16116  0.35803  0.28926  1.0000
  C   C99       1.0  0.28029  0.05035  0.33983  1.0000
  H   H166      1.0  0.28022  0.03548  0.33603  1.0000
  H   H167      1.0  0.27075  0.05175  0.35421  1.0000
  H   H168      1.0  0.27388  0.06212  0.32870  1.0000
  C   C100      1.0  0.10229  0.20076  0.41654  1.0000
  H   H169      1.0  0.99095  0.02762  0.44660  1.0000
  C   C101      1.0  0.29867  0.05590  0.23094  1.0000
  H   H170      1.0  0.04459  0.45571  0.39880  1.0000
  H   H171      1.0  0.07931  0.08536  0.41431  1.0000
  H   H172      1.0  0.30110  0.17087  0.31337  1.0000
  H   H173      1.0  0.00104  0.15770  0.41817  1.0000
  H   H174      1.0  0.14045  0.99201  0.46281  1.0000
  S   S30       1.0  0.27605  0.11427  0.31584  1.0000
  H   H175      1.0  0.01447  0.03371  0.41529  1.0000
  H   H176      1.0  0.18730  0.05529  0.41584  1.0000
  Fe  Fe16      1.0  0.07469  0.98818  0.43517  1.0000
  S   S31       1.0  0.08649  0.15485  0.45273  1.0000
  C   C102      1.0  0.15410  0.25151  0.42736  1.0000
  C   C103      1.0  0.02196  0.11978  0.44966  1.0000
  H   H177      1.0  0.20085  0.18105  0.46193  1.0000
  C   C104      1.0  0.08758  0.26241  0.33385  1.0000
  S   S32       1.0  0.00076  0.39978  0.36969  1.0000
  H   H178      1.0  0.10650  0.06946  0.46201  1.0000
  C   C105      1.0  0.13714  0.22960  0.31545  1.0000
  H   H179      1.0  0.15798  0.25580  0.44024  1.0000
  H   H180      1.0  0.08647  0.19069  0.36806  1.0000
  H   H181      1.0  0.06405  0.29442  0.31481  1.0000
  C   C106      1.0  0.01164  0.04880  0.44013  1.0000
  C   C107      1.0  0.09629  0.22524  0.34363  1.0000
  H   H182      1.0  0.05270  0.47214  0.42124  1.0000
  H   H183      1.0  0.04759  0.28021  0.33295  1.0000
  H   H184      1.0  0.14717  0.24347  0.28559  1.0000
  H   H185      1.0  0.12265  0.24022  0.38863  1.0000
  S   S33       1.0  0.06620  0.02165  0.43191  1.0000
  H   H186      1.0  0.28756  0.19940  0.32535  1.0000
  C   C108      1.0  0.02900  0.46382  0.40063  1.0000
  H   H187      1.0  0.13803  0.01418  0.43079  1.0000
  H   H188      1.0  0.30084  0.06846  0.34295  1.0000
  H   H189      1.0  0.03468  0.11553  0.45701  1.0000
  C   C109      1.0  0.28809  0.19575  0.34114  1.0000
  H   H190      1.0  0.11123  0.01643  0.43645  1.0000
  C   C110      1.0  0.08318  0.22328  0.36402  1.0000
  H   H191      1.0  0.12611  0.23377  0.35515  1.0000
  C   C111      1.0  0.31109  0.03703  0.35561  1.0000
  Fe  Fe17      1.0  0.30503  0.10862  0.29505  1.0000
  C   C112      1.0  0.11648  0.24327  0.31628  1.0000
  H   H192      1.0  0.02318  0.46516  0.36241  1.0000
  C   C113      1.0  0.30156  0.05309  0.34006  1.0000
  C   C114      1.0  0.19907  0.19718  0.46021  1.0000
  C   C115      1.0  0.05791  0.05525  0.44837  1.0000
  H   H193      1.0  0.09596  0.05871  0.43703  1.0000
  H   H194      1.0  0.06694  0.24858  0.32264  1.0000
  H   H195      1.0  0.12469  0.07555  0.40138  1.0000
  N   N6        1.0  0.19264  0.13341  0.34369  1.0000
  C   C116      1.0  0.21112  0.12343  0.33184  1.0000
  C   C117      1.0  0.19845  0.13938  0.36083  1.0000
  C   C118      1.0  0.17797  0.11893  0.35018  1.0000
  C   C119      1.0  0.18308  0.15207  0.33188  1.0000
  C   C120      1.0  0.19705  0.16746  0.32162  1.0000
  C   C121      1.0  0.20842  0.11804  0.31243  1.0000
  C   C122      1.0  0.15879  0.12589  0.36428  1.0000
  C   C123      1.0  0.20566  0.12208  0.37657  1.0000
  C   C124      1.0  0.21174  0.13030  0.39261  1.0000
  C   C125      1.0  0.18562  0.18583  0.31061  1.0000
  C   C126      1.0  0.22854  0.11017  0.30085  1.0000
  C   C127      1.0  0.14563  0.10960  0.37066  1.0000
  H   H196      1.0  0.21754  0.10923  0.34037  1.0000
  H   H197      1.0  0.22298  0.13289  0.32847  1.0000
  H   H198      1.0  0.21074  0.14831  0.35578  1.0000
  H   H199      1.0  0.18595  0.14957  0.36813  1.0000
  H   H200      1.0  0.18531  0.10418  0.35705  1.0000
  H   H201      1.0  0.17284  0.11581  0.33738  1.0000
  H   H202      1.0  0.17586  0.14825  0.32076  1.0000
  H   H203      1.0  0.17067  0.16024  0.34133  1.0000
  H   H204      1.0  0.20942  0.16101  0.31096  1.0000
  H   H205      1.0  0.20355  0.17279  0.33232  1.0000
  H   H206      1.0  0.19898  0.10618  0.31527  1.0000
  H   H207      1.0  0.20149  0.13122  0.30304  1.0000
  H   H208      1.0  0.14986  0.13940  0.35712  1.0000
  H   H209      1.0  0.16233  0.12945  0.37761  1.0000
  H   H210      1.0  0.19372  0.11311  0.38352  1.0000
  H   H211      1.0  0.21882  0.11199  0.37027  1.0000
  H   H212      1.0  0.19901  0.14045  0.39959  1.0000
  H   H213      1.0  0.21650  0.11777  0.40394  1.0000
  H   H214      1.0  0.22434  0.13872  0.38657  1.0000
  H   H215      1.0  0.17949  0.18161  0.29899  1.0000
  H   H216      1.0  0.17323  0.19312  0.32075  1.0000
  H   H217      1.0  0.19583  0.19680  0.30382  1.0000
  H   H218      1.0  0.22626  0.10576  0.28734  1.0000
  H   H219      1.0  0.23817  0.12198  0.29668  1.0000
  H   H220      1.0  0.15370  0.09589  0.37845  1.0000
  H   H221      1.0  0.13203  0.11495  0.38072  1.0000
  H   H222      1.0  0.14096  0.10592  0.35790  1.0000
  C   C128      1.0  0.30485  0.15074  0.34788  1.0000
  C   C129      1.0  0.16394  0.31407  0.23969  1.0000
  Fe  Fe18      1.0  0.06095  0.13965  0.45210  1.0000
  H   H223      1.0  0.10815  0.23780  0.30705  1.0000
  C   C130      1.0  0.99223  0.04151  0.45173  1.0000
  C   C131      1.0  0.06454  0.03458  0.45124  1.0000
  C   C132      1.0  0.14409  0.32193  0.23186  1.0000
  H   H224      1.0  0.02414  0.36676  0.35219  1.0000
  C   C133      1.0  0.11728  0.24824  0.34940  1.0000
  H   H225      1.0  0.13557  0.19169  0.43040  1.0000
  C   C134      1.0  0.14719  0.21733  0.44582  1.0000
  H   H226      1.0  0.06756  0.42174  0.24282  1.0000
  H   H227      1.0  0.11265  0.26514  0.39386  1.0000
  H   H228      1.0  0.02584  0.38434  0.28523  1.0000
  H   H229      1.0  0.15854  0.20913  0.43545  1.0000
  H   H230      1.0  0.13504  0.23412  0.42031  1.0000
  H   H231      1.0  0.11963  0.31061  0.22521  1.0000
  H   H232      1.0  0.27691  0.18590  0.34814  1.0000
  C   C135      1.0  0.30019  0.11435  0.35703  1.0000
  H   H233      1.0  0.30226  0.11335  0.37229  1.0000
  H   H234      1.0  0.09244  0.22267  0.37522  1.0000
  N   N7        1.0  0.17627  0.32966  0.24026  1.0000
  H   H235      1.0  0.09253  0.25493  0.37393  1.0000
  H   H236      1.0  0.14766  0.04510  0.41573  1.0000
  H   H237      1.0  0.06437  0.20378  0.35845  1.0000
  H   H238      1.0  0.05357  0.08259  0.45995  1.0000
  C   C136      1.0  0.01600  0.39836  0.28026  1.0000
  H   H239      1.0  0.12684  0.98256  0.44850  1.0000
  H   H240      1.0  0.17261  0.30314  0.23030  1.0000
  C   C137      1.0  0.19529  0.23870  0.45601  1.0000
  H   H241      1.0  0.11200  0.09052  0.41974  1.0000
  C   C138      1.0  0.10519  0.20801  0.43462  1.0000
  H   H242      1.0  0.20110  0.23814  0.42503  1.0000
  C   C139      1.0  0.31247  0.12916  0.34340  1.0000
  H   H243      1.0  0.30096  0.03796  0.36985  1.0000
  C   C140      1.0  0.01825  0.39898  0.34807  1.0000
  H   H244      1.0  0.16991  0.17838  0.44912  1.0000
  H   H245      1.0  0.10888  0.21257  0.34456  1.0000
  H   H246      1.0  0.14784  0.26530  0.41818  1.0000
  C   C141      1.0  0.19915  0.22932  0.43941  1.0000
  H   H247      1.0  0.08790  0.22198  0.33315  1.0000
  H   H248      1.0  0.05292  0.06264  0.43490  1.0000
  C   C142      1.0  0.14737  0.05105  0.42929  1.0000
  H   H249      1.0  0.15797  0.03980  0.43727  1.0000
  H   H250      1.0  0.28107  0.21248  0.36543  1.0000
  H   H251      1.0  0.23633  0.09689  0.30952  1.0000
  H   H252      1.0  0.30742  0.19147  0.28077  1.0000
  H   H253      1.0  0.14298  0.29389  0.22248  1.0000
  H   H254      1.0  0.16250  0.22050  0.29374  1.0000
  C   C143      1.0  0.05754  0.28038  0.31860  1.0000
  H   H255      1.0  0.18291  0.08149  0.40568  1.0000
  H   H256      1.0  0.01185  0.06431  0.44219  1.0000
  H   H257      1.0  0.08818  0.20896  0.41187  1.0000
  H   H258      1.0  0.12360  0.08314  0.44643  1.0000
  H   H259      1.0  0.01678  0.36226  0.25118  1.0000
  H   H260      1.0  0.03417  0.42058  0.46550  1.0000
  H   H261      1.0  0.30504  0.09936  0.35265  1.0000
  C   C144      1.0  0.15791  0.17138  0.45928  1.0000
  C   C145      1.0  0.12006  0.25630  0.38215  1.0000
  H   H262      1.0  0.20173  0.33000  0.25364  1.0000
  H   H263      1.0  0.28413  0.11893  0.35618  1.0000
  C   C146      1.0  0.30587  0.99454  0.29187  1.0000
  C   C147      1.0  0.14690  0.22829  0.29433  1.0000
  S   S34       1.0  0.03750  0.15377  0.43355  1.0000
  C   C148      1.0  0.12383  0.03272  0.45358  1.0000
  H   H264      1.0  0.30262  0.15040  0.36388  1.0000
  C   C149      1.0  0.10693  0.25954  0.36664  1.0000
  C   C150      1.0  0.09299  0.08253  0.40335  1.0000
  H   H265      1.0  0.14732  0.23572  0.32210  1.0000
  H   H266      1.0  0.31778  0.00117  0.37888  1.0000
  H   H267      1.0  0.23481  0.30672  0.25122  1.0000
  H   H268      1.0  0.14694  0.08324  0.41672  1.0000
  H   H269      1.0  0.19408  0.25480  0.45431  1.0000
  C   C151      1.0  0.99649  0.40079  0.29467  1.0000
  H   H270      1.0  0.30801  0.99239  0.23032  1.0000
  H   H271      1.0  0.13596  0.21419  0.32315  1.0000
  H   H272      1.0  0.08749  0.40056  0.24167  1.0000
  C   C152      1.0  0.02769  0.38043  0.34289  1.0000
  C   C153      1.0  0.04117  0.43458  0.43522  1.0000
  H   H273      1.0  0.28956  0.15483  0.34428  1.0000
  C   C154      1.0  0.17643  0.06744  0.40927  1.0000
  H   H274      1.0  0.20849  0.35064  0.22549  1.0000
  H   H275      1.0  0.15064  0.16375  0.45092  1.0000
  H   H276      1.0  0.13458  0.26125  0.37574  1.0000
  H   H277      1.0  0.10393  0.27588  0.36113  1.0000
  C   C155      1.0  0.12368  0.19547  0.44286  1.0000
  H   H278      1.0  0.31812  0.06585  0.36858  1.0000
  C   C156      1.0  0.05853  0.06664  0.46242  1.0000
  C   C157      1.0  0.00287  0.14357  0.42789  1.0000
  N   N8        1.0  0.13210  0.20426  0.45680  1.0000
  H   H279      1.0  0.02734  0.05483  0.41060  1.0000
  H   H280      1.0  0.11483  0.20352  0.40443  1.0000
  H   H281      1.0  0.28381  0.05601  0.26110  1.0000
  C   C158      1.0  0.07051  0.02507  0.46886  1.0000
  C   C159      1.0  0.30924  0.18562  0.34506  1.0000
  H   H282      1.0  0.16040  0.30506  0.25439  1.0000
  C   C160      1.0  0.01076  0.00744  0.38290  1.0000
  C   C161      1.0  0.31675  0.16875  0.31578  1.0000
  H   H283      1.0  0.03133  0.47307  0.45690  1.0000
  H   H284      1.0  0.15143  0.40054  0.22186  1.0000
  H   H285      1.0  0.99441  0.36990  0.30540  1.0000
  H   H286      1.0  0.29460  0.04136  0.23017  1.0000
  C   C162      1.0  0.16475  0.34482  0.25277  1.0000
  H   H287      1.0  0.28519  0.08065  0.24671  1.0000
  C   C163      1.0  0.00062  0.99556  0.40199  1.0000
  H   H288      1.0  0.15604  0.22069  0.45588  1.0000
  H   H289      1.0  0.11877  0.18096  0.45013  1.0000
  H   H290      1.0  0.00896  0.97994  0.40376  1.0000
  H   H291      1.0  0.98750  0.41521  0.28959  1.0000
  H   H292      1.0  0.09321  0.42554  0.23757  1.0000
  H   H293      1.0  0.21733  0.31620  0.22256  1.0000
  H   H294      1.0  0.11349  0.99491  0.46850  1.0000
  C   C164      1.0  0.00802  0.10689  0.45256  1.0000
  H   H295      1.0  0.31058  0.02228  0.35170  1.0000
  H   H296      1.0  0.04649  0.42908  0.42111  1.0000
  H   H297      1.0  0.03957  0.98771  0.38139  1.0000
  H   H298      1.0  0.30550  0.98407  0.35183  1.0000
  H   H299      1.0  0.05290  0.44162  0.43853  1.0000
  H   H300      1.0  0.00018  0.40195  0.30886  1.0000
  C   C165      1.0  0.22769  0.29577  0.24653  1.0000
  C   C166      1.0  0.28302  0.06517  0.24651  1.0000
  H   H301      1.0  0.00058  0.05904  0.41270  1.0000
  H   H302      1.0  0.20450  0.29505  0.23096  1.0000
  C   C167      1.0  0.02132  0.44949  0.43482  1.0000
  H   H303      1.0  0.02451  0.00893  0.46141  1.0000
  N   N9        1.0  0.31744  0.16631  0.33718  1.0000
  H   H304      1.0  0.10917  0.03405  0.46344  1.0000
  C   C168      1.0  0.19448  0.31915  0.24890  1.0000
  H   H305      1.0  0.10596  0.22719  0.46163  1.0000
  C   C169      1.0  0.03849  0.41620  0.45082  1.0000
  H   H306      1.0  0.17458  0.35524  0.25421  1.0000
  H   H307      1.0  0.98729  0.37822  0.28242  1.0000
  C   C170      1.0  0.08271  0.41634  0.23518  1.0000
  H   H308      1.0  0.02684  0.40848  0.44825  1.0000
  H   H309      1.0  0.01027  0.44155  0.43131  1.0000
  H   H310      1.0  0.00561  0.02376  0.38245  1.0000
  H   H311      1.0  0.17872  0.14428  0.46628  1.0000
  H   H312      1.0  0.31955  0.19673  0.33946  1.0000
  H   H313      1.0  0.01041  0.09276  0.46202  1.0000
  C   C171      1.0  0.21072  0.30658  0.23571  1.0000
  C   C172      1.0  0.14262  0.18715  0.46974  1.0000
  C   C173      1.0  0.98853  0.32514  0.26491  1.0000
  H   H314      1.0  0.00365  0.00216  0.41400  1.0000
  H   H315      1.0  0.98938  0.30964  0.27178  1.0000
  C   C174      1.0  0.03412  0.47434  0.36395  1.0000
  H   H316      1.0  0.99327  0.47726  0.41207  1.0000
  C   C175      1.0  0.11553  0.21532  0.46997  1.0000
  C   C176      1.0  0.13609  0.06424  0.47026  1.0000
  H   H317      1.0  0.13344  0.23515  0.47753  1.0000
  H   H318      1.0  0.14038  0.20629  0.64878  1.0000
  C   C177      1.0  0.99096  0.39305  0.62767  1.0000
  C   C178      1.0  0.13708  0.20877  0.63377  1.0000
  S   S35       1.0  0.08189  0.16802  0.50269  1.0000
  H   H319      1.0  0.98997  0.46177  0.59907  1.0000
  Fe  Fe19      1.0  0.03375  0.43240  0.52786  1.0000
  H   H320      1.0  0.14740  0.98357  0.57746  1.0000
  S   S36       1.0  0.06271  0.41236  0.53272  1.0000
  H   H321      1.0  0.09590  0.46805  0.51279  1.0000
  C   C179      1.0  0.30679  0.17080  0.56453  1.0000
  N   N10       1.0  0.00867  0.40328  0.62677  1.0000
  C   C180      1.0  0.12566  0.45492  0.71810  1.0000
  H   H322      1.0  0.07634  0.02938  0.49639  1.0000
  H   H323      1.0  0.07853  0.46535  0.48662  1.0000
  Fe  Fe20      1.0  0.29969  0.12892  0.64517  1.0000
  S   S37       1.0  0.30809  0.10480  0.66992  1.0000
  S   S38       1.0  0.26775  0.14480  0.64497  1.0000
  H   H324      1.0  0.23671  0.06080  0.61981  1.0000
  C   C181      1.0  0.06581  0.05748  0.47943  1.0000
  H   H325      1.0  0.15081  0.19287  0.47890  1.0000
  C   C182      1.0  0.21789  0.12251  0.60582  1.0000
  H   H326      1.0  0.31407  0.07138  0.52003  1.0000
  C   C183      1.0  0.26825  0.22901  0.55339  1.0000
  H   H327      1.0  0.26372  0.02541  0.59871  1.0000
  H   H328      1.0  0.11718  0.42860  0.56700  1.0000
  H   H329      1.0  0.08673  0.18145  0.62940  1.0000
  H   H330      1.0  0.02824  0.01949  0.48154  1.0000
  C   C184      1.0  0.09803  0.45621  0.55790  1.0000
  C   C185      1.0  0.98776  0.43882  0.62503  1.0000
  Fe  Fe21      1.0  0.06995  0.34942  0.65540  1.0000
  S   S39       1.0  0.08549  0.35397  0.62430  1.0000
  S   S40       1.0  0.03732  0.34539  0.66539  1.0000
  Fe  Fe22      1.0  0.10441  0.36146  0.67090  1.0000
  S   S41       1.0  0.12196  0.36706  0.64077  1.0000
  S   S42       1.0  0.11210  0.36718  0.69911  1.0000
  Fe  Fe23      1.0  0.09284  0.38161  0.63152  1.0000
  S   S43       1.0  0.08603  0.41208  0.61399  1.0000
  Fe  Fe24      1.0  0.11328  0.33849  0.63637  1.0000
  S   S44       1.0  0.13910  0.31838  0.62074  1.0000
  S   S45       1.0  0.07582  0.37813  0.66179  1.0000
  S   S46       1.0  0.09728  0.33184  0.66729  1.0000
  Fe  Fe25      1.0  0.16730  0.18484  0.54919  1.0000
  S   S47       1.0  0.19761  0.18835  0.53222  1.0000
  S   S48       1.0  0.15428  0.15768  0.54758  1.0000
  Fe  Fe26      1.0  0.16352  0.22254  0.56720  1.0000
  S   S49       1.0  0.19377  0.22903  0.55138  1.0000
  S   S50       1.0  0.13830  0.24014  0.58612  1.0000
  Fe  Fe27      1.0  0.18497  0.22081  0.52540  1.0000
  S   S51       1.0  0.18827  0.23960  0.49534  1.0000
  Fe  Fe28      1.0  0.20414  0.19573  0.55956  1.0000
  S   S52       1.0  0.23479  0.17981  0.56589  1.0000
  S   S53       1.0  0.15409  0.21682  0.54057  1.0000
  S   S54       1.0  0.17453  0.18979  0.57716  1.0000
  H   H331      1.0  0.07701  0.15970  0.60980  1.0000
  H   H332      1.0  0.22077  0.10052  0.63120  1.0000
  H   H333      1.0  0.29335  0.05274  0.66882  1.0000
  H   H334      1.0  0.15099  0.16047  0.61396  1.0000
  C   C186      1.0  0.02843  0.36484  0.53253  1.0000
  C   C187      1.0  0.03171  0.41264  0.66964  1.0000
  H   H335      1.0  0.31133  0.17512  0.54852  1.0000
  H   H336      1.0  0.06574  0.15419  0.64569  1.0000
  C   C188      1.0  0.13872  0.29596  0.61231  1.0000
  C   C189      1.0  0.15632  0.28677  0.60167  1.0000
  C   C190      1.0  0.15654  0.26951  0.59374  1.0000
  C   C191      1.0  0.13911  0.26130  0.59641  1.0000
  C   C192      1.0  0.12157  0.27031  0.60729  1.0000
  C   C193      1.0  0.12134  0.28761  0.61517  1.0000
  H   H337      1.0  0.16984  0.29314  0.59943  1.0000
  H   H338      1.0  0.17016  0.26265  0.58551  1.0000
  H   H339      1.0  0.10804  0.26399  0.60949  1.0000
  H   H340      1.0  0.10772  0.29455  0.62335  1.0000
  C   C194      1.0  0.02078  0.33992  0.65178  1.0000
  C   C195      1.0  0.02732  0.33456  0.63328  1.0000
  C   C196      1.0  0.01369  0.32999  0.62317  1.0000
  H   H341      1.0  0.98769  0.43837  0.64068  1.0000
  H   H342      1.0  0.03355  0.39699  0.67752  1.0000
  H   H343      1.0  0.17511  0.16180  0.48299  1.0000
  H   H344      1.0  0.04295  0.33361  0.62698  1.0000
  H   H345      1.0  0.01894  0.32553  0.60901  1.0000
  H   H346      1.0  0.28449  0.20509  0.63784  1.0000
  H   H347      1.0  0.12132  0.15554  0.58886  1.0000
  C   C197      1.0  0.19313  0.22737  0.47477  1.0000
  C   C198      1.0  0.15639  0.40148  0.68893  1.0000
  C   C199      1.0  0.14258  0.39023  0.68597  1.0000
  C   C200      1.0  0.13048  0.38074  0.70190  1.0000
  Fe  Fe29      1.0  0.01125  0.47280  0.51205  1.0000
  C   C201      1.0  0.06987  0.46792  0.50110  1.0000
  H   H348      1.0  0.16554  0.40887  0.67648  1.0000
  H   H349      1.0  0.14123  0.38900  0.67138  1.0000
  C   C202      1.0  0.15600  0.13586  0.59858  1.0000
  H   H350      1.0  0.13414  0.17807  0.63563  1.0000
  C   C203      1.0  0.25780  0.15342  0.62322  1.0000
  C   C204      1.0  0.24026  0.16763  0.62328  1.0000
  C   C205      1.0  0.23247  0.17543  0.60599  1.0000
  C   C206      1.0  0.24204  0.16880  0.58857  1.0000
  C   C207      1.0  0.25898  0.15389  0.58876  1.0000
  C   C208      1.0  0.26702  0.14642  0.60589  1.0000
  H   H351      1.0  0.23296  0.17304  0.63665  1.0000
  H   H352      1.0  0.21941  0.18692  0.60605  1.0000
  H   H353      1.0  0.26607  0.14835  0.57542  1.0000
  H   H354      1.0  0.28036  0.13533  0.60566  1.0000
  C   C209      1.0  0.28490  0.02476  0.66643  1.0000
  H   H355      1.0  0.00569  0.03548  0.50896  1.0000
  H   H356      1.0  0.00509  0.33241  0.55524  1.0000
  N   N11       1.0  0.25929  0.07804  0.62079  1.0000
  C   C210      1.0  0.15829  0.40341  0.70779  1.0000
  H   H357      1.0  0.27143  0.02652  0.67711  1.0000
  H   H358      1.0  0.20136  0.12496  0.60885  1.0000
  H   H359      1.0  0.10952  0.21067  0.61002  1.0000
  H   H360      1.0  0.09923  0.14162  0.61265  1.0000
  C   C211      1.0  0.13328  0.46685  0.69803  1.0000
  H   H361      1.0  0.02742  0.37473  0.54339  1.0000
  H   H362      1.0  0.09036  0.44836  0.55015  1.0000
  C   C212      1.0  0.29092  0.98977  0.57387  1.0000
  C   C213      1.0  0.06877  0.41158  0.55568  1.0000
  C   C214      1.0  0.05769  0.42476  0.56797  1.0000
  C   C215      1.0  0.06300  0.42462  0.58597  1.0000
  C   C216      1.0  0.07916  0.41103  0.59193  1.0000
  C   C217      1.0  0.08994  0.39732  0.57999  1.0000
  C   C218      1.0  0.08491  0.39779  0.56170  1.0000
  H   H363      1.0  0.04508  0.43516  0.56364  1.0000
  H   H364      1.0  0.05452  0.43499  0.59538  1.0000
  H   H365      1.0  0.10238  0.38672  0.58470  1.0000
  H   H366      1.0  0.09349  0.38750  0.55227  1.0000
  C   C219      1.0  0.10270  0.16480  0.51428  1.0000
  C   C220      1.0  0.10793  0.18160  0.51909  1.0000
  C   C221      1.0  0.12444  0.17969  0.52828  1.0000
  C   C222      1.0  0.13514  0.16078  0.53379  1.0000
  C   C223      1.0  0.12985  0.14389  0.52911  1.0000
  C   C224      1.0  0.11387  0.14592  0.51908  1.0000
  H   H367      1.0  0.09916  0.19612  0.51567  1.0000
  H   H368      1.0  0.12858  0.19282  0.53145  1.0000
  H   H369      1.0  0.13809  0.12920  0.53331  1.0000
  H   H370      1.0  0.10981  0.13283  0.51565  1.0000
  C   C225      1.0  0.26305  0.03955  0.62380  1.0000
  H   H371      1.0  0.28534  0.09204  0.61684  1.0000
  H   H372      1.0  0.08454  0.19913  0.59781  1.0000
  C   C226      1.0  0.29107  0.07386  0.59436  1.0000
  C   C227      1.0  0.29843  0.18281  0.59584  1.0000
  C   C228      1.0  0.29901  0.20679  0.56452  1.0000
  H   H373      1.0  0.00416  0.38409  0.51995  1.0000
  C   C229      1.0  0.28446  0.19382  0.62862  1.0000
  H   H374      1.0  0.01931  0.43104  0.61306  1.0000
  H   H375      1.0  0.28285  0.18080  0.59636  1.0000
  H   H376      1.0  0.12837  0.22404  0.63084  1.0000
  H   H377      1.0  0.02666  0.40383  0.58495  1.0000
  Fe  Fe30      1.0  0.99968  0.43438  0.50607  1.0000
  H   H378      1.0  0.26750  0.20610  0.57838  1.0000
  H   H379      1.0  0.14769  0.12688  0.59262  1.0000
  H   H380      1.0  0.07989  0.22210  0.56609  1.0000
  C   C230      1.0  0.31313  0.07589  0.59016  1.0000
  S   S55       1.0  0.17497  0.41887  0.71061  1.0000
  H   H381      1.0  0.01129  0.36063  0.51198  1.0000
  S   S56       1.0  0.02835  0.44669  0.49789  1.0000
  S   S57       1.0  0.05349  0.13172  0.48461  1.0000
  H   H382      1.0  0.04172  0.98411  0.48538  1.0000
  C   C231      1.0  0.25831  0.02313  0.61464  1.0000
  H   H383      1.0  0.29733  0.17847  0.70731  1.0000
  C   C232      1.0  0.02538  0.38943  0.59487  1.0000
  C   C233      1.0  0.31471  0.03739  0.64801  1.0000
  H   H384      1.0  0.29586  0.01939  0.57377  1.0000
  Fe  Fe31      1.0  0.07473  0.10321  0.48033  1.0000
  H   H385      1.0  0.00343  0.08132  0.50158  1.0000
  C   C234      1.0  0.98681  0.33637  0.64978  1.0000
  C   C235      1.0  0.07725  0.14313  0.63846  1.0000
  C   C236      1.0  0.30733  0.00545  0.64363  1.0000
  C   C237      1.0  0.25302  0.06059  0.61505  1.0000
  H   H386      1.0  0.10327  0.41192  0.67888  1.0000
  H   H387      1.0  0.31247  0.04406  0.56082  1.0000
  C   C238      1.0  0.25648  0.09530  0.65074  1.0000
  H   H388      1.0  0.03033  0.37637  0.62433  1.0000
  C   C239      1.0  0.09805  0.18980  0.59079  1.0000
  C   C240      1.0  0.00547  0.42434  0.61579  1.0000
  H   H389      1.0  0.04116  0.38628  0.50878  1.0000
  N   N12       1.0  0.30872  0.18726  0.57502  1.0000
  H   H390      1.0  0.98891  0.30361  0.57226  1.0000
  H   H391      1.0  0.13370  0.19934  0.60036  1.0000
  C   C241      1.0  0.12768  0.16516  0.59612  1.0000
  H   H392      1.0  0.30931  0.07944  0.54356  1.0000
  H   H393      1.0  0.23608  0.08952  0.67812  1.0000
  H   H394      1.0  0.12060  0.19464  0.56449  1.0000
  H   H395      1.0  0.12897  0.21390  0.49591  1.0000
  H   H396      1.0  0.28366  0.08473  0.58332  1.0000
  H   H397      1.0  0.08731  0.20031  0.55400  1.0000
  H   H398      1.0  0.26937  0.24090  0.56147  1.0000
  H   H399      1.0  0.04482  0.41934  0.67031  1.0000
  H   H400      1.0  0.05900  0.36935  0.52177  1.0000
  C   C242      1.0  0.09277  0.21234  0.55884  1.0000
  H   H401      1.0  0.30707  0.20956  0.54926  1.0000
  H   H402      1.0  0.27640  0.23198  0.53826  1.0000
  H   H403      1.0  0.31492  0.09157  0.58990  1.0000
  C   C243      1.0  0.28990  0.00761  0.65738  1.0000
  H   H404      1.0  0.19340  0.19763  0.49110  1.0000
  H   H405      1.0  0.12339  0.98419  0.57113  1.0000
  H   H406      1.0  0.27949  0.03823  0.62164  1.0000
  H   H407      1.0  0.10019  0.22152  0.54578  1.0000
  H   H408      1.0  0.00309  0.36319  0.56472  1.0000
  H   H409      1.0  0.28963  0.06620  0.62556  1.0000
  H   H410      1.0  0.28979  0.17879  0.63643  1.0000
  H   H411      1.0  0.99960  0.40969  0.65638  1.0000
  C   C244      1.0  0.07102  0.03656  0.48305  1.0000
  H   H412      1.0  0.03274  0.34905  0.53923  1.0000
  H   H413      1.0  0.04782  0.36044  0.50490  1.0000
  C   C245      1.0  0.04508  0.37054  0.51590  1.0000
  C   C246      1.0  0.12528  0.19294  0.63177  1.0000
  H   H414      1.0  0.05678  0.37599  0.58954  1.0000
  H   H415      1.0  0.31130  0.99242  0.63646  1.0000
  H   H416      1.0  0.25494  0.11027  0.61275  1.0000
  H   H417      1.0  0.06500  0.46777  0.53917  1.0000
  H   H418      1.0  0.16317  0.46566  0.70397  1.0000
  H   H419      1.0  0.16509  0.12557  0.60870  1.0000
  H   H420      1.0  0.07532  0.00905  0.47127  1.0000
  C   C247      1.0  0.10677  0.43747  0.70322  1.0000
  H   H421      1.0  0.01112  0.38507  0.59399  1.0000
  H   H422      1.0  0.09009  0.45623  0.57308  1.0000
  H   H423      1.0  0.99589  0.29632  0.54830  1.0000
  H   H424      1.0  0.04019  0.39872  0.61438  1.0000
  H   H425      1.0  0.03063  0.47321  0.59795  1.0000
  C   C248      1.0  0.12009  0.19623  0.61101  1.0000
  C   C249      1.0  0.19496  0.20655  0.47679  1.0000
  H   H426      1.0  0.04473  0.40522  0.64150  1.0000
  H   H427      1.0  0.01733  0.16121  0.47123  1.0000
  H   H428      1.0  0.99527  0.34485  0.67427  1.0000
  H   H429      1.0  0.28572  0.99342  0.55963  1.0000
  C   C250      1.0  0.00827  0.36781  0.52524  1.0000
  H   H430      1.0  0.02035  0.98797  0.50401  1.0000
  H   H431      1.0  0.22287  0.12461  0.58980  1.0000
  H   H432      1.0  0.25385  0.10538  0.67829  1.0000
  H   H433      1.0  0.12711  0.45084  0.56697  1.0000
  C   C251      1.0  0.99874  0.05064  0.50278  1.0000
  C   C252      1.0  0.25177  0.09195  0.67294  1.0000
  N   N13       1.0  0.11141  0.17998  0.60552  1.0000
  C   C253      1.0  0.99696  0.01675  0.48167  1.0000
  H   H434      1.0  0.26269  0.06367  0.65000  1.0000
  H   H435      1.0  0.13598  0.05433  0.50119  1.0000
  H   H436      1.0  0.09253  0.22985  0.50241  1.0000
  C   C254      1.0  0.03030  0.41300  0.64839  1.0000
  H   H437      1.0  0.13151  0.17880  0.48006  1.0000
  C   C255      1.0  0.02678  0.39164  0.61587  1.0000
  H   H438      1.0  0.25548  0.06187  0.59892  1.0000
  H   H439      1.0  0.06710  0.45321  0.50978  1.0000
  H   H440      1.0  0.11133  0.19423  0.64266  1.0000
  H   H441      1.0  0.13322  0.14323  0.62238  1.0000
  H   H442      1.0  0.10730  0.16311  0.63480  1.0000
  C   C256      1.0  0.00992  0.06577  0.50729  1.0000
  C   C257      1.0  0.01278  0.40268  0.64698  1.0000
  H   H443      1.0  0.08788  0.13574  0.64847  1.0000
  H   H444      1.0  0.00271  0.18040  0.48429  1.0000
  H   H445      1.0  0.23797  0.07438  0.64765  1.0000
  H   H446      1.0  0.12061  0.42623  0.70167  1.0000
  H   H447      1.0  0.24200  0.02295  0.61751  1.0000
  C   C258      1.0  0.08882  0.42088  0.68434  1.0000
  H   H448      1.0  0.26583  0.00831  0.62110  1.0000
  H   H449      1.0  0.13877  0.45651  0.68719  1.0000
  C   C259      1.0  0.14166  0.15147  0.60940  1.0000
  C   C260      1.0  0.08823  0.15335  0.61940  1.0000
  S   S58       1.0  0.01898  0.45941  0.54150  1.0000
  C   C261      1.0  0.25365  0.07694  0.64255  1.0000
  C   C262      1.0  0.30466  0.00414  0.57514  1.0000
  H   H450      1.0  0.25739  0.03642  0.63966  1.0000
  C   C263      1.0  0.99973  0.05255  0.48052  1.0000
  H   H451      1.0  0.03945  0.35847  0.59472  1.0000
  S   S59       1.0  0.10144  0.11529  0.48382  1.0000
  H   H452      1.0  0.06975  0.13151  0.63544  1.0000
  H   H453      1.0  0.13757  0.17310  0.58409  1.0000
  H   H454      1.0  0.30044  0.15149  0.71128  1.0000
  H   H455      1.0  0.31841  0.13908  0.54363  1.0000
  N   N14       1.0  0.12317  0.32516  0.55549  1.0000
  C   C264      1.0  0.10644  0.31445  0.56698  1.0000
  C   C265      1.0  0.14112  0.30972  0.55003  1.0000
  C   C266      1.0  0.12879  0.33706  0.56875  1.0000
  C   C267      1.0  0.11751  0.33941  0.53770  1.0000
  C   C268      1.0  0.10207  0.33382  0.52746  1.0000
  C   C269      1.0  0.08850  0.32766  0.57769  1.0000
  C   C270      1.0  0.14790  0.34666  0.56093  1.0000
  C   C271      1.0  0.13841  0.29439  0.53787  1.0000
  C   C272      1.0  0.15689  0.27824  0.53568  1.0000
  C   C273      1.0  0.10059  0.34751  0.50797  1.0000
  C   C274      1.0  0.07077  0.31648  0.58504  1.0000
  C   C275      1.0  0.14982  0.36141  0.57370  1.0000
  H   H456      1.0  0.11219  0.30238  0.57827  1.0000
  H   H457      1.0  0.10061  0.30649  0.55778  1.0000
  H   H458      1.0  0.15374  0.31707  0.54137  1.0000
  H   H459      1.0  0.14650  0.30111  0.56347  1.0000
  H   H460      1.0  0.13092  0.32743  0.58286  1.0000
  H   H461      1.0  0.11648  0.34945  0.57238  1.0000
  H   H462      1.0  0.11106  0.35461  0.54135  1.0000
  H   H463      1.0  0.13111  0.34166  0.52667  1.0000
  H   H464      1.0  0.08705  0.33560  0.53660  1.0000
  H   H465      1.0  0.10584  0.31819  0.52471  1.0000
  H   H466      1.0  0.09272  0.33151  0.59061  1.0000
  H   H467      1.0  0.08375  0.34181  0.56813  1.0000
  H   H468      1.0  0.14784  0.35481  0.54587  1.0000
  H   H469      1.0  0.16135  0.33492  0.56109  1.0000
  H   H470      1.0  0.12564  0.28653  0.54472  1.0000
  H   H471      1.0  0.13640  0.30202  0.52301  1.0000
  H   H472      1.0  0.15483  0.26769  0.52652  1.0000
  H   H473      1.0  0.17037  0.28499  0.52860  1.0000
  H   H474      1.0  0.15931  0.26951  0.55011  1.0000
  H   H475      1.0  0.11501  0.34552  0.49782  1.0000
  H   H476      1.0  0.08893  0.34374  0.50127  1.0000
  H   H477      1.0  0.09651  0.36346  0.51002  1.0000
  H   H478      1.0  0.05854  0.32581  0.59349  1.0000
  H   H479      1.0  0.06515  0.31311  0.57266  1.0000
  H   H480      1.0  0.07513  0.30227  0.59476  1.0000
  H   H481      1.0  0.14972  0.35388  0.58903  1.0000
  H   H482      1.0  0.16409  0.36727  0.56839  1.0000
  H   H483      1.0  0.13740  0.37425  0.57323  1.0000
  H   H484      1.0  0.31324  0.19743  0.61226  1.0000
  H   H485      1.0  0.27767  0.99105  0.58554  1.0000
  H   H486      1.0  0.10519  0.20490  0.47830  1.0000
  H   H487      1.0  0.01576  0.38680  0.65426  1.0000
  C   C276      1.0  0.02530  0.98852  0.48809  1.0000
  H   H488      1.0  0.26890  0.19445  0.62652  1.0000
  C   C277      1.0  0.22605  0.10147  0.61533  1.0000
  H   H489      1.0  0.01810  0.42140  0.67701  1.0000
  C   C278      1.0  0.10472  0.23850  0.49536  1.0000
  C   C279      1.0  0.09859  0.16997  0.62304  1.0000
  H   H490      1.0  0.10978  0.24429  0.50676  1.0000
  H   H491      1.0  0.27417  0.19725  0.55532  1.0000
  C   C280      1.0  0.11872  0.44390  0.55902  1.0000
  H   H492      1.0  0.25227  0.22954  0.55279  1.0000
  C   C281      1.0  0.28153  0.07760  0.61530  1.0000
  H   H493      1.0  0.09264  0.17832  0.58504  1.0000
  H   H494      1.0  0.15142  0.20793  0.62342  1.0000
  H   H495      1.0  0.21943  0.09065  0.60992  1.0000
  C   C282      1.0  0.16751  0.15514  0.47405  1.0000
  S   S60       1.0  0.00641  0.41822  0.53502  1.0000
  H   H496      1.0  0.24645  0.10898  0.64542  1.0000
  C   C283      1.0  0.29806  0.19826  0.60908  1.0000
  C   C284      1.0  0.99336  0.33083  0.63136  1.0000
  C   C285      1.0  0.10764  0.20336  0.57264  1.0000
  H   H497      1.0  0.16624  0.14327  0.58644  1.0000
  H   H498      1.0  0.30557  0.16828  0.60324  1.0000
  H   H499      1.0  0.00891  0.06437  0.52326  1.0000
  H   H500      1.0  0.29103  0.16867  0.56672  1.0000
  H   H501      1.0  0.00537  0.15438  0.49585  1.0000
  H   H502      1.0  0.27208  0.09816  0.64646  1.0000
  S   S61       1.0  0.06953  0.07220  0.49554  1.0000
  H   H503      1.0  0.25280  0.09754  0.59427  1.0000
  C   C286      1.0  0.24913  0.09724  0.61026  1.0000
  H   H504      1.0  0.22300  0.13395  0.61185  1.0000
  C   C287      1.0  0.29722  0.03966  0.66172  1.0000
  H   H505      1.0  0.29011  0.05851  0.59244  1.0000
  H   H506      1.0  0.02592  0.06295  0.50069  1.0000
  C   C288      1.0  0.27655  0.20838  0.56362  1.0000
  H   H507      1.0  0.11274  0.21599  0.57669  1.0000
  C   C289      1.0  0.13973  0.98128  0.56596  1.0000
  C   C290      1.0  0.04216  0.37358  0.58716  1.0000
  H   H508      1.0  0.04278  0.37432  0.57134  1.0000
  H   H509      1.0  0.00519  0.33142  0.53065  1.0000
  C   C291      1.0  0.00374  0.16473  0.48200  1.0000
  Fe  Fe32      1.0  0.08086  0.14456  0.48494  1.0000
  H   H510      1.0  0.12725  0.44259  0.54420  1.0000
  H   H511      1.0  0.02830  0.42890  0.64139  1.0000
  H   H512      1.0  0.30030  0.21971  0.57106  1.0000
  H   H513      1.0  0.26196  0.07884  0.67912  1.0000
  C   C292      1.0  0.12228  0.22537  0.48479  1.0000
  S   S62       1.0  0.31591  0.11098  0.62213  1.0000
  H   H514      1.0  0.98737  0.14652  0.47204  1.0000
  H   H515      1.0  0.31549  0.14434  0.58616  1.0000
  H   H516      1.0  0.08582  0.43456  0.67351  1.0000
  C   C293      1.0  0.31904  0.14985  0.57038  1.0000
  H   H517      1.0  0.29251  0.21370  0.60244  1.0000
  S   S63       1.0  0.27384  0.98948  0.66297  1.0000
  H   H518      1.0  0.14337  0.99218  0.55258  1.0000
  C   C294      1.0  0.12538  0.05729  0.49079  1.0000
  C   C295      1.0  0.98839  0.46047  0.61511  1.0000
  H   H519      1.0  0.29934  0.13182  0.56390  1.0000
  C   C296      1.0  0.15071  0.47700  0.69901  1.0000
  H   H520      1.0  0.09884  0.25145  0.48497  1.0000
  H   H521      1.0  0.11301  0.06917  0.49539  1.0000
  N   N15       1.0  0.98963  0.03824  0.47378  1.0000
  C   C297      1.0  0.98939  0.36849  0.55813  1.0000
  C   C298      1.0  0.31508  0.13426  0.55962  1.0000
  H   H522      1.0  0.11918  0.04345  0.49157  1.0000
  C   C299      1.0  0.99578  0.33738  0.54358  1.0000
  H   H523      1.0  0.99201  0.01369  0.49770  1.0000
  H   H524      1.0  0.09062  0.41210  0.71456  1.0000
  H   H525      1.0  0.98772  0.38511  0.55478  1.0000
  H   H526      1.0  0.07694  0.41172  0.68581  1.0000
  Fe  Fe33      1.0  0.99090  0.44630  0.54601  1.0000
  H   H527      1.0  0.10778  0.44818  0.68931  1.0000
  H   H528      1.0  0.05830  0.46474  0.57198  1.0000
  C   C300      1.0  0.00045  0.34086  0.65991  1.0000
  C   C301      1.0  0.08911  0.42634  0.70411  1.0000
  C   C302      1.0  0.08154  0.47808  0.51132  1.0000
  H   H529      1.0  0.99305  0.06813  0.47531  1.0000
  C   C303      1.0  0.30804  0.16450  0.71032  1.0000
  H   H530      1.0  0.99586  0.37669  0.62744  1.0000
  H   H531      1.0  0.01579  0.05125  0.47407  1.0000
  H   H532      1.0  0.31505  0.03634  0.53812  1.0000
  H   H533      1.0  0.15604  0.14696  0.48385  1.0000
  S   S64       1.0  0.99271  0.41538  0.48671  1.0000
  H   H534      1.0  0.30892  0.00030  0.58984  1.0000
  H   H535      1.0  0.07458  0.43559  0.70872  1.0000
  H   H536      1.0  0.00100  0.46597  0.61867  1.0000
  C   C304      1.0  0.01970  0.00960  0.47716  1.0000
  N   N16       1.0  0.99120  0.36002  0.53968  1.0000
  H   H537      1.0  0.99007  0.00651  0.47578  1.0000
  H   H538      1.0  0.12125  0.47846  0.69273  1.0000
  H   H539      1.0  0.00249  0.42426  0.60099  1.0000
  H   H540      1.0  0.08611  0.47148  0.70476  1.0000
  H   H541      1.0  0.14108  0.07856  0.47052  1.0000
  H   H542      1.0  0.05541  0.47751  0.49898  1.0000
  H   H543      1.0  0.31852  0.00205  0.54536  1.0000
  C   C305      1.0  0.09943  0.47796  0.54758  1.0000
  H   H544      1.0  0.11043  0.47743  0.53388  1.0000
  C   C306      1.0  0.08852  0.46532  0.71994  1.0000
  N   N17       1.0  0.10579  0.44817  0.72015  1.0000
  S   S65       1.0  0.27281  0.37177  0.84786  1.0000
  S   S66       1.0  0.18722  0.40761  0.76543  1.0000
  C   C307      1.0  0.16440  0.36116  0.84017  1.0000
  C   C308      1.0  0.04971  0.44739  0.89837  1.0000
  Fe  Fe34      1.0  0.20982  0.42704  0.76540  1.0000
  H   H545      1.0  0.03111  0.42267  0.85749  1.0000
  H   H546      1.0  0.28502  0.36366  0.80806  1.0000
  H   H547      1.0  0.06608  0.44567  0.89770  1.0000
  C   C309      1.0  0.30339  0.34632  0.94818  1.0000
  H   H548      1.0  0.06665  0.41193  0.85687  1.0000
  H   H549      1.0  0.29111  0.35864  0.94880  1.0000
  H   H550      1.0  0.13385  0.46048  0.80852  1.0000
  S   S67       1.0  0.18881  0.44808  0.78375  1.0000
  Fe  Fe35      1.0  0.16581  0.43012  0.78162  1.0000
  S   S68       1.0  0.14378  0.41763  0.80659  1.0000
  C   C310      1.0  0.31862  0.40454  0.81807  1.0000
  H   H551      1.0  0.17343  0.40151  0.82932  1.0000
  H   H552      1.0  0.05147  0.42310  0.88319  1.0000
  S   S69       1.0  0.24172  0.41275  0.76885  1.0000
  H   H553      1.0  0.19709  0.47512  0.84183  1.0000
  H   H554      1.0  0.16244  0.37347  0.84870  1.0000
  H   H555      1.0  0.25484  0.32085  0.84962  1.0000
  H   H556      1.0  0.22960  0.42127  0.80862  1.0000
  H   H557      1.0  0.04325  0.43900  0.91244  1.0000
  S   S70       1.0  0.20397  0.44608  0.73684  1.0000
  H   H558      1.0  0.09350  0.38831  0.81331  1.0000
  H   H559      1.0  0.04319  0.46341  0.89790  1.0000
  C   C311      1.0  0.25045  0.40202  0.79090  1.0000
  C   C312      1.0  0.24182  0.40890  0.80843  1.0000
  C   C313      1.0  0.24918  0.39983  0.82567  1.0000
  C   C314      1.0  0.26488  0.38353  0.82565  1.0000
  C   C315      1.0  0.27340  0.37660  0.80815  1.0000
  C   C316      1.0  0.26653  0.38610  0.79080  1.0000
  H   H560      1.0  0.24252  0.40530  0.83916  1.0000
  H   H561      1.0  0.11494  0.41994  0.73761  1.0000
  H   H562      1.0  0.11396  0.44933  0.75734  1.0000
  H   H563      1.0  0.29491  0.41407  0.79187  1.0000
  C   C317      1.0  0.11583  0.45140  0.85726  1.0000
  H   H564      1.0  0.29331  0.22236  0.79503  1.0000
  C   C318      1.0  0.13029  0.45215  0.82296  1.0000
  C   C319      1.0  0.13428  0.43117  0.82591  1.0000
  C   C320      1.0  0.12930  0.42045  0.84453  1.0000
  C   C321      1.0  0.12043  0.43052  0.86017  1.0000
  C   C322      1.0  0.20952  0.34512  0.83538  1.0000
  H   H565      1.0  0.03413  0.42789  0.83185  1.0000
  H   H566      1.0  0.13226  0.40427  0.84689  1.0000
  H   H567      1.0  0.11671  0.42206  0.87453  1.0000
  H   H568      1.0  0.28788  0.19795  0.79462  1.0000
  H   H569      1.0  0.08971  0.44939  0.81701  1.0000
  C   C323      1.0  0.28923  0.44127  0.76050  1.0000
  H   H570      1.0  0.14496  0.34816  0.82720  1.0000
  H   H571      1.0  0.29174  0.44866  0.74508  1.0000
  C   C324      1.0  0.21424  0.46381  0.81656  1.0000
  H   H572      1.0  0.13909  0.37509  0.82567  1.0000
  H   H573      1.0  0.28137  0.42844  0.76142  1.0000
  C   C325      1.0  0.30606  0.42437  0.78931  1.0000
  C   C326      1.0  0.23168  0.36045  0.77275  1.0000
  C   C327      1.0  0.01542  0.45153  0.84527  1.0000
  H   H574      1.0  0.99754  0.46711  0.90070  1.0000
  H   H575      1.0  0.18091  0.35110  0.81399  1.0000
  C   C328      1.0  0.13257  0.38248  0.72077  1.0000
  H   H576      1.0  0.01595  0.46160  0.83101  1.0000
  H   H577      1.0  0.29778  0.39725  0.85615  1.0000
  S   S71       1.0  0.10372  0.46313  0.87731  1.0000
  H   H578      1.0  0.04491  0.46631  0.86029  1.0000
  Fe  Fe36      1.0  0.30220  0.35040  0.84969  1.0000
  H   H579      1.0  0.21916  0.46892  0.80080  1.0000
  C   C329      1.0  0.06975  0.42332  0.84377  1.0000
  H   H580      1.0  0.22238  0.33959  0.79783  1.0000
  H   H581      1.0  0.07438  0.42255  0.81215  1.0000
  H   H582      1.0  0.31436  0.37642  0.79547  1.0000
  S   S72       1.0  0.15656  0.44928  0.75478  1.0000
  H   H583      1.0  0.12562  0.46408  0.72926  1.0000
  H   H584      1.0  0.09107  0.38544  0.83940  1.0000
  C   C330      1.0  0.12071  0.46225  0.83861  1.0000
  H   H585      1.0  0.24655  0.35997  0.77650  1.0000
  C   C331      1.0  0.31072  0.33871  0.93062  1.0000
  C   C332      1.0  0.30856  0.41957  0.83224  1.0000
  H   H586      1.0  0.20134  0.34260  0.85057  1.0000
  H   H587      1.0  0.23317  0.34962  0.76265  1.0000
  N   N18       1.0  0.05350  0.44139  0.84398  1.0000
  H   H588      1.0  0.12339  0.37512  0.73320  1.0000
  H   H589      1.0  0.22661  0.37567  0.76510  1.0000
  C   C333      1.0  0.04508  0.43921  0.88157  1.0000
  H   H590      1.0  0.17467  0.37742  0.81152  1.0000
  H   H591      1.0  0.05382  0.45178  0.81308  1.0000
  C   C334      1.0  0.31182  0.33799  0.96494  1.0000
  C   C335      1.0  0.09182  0.39645  0.82573  1.0000
  C   C336      1.0  0.30921  0.43398  0.76754  1.0000
  H   H592      1.0  0.27330  0.38068  0.77730  1.0000
  H   H593      1.0  0.20728  0.33257  0.82872  1.0000
  C   C337      1.0  0.07296  0.41217  0.82613  1.0000
  C   C338      1.0  0.99606  0.44284  0.84942  1.0000
  H   H594      1.0  0.29887  0.98315  0.76364  1.0000
  H   H595      1.0  0.16863  0.34679  0.84964  1.0000
  N   N19       1.0  0.20091  0.36507  0.82475  1.0000
  C   C339      1.0  0.21367  0.37023  0.80522  1.0000
  H   H596      1.0  0.30412  0.34519  0.91781  1.0000
  C   C340      1.0  0.20028  0.38096  0.83687  1.0000
  C   C341      1.0  0.18907  0.40208  0.82989  1.0000
  C   C342      1.0  0.23200  0.34237  0.83676  1.0000
  C   C343      1.0  0.21671  0.35496  0.79104  1.0000
  H   H597      1.0  0.13289  0.35912  0.84850  1.0000
  C   C344      1.0  0.18858  0.41656  0.84380  1.0000
  C   C345      1.0  0.23873  0.32233  0.84899  1.0000
  H   H598      1.0  0.20720  0.38482  0.79742  1.0000
  H   H599      1.0  0.22852  0.37247  0.80710  1.0000
  H   H600      1.0  0.28095  0.21892  0.77621  1.0000
  C   C346      1.0  0.14412  0.36085  0.83500  1.0000
  H   H601      1.0  0.19364  0.37616  0.85229  1.0000
  H   H602      1.0  0.21561  0.38295  0.83746  1.0000
  C   C347      1.0  0.18035  0.36393  0.82155  1.0000
  H   H603      1.0  0.19628  0.40851  0.81526  1.0000
  H   H604      1.0  0.23513  0.35430  0.84361  1.0000
  H   H605      1.0  0.24147  0.34265  0.82216  1.0000
  Fe  Fe37      1.0  0.17956  0.42812  0.73844  1.0000
  H   H606      1.0  0.20245  0.35483  0.78629  1.0000
  C   C348      1.0  0.05346  0.45081  0.86152  1.0000
  C   C349      1.0  0.29244  0.21179  0.78537  1.0000
  H   H607      1.0  0.14786  0.39482  0.73831  1.0000
  H   H608      1.0  0.20394  0.41847  0.84450  1.0000
  H   H609      1.0  0.18012  0.43138  0.83858  1.0000
  H   H610      1.0  0.18096  0.41101  0.85862  1.0000
  H   H611      1.0  0.23657  0.30971  0.84243  1.0000
  H   H612      1.0  0.06888  0.45272  0.86216  1.0000
  H   H613      1.0  0.23031  0.32145  0.86409  1.0000
  H   H614      1.0  0.17352  0.47599  0.81911  1.0000
  H   H615      1.0  0.08421  0.42741  0.84483  1.0000
  H   H616      1.0  0.29940  0.42049  0.86311  1.0000
  C   C350      1.0  0.31200  0.19277  0.75843  1.0000
  C   C351      1.0  0.31276  0.20699  0.77267  1.0000
  H   H617      1.0  0.27957  0.45221  0.76936  1.0000
  H   H618      1.0  0.99398  0.43403  0.86432  1.0000
  H   H619      1.0  0.29853  0.43679  0.79743  1.0000
  C   C352      1.0  0.14644  0.39366  0.72372  1.0000
  H   H620      1.0  0.99608  0.43316  0.83863  1.0000
  S   S73       1.0  0.30454  0.31849  0.86533  1.0000
  H   H621      1.0  0.10516  0.40372  0.82382  1.0000
  H   H622      1.0  0.06026  0.40422  0.82706  1.0000
  Fe  Fe38      1.0  0.18142  0.46580  0.75523  1.0000
  H   H623      1.0  0.14597  0.47160  0.88579  1.0000
  H   H624      1.0  0.06935  0.45886  0.96112  1.0000
  H   H625      1.0  0.22768  0.45843  0.82352  1.0000
  H   H626      1.0  0.29324  0.42605  0.82949  1.0000
  C   C353      1.0  0.03385  0.43473  0.84484  1.0000
  H   H627      1.0  0.20604  0.45111  0.81832  1.0000
  C   C354      1.0  0.99426  0.47798  0.88812  1.0000
  C   C355      1.0  0.05711  0.45673  0.82592  1.0000
  H   H628      1.0  0.02862  0.44055  0.88334  1.0000
  H   H629      1.0  0.01479  0.46069  0.85653  1.0000
  H   H630      1.0  0.10393  0.42886  0.78822  1.0000
  H   H631      1.0  0.30181  0.20154  0.74842  1.0000
  H   H632      1.0  0.08874  0.42720  0.74032  1.0000
  H   H633      1.0  0.11901  0.41327  0.77154  1.0000
  H   H634      1.0  0.31204  0.39116  0.77214  1.0000
  C   C356      1.0  0.30684  0.40942  0.85343  1.0000
  H   H635      1.0  0.09223  0.41405  0.77678  1.0000
  C   C357      1.0  0.10289  0.43313  0.73859  1.0000
  H   H636      1.0  0.30407  0.18040  0.76684  1.0000
  H   H637      1.0  0.30782  0.39420  0.81920  1.0000
  H   H638      1.0  0.30219  0.16472  0.74114  1.0000
  H   H639      1.0  0.04653  0.47095  0.82754  1.0000
  H   H640      1.0  0.08737  0.45002  0.76183  1.0000
  H   H641      1.0  0.07696  0.47403  0.79002  1.0000
  C   C358      1.0  0.31539  0.16352  0.72942  1.0000
  H   H642      1.0  0.16273  0.47241  0.85172  1.0000
  C   C359      1.0  0.10204  0.44059  0.75798  1.0000
  H   H643      1.0  0.08192  0.46783  0.83293  1.0000
  C   C360      1.0  0.10437  0.42306  0.77461  1.0000
  C   C361      1.0  0.07830  0.46240  0.82061  1.0000
  H   H644      1.0  0.31822  0.42332  0.75809  1.0000
  C   C362      1.0  0.06456  0.47513  0.96148  1.0000
  H   H645      1.0  0.31693  0.22140  0.76445  1.0000
  H   H646      1.0  0.07443  0.45978  0.72739  1.0000
  H   H647      1.0  0.31704  0.43197  0.83075  1.0000
  H   H648      1.0  0.31695  0.44710  0.76543  1.0000
  H   H649      1.0  0.13738  0.44171  0.72088  1.0000
  H   H650      1.0  0.11676  0.47836  0.83624  1.0000
  Fe  Fe39      1.0  0.08219  0.52243  0.05769  1.0000
  S   S74       1.0  0.11184  0.52385  0.03848  1.0000
  S   S75       1.0  0.07356  0.49818  0.08222  1.0000
  Fe  Fe40      1.0  0.06261  0.56122  0.03644  1.0000
  S   S76       1.0  0.03361  0.58224  0.03460  1.0000
  Fe  Fe41      1.0  0.10565  0.55640  0.04144  1.0000
  S   S77       1.0  0.13124  0.57095  0.04406  1.0000
  S   S78       1.0  0.06519  0.52926  0.03298  1.0000
  S   S79       1.0  0.07728  0.55421  0.06287  1.0000
  H   H651      1.0  0.27059  0.52596  0.02845  1.0000
  C   C363      1.0  0.11891  0.65982  0.05925  1.0000
  C   C364      1.0  0.28890  0.65594  0.07253  1.0000
  Fe  Fe42      1.0  0.29531  0.72324  0.06565  1.0000
  S   S80       1.0  0.29934  0.75290  0.04679  1.0000
  S   S81       1.0  0.27079  0.71790  0.09161  1.0000
  H   H652      1.0  0.06296  0.63652  0.06639  1.0000
  H   H653      1.0  0.10142  0.63214  0.99782  1.0000
  C   C365      1.0  0.29955  0.61567  0.03980  1.0000
  H   H654      1.0  0.01142  0.48796  0.97410  1.0000
  S   S82       1.0  0.30484  0.70598  0.04068  1.0000
  C   C366      1.0  0.21913  0.50351  0.08585  1.0000
  Fe  Fe43      1.0  0.15482  0.62298  0.12052  1.0000
  S   S83       1.0  0.18548  0.61430  0.10415  1.0000
  S   S84       1.0  0.12589  0.61978  0.11222  1.0000
  Fe  Fe44      1.0  0.17055  0.63185  0.15463  1.0000
  S   S85       1.0  0.20270  0.62366  0.14079  1.0000
  S   S86       1.0  0.16203  0.63574  0.18650  1.0000
  Fe  Fe45      1.0  0.19301  0.64116  0.11317  1.0000
  S   S87       1.0  0.21124  0.65960  0.08828  1.0000
  Fe  Fe46      1.0  0.19267  0.59770  0.13279  1.0000
  S   S88       1.0  0.21009  0.56627  0.13629  1.0000
  S   S89       1.0  0.16137  0.65129  0.12754  1.0000
  S   S90       1.0  0.16154  0.60440  0.14861  1.0000
  H   H655      1.0  0.15438  0.72634  0.19692  1.0000
  C   C367      1.0  0.19701  0.54773  0.13366  1.0000
  C   C368      1.0  0.17803  0.55301  0.12858  1.0000
  C   C369      1.0  0.16784  0.53815  0.12631  1.0000
  C   C370      1.0  0.17640  0.51787  0.12931  1.0000
  C   C371      1.0  0.19521  0.51249  0.13483  1.0000
  C   C372      1.0  0.20560  0.52743  0.13677  1.0000
  H   H656      1.0  0.17132  0.56860  0.12603  1.0000
  H   H657      1.0  0.15331  0.54245  0.12208  1.0000
  H   H658      1.0  0.20178  0.49687  0.13745  1.0000
  H   H659      1.0  0.22023  0.52324  0.14084  1.0000
  C   C373      1.0  0.25376  0.70216  0.09079  1.0000
  C   C374      1.0  0.24827  0.70102  0.07323  1.0000
  C   C375      1.0  0.23467  0.68844  0.07291  1.0000
  C   C376      1.0  0.22677  0.67652  0.09002  1.0000
  C   C377      1.0  0.23216  0.67772  0.10763  1.0000
  C   C378      1.0  0.24548  0.69065  0.10802  1.0000
  H   H660      1.0  0.25433  0.71001  0.05992  1.0000
  H   H661      1.0  0.23036  0.68782  0.05927  1.0000
  H   H662      1.0  0.22615  0.66865  0.12090  1.0000
  H   H663      1.0  0.24958  0.69154  0.12168  1.0000
  H   H664      1.0  0.30013  0.75291  0.16137  1.0000
  Fe  Fe47      1.0  0.09438  0.53339  0.01394  1.0000
  H   H665      1.0  0.04224  0.53161  0.00157  1.0000
  H   H666      1.0  0.13653  0.52378  0.06958  1.0000
  C   C379      1.0  0.27733  0.66562  0.03428  1.0000
  C   C380      1.0  0.19792  0.53230  0.06931  1.0000
  H   H667      1.0  0.29806  0.67914  0.09656  1.0000
  H   H668      1.0  0.31965  0.58798  0.04746  1.0000
  C   C381      1.0  0.10580  0.52906  0.17456  1.0000
  C   C382      1.0  0.99888  0.53997  0.05911  1.0000
  C   C383      1.0  0.14795  0.65766  0.19478  1.0000
  C   C384      1.0  0.14250  0.67498  0.18187  1.0000
  C   C385      1.0  0.13183  0.69232  0.18907  1.0000
  H   H669      1.0  0.06349  0.63422  0.01831  1.0000
  C   C386      1.0  0.28411  0.76724  0.13678  1.0000
  H   H670      1.0  0.14677  0.67512  0.16636  1.0000
  C   C387      1.0  0.17946  0.53292  0.18702  1.0000
  C   C388      1.0  0.01483  0.55081  0.05428  1.0000
  H   H671      1.0  0.17850  0.56665  0.08460  1.0000
  H   H672      1.0  0.25590  0.77155  0.17023  1.0000
  C   C389      1.0  0.07106  0.66433  0.01131  1.0000
  H   H673      1.0  0.25298  0.48689  0.10302  1.0000
  C   C390      1.0  0.01891  0.54214  0.98408  1.0000
  H   H674      1.0  0.04627  0.61796  0.04806  1.0000
  C   C391      1.0  0.17788  0.70128  0.19985  1.0000
  H   H675      1.0  0.28804  0.79634  0.10554  1.0000
  C   C392      1.0  0.01320  0.56924  0.04191  1.0000
  H   H676      1.0  0.17799  0.50532  0.17739  1.0000
  C   C393      1.0  0.30079  0.64918  0.08962  1.0000
  H   H677      1.0  0.08954  0.60875  0.02520  1.0000
  C   C394      1.0  0.06756  0.69769  0.21618  1.0000
  C   C395      1.0  0.12969  0.58358  0.06370  1.0000
  C   C396      1.0  0.11235  0.58594  0.07756  1.0000
  C   C397      1.0  0.11143  0.59676  0.09265  1.0000
  C   C398      1.0  0.12788  0.60515  0.09399  1.0000
  C   C399      1.0  0.14523  0.60265  0.08019  1.0000
  C   C400      1.0  0.14609  0.59197  0.06505  1.0000
  H   H678      1.0  0.09956  0.57976  0.07647  1.0000
  H   H679      1.0  0.09790  0.59881  0.10320  1.0000
  H   H680      1.0  0.15781  0.60943  0.08082  1.0000
  H   H681      1.0  0.15944  0.59042  0.05421  1.0000
  H   H682      1.0  0.29076  0.64433  0.10330  1.0000
  H   H683      1.0  0.02840  0.54483  0.06010  1.0000
  S   S91       1.0  0.09060  0.56619  0.01518  1.0000
  H   H684      1.0  0.31744  0.59413  0.02205  1.0000
  H   H685      1.0  0.19317  0.69761  0.20341  1.0000
  H   H686      1.0  0.29806  0.70639  0.99668  1.0000
  H   H687      1.0  0.12246  0.51849  0.13864  1.0000
  H   H688      1.0  0.22793  0.75527  0.21227  1.0000
  C   C401      1.0  0.09209  0.65415  0.20302  1.0000
  C   C402      1.0  0.99533  0.57705  0.03487  1.0000
  H   H689      1.0  0.00302  0.54092  0.98509  1.0000
  H   H690      1.0  0.10085  0.50252  0.16622  1.0000
  H   H691      1.0  0.20486  0.55627  0.18694  1.0000
  C   C403      1.0  0.09795  0.64857  0.18262  1.0000
  H   H692      1.0  0.13564  0.61606  0.98867  1.0000
  H   H693      1.0  0.20577  0.54026  0.09488  1.0000
  C   C404      1.0  0.16099  0.58435  0.20454  1.0000
  C   C405      1.0  0.09722  0.51891  0.16154  1.0000
  C   C406      1.0  0.28749  0.76477  0.15812  1.0000
  C   C407      1.0  0.27271  0.78806  0.07760  1.0000
  H   H694      1.0  0.09588  0.66915  0.20222  1.0000
  C   C408      1.0  0.12720  0.61070  0.00314  1.0000
  H   H695      1.0  0.31357  0.63494  0.05093  1.0000
  H   H696      1.0  0.06089  0.66104  0.19970  1.0000
  H   H697      1.0  0.10749  0.80110  0.21953  1.0000
  C   C409      1.0  0.02759  0.52763  0.00094  1.0000
  H   H698      1.0  0.26550  0.74510  0.17083  1.0000
  C   C410      1.0  0.09265  0.65106  0.04338  1.0000
  H   H699      1.0  0.10170  0.64348  0.21239  1.0000
  S   S92       1.0  0.16310  0.49999  0.12564  1.0000
  H   H700      1.0  0.05710  0.65813  0.98870  1.0000
  H   H701      1.0  0.00026  0.52566  0.06862  1.0000
  C   C411      1.0  0.06188  0.53858  0.13341  1.0000
  H   H702      1.0  0.06547  0.54630  0.14427  1.0000
  H   H703      1.0  0.14738  0.54302  0.07559  1.0000
  H   H704      1.0  0.11418  0.64857  0.17749  1.0000
  H   H705      1.0  0.09479  0.63338  0.18266  1.0000
  H   H706      1.0  0.08974  0.65964  0.17225  1.0000
  H   H707      1.0  0.05425  0.49717  0.01681  1.0000
  H   H708      1.0  0.22437  0.58824  0.16583  1.0000
  C   C412      1.0  0.08973  0.49849  0.13205  1.0000
  H   H709      1.0  0.11712  0.48290  0.14343  1.0000
  H   H710      1.0  0.12800  0.70578  0.17899  1.0000
  C   C413      1.0  0.16562  0.55200  0.19318  1.0000
  C   C414      1.0  0.12182  0.53460  0.09640  1.0000
  H   H711      1.0  0.12473  0.60903  0.20074  1.0000
  C   C415      1.0  0.29562  0.78117  0.10269  1.0000
  H   H712      1.0  0.03940  0.61292  0.08426  1.0000
  H   H713      1.0  0.18999  0.57594  0.17363  1.0000
  H   H714      1.0  0.22214  0.54752  0.07290  1.0000
  C   C416      1.0  0.23098  0.48196  0.08712  1.0000
  H   H715      1.0  0.29600  0.80434  0.13519  1.0000
  H   H716      1.0  0.05062  0.56699  0.11648  1.0000
  C   C417      1.0  0.28103  0.77266  0.09374  1.0000
  C   C418      1.0  0.10628  0.52476  0.13981  1.0000
  H   H717      1.0  0.01444  0.57387  0.97237  1.0000
  H   H718      1.0  0.19576  0.60079  0.19064  1.0000
  N   N20       1.0  0.20957  0.51147  0.06801  1.0000
  H   H719      1.0  0.02809  0.51380  0.04002  1.0000
  C   C419      1.0  0.10849  0.64309  0.05685  1.0000
  C   C420      1.0  0.05595  0.67018  0.99742  1.0000
  H   H720      1.0  0.27062  0.68362  0.00712  1.0000
  H   H721      1.0  0.18455  0.49647  0.08203  1.0000
  N   N21       1.0  0.17503  0.56491  0.20243  1.0000
  H   H722      1.0  0.29326  0.66097  0.02833  1.0000
  C   C421      1.0  0.10587  0.47981  0.13578  1.0000
  H   H723      1.0  0.30883  0.78362  0.09114  1.0000
  C   C422      1.0  0.02693  0.49862  0.03799  1.0000
  C   C423      1.0  0.26543  0.67076  0.01760  1.0000
  H   H724      1.0  0.12611  0.50417  0.11117  1.0000
  H   H725      1.0  0.26378  0.80142  0.08350  1.0000
  H   H726      1.0  0.03484  0.56605  0.98576  1.0000
  H   H727      1.0  0.29041  0.68718  0.97366  1.0000
  H   H728      1.0  0.99819  0.50842  0.01053  1.0000
  H   H729      1.0  0.04053  0.67295  0.00565  1.0000
  H   H730      1.0  0.24222  0.48001  0.07385  1.0000
  H   H731      1.0  0.30948  0.72881  0.14435  1.0000
  H   H732      1.0  0.29810  0.62684  0.02642  1.0000
  C   C424      1.0  0.14046  0.52944  0.08165  1.0000
  H   H733      1.0  0.26827  0.76824  0.10485  1.0000
  C   C425      1.0  0.19495  0.49789  0.06783  1.0000
  C   C426      1.0  0.03539  0.48406  0.05459  1.0000
  H   H734      1.0  0.14326  0.78796  0.21892  1.0000
  H   H735      1.0  0.00497  0.51452  0.97155  1.0000
  H   H736      1.0  0.15155  0.51802  0.08861  1.0000
  H   H737      1.0  0.28504  0.79275  0.06601  1.0000
  H   H738      1.0  0.20738  0.50368  0.09902  1.0000
  C   C427      1.0  0.31168  0.74820  0.11598  1.0000
  C   C428      1.0  0.31827  0.60043  0.03506  1.0000
  H   H739      1.0  0.27266  0.78090  0.13478  1.0000
  C   C429      1.0  0.16701  0.49016  0.05371  1.0000
  H   H740      1.0  0.10735  0.50969  0.09636  1.0000
  N   N22       1.0  0.09734  0.51815  0.12486  1.0000
  H   H741      1.0  0.10794  0.67188  0.06556  1.0000
  C   C430      1.0  0.30282  0.73222  0.97499  1.0000
  S   S93       1.0  0.11422  0.71494  0.21747  1.0000
  H   H742      1.0  0.20927  0.77745  0.21238  1.0000
  H   H743      1.0  0.10714  0.61085  0.03896  1.0000
  H   H744      1.0  0.05567  0.52492  0.14087  1.0000
  H   H745      1.0  0.15217  0.54721  0.20285  1.0000
  C   C431      1.0  0.22453  0.51122  0.04942  1.0000
  H   H746      1.0  0.26410  0.50141  0.03103  1.0000
  H   H747      1.0  0.10571  0.54131  0.13676  1.0000
  S   S94       1.0  0.30768  0.74683  0.99091  1.0000
  H   H748      1.0  0.17617  0.76213  0.20299  1.0000
  H   H749      1.0  0.04096  0.54564  0.11292  1.0000
  C   C432      1.0  0.22512  0.58554  0.18160  1.0000
  H   H750      1.0  0.29847  0.66452  0.06065  1.0000
  H   H751      1.0  0.06983  0.67713  0.01910  1.0000
  H   H752      1.0  0.23190  0.59764  0.18471  1.0000
  H   H753      1.0  0.01093  0.49752  0.03948  1.0000
  H   H754      1.0  0.08122  0.66234  0.05052  1.0000
  C   C433      1.0  0.11379  0.78597  0.21581  1.0000
  C   C434      1.0  0.24254  0.52202  0.04760  1.0000
  H   H755      1.0  0.27156  0.75854  0.18764  1.0000
  C   C435      1.0  0.19357  0.56998  0.18847  1.0000
  C   C436      1.0  0.16863  0.72275  0.20265  1.0000
  H   H756      1.0  0.19478  0.57436  0.06214  1.0000
  H   H757      1.0  0.15927  0.52599  0.17035  1.0000
  H   H758      1.0  0.06055  0.59285  0.08491  1.0000
  H   H759      1.0  0.07277  0.69576  0.20075  1.0000
  C   C437      1.0  0.12637  0.69243  0.20918  1.0000
  H   H760      1.0  0.08082  0.52304  0.16433  1.0000
  H   H761      1.0  0.10144  0.63684  0.07163  1.0000
  H   H762      1.0  0.31112  0.82862  0.21167  1.0000
  S   S95       1.0  0.10478  0.51851  0.98730  1.0000
  C   C438      1.0  0.30108  0.62621  0.05673  1.0000
  H   H763      1.0  0.25015  0.51724  0.06040  1.0000
  H   H764      1.0  0.03216  0.55613  0.13502  1.0000
  H   H765      1.0  0.17894  0.73269  0.19366  1.0000
  H   H766      1.0  0.99397  0.59135  0.02536  1.0000
  H   H767      1.0  0.10014  0.65972  0.03007  1.0000
  H   H768      1.0  0.11690  0.49029  0.07047  1.0000
  C   C439      1.0  0.07219  0.62519  0.05761  1.0000
  H   H769      1.0  0.15842  0.59252  0.18992  1.0000
  H   H770      1.0  0.24931  0.67510  0.02318  1.0000
  H   H771      1.0  0.23755  0.53844  0.04565  1.0000
  C   C440      1.0  0.06969  0.65318  0.21124  1.0000
  N   N23       1.0  0.02998  0.50550  0.00028  1.0000
  H   H772      1.0  0.25138  0.52254  0.01627  1.0000
  C   C441      1.0  0.05850  0.61039  0.05613  1.0000
  C   C442      1.0  0.20427  0.58547  0.19375  1.0000
  H   H773      1.0  0.02724  0.48816  0.06876  1.0000
  H   H774      1.0  0.01737  0.53157  0.01434  1.0000
  H   H775      1.0  0.12227  0.52471  0.17264  1.0000
  H   H776      1.0  0.12978  0.65366  0.06932  1.0000
  C   C443      1.0  0.16762  0.51851  0.18227  1.0000
  C   C444      1.0  0.11324  0.51552  0.10719  1.0000
  H   H777      1.0  0.07255  0.55132  0.98005  1.0000
  H   H778      1.0  0.12019  0.63140  0.05089  1.0000
  H   H779      1.0  0.11080  0.54466  0.08815  1.0000
  H   H780      1.0  0.05246  0.65032  0.03559  1.0000
  N   N24       1.0  0.28253  0.63947  0.06510  1.0000
  C   C445      1.0  0.26919  0.64915  0.05036  1.0000
  C   C446      1.0  0.27047  0.62798  0.08223  1.0000
  H   H781      1.0  0.20206  0.73390  0.21873  1.0000
  H   H782      1.0  0.20044  0.57660  0.08522  1.0000
  N   N25       1.0  0.30219  0.76865  0.12093  1.0000
  C   C447      1.0  0.14233  0.65772  0.21491  1.0000
  H   H783      1.0  0.06709  0.59794  0.04866  1.0000
  C   C448      1.0  0.26061  0.61138  0.07792  1.0000
  C   C449      1.0  0.24682  0.60296  0.09605  1.0000
  C   C450      1.0  0.30990  0.66636  0.09312  1.0000
  H   H784      1.0  0.17875  0.69956  0.18448  1.0000
  H   H785      1.0  0.25453  0.65610  0.05781  1.0000
  H   H786      1.0  0.26534  0.63791  0.04315  1.0000
  H   H787      1.0  0.27986  0.62040  0.09333  1.0000
  H   H788      1.0  0.25839  0.63862  0.08960  1.0000
  H   H789      1.0  0.27567  0.66689  0.07737  1.0000
  H   H790      1.0  0.27591  0.67954  0.04044  1.0000
  H   H791      1.0  0.05142  0.48481  0.05369  1.0000
  H   H792      1.0  0.04136  0.68604  0.21655  1.0000
  H   H793      1.0  0.26753  0.65781  0.00983  1.0000
  C   C451      1.0  0.12690  0.60339  0.21602  1.0000
  H   H794      1.0  0.05846  0.50758  0.98159  1.0000
  H   H795      1.0  0.18818  0.52486  0.19845  1.0000
  H   H796      1.0  0.17383  0.51964  0.05140  1.0000
  H   H797      1.0  0.25134  0.61707  0.06641  1.0000
  H   H798      1.0  0.27221  0.59881  0.07356  1.0000
  H   H799      1.0  0.25520  0.59659  0.10820  1.0000
  H   H800      1.0  0.23452  0.61489  0.10075  1.0000
  H   H801      1.0  0.24008  0.59090  0.09279  1.0000
  H   H802      1.0  0.19025  0.53711  0.17377  1.0000
  C   C452      1.0  0.21269  0.76183  0.20931  1.0000
  C   C453      1.0  0.08066  0.53387  0.11811  1.0000
  H   H803      1.0  0.07580  0.52948  0.10570  1.0000
  H   H804      1.0  0.16018  0.56084  0.17982  1.0000
  H   H805      1.0  0.12572  0.54287  0.10661  1.0000
  H   H806      1.0  0.13774  0.60629  0.01367  1.0000
  H   H807      1.0  0.30051  0.74058  0.11227  1.0000
  C   C454      1.0  0.04544  0.55271  0.12381  1.0000
  C   C455      1.0  0.20646  0.54621  0.07917  1.0000
  H   H808      1.0  0.09946  0.52430  0.19004  1.0000
  H   H809      1.0  0.08145  0.49539  0.12135  1.0000
  H   H810      1.0  0.07861  0.49913  0.14556  1.0000
  H   H811      1.0  0.08591  0.54847  0.11243  1.0000
  C   C456      1.0  0.00291  0.50045  0.98161  1.0000
  H   H812      1.0  0.27665  0.75469  0.13561  1.0000
  C   C457      1.0  0.25805  0.51767  0.02971  1.0000
  C   C458      1.0  0.06683  0.64533  0.02622  1.0000
  H   H813      1.0  0.03943  0.59044  0.07487  1.0000
  C   C459      1.0  0.09733  0.61983  0.02881  1.0000
  C   C460      1.0  0.11057  0.62736  0.00954  1.0000
  H   H814      1.0  0.19540  0.54039  0.05463  1.0000
  H   H815      1.0  0.23030  0.49551  0.04696  1.0000
  N   N26       1.0  0.08255  0.63551  0.03860  1.0000
  H   H816      1.0  0.10200  0.54561  0.17102  1.0000
  C   C461      1.0  0.19425  0.56723  0.07760  1.0000
  H   H817      1.0  0.12098  0.59735  0.00206  1.0000
  C   C462      1.0  0.05761  0.71951  0.21627  1.0000
  C   C463      1.0  0.17614  0.75843  0.21895  1.0000
  H   H818      1.0  0.21718  0.51839  0.03670  1.0000
  H   H819      1.0  0.11752  0.78721  0.19973  1.0000
  H   H820      1.0  0.18279  0.53135  0.07806  1.0000
  H   H821      1.0  0.22937  0.51329  0.08756  1.0000
  H   H822      1.0  0.08326  0.61639  0.06656  1.0000
  H   H823      1.0  0.19618  0.54587  0.21959  1.0000
  H   H824      1.0  0.23484  0.57100  0.18517  1.0000
  Fe  Fe48      1.0  0.31168  0.73509  0.02234  1.0000
  H   H825      1.0  0.06859  0.72956  0.20903  1.0000
  H   H826      1.0  0.12715  0.66620  0.04505  1.0000
  H   H827      1.0  0.28885  0.75934  0.08716  1.0000
  C   C464      1.0  0.04892  0.60114  0.07633  1.0000
  H   H828      1.0  0.00943  0.56832  0.99849  1.0000
  H   H829      1.0  0.11783  0.63988  0.01081  1.0000
  H   H830      1.0  0.15703  0.51316  0.19529  1.0000
  H   H831      1.0  0.28655  0.60775  0.04320  1.0000
  H   H832      1.0  0.29077  0.77892  0.16105  1.0000
  H   H833      1.0  0.20280  0.48246  0.06626  1.0000
  H   H834      1.0  0.08613  0.66233  0.00245  1.0000
  C   C465      1.0  0.26892  0.75969  0.17254  1.0000
  H   H835      1.0  0.19168  0.50349  0.03691  1.0000
  C   C466      1.0  0.01950  0.56389  0.98529  1.0000
  C   C467      1.0  0.29848  0.71284  0.98151  1.0000
  H   H836      1.0  0.06817  0.63713  0.21286  1.0000
  H   H837      1.0  0.16775  0.59445  0.21083  1.0000
  H   H838      1.0  0.16868  0.69047  0.20928  1.0000
  H   H839      1.0  0.30657  0.61448  0.06844  1.0000
  C   C468      1.0  0.03877  0.49425  0.01788  1.0000
  C   C469      1.0  0.18217  0.50421  0.05137  1.0000
  H   H840      1.0  0.05896  0.68409  0.98728  1.0000
  H   H841      1.0  0.14351  0.75690  0.20473  1.0000
  H   H842      1.0  0.21251  0.76200  0.19369  1.0000
  H   H843      1.0  0.15770  0.49519  0.04212  1.0000
  H   H844      1.0  0.00985  0.48358  0.00866  1.0000
  H   H845      1.0  0.04479  0.72307  0.20834  1.0000
  H   H846      1.0  0.20577  0.58224  0.20933  1.0000
  H   H847      1.0  0.26291  0.78130  0.07101  1.0000
  H   H848      1.0  0.15704  0.49020  0.06802  1.0000
  C   C470      1.0  0.01000  0.49934  0.00121  1.0000
  C   C471      1.0  0.04490  0.50084  0.98243  1.0000
  C   C472      1.0  0.31161  0.80094  0.12769  1.0000
  H   H849      1.0  0.31308  0.63665  0.08667  1.0000
  H   H850      1.0  0.31288  0.80999  0.11286  1.0000
  H   H851      1.0  0.13248  0.57244  0.21341  1.0000
  C   C473      1.0  0.14040  0.58302  0.21757  1.0000
  H   H852      1.0  0.02954  0.65150  0.21566  1.0000
  H   H853      1.0  0.31806  0.66125  0.10557  1.0000
  C   C474      1.0  0.31771  0.77837  0.12610  1.0000
  C   C475      1.0  0.01163  0.92606  0.41809  1.0000
  C   C476      1.0  0.13872  0.87515  0.44335  1.0000
  S   S96       1.0  0.02356  0.62111  0.32829  1.0000
  C   C477      1.0  0.02140  0.60684  0.46236  1.0000
  Fe  Fe49      1.0  0.08963  0.70080  0.29174  1.0000
  S   S97       1.0  0.07303  0.73042  0.29940  1.0000
  S   S98       1.0  0.09135  0.67425  0.31578  1.0000
  Fe  Fe50      1.0  0.10061  0.71714  0.24897  1.0000
  S   S99       1.0  0.08445  0.74780  0.25363  1.0000
  Fe  Fe51      1.0  0.09901  0.74314  0.28014  1.0000
  S   S100      1.0  0.11289  0.76943  0.28387  1.0000
  Fe  Fe52      1.0  0.06006  0.73221  0.27240  1.0000
  S   S101      1.0  0.02732  0.74344  0.27028  1.0000
  S   S102      1.0  0.11670  0.71326  0.27425  1.0000
  S   S103      1.0  0.07522  0.70196  0.26591  1.0000
  Fe  Fe53      1.0  0.14130  0.84660  0.36664  1.0000
  S   S104      1.0  0.14288  0.81631  0.38472  1.0000
  S   S105      1.0  0.11100  0.86419  0.36391  1.0000
  Fe  Fe54      1.0  0.18593  0.84133  0.35231  1.0000
  S   S106      1.0  0.19103  0.81011  0.36959  1.0000
  S   S107      1.0  0.20660  0.85895  0.32907  1.0000
  Fe  Fe55      1.0  0.16376  0.80545  0.35910  1.0000
  S   S108      1.0  0.15882  0.77644  0.35113  1.0000
  Fe  Fe56      1.0  0.16944  0.82362  0.39388  1.0000
  S   S109      1.0  0.16660  0.81740  0.42688  1.0000
  S   S110      1.0  0.16026  0.83547  0.34031  1.0000
  S   S111      1.0  0.16622  0.85498  0.37733  1.0000
  C   C478      1.0  0.01192  0.72716  0.26679  1.0000
  H   H854      1.0  0.14893  0.92077  0.35052  1.0000
  C   C479      1.0  0.15141  0.94528  0.39082  1.0000
  S   S112      1.0  0.08762  0.95441  0.37641  1.0000
  H   H855      1.0  0.29385  0.83356  0.30578  1.0000
  C   C480      1.0  0.22959  0.86505  0.33118  1.0000
  C   C481      1.0  0.23868  0.87854  0.31616  1.0000
  C   C482      1.0  0.25686  0.88404  0.31727  1.0000
  C   C483      1.0  0.26626  0.87589  0.33332  1.0000
  C   C484      1.0  0.25713  0.86248  0.34839  1.0000
  C   C485      1.0  0.23884  0.85710  0.34736  1.0000
  H   H856      1.0  0.23152  0.88486  0.30366  1.0000
  H   H857      1.0  0.25672  0.81339  0.29912  1.0000
  H   H858      1.0  0.26429  0.85611  0.36088  1.0000
  H   H859      1.0  0.23201  0.84665  0.35898  1.0000
  C   C486      1.0  0.17972  0.82769  0.44041  1.0000
  H   H860      1.0  0.26522  0.84706  0.29803  1.0000
  C   C487      1.0  0.20831  0.84138  0.44397  1.0000
  C   C488      1.0  0.19789  0.83425  0.43231  1.0000
  C   C489      1.0  0.99364  0.62934  0.45021  1.0000
  H   H861      1.0  0.22260  0.84598  0.43778  1.0000
  H   H862      1.0  0.20419  0.83324  0.41727  1.0000
  C   C490      1.0  0.12557  0.77092  0.30281  1.0000
  C   C491      1.0  0.13466  0.78781  0.30142  1.0000
  C   C492      1.0  0.14470  0.78980  0.31615  1.0000
  C   C493      1.0  0.14593  0.77481  0.33242  1.0000
  C   C494      1.0  0.13705  0.75780  0.33369  1.0000
  C   C495      1.0  0.12672  0.75595  0.31910  1.0000
  H   H863      1.0  0.13393  0.79946  0.28886  1.0000
  H   H864      1.0  0.15173  0.80281  0.31483  1.0000
  H   H865      1.0  0.13805  0.74603  0.34613  1.0000
  H   H866      1.0  0.11982  0.74286  0.32040  1.0000
  H   H867      1.0  0.05229  0.72252  0.23141  1.0000
  H   H868      1.0  0.15236  0.71671  0.23190  1.0000
  C   C496      1.0  0.04237  0.63582  0.32498  1.0000
  C   C497      1.0  0.05048  0.63806  0.34077  1.0000
  C   C498      1.0  0.06577  0.64958  0.33781  1.0000
  C   C499      1.0  0.07263  0.65933  0.31914  1.0000
  C   C500      1.0  0.06442  0.65714  0.30341  1.0000
  C   C501      1.0  0.04941  0.64532  0.30627  1.0000
  H   H869      1.0  0.04522  0.63062  0.35523  1.0000
  H   H870      1.0  0.07211  0.65116  0.35003  1.0000
  H   H871      1.0  0.06979  0.66442  0.28905  1.0000
  H   H872      1.0  0.04314  0.64364  0.29405  1.0000
  C   C502      1.0  0.17191  0.82865  0.46008  1.0000
  H   H873      1.0  0.12910  0.81316  0.45851  1.0000
  Fe  Fe57      1.0  0.30750  0.94550  0.29134  1.0000
  H   H874      1.0  0.00119  0.56675  0.32456  1.0000
  H   H875      1.0  0.15138  0.54604  0.23608  1.0000
  H   H876      1.0  0.17231  0.91841  0.39595  1.0000
  C   C503      1.0  0.30612  0.84921  0.24375  1.0000
  H   H877      1.0  0.99966  0.55955  0.36846  1.0000
  H   H878      1.0  0.20642  0.90719  0.38989  1.0000
  C   C504      1.0  0.20994  0.89419  0.38203  1.0000
  S   S113      1.0  0.29404  0.92098  0.28470  1.0000
  C   C505      1.0  0.01844  0.70653  0.26825  1.0000
  C   C506      1.0  0.15454  0.88409  0.42771  1.0000
  Fe  Fe58      1.0  0.10264  0.94901  0.44351  1.0000
  C   C507      1.0  0.09498  0.92936  0.37299  1.0000
  C   C508      1.0  0.11007  0.91675  0.38203  1.0000
  C   C509      1.0  0.11580  0.89677  0.37878  1.0000
  C   C510      1.0  0.10582  0.88933  0.36714  1.0000
  C   C511      1.0  0.09073  0.90195  0.35826  1.0000
  C   C512      1.0  0.08559  0.92199  0.36088  1.0000
  H   H879      1.0  0.11725  0.92243  0.39150  1.0000
  H   H880      1.0  0.12738  0.88700  0.38577  1.0000
  H   H881      1.0  0.08299  0.89625  0.34927  1.0000
  H   H882      1.0  0.07395  0.93170  0.35388  1.0000
  H   H883      1.0  0.06786  0.68343  0.44489  1.0000
  H   H884      1.0  0.14113  0.94068  0.40442  1.0000
  H   H885      1.0  0.04921  0.63388  0.24308  1.0000
  C   C513      1.0  0.08324  0.63596  0.25207  1.0000
  C   C514      1.0  0.07612  0.65806  0.24349  1.0000
  H   H886      1.0  0.08138  0.70735  0.45825  1.0000
  C   C515      1.0  0.99267  0.54925  0.45339  1.0000
  C   C516      1.0  0.99258  0.73497  0.26292  1.0000
  C   C517      1.0  0.16741  0.53977  0.23460  1.0000
  H   H887      1.0  0.14353  0.85874  0.44592  1.0000
  H   H888      1.0  0.00648  0.71512  0.33360  1.0000
  H   H889      1.0  0.15625  0.87777  0.41414  1.0000
  H   H890      1.0  0.28294  0.91775  0.42675  1.0000
  H   H891      1.0  0.23494  0.83225  0.30202  1.0000
  H   H892      1.0  0.15047  0.90064  0.42462  1.0000
  C   C518      1.0  0.21176  0.92076  0.34487  1.0000
  H   H893      1.0  0.22064  0.87416  0.40664  1.0000
  C   C519      1.0  0.17264  0.53363  0.25503  1.0000
  H   H894      1.0  0.18853  0.52655  0.25433  1.0000
  H   H895      1.0  0.08955  0.60263  0.46426  1.0000
  N   N27       1.0  0.15992  0.74625  0.22874  1.0000
  H   H896      1.0  0.04046  0.66671  0.45366  1.0000
  H   H897      1.0  0.18168  0.56603  0.23060  1.0000
  Fe  Fe59      1.0  0.30591  0.90232  0.31065  1.0000
  C   C520      1.0  0.30439  0.84421  0.29937  1.0000
  H   H898      1.0  0.27896  0.87421  0.28010  1.0000
  H   H899      1.0  0.31807  0.82749  0.27667  1.0000
  H   H900      1.0  0.99494  0.65504  0.31504  1.0000
  H   H901      1.0  0.06960  0.66591  0.25612  1.0000
  H   H902      1.0  0.16185  0.88776  0.32485  1.0000
  C   C521      1.0  0.19502  0.89577  0.36801  1.0000
  H   H903      1.0  0.07130  0.86746  0.45044  1.0000
  Fe  Fe60      1.0  0.00718  0.61689  0.35909  1.0000
  S   S114      1.0  0.29060  0.97688  0.29210  1.0000
  C   C522      1.0  0.26123  0.84356  0.28494  1.0000
  H   H904      1.0  0.11475  0.63790  0.24886  1.0000
  C   C523      1.0  0.26228  0.90268  0.25543  1.0000
  H   H905      1.0  0.27382  0.83623  0.25665  1.0000
  C   C524      1.0  0.21196  0.93893  0.32816  1.0000
  H   H906      1.0  0.21398  0.86166  0.38942  1.0000
  H   H907      1.0  0.31232  0.95790  0.37964  1.0000
  S   S115      1.0  0.02621  0.61851  0.42315  1.0000
  H   H908      1.0  0.17252  0.72029  0.29323  1.0000
  H   H909      1.0  0.05075  0.81166  0.29538  1.0000
  Fe  Fe61      1.0  0.05840  0.94925  0.44769  1.0000
  S   S116      1.0  0.28948  0.88191  0.33493  1.0000
  H   H910      1.0  0.24328  0.82342  0.27904  1.0000
  C   C525      1.0  0.13240  0.77757  0.22503  1.0000
  H   H911      1.0  0.01358  0.49092  0.38406  1.0000
  H   H912      1.0  0.25177  0.85713  0.27855  1.0000
  H   H913      1.0  0.06468  0.88422  0.39888  1.0000
  N   N28       1.0  0.10088  0.87296  0.45155  1.0000
  H   H914      1.0  0.19479  0.87461  0.40589  1.0000
  C   C526      1.0  0.08651  0.69103  0.46212  1.0000
  H   H915      1.0  0.23273  0.95735  0.30959  1.0000
  C   C527      1.0  0.01208  0.70709  0.32111  1.0000
  C   C528      1.0  0.03419  0.69941  0.32111  1.0000
  H   H916      1.0  0.27240  0.91320  0.25577  1.0000
  H   H917      1.0  0.01116  0.67799  0.26655  1.0000
  H   H918      1.0  0.12301  0.84134  0.43134  1.0000
  H   H919      1.0  0.09275  0.86657  0.41521  1.0000
  C   C529      1.0  0.05912  0.79715  0.30145  1.0000
  C   C530      1.0  0.27439  0.88292  0.25012  1.0000
  H   H920      1.0  0.00553  0.68553  0.30662  1.0000
  H   H921      1.0  0.25248  0.90018  0.26980  1.0000
  H   H922      1.0  0.10067  0.68683  0.45223  1.0000
  H   H923      1.0  0.07218  0.79258  0.29044  1.0000
  H   H924      1.0  0.07160  0.63055  0.26408  1.0000
  H   H925      1.0  0.04923  0.78563  0.30450  1.0000
  C   C531      1.0  0.10228  0.63377  0.26050  1.0000
  H   H926      1.0  0.00589  0.64249  0.25720  1.0000
  C   C532      1.0  0.20977  0.87498  0.39688  1.0000
  C   C533      1.0  0.27982  0.83726  0.26976  1.0000
  H   H927      1.0  0.16056  0.95542  0.39396  1.0000
  H   H928      1.0  0.01066  0.71832  0.30779  1.0000
  C   C534      1.0  0.00878  0.56202  0.44198  1.0000
  H   H929      1.0  0.04151  0.71165  0.32298  1.0000
  H   H930      1.0  0.03647  0.68695  0.33333  1.0000
  H   H931      1.0  0.04129  0.69432  0.30709  1.0000
  H   H932      1.0  0.07291  0.78362  0.32618  1.0000
  H   H933      1.0  0.15204  0.91374  0.31673  1.0000
  H   H934      1.0  0.14223  0.95346  0.37974  1.0000
  C   C535      1.0  0.29852  0.92079  0.42356  1.0000
  H   H935      1.0  0.12746  0.67497  0.23763  1.0000
  H   H936      1.0  0.01760  0.56549  0.45192  1.0000
  C   C536      1.0  0.18022  0.93240  0.36551  1.0000
  H   H937      1.0  0.99949  0.97342  0.37192  1.0000
  H   H938      1.0  0.20133  0.95212  0.33267  1.0000
  H   H939      1.0  0.21981  0.92403  0.35564  1.0000
  H   H940      1.0  0.15472  0.91714  0.38120  1.0000
  C   C537      1.0  0.30767  0.91824  0.40258  1.0000
  S   S117      1.0  0.03213  0.93534  0.46466  1.0000
  S   S118      1.0  0.31720  0.92754  0.31855  1.0000
  Fe  Fe62      1.0  0.08340  0.95790  0.40767  1.0000
  H   H941      1.0  0.09709  0.83834  0.43572  1.0000
  H   H942      1.0  0.16988  0.54687  0.26253  1.0000
  H   H943      1.0  0.08997  0.89325  0.41354  1.0000
  H   H944      1.0  0.05232  0.80359  0.33068  1.0000
  N   N29       1.0  0.19153  0.91561  0.35476  1.0000
  N   N30       1.0  0.08475  0.82034  0.33415  1.0000
  C   C538      1.0  0.10204  0.83178  0.32776  1.0000
  C   C539      1.0  0.09075  0.80168  0.34815  1.0000
  C   C540      1.0  0.08087  0.81369  0.31638  1.0000
  C   C541      1.0  0.06585  0.83277  0.34306  1.0000
  C   C542      1.0  0.06825  0.84931  0.35409  1.0000
  C   C543      1.0  0.10006  0.84903  0.31031  1.0000
  C   C544      1.0  0.09679  0.80470  0.36704  1.0000
  C   C545      1.0  0.10395  0.78459  0.37898  1.0000
  C   C546      1.0  0.04817  0.85865  0.36463  1.0000
  C   C547      1.0  0.11510  0.86310  0.30846  1.0000
  H   H945      1.0  0.11604  0.82149  0.32356  1.0000
  H   H946      1.0  0.10502  0.83800  0.33992  1.0000
  H   H947      1.0  0.07837  0.79280  0.35307  1.0000
  H   H948      1.0  0.10339  0.79178  0.34059  1.0000
  H   H949      1.0  0.09502  0.80644  0.30824  1.0000
  H   H950      1.0  0.07523  0.82686  0.30604  1.0000
  H   H951      1.0  0.05685  0.84069  0.33169  1.0000
  H   H952      1.0  0.05607  0.82286  0.35320  1.0000
  H   H953      1.0  0.07477  0.86158  0.34382  1.0000
  H   H954      1.0  0.07808  0.84352  0.36502  1.0000
  H   H955      1.0  0.10305  0.84271  0.29657  1.0000
  H   H956      1.0  0.08486  0.85794  0.31169  1.0000
  H   H957      1.0  0.10906  0.81362  0.36394  1.0000
  H   H958      1.0  0.08375  0.81205  0.37636  1.0000
  H   H959      1.0  0.10843  0.78715  0.39232  1.0000
  H   H960      1.0  0.09191  0.77528  0.38333  1.0000
  H   H961      1.0  0.11708  0.77629  0.37051  1.0000
  H   H962      1.0  0.05044  0.87066  0.37198  1.0000
  H   H963      1.0  0.03787  0.86540  0.35416  1.0000
  H   H964      1.0  0.04130  0.84723  0.37585  1.0000
  H   H965      1.0  0.13053  0.85461  0.30731  1.0000
  H   H966      1.0  0.11412  0.87456  0.29523  1.0000
  H   H967      1.0  0.11188  0.87092  0.32128  1.0000
  H   H968      1.0  0.12010  0.87426  0.42316  1.0000
  H   H969      1.0  0.03296  0.70022  0.27192  1.0000
  H   H970      1.0  0.18093  0.89170  0.37689  1.0000
  C   C548      1.0  0.00605  0.69393  0.26523  1.0000
  H   H971      1.0  0.19001  0.90162  0.33055  1.0000
  C   C549      1.0  0.06579  0.79884  0.32021  1.0000
  H   H972      1.0  0.15906  0.89498  0.35807  1.0000
  S   S119      1.0  0.07612  0.96465  0.46182  1.0000
  H   H973      1.0  0.26358  0.89458  0.30573  1.0000
  H   H974      1.0  0.08603  0.62609  0.24090  1.0000
  H   H975      1.0  0.13864  0.88109  0.45672  1.0000
  H   H976      1.0  0.03388  0.48739  0.35201  1.0000
  H   H977      1.0  0.03906  0.65439  0.25569  1.0000
  H   H978      1.0  0.11473  0.89686  0.43273  1.0000
  H   H979      1.0  0.17859  0.92720  0.32863  1.0000
  H   H980      1.0  0.10643  0.61800  0.26732  1.0000
  H   H981      1.0  0.16131  0.90225  0.46707  1.0000
  C   C550      1.0  0.11803  0.88032  0.43690  1.0000
  C   C551      1.0  0.24832  0.82708  0.29161  1.0000
  H   H982      1.0  0.04491  0.68828  0.24007  1.0000
  H   H983      1.0  0.12813  0.77775  0.24090  1.0000
  C   C552      1.0  0.99551  0.53286  0.35921  1.0000
  C   C553      1.0  0.03730  0.48040  0.42466  1.0000
  H   H984      1.0  0.99322  0.69859  0.36078  1.0000
  C   C554      1.0  0.99205  0.54669  0.37209  1.0000
  H   H985      1.0  0.30709  0.91009  0.43391  1.0000
  H   H986      1.0  0.11963  0.80598  0.43961  1.0000
  S   S120      1.0  0.01629  0.59360  0.38385  1.0000
  C   C555      1.0  0.15218  0.90148  0.32941  1.0000
  H   H987      1.0  0.00093  0.53533  0.46082  1.0000
  H   H988      1.0  0.20077  0.88350  0.35926  1.0000
  C   C556      1.0  0.99290  0.92073  0.42642  1.0000
  H   H989      1.0  0.11213  0.60199  0.22521  1.0000
  H   H990      1.0  0.16952  0.52589  0.22822  1.0000
  H   H991      1.0  0.12914  0.74672  0.22676  1.0000
  H   H992      1.0  0.29829  0.93632  0.42584  1.0000
  H   H993      1.0  0.03102  0.53652  0.43438  1.0000
  H   H994      1.0  0.99308  0.58483  0.30444  1.0000
  C   C557      1.0  0.08335  0.87980  0.42088  1.0000
  H   H995      1.0  0.22540  0.89362  0.37379  1.0000
  C   C558      1.0  0.23278  0.94475  0.32197  1.0000
  H   H996      1.0  0.03582  0.59756  0.45964  1.0000
  C   C559      1.0  0.99144  0.58112  0.32053  1.0000
  H   H997      1.0  0.00593  0.53491  0.34574  1.0000
  H   H998      1.0  0.25279  0.90967  0.24429  1.0000
  S   S121      1.0  0.10303  0.97410  0.41813  1.0000
  H   H999      1.0  0.14221  0.57848  0.23303  1.0000
  Fe  Fe63      1.0  0.00703  0.61875  0.40118  1.0000
  C   C560      1.0  0.06291  0.88233  0.41498  1.0000
  C   C561      1.0  0.11584  0.81526  0.45139  1.0000
  C   C562      1.0  0.16462  0.92673  0.38382  1.0000
  C   C563      1.0  0.15957  0.90760  0.34591  1.0000
  H   H1000     1.0  0.24386  0.93190  0.31724  1.0000
  H   H1001     1.0  0.29816  0.92872  0.39299  1.0000
  H   H1002     1.0  0.03472  0.56013  0.41920  1.0000
  H   H1003     1.0  0.30002  0.88091  0.26368  1.0000
  H   H1004     1.0  0.05569  0.86896  0.42137  1.0000
  C   C564      1.0  0.31141  0.84339  0.27743  1.0000
  C   C565      1.0  0.10533  0.85076  0.45857  1.0000
  C   C566      1.0  0.07129  0.63631  0.44258  1.0000
  H   H1005     1.0  0.00631  0.67650  0.33158  1.0000
  H   H1006     1.0  0.03804  0.93501  0.42315  1.0000
  H   H1007     1.0  0.01734  0.62421  0.24137  1.0000
  H   H1008     1.0  0.14748  0.73205  0.29071  1.0000
  H   H1009     1.0  0.05479  0.66140  0.42458  1.0000
  C   C567      1.0  0.07006  0.65284  0.42452  1.0000
  C   C568      1.0  0.07586  0.64381  0.40575  1.0000
  C   C569      1.0  0.07701  0.65654  0.46595  1.0000
  C   C570      1.0  0.00056  0.68982  0.32136  1.0000
  S   S122      1.0  0.08500  0.93176  0.43157  1.0000
  H   H1010     1.0  0.99647  0.59305  0.32591  1.0000
  C   C571      1.0  0.20049  0.84226  0.46368  1.0000
  H   H1011     1.0  0.08723  0.62925  0.44111  1.0000
  C   C572      1.0  0.08167  0.87820  0.44321  1.0000
  H   H1012     1.0  0.00209  0.57634  0.43390  1.0000
  C   C573      1.0  0.28759  0.87224  0.26553  1.0000
  H   H1013     1.0  0.26395  0.87333  0.24842  1.0000
  C   C574      1.0  0.01254  0.61778  0.44672  1.0000
  H   H1014     1.0  0.01537  0.54752  0.41623  1.0000
  H   H1015     1.0  0.29603  0.96192  0.35043  1.0000
  H   H1016     1.0  0.07338  0.89307  0.44640  1.0000
  S   S123      1.0  0.13198  0.93247  0.45126  1.0000
  H   H1017     1.0  0.14673  0.64447  0.22498  1.0000
  H   H1018     1.0  0.06283  0.62459  0.44112  1.0000
  C   C575      1.0  0.01062  0.64013  0.24180  1.0000
  H   H1019     1.0  0.08069  0.66317  0.42381  1.0000
  H   H1020     1.0  0.09129  0.63536  0.40450  1.0000
  H   H1021     1.0  0.06542  0.63361  0.40532  1.0000
  H   H1022     1.0  0.07512  0.65594  0.39298  1.0000
  H   H1023     1.0  0.16724  0.74701  0.28569  1.0000
  H   H1024     1.0  0.16902  0.88045  0.43303  1.0000
  C   C576      1.0  0.04237  0.65219  0.46353  1.0000
  H   H1025     1.0  0.20795  0.93512  0.31512  1.0000
  H   H1026     1.0  0.10000  0.64348  0.27181  1.0000
  H   H1027     1.0  0.13678  0.89816  0.33445  1.0000
  H   H1028     1.0  0.23744  0.94960  0.33415  1.0000
  H   H1029     1.0  0.19066  0.93981  0.37064  1.0000
  H   H1030     1.0  0.05313  0.89584  0.41985  1.0000
  C   C577      1.0  0.01728  0.92954  0.44982  1.0000
  C   C578      1.0  0.14111  0.75603  0.22080  1.0000
  H   H1031     1.0  0.00317  0.49779  0.41588  1.0000
  C   C579      1.0  0.15566  0.74622  0.25051  1.0000
  H   H1032     1.0  0.29502  0.85295  0.23374  1.0000
  H   H1033     1.0  0.28640  0.82158  0.27511  1.0000
  H   H1034     1.0  0.01671  0.92686  0.40258  1.0000
  H   H1035     1.0  0.03402  0.64277  0.45817  1.0000
  N   N31       1.0  0.29580  0.85047  0.26447  1.0000
  C   C580      1.0  0.16757  0.72911  0.26334  1.0000
  C   C581      1.0  0.16345  0.73241  0.28450  1.0000
  H   H1036     1.0  0.22122  0.90766  0.33879  1.0000
  H   H1037     1.0  0.31455  0.92801  0.36207  1.0000
  C   C582      1.0  0.11028  0.83724  0.44266  1.0000
  H   H1038     1.0  0.11779  0.84727  0.46704  1.0000
  H   H1039     1.0  0.28399  0.88644  0.23577  1.0000
  H   H1040     1.0  0.15756  0.76079  0.25387  1.0000
  H   H1041     1.0  0.13973  0.74501  0.25641  1.0000
  H   H1042     1.0  0.17251  0.94442  0.35540  1.0000
  H   H1043     1.0  0.16320  0.52263  0.26372  1.0000
  H   H1044     1.0  0.18381  0.72768  0.25821  1.0000
  C   C583      1.0  0.02334  0.55076  0.42706  1.0000
  C   C584      1.0  0.02369  0.93072  0.42973  1.0000
  C   C585      1.0  0.09806  0.88363  0.46885  1.0000
  C   C586      1.0  0.05272  0.68322  0.22617  1.0000
  C   C587      1.0  0.18074  0.91310  0.33914  1.0000
  H   H1045     1.0  0.03939  0.49148  0.38395  1.0000
  H   H1046     1.0  0.16300  0.71456  0.26324  1.0000
  S   S124      1.0  0.00058  0.64250  0.37579  1.0000
  H   H1047     1.0  0.01731  0.66955  0.23136  1.0000
  H   H1048     1.0  0.08948  0.66495  0.23640  1.0000
  H   H1049     1.0  0.31643  0.83911  0.32610  1.0000
  C   C588      1.0  0.99874  0.92382  0.45818  1.0000
  N   N32       1.0  0.06405  0.64283  0.46225  1.0000
  C   C589      1.0  0.30981  0.96820  0.34966  1.0000
  C   C590      1.0  0.04411  0.65036  0.24082  1.0000
  H   H1050     1.0  0.30695  0.90272  0.40099  1.0000
  H   H1051     1.0  0.99499  0.97367  0.43750  1.0000
  H   H1052     1.0  0.09267  0.65247  0.45863  1.0000
  C   C591      1.0  0.07059  0.67942  0.46005  1.0000
  S   S125      1.0  0.05493  0.97390  0.42256  1.0000
  H   H1053     1.0  0.31886  0.96785  0.33491  1.0000
  H   H1054     1.0  0.05655  0.50578  0.43718  1.0000
  H   H1055     1.0  0.09685  0.90012  0.46388  1.0000
  H   H1056     1.0  0.31617  0.86062  0.23862  1.0000
  H   H1057     1.0  0.19903  0.74920  0.23747  1.0000
  C   C592      1.0  0.02539  0.65403  0.23100  1.0000
  H   H1058     1.0  0.31039  0.81621  0.24691  1.0000
  H   H1059     1.0  0.04955  0.49802  0.46298  1.0000
  H   H1060     1.0  0.15780  0.82382  0.46639  1.0000
  H   H1061     1.0  0.10321  0.80999  0.46217  1.0000
  N   N33       1.0  0.06111  0.66119  0.23006  1.0000
  H   H1062     1.0  0.99711  0.64351  0.23485  1.0000
  H   H1063     1.0  0.98678  0.63788  0.43814  1.0000
  C   C593      1.0  0.31871  0.82870  0.24000  1.0000
  C   C594      1.0  0.03421  0.48589  0.44529  1.0000
  H   H1064     1.0  0.09236  0.84562  0.46896  1.0000
  H   H1065     1.0  0.29732  0.85950  0.30192  1.0000
  C   C595      1.0  0.13143  0.67498  0.22211  1.0000
  H   H1066     1.0  0.17801  0.71666  0.23062  1.0000
  H   H1067     1.0  0.08051  0.69533  0.22363  1.0000
  H   H1068     1.0  0.15388  0.77425  0.46741  1.0000
  H   H1069     1.0  0.17303  0.77320  0.22398  1.0000
  S   S126      1.0  0.98867  0.50013  0.34681  1.0000
  C   C596      1.0  0.16478  0.72506  0.22445  1.0000
  H   H1070     1.0  0.98730  0.75089  0.26202  1.0000
  H   H1071     1.0  0.02155  0.49839  0.44697  1.0000
  H   H1072     1.0  0.03725  0.49488  0.41454  1.0000
  H   H1073     1.0  0.10223  0.77620  0.22132  1.0000
  C   C597      1.0  0.19763  0.74928  0.22222  1.0000
  C   C598      1.0  0.98694  0.70174  0.26091  1.0000
  C   C599      1.0  0.05263  0.49302  0.44857  1.0000
  C   C600      1.0  0.02857  0.48171  0.38357  1.0000
  C   C601      1.0  0.00190  0.48179  0.42170  1.0000
  C   C602      1.0  0.98645  0.91966  0.44648  1.0000
  H   H1074     1.0  0.31890  0.97862  0.25082  1.0000
  C   C603      1.0  0.98799  0.48090  0.44176  1.0000
  H   H1075     1.0  0.99514  0.48359  0.45335  1.0000
  H   H1076     1.0  0.06550  0.48062  0.44842  1.0000
  C   C604      1.0  0.18083  0.55463  0.22175  1.0000
  H   H1077     1.0  0.05666  0.68480  0.46965  1.0000
  H   H1078     1.0  0.13352  0.61444  0.22112  1.0000
  H   H1079     1.0  0.19581  0.77533  0.63649  1.0000
  C   C605      1.0  0.18207  0.83621  0.47155  1.0000
  H   H1080     1.0  0.11425  0.77711  0.55664  1.0000
  H   H1081     1.0  0.05719  0.50993  0.56070  1.0000
  C   C606      1.0  0.03460  0.71436  0.57084  1.0000
  H   H1082     1.0  0.01892  0.59999  0.49343  1.0000
  C   C607      1.0  0.16889  0.95490  0.55522  1.0000
  C   C608      1.0  0.15038  0.64943  0.70829  1.0000
  H   H1083     1.0  0.02322  0.70055  0.50786  1.0000
  Fe  Fe64      1.0  0.28418  0.96064  0.65024  1.0000
  C   C609      1.0  0.17604  0.85655  0.61825  1.0000
  H   H1084     1.0  0.21588  0.77482  0.50456  1.0000
  H   H1085     1.0  0.00213  0.66412  0.47502  1.0000
  Fe  Fe65      1.0  0.03059  0.58455  0.55201  1.0000
  S   S127      1.0  0.03719  0.60410  0.52330  1.0000
  S   S128      1.0  0.03947  0.55116  0.55568  1.0000
  Fe  Fe66      1.0  0.00629  0.61891  0.57162  1.0000
  S   S129      1.0  0.01055  0.64113  0.54419  1.0000
  H   H1086     1.0  0.99761  0.73519  0.56389  1.0000
  H   H1087     1.0  0.14695  0.74969  0.47467  1.0000
  Fe  Fe67      1.0  0.04233  0.62593  0.54084  1.0000
  S   S130      1.0  0.06634  0.64518  0.52899  1.0000
  H   H1088     1.0  0.99664  0.57634  0.51368  1.0000
  S   S131      1.0  0.03861  0.60505  0.56929  1.0000
  Fe  Fe68      1.0  0.16881  0.87077  0.53819  1.0000
  S   S132      1.0  0.17335  0.84234  0.52604  1.0000
  S   S133      1.0  0.13900  0.89061  0.53751  1.0000
  Fe  Fe69      1.0  0.21108  0.86455  0.54686  1.0000
  S   S134      1.0  0.21894  0.83601  0.53408  1.0000
  S   S135      1.0  0.23641  0.87418  0.55730  1.0000
  Fe  Fe70      1.0  0.20217  0.85185  0.51017  1.0000
  H   H1089     1.0  0.11120  0.87933  0.47634  1.0000
  Fe  Fe71      1.0  0.18945  0.82886  0.55103  1.0000
  S   S136      1.0  0.18965  0.79725  0.56769  1.0000
  S   S137      1.0  0.19695  0.88116  0.52119  1.0000
  S   S138      1.0  0.18232  0.85661  0.56494  1.0000
  Fe  Fe72      1.0  0.27238  0.92795  0.63257  1.0000
  S   S139      1.0  0.27324  0.93137  0.66344  1.0000
  S   S140      1.0  0.24493  0.91808  0.62606  1.0000
  H   H1090     1.0  0.08368  0.52665  0.55709  1.0000
  C   C610      1.0  0.14370  0.77253  0.53832  1.0000
  H   H1091     1.0  0.99444  0.54738  0.49032  1.0000
  Fe  Fe73      1.0  0.10164  0.69181  0.60656  1.0000
  S   S141      1.0  0.08427  0.72232  0.59997  1.0000
  S   S142      1.0  0.11491  0.67206  0.58369  1.0000
  Fe  Fe74      1.0  0.09891  0.69513  0.64895  1.0000
  S   S143      1.0  0.08050  0.72615  0.64578  1.0000
  Fe  Fe75      1.0  0.06357  0.71420  0.62787  1.0000
  S   S144      1.0  0.03189  0.72468  0.62204  1.0000
  Fe  Fe76      1.0  0.10223  0.73249  0.61791  1.0000
  S   S145      1.0  0.10893  0.76418  0.60670  1.0000
  S   S146      1.0  0.07996  0.68272  0.63313  1.0000
  S   S147      1.0  0.12172  0.70239  0.62235  1.0000
  H   H1092     1.0  0.14600  0.48806  0.70919  1.0000
  H   H1093     1.0  0.25877  0.81471  0.59848  1.0000
  N   N34       1.0  0.22816  0.82196  0.61274  1.0000
  H   H1094     1.0  0.99769  0.66803  0.64652  1.0000
  C   C611      1.0  0.00808  0.72277  0.63621  1.0000
  C   C612      1.0  0.00523  0.71160  0.65492  1.0000
  C   C613      1.0  0.03120  0.65546  0.48414  1.0000
  C   C614      1.0  0.06540  0.62419  0.47747  1.0000
  C   C615      1.0  0.06960  0.48217  0.53147  1.0000
  H   H1095     1.0  0.10172  0.58534  0.49420  1.0000
  C   C616      1.0  0.03011  0.68239  0.59146  1.0000
  C   C617      1.0  0.01542  0.51318  0.53400  1.0000
  C   C618      1.0  0.23839  0.88619  0.57671  1.0000
  C   C619      1.0  0.22188  0.89231  0.59033  1.0000
  C   C620      1.0  0.22414  0.90217  0.60520  1.0000
  C   C621      1.0  0.24296  0.90596  0.60673  1.0000
  C   C622      1.0  0.25950  0.89973  0.59316  1.0000
  C   C623      1.0  0.25720  0.88991  0.57827  1.0000
  H   H1096     1.0  0.20746  0.88930  0.58951  1.0000
  H   H1097     1.0  0.21127  0.90679  0.61571  1.0000
  H   H1098     1.0  0.13227  0.91161  0.58583  1.0000
  H   H1099     1.0  0.27012  0.88527  0.56781  1.0000
  C   C624      1.0  0.16719  0.78813  0.57851  1.0000
  C   C625      1.0  0.16774  0.76767  0.58616  1.0000
  C   C626      1.0  0.15005  0.75996  0.59475  1.0000
  C   C627      1.0  0.13169  0.77275  0.59587  1.0000
  C   C628      1.0  0.13120  0.79318  0.58819  1.0000
  C   C629      1.0  0.14884  0.80085  0.57951  1.0000
  H   H1100     1.0  0.18191  0.75774  0.58542  1.0000
  H   H1101     1.0  0.15060  0.74422  0.60065  1.0000
  H   H1102     1.0  0.11705  0.80316  0.58907  1.0000
  H   H1103     1.0  0.14824  0.81663  0.57376  1.0000
  H   H1104     1.0  0.12361  0.79116  0.50388  1.0000
  H   H1105     1.0  0.18009  0.64164  0.58713  1.0000
  C   C630      1.0  0.20356  0.78599  0.51059  1.0000
  H   H1106     1.0  0.28643  0.82961  0.70485  1.0000
  N   N35       1.0  0.08007  0.49102  0.54367  1.0000
  H   H1107     1.0  0.10762  0.74277  0.56234  1.0000
  H   H1108     1.0  0.15183  0.96198  0.52031  1.0000
  H   H1109     1.0  0.27180  0.80682  0.56509  1.0000
  H   H1110     1.0  0.25236  0.85243  0.61074  1.0000
  H   H1111     1.0  0.21365  0.85085  0.60006  1.0000
  C   C631      1.0  0.07851  0.65325  0.54500  1.0000
  C   C632      1.0  0.07347  0.64869  0.56531  1.0000
  C   C633      1.0  0.08390  0.65524  0.57744  1.0000
  C   C634      1.0  0.09948  0.66620  0.56928  1.0000
  C   C635      1.0  0.10437  0.67071  0.54902  1.0000
  C   C636      1.0  0.09382  0.66449  0.53698  1.0000
  H   H1112     1.0  0.06177  0.63989  0.57163  1.0000
  H   H1113     1.0  0.08034  0.65127  0.59307  1.0000
  H   H1114     1.0  0.11659  0.67883  0.54258  1.0000
  H   H1115     1.0  0.09789  0.66802  0.52135  1.0000
  H   H1116     1.0  0.03373  0.49920  0.59240  1.0000
  H   H1117     1.0  0.08430  0.60219  0.50834  1.0000
  H   H1118     1.0  0.18815  0.61939  0.60354  1.0000
  C   C637      1.0  0.02056  0.52374  0.54675  1.0000
  C   C638      1.0  0.03054  0.54013  0.53950  1.0000
  C   C639      1.0  0.03492  0.54628  0.51937  1.0000
  C   C640      1.0  0.03014  0.53542  0.50658  1.0000
  H   H1119     1.0  0.04269  0.55889  0.51366  1.0000
  H   H1120     1.0  0.15241  0.67570  0.64454  1.0000
  H   H1121     1.0  0.15626  0.48492  0.68436  1.0000
  C   C641      1.0  0.11730  0.92435  0.49056  1.0000
  C   C642      1.0  0.11910  0.91506  0.50972  1.0000
  C   C643      1.0  0.13606  0.90112  0.51345  1.0000
  C   C644      1.0  0.15100  0.89622  0.49794  1.0000
  H   H1122     1.0  0.29891  0.85047  0.69291  1.0000
  H   H1123     1.0  0.10433  0.93528  0.48779  1.0000
  H   H1124     1.0  0.10746  0.91885  0.52167  1.0000
  H   H1125     1.0  0.16399  0.88527  0.50054  1.0000
  C   C645      1.0  0.08617  0.61075  0.47689  1.0000
  H   H1126     1.0  0.01799  0.70409  0.66153  1.0000
  H   H1127     1.0  0.17181  0.95946  0.48788  1.0000
  H   H1128     1.0  0.01686  0.51913  0.56230  1.0000
  C   C646      1.0  0.14186  0.68452  0.68181  1.0000
  C   C647      1.0  0.21643  0.79367  0.64074  1.0000
  H   H1129     1.0  0.16212  0.62211  0.57241  1.0000
  H   H1130     1.0  0.19571  0.62097  0.66731  1.0000
  C   C648      1.0  0.16995  0.62562  0.64000  1.0000
  C   C649      1.0  0.23644  0.82827  0.62831  1.0000
  S   S148      1.0  0.10621  0.67486  0.67702  1.0000
  C   C650      1.0  0.14594  0.95984  0.56171  1.0000
  H   H1131     1.0  0.04054  0.70464  0.53325  1.0000
  H   H1132     1.0  0.14104  0.94971  0.57525  1.0000
  H   H1133     1.0  0.16069  0.75827  0.50065  1.0000
  C   C651      1.0  0.30056  0.83571  0.70257  1.0000
  H   H1134     1.0  0.17381  0.96789  0.54463  1.0000
  C   C652      1.0  0.05742  0.70750  0.56546  1.0000
  H   H1135     1.0  0.24375  0.94483  0.54326  1.0000
  C   C653      1.0  0.24929  0.85465  0.64076  1.0000
  H   H1136     1.0  0.00736  0.50084  0.53979  1.0000
  H   H1137     1.0  0.09808  0.61977  0.47579  1.0000
  H   H1138     1.0  0.03029  0.68954  0.60421  1.0000
  C   C654      1.0  0.07702  0.89347  0.50019  1.0000
  N   N36       1.0  0.02212  0.69784  0.57548  1.0000
  H   H1139     1.0  0.16901  0.69191  0.68695  1.0000
  H   H1140     1.0  0.16525  0.70046  0.61588  1.0000
  H   H1141     1.0  0.06336  0.73055  0.54031  1.0000
  C   C655      1.0  0.02509  0.70135  0.53778  1.0000
  H   H1142     1.0  0.00312  0.67032  0.49817  1.0000
  H   H1143     1.0  0.12350  0.64182  0.70283  1.0000
  H   H1144     1.0  0.21727  0.94203  0.52587  1.0000
  H   H1145     1.0  0.20426  0.80459  0.64715  1.0000
  S   S149      1.0  0.98783  0.62651  0.59999  1.0000
  C   C656      1.0  0.08684  0.59494  0.49518  1.0000
  H   H1146     1.0  0.25251  0.87024  0.63725  1.0000
  C   C657      1.0  0.99141  0.73263  0.62790  1.0000
  H   H1147     1.0  0.13513  0.75572  0.50840  1.0000
  C   C658      1.0  0.13999  0.78700  0.50366  1.0000
  H   H1148     1.0  0.20559  0.78699  0.52546  1.0000
  H   H1149     1.0  0.23975  0.91939  0.54596  1.0000
  H   H1150     1.0  0.22731  0.86090  0.62228  1.0000
  H   H1151     1.0  0.07427  0.90946  0.49337  1.0000
  C   C659      1.0  0.20975  0.83604  0.60758  1.0000
  H   H1152     1.0  0.99160  0.69414  0.58801  1.0000
  H   H1153     1.0  0.99373  0.92285  0.47371  1.0000
  H   H1154     1.0  0.20354  0.83046  0.59678  1.0000
  C   C660      1.0  0.13325  0.65293  0.69953  1.0000
  H   H1155     1.0  0.06397  0.89045  0.51160  1.0000
  H   H1156     1.0  0.09041  0.89075  0.50723  1.0000
  C   C661      1.0  0.12875  0.67059  0.68644  1.0000
  S   S150      1.0  0.99797  0.59641  0.55709  1.0000
  H   H1157     1.0  0.25038  0.81789  0.63111  1.0000
  H   H1158     1.0  0.07546  0.49526  0.57384  1.0000
  H   H1159     1.0  0.03411  0.53981  0.49103  1.0000
  S   S151      1.0  0.31637  0.94683  0.64688  1.0000
  H   H1160     1.0  0.07318  0.68385  0.71072  1.0000
  H   H1161     1.0  0.08446  0.49224  0.50162  1.0000
  C   C662      1.0  0.20883  0.77371  0.64390  1.0000
  S   S152      1.0  0.28071  0.95842  0.62004  1.0000
  H   H1162     1.0  0.18757  0.95112  0.51817  1.0000
  H   H1163     1.0  0.10540  0.54296  0.51667  1.0000
  H   H1164     1.0  0.20348  0.91310  0.54635  1.0000
  H   H1165     1.0  0.09586  0.50885  0.51891  1.0000
  H   H1166     1.0  0.00938  0.68087  0.56003  1.0000
  H   H1167     1.0  0.02123  0.63609  0.61902  1.0000
  Fe  Fe77      1.0  0.30556  0.91742  0.65776  1.0000
  C   C663      1.0  0.02289  0.68792  0.55811  1.0000
  H   H1168     1.0  0.04581  0.67597  0.58649  1.0000
  C   C664      1.0  0.18189  0.61428  0.67264  1.0000
  C   C665      1.0  0.15907  0.68094  0.69046  1.0000
  H   H1169     1.0  0.18485  0.59843  0.67031  1.0000
  H   H1170     1.0  0.16407  0.85908  0.63091  1.0000
  H   H1171     1.0  0.05543  0.49228  0.52893  1.0000
  C   C666      1.0  0.16701  0.67165  0.63540  1.0000
  C   C667      1.0  0.14537  0.76540  0.49875  1.0000
  H   H1172     1.0  0.01494  0.71583  0.53758  1.0000
  H   H1173     1.0  0.17794  0.90015  0.57918  1.0000
  C   C668      1.0  0.02090  0.69094  0.52231  1.0000
  H   H1174     1.0  0.27407  0.90247  0.59415  1.0000
  H   H1175     1.0  0.20456  0.80078  0.50118  1.0000
  H   H1176     1.0  0.17766  0.61459  0.68852  1.0000
  C   C669      1.0  0.12304  0.74565  0.55639  1.0000
  H   H1177     1.0  0.16230  0.64162  0.66560  1.0000
  C   C670      1.0  0.14337  0.76529  0.47775  1.0000
  C   C671      1.0  0.18351  0.77958  0.51116  1.0000
  H   H1178     1.0  0.98678  0.55358  0.52474  1.0000
  H   H1179     1.0  0.14746  0.93644  0.52311  1.0000
  H   H1180     1.0  0.17545  0.69976  0.63740  1.0000
  H   H1181     1.0  0.25469  0.80756  0.54890  1.0000
  H   H1182     1.0  0.04486  0.64224  0.60594  1.0000
  C   C672      1.0  0.01900  0.66416  0.59899  1.0000
  C   C673      1.0  0.16444  0.91947  0.55556  1.0000
  H   H1183     1.0  0.09598  0.64413  0.65575  1.0000
  H   H1184     1.0  0.00072  0.71209  0.59717  1.0000
  H   H1185     1.0  0.22076  0.76201  0.63818  1.0000
  H   H1186     1.0  0.03165  0.65529  0.62570  1.0000
  C   C674      1.0  0.04159  0.48356  0.59222  1.0000
  H   H1187     1.0  0.17783  0.66301  0.64469  1.0000
  C   C675      1.0  0.17498  0.69106  0.62593  1.0000
  H   H1188     1.0  0.29878  0.97406  0.57573  1.0000
  H   H1189     1.0  0.18267  0.77852  0.49598  1.0000
  H   H1190     1.0  0.23789  0.78983  0.61531  1.0000
  H   H1191     1.0  0.15365  0.75895  0.53391  1.0000
  H   H1192     1.0  0.06088  0.69557  0.55629  1.0000
  H   H1193     1.0  0.17083  0.59959  0.58828  1.0000
  C   C676      1.0  0.10624  0.63008  0.65965  1.0000
  C   C677      1.0  0.12243  0.76727  0.54595  1.0000
  N   N37       1.0  0.14526  0.79031  0.52226  1.0000
  H   H1194     1.0  0.23042  0.93351  0.56585  1.0000
  C   C678      1.0  0.16611  0.79520  0.51902  1.0000
  C   C679      1.0  0.13124  0.80819  0.52929  1.0000
  C   C680      1.0  0.08475  0.51095  0.53229  1.0000
  C   C681      1.0  0.06651  0.49488  0.56258  1.0000
  C   C682      1.0  0.12901  0.82775  0.51410  1.0000
  C   C683      1.0  0.16195  0.94827  0.49493  1.0000
  H   H1195     1.0  0.17547  0.95477  0.56833  1.0000
  C   C684      1.0  0.11642  0.84521  0.52358  1.0000
  H   H1196     1.0  0.14927  0.77506  0.55112  1.0000
  H   H1197     1.0  0.08928  0.68793  0.47737  1.0000
  H   H1198     1.0  0.16931  0.79832  0.53282  1.0000
  H   H1199     1.0  0.13572  0.81168  0.54232  1.0000
  H   H1200     1.0  0.11582  0.80487  0.53420  1.0000
  C   C685      1.0  0.01194  0.60838  0.48148  1.0000
  C   C686      1.0  0.09336  0.52401  0.54308  1.0000
  H   H1201     1.0  0.13858  0.69821  0.67180  1.0000
  H   H1202     1.0  0.12156  0.82568  0.50237  1.0000
  H   H1203     1.0  0.14341  0.83250  0.50715  1.0000
  H   H1204     1.0  0.23823  0.85336  0.65443  1.0000
  C   C687      1.0  0.21352  0.94180  0.54183  1.0000
  H   H1205     1.0  0.01854  0.97754  0.48300  1.0000
  H   H1206     1.0  0.14692  0.79726  0.49112  1.0000
  H   H1207     1.0  0.22888  0.79146  0.64903  1.0000
  H   H1208     1.0  0.11533  0.85898  0.51251  1.0000
  H   H1209     1.0  0.10116  0.84200  0.52987  1.0000
  H   H1210     1.0  0.12349  0.84816  0.53523  1.0000
  H   H1211     1.0  0.03224  0.72240  0.58344  1.0000
  H   H1212     1.0  0.12791  0.77154  0.47531  1.0000
  H   H1213     1.0  0.07789  0.65437  0.48175  1.0000
  H   H1214     1.0  0.14629  0.88831  0.57902  1.0000
  H   H1215     1.0  0.05300  0.48021  0.60184  1.0000
  H   H1216     1.0  0.03923  0.48324  0.56268  1.0000
  H   H1217     1.0  0.98635  0.71592  0.55812  1.0000
  S   S153      1.0  0.21420  0.85055  0.47819  1.0000
  H   H1218     1.0  0.06378  0.70134  0.57894  1.0000
  H   H1219     1.0  0.16925  0.85267  0.60690  1.0000
  H   H1220     1.0  0.18582  0.62761  0.63485  1.0000
  C   C688      1.0  0.14639  0.90090  0.58664  1.0000
  H   H1221     1.0  0.18566  0.92559  0.51905  1.0000
  H   H1222     1.0  0.21328  0.79788  0.61027  1.0000
  Fe  Fe78      1.0  0.31241  0.94260  0.61755  1.0000
  S   S154      1.0  0.01613  0.50420  0.49782  1.0000
  C   C689      1.0  0.16321  0.66358  0.70404  1.0000
  C   C690      1.0  0.00095  0.70614  0.58364  1.0000
  H   H1223     1.0  0.08047  0.55273  0.52792  1.0000
  H   H1224     1.0  0.02772  0.64098  0.49285  1.0000
  C   C691      1.0  0.13555  0.64496  0.63765  1.0000
  H   H1225     1.0  0.19032  0.68774  0.61771  1.0000
  H   H1226     1.0  0.13018  0.73498  0.54620  1.0000
  H   H1227     1.0  0.02978  0.72612  0.55897  1.0000
  C   C692      1.0  0.99363  0.62089  0.48501  1.0000
  N   N38       1.0  0.15673  0.64024  0.62732  1.0000
  H   H1228     1.0  0.18045  0.65650  0.61163  1.0000
  S   S155      1.0  0.30399  0.91196  0.62785  1.0000
  H   H1229     1.0  0.19714  0.84343  0.63702  1.0000
  C   C693      1.0  0.98938  0.72253  0.57006  1.0000
  H   H1230     1.0  0.11163  0.63077  0.67316  1.0000
  H   H1231     1.0  0.14876  0.92430  0.55331  1.0000
  H   H1232     1.0  0.13494  0.65127  0.65097  1.0000
  C   C694      1.0  0.07979  0.87982  0.48498  1.0000
  H   H1233     1.0  0.16964  0.60989  0.63854  1.0000
  H   H1234     1.0  0.18355  0.76465  0.52036  1.0000
  H   H1235     1.0  0.14712  0.89482  0.60217  1.0000
  H   H1236     1.0  0.04037  0.66158  0.49195  1.0000
  H   H1237     1.0  0.06490  0.73721  0.56334  1.0000
  C   C695      1.0  0.17414  0.61458  0.58082  1.0000
  H   H1238     1.0  0.18841  0.61251  0.57049  1.0000
  H   H1239     1.0  0.14499  0.64106  0.60107  1.0000
  C   C696      1.0  0.09533  0.54454  0.53074  1.0000
  Fe  Fe79      1.0  0.00491  0.61743  0.52945  1.0000
  C   C697      1.0  0.06812  0.72485  0.55464  1.0000
  H   H1240     1.0  0.09782  0.61738  0.66253  1.0000
  C   C698      1.0  0.13266  0.91995  0.47518  1.0000
  C   C699      1.0  0.15596  0.63125  0.60975  1.0000
  C   C700      1.0  0.17593  0.62730  0.59558  1.0000
  H   H1241     1.0  0.99757  0.57174  0.47866  1.0000
  H   H1242     1.0  0.15048  0.61664  0.61438  1.0000
  H   H1243     1.0  0.11775  0.62544  0.63023  1.0000
  H   H1244     1.0  0.16987  0.90639  0.54781  1.0000
  H   H1245     1.0  0.16755  0.80897  0.50831  1.0000
  H   H1246     1.0  0.12685  0.65705  0.62841  1.0000
  H   H1247     1.0  0.15596  0.66951  0.60953  1.0000
  C   C701      1.0  0.05127  0.48050  0.57152  1.0000
  H   H1248     1.0  0.10840  0.51674  0.54605  1.0000
  H   H1249     1.0  0.10158  0.55358  0.53867  1.0000
  H   H1250     1.0  0.18516  0.82586  0.62939  1.0000
  C   C702      1.0  0.12379  0.62707  0.64309  1.0000
  C   C703      1.0  0.15838  0.94676  0.51706  1.0000
  C   C704      1.0  0.16510  0.65950  0.61992  1.0000
  H   H1251     1.0  0.13347  0.61278  0.64752  1.0000
  H   H1252     1.0  0.22617  0.82700  0.64244  1.0000
  S   S156      1.0  0.18444  0.66027  0.71534  1.0000
  H   H1253     1.0  0.15136  0.61966  0.66889  1.0000
  H   H1254     1.0  0.08447  0.71955  0.55219  1.0000
  H   H1255     1.0  0.25872  0.83060  0.55470  1.0000
  H   H1256     1.0  0.07105  0.52011  0.52732  1.0000
  N   N39       1.0  0.17684  0.93574  0.54690  1.0000
  H   H1257     1.0  0.13137  0.74297  0.56870  1.0000
  C   C705      1.0  0.22402  0.80066  0.61884  1.0000
  H   H1258     1.0  0.16432  0.92340  0.58583  1.0000
  C   C706      1.0  0.17817  0.93946  0.52505  1.0000
  C   C707      1.0  0.16501  0.62624  0.66225  1.0000
  C   C708      1.0  0.25747  0.81467  0.56063  1.0000
  C   C709      1.0  0.02072  0.51859  0.51390  1.0000
  H   H1259     1.0  0.99353  0.74174  0.61368  1.0000
  C   C710      1.0  0.16435  0.91135  0.57751  1.0000
  H   H1260     1.0  0.17576  0.83734  0.48647  1.0000
  C   C711      1.0  0.23298  0.93438  0.54979  1.0000
  H   H1261     1.0  0.14751  0.95295  0.48956  1.0000
  H   H1262     1.0  0.16890  0.93352  0.49058  1.0000
  H   H1263     1.0  0.19771  0.92530  0.56709  1.0000
  H   H1264     1.0  0.23902  0.79711  0.58233  1.0000
  C   C712      1.0  0.24031  0.81320  0.57784  1.0000
  C   C713      1.0  0.14940  0.90577  0.47891  1.0000
  C   C714      1.0  0.02992  0.64854  0.61328  1.0000
  H   H1265     1.0  0.22640  0.82109  0.57269  1.0000
  H   H1266     1.0  0.26337  0.84437  0.64299  1.0000
  H   H1267     1.0  0.03121  0.67652  0.52160  1.0000
  H   H1268     1.0  0.06599  0.50358  0.71618  1.0000
  H   H1269     1.0  0.03561  0.67529  0.55716  1.0000
  H   H1270     1.0  0.01777  0.65676  0.58685  1.0000
  H   H1271     1.0  0.01408  0.68493  0.47613  1.0000
  H   H1272     1.0  0.18222  0.87066  0.61263  1.0000
  C   C715      1.0  0.24407  0.82253  0.59471  1.0000
  H   H1273     1.0  0.24610  0.83822  0.58838  1.0000
  C   C716      1.0  0.19225  0.83949  0.62456  1.0000
  C   C717      1.0  0.24107  0.84998  0.62404  1.0000
  H   H1274     1.0  0.11372  0.76945  0.53402  1.0000
  H   H1275     1.0  0.00526  0.68809  0.52569  1.0000
  H   H1276     1.0  0.20406  0.76874  0.65969  1.0000
  H   H1277     1.0  0.00384  0.66876  0.60690  1.0000
  H   H1278     1.0  0.06570  0.88268  0.47907  1.0000
  H   H1279     1.0  0.06118  0.62833  0.49229  1.0000
  C   C718      1.0  0.19774  0.92797  0.55114  1.0000
  H   H1280     1.0  0.08195  0.86412  0.49260  1.0000
  H   H1281     1.0  0.13748  0.95812  0.55069  1.0000
  C   C719      1.0  0.01144  0.66963  0.48322  1.0000
  H   H1282     1.0  0.15383  0.63573  0.71820  1.0000
  H   H1283     1.0  0.31291  0.82551  0.69516  1.0000
  H   H1284     1.0  0.31886  0.84527  0.71866  1.0000
  H   H1285     1.0  0.10648  0.48460  0.55700  1.0000
  H   H1286     1.0  0.20803  0.95734  0.54472  1.0000
  H   H1287     1.0  0.07536  0.58527  0.49673  1.0000
  H   H1288     1.0  0.05454  0.61463  0.47647  1.0000
  H   H1289     1.0  0.31271  0.92299  0.70150  1.0000
  H   H1290     1.0  0.10169  0.49198  0.71960  1.0000
  S   S157      1.0  0.05787  0.54798  0.86307  1.0000
  C   C720      1.0  0.29715  0.62756  0.80842  1.0000
  H   H1291     1.0  0.30150  0.65374  0.85299  1.0000
  S   S158      1.0  0.10366  0.55131  0.81992  1.0000
  H   H1292     1.0  0.09391  0.62022  0.74402  1.0000
  H   H1293     1.0  0.13114  0.51870  0.77274  1.0000
  H   H1294     1.0  0.16706  0.70141  0.83911  1.0000
  C   C721      1.0  0.30154  0.63807  0.85134  1.0000
  H   H1295     1.0  0.14401  0.65611  0.75098  1.0000
  H   H1296     1.0  0.99688  0.56333  0.92685  1.0000
  Fe  Fe80      1.0  0.28030  0.69032  0.86504  1.0000
  S   S159      1.0  0.25749  0.67264  0.85996  1.0000
  C   C722      1.0  0.29716  0.62602  0.87170  1.0000
  S   S160      1.0  0.27339  0.71732  0.88031  1.0000
  H   H1297     1.0  0.14187  0.69034  0.72996  1.0000
  Fe  Fe81      1.0  0.21540  0.63572  0.77587  1.0000
  S   S161      1.0  0.18539  0.65311  0.77074  1.0000
  S   S162      1.0  0.23869  0.65228  0.78211  1.0000
  Fe  Fe82      1.0  0.20575  0.59783  0.76457  1.0000
  S   S163      1.0  0.17541  0.61281  0.75824  1.0000
  S   S164      1.0  0.21867  0.56481  0.76479  1.0000
  Fe  Fe83      1.0  0.19009  0.63941  0.74355  1.0000
  H   H1298     1.0  0.13328  0.70147  0.75180  1.0000
  Fe  Fe84      1.0  0.17313  0.62525  0.78578  1.0000
  S   S165      1.0  0.14635  0.62657  0.80989  1.0000
  S   S166      1.0  0.22099  0.62354  0.74763  1.0000
  S   S167      1.0  0.20259  0.60879  0.79304  1.0000
  C   C723      1.0  0.20567  0.54686  0.76034  1.0000
  H   H1299     1.0  0.30833  0.77613  0.91541  1.0000
  H   H1300     1.0  0.07368  0.64337  0.76259  1.0000
  C   C724      1.0  0.17776  0.53780  0.74994  1.0000
  C   C725      1.0  0.18736  0.55244  0.75383  1.0000
  Fe  Fe85      1.0  0.08794  0.53596  0.84789  1.0000
  H   H1301     1.0  0.16367  0.54229  0.74477  1.0000
  H   H1302     1.0  0.18073  0.56806  0.75153  1.0000
  C   C726      1.0  0.25370  0.66654  0.83791  1.0000
  C   C727      1.0  0.24464  0.64977  0.83873  1.0000
  C   C728      1.0  0.24039  0.64491  0.82177  1.0000
  C   C729      1.0  0.24475  0.65703  0.80379  1.0000
  C   C730      1.0  0.25430  0.67353  0.80289  1.0000
  C   C731      1.0  0.25874  0.67827  0.81983  1.0000
  H   H1303     1.0  0.24090  0.64043  0.85260  1.0000
  H   H1304     1.0  0.23388  0.63172  0.82254  1.0000
  H   H1305     1.0  0.25794  0.68291  0.78902  1.0000
  H   H1306     1.0  0.26555  0.69132  0.81899  1.0000
  S   S168      1.0  0.05750  0.54685  0.91677  1.0000
  Fe  Fe86      1.0  0.06855  0.53140  0.89045  1.0000
  C   C732      1.0  0.16783  0.54522  0.82069  1.0000
  H   H1307     1.0  0.02412  0.52678  0.91239  1.0000
  C   C733      1.0  0.29964  0.72927  0.94202  1.0000
  C   C734      1.0  0.14935  0.51621  0.79477  1.0000
  H   H1308     1.0  0.09526  0.48274  0.79967  1.0000
  S   S169      1.0  0.07832  0.50822  0.84341  1.0000
  C   C735      1.0  0.08178  0.65611  0.75631  1.0000
  H   H1309     1.0  0.19552  0.66358  0.80634  1.0000
  S   S170      1.0  0.09988  0.52174  0.87535  1.0000
  C   C736      1.0  0.13378  0.66918  0.75625  1.0000
  H   H1310     1.0  0.99584  0.59114  0.89100  1.0000
  H   H1311     1.0  0.15458  0.51822  0.85031  1.0000
  H   H1312     1.0  0.15188  0.65646  0.84087  1.0000
  S   S171      1.0  0.30545  0.70179  0.84328  1.0000
  H   H1313     1.0  0.31860  0.97121  0.74693  1.0000
  H   H1314     1.0  0.29464  0.65582  0.92738  1.0000
  Fe  Fe87      1.0  0.04908  0.51909  0.86096  1.0000
  C   C737      1.0  0.11494  0.57235  0.81815  1.0000
  C   C738      1.0  0.11322  0.58250  0.83380  1.0000
  C   C739      1.0  0.12288  0.59923  0.83134  1.0000
  C   C740      1.0  0.13442  0.60553  0.81337  1.0000
  C   C741      1.0  0.13609  0.59519  0.79796  1.0000
  C   C742      1.0  0.12629  0.57881  0.80027  1.0000
  H   H1315     1.0  0.10446  0.57749  0.84769  1.0000
  H   H1316     1.0  0.12153  0.60715  0.84338  1.0000
  H   H1317     1.0  0.14483  0.59982  0.78416  1.0000
  H   H1318     1.0  0.12783  0.57081  0.78824  1.0000
  C   C743      1.0  0.19279  0.67568  0.81528  1.0000
  C   C744      1.0  0.20102  0.48091  0.82611  1.0000
  H   H1319     1.0  0.01319  0.60183  0.85795  1.0000
  C   C745      1.0  0.07117  0.53925  0.93599  1.0000
  C   C746      1.0  0.08670  0.52298  0.93573  1.0000
  C   C747      1.0  0.28701  0.64264  0.93149  1.0000
  H   H1320     1.0  0.20762  0.68765  0.77582  1.0000
  H   H1321     1.0  0.09065  0.51499  0.92347  1.0000
  C   C748      1.0  0.20366  0.69974  0.78488  1.0000
  H   H1322     1.0  0.11391  0.67202  0.73623  1.0000
  H   H1323     1.0  0.11513  0.64765  0.78792  1.0000
  H   H1324     1.0  0.19372  0.52275  0.82003  1.0000
  H   H1325     1.0  0.29400  0.84346  0.76193  1.0000
  H   H1326     1.0  0.05893  0.68745  0.73422  1.0000
  H   H1327     1.0  0.29959  0.76865  0.79741  1.0000
  C   C749      1.0  0.00369  0.50483  0.86231  1.0000
  S   S172      1.0  0.29840  0.76036  0.84634  1.0000
  H   H1328     1.0  0.10912  0.50433  0.95122  1.0000
  C   C750      1.0  0.30738  0.77908  0.89969  1.0000
  H   H1329     1.0  0.29284  0.84933  0.72827  1.0000
  H   H1330     1.0  0.05849  0.49080  0.74062  1.0000
  C   C751      1.0  0.18665  0.69529  0.80160  1.0000
  H   H1331     1.0  0.13048  0.67680  0.80432  1.0000
  H   H1332     1.0  0.14306  0.49517  0.82085  1.0000
  H   H1333     1.0  0.17117  0.57659  0.81443  1.0000
  C   C752      1.0  0.17806  0.56249  0.80876  1.0000
  C   C753      1.0  0.13069  0.51269  0.78846  1.0000
  H   H1334     1.0  0.02164  0.49000  0.88374  1.0000
  H   H1335     1.0  0.30562  0.58522  0.96349  1.0000
  H   H1336     1.0  0.15782  0.68678  0.74777  1.0000
  H   H1337     1.0  0.31599  0.80632  0.72799  1.0000
  C   C754      1.0  0.00307  0.55852  0.89079  1.0000
  C   C755      1.0  0.31892  0.65994  0.81492  1.0000
  H   H1338     1.0  0.19979  0.63338  0.82222  1.0000
  H   H1339     1.0  0.26490  0.65663  0.95334  1.0000
  C   C756      1.0  0.01051  0.52306  0.92252  1.0000
  H   H1340     1.0  0.30759  0.83080  0.79271  1.0000
  H   H1341     1.0  0.00085  0.49584  0.94001  1.0000
  C   C757      1.0  0.31931  0.79068  0.82816  1.0000
  H   H1342     1.0  0.17395  0.69380  0.79497  1.0000
  C   C758      1.0  0.06617  0.54950  0.95196  1.0000
  H   H1343     1.0  0.28915  0.63812  0.84375  1.0000
  H   H1344     1.0  0.02030  0.57620  0.85401  1.0000
  C   C759      1.0  0.30715  0.78157  0.76682  1.0000
  H   H1345     1.0  0.20762  0.67599  0.81869  1.0000
  C   C760      1.0  0.99888  0.58058  0.88043  1.0000
  C   C761      1.0  0.29765  0.62615  0.94575  1.0000
  H   H1346     1.0  0.28905  0.80935  0.77450  1.0000
  C   C762      1.0  0.30522  0.80329  0.77080  1.0000
  C   C763      1.0  0.14898  0.50952  0.81688  1.0000
  S   S173      1.0  0.30028  0.67325  0.88604  1.0000
  H   H1347     1.0  0.18072  0.72261  0.85610  1.0000
  H   H1348     1.0  0.30260  0.66296  0.81998  1.0000
  S   S174      1.0  0.02042  0.52103  0.85002  1.0000
  C   C764      1.0  0.01405  0.50052  0.92972  1.0000
  C   C765      1.0  0.28692  0.77530  0.89774  1.0000
  H   H1349     1.0  0.16394  0.68284  0.85990  1.0000
  H   H1350     1.0  0.14525  0.49811  0.88394  1.0000
  H   H1351     1.0  0.18704  0.49169  0.80078  1.0000
  H   H1352     1.0  0.13410  0.66825  0.77190  1.0000
  C   C766      1.0  0.16481  0.50485  0.84555  1.0000
  C   C767      1.0  0.07994  0.47899  0.80296  1.0000
  H   H1353     1.0  0.30591  0.75564  0.95027  1.0000
  H   H1354     1.0  0.11700  0.52033  0.79676  1.0000
  H   H1355     1.0  0.16185  0.66067  0.81570  1.0000
  H   H1356     1.0  0.29124  0.61870  0.82243  1.0000
  C   C768      1.0  0.08093  0.66010  0.73413  1.0000
  H   H1357     1.0  0.28937  0.64321  0.80761  1.0000
  H   H1358     1.0  0.25821  0.66112  0.92954  1.0000
  H   H1359     1.0  0.30724  0.80035  0.83564  1.0000
  N   N40       1.0  0.17825  0.67090  0.83374  1.0000
  H   H1360     1.0  0.07436  0.63432  0.79277  1.0000
  H   H1361     1.0  0.30906  0.62595  0.88006  1.0000
  C   C769      1.0  0.14211  0.68812  0.74580  1.0000
  H   H1362     1.0  0.07873  0.62435  0.82727  1.0000
  H   H1363     1.0  0.01717  0.49211  0.91736  1.0000
  H   H1364     1.0  0.27540  0.61942  0.79454  1.0000
  H   H1365     1.0  0.12711  0.62769  0.76390  1.0000
  H   H1366     1.0  0.28444  0.78003  0.88245  1.0000
  C   C770      1.0  0.29474  0.76918  0.78333  1.0000
  H   H1367     1.0  0.14733  0.69896  0.81724  1.0000
  H   H1368     1.0  0.30653  0.65969  0.95627  1.0000
  H   H1369     1.0  0.29098  0.61258  0.94642  1.0000
  H   H1370     1.0  0.16222  0.50761  0.78654  1.0000
  H   H1371     1.0  0.17703  0.70434  0.87805  1.0000
  N   N41       1.0  0.16871  0.50701  0.82367  1.0000
  H   H1372     1.0  0.31756  0.84931  0.74956  1.0000
  C   C771      1.0  0.18729  0.65170  0.84531  1.0000
  C   C772      1.0  0.18759  0.70860  0.86456  1.0000
  H   H1373     1.0  0.11289  0.69379  0.81825  1.0000
  C   C773      1.0  0.19324  0.69174  0.85236  1.0000
  C   C774      1.0  0.18962  0.63235  0.83637  1.0000
  H   H1374     1.0  0.28274  0.63298  0.87953  1.0000
  C   C775      1.0  0.09713  0.51696  0.95144  1.0000
  H   H1375     1.0  0.13571  0.69033  0.84152  1.0000
  C   C776      1.0  0.19829  0.61396  0.84970  1.0000
  H   H1376     1.0  0.00858  0.53070  0.93529  1.0000
  S   S175      1.0  0.28983  0.69553  0.93268  1.0000
  H   H1377     1.0  0.25695  0.63693  0.94456  1.0000
  H   H1378     1.0  0.28561  0.75920  0.90219  1.0000
  H   H1379     1.0  0.17823  0.64910  0.86014  1.0000
  H   H1380     1.0  0.20244  0.65274  0.84744  1.0000
  C   C777      1.0  0.07401  0.68215  0.72641  1.0000
  H   H1381     1.0  0.31154  0.80161  0.78433  1.0000
  H   H1382     1.0  0.13751  0.52033  0.82452  1.0000
  C   C778      1.0  0.31513  0.97751  0.76071  1.0000
  H   H1383     1.0  0.20076  0.67855  0.86131  1.0000
  H   H1384     1.0  0.20414  0.69666  0.83944  1.0000
  Fe  Fe88      1.0  0.08787  0.49485  0.87188  1.0000
  H   H1385     1.0  0.17516  0.62952  0.83406  1.0000
  H   H1386     1.0  0.17633  0.56447  0.79329  1.0000
  H   H1387     1.0  0.08452  0.69177  0.72787  1.0000
  H   H1388     1.0  0.17880  0.50449  0.85109  1.0000
  C   C779      1.0  0.31035  0.83808  0.76075  1.0000
  H   H1389     1.0  0.29911  0.60307  0.79234  1.0000
  H   H1390     1.0  0.19419  0.55973  0.80964  1.0000
  H   H1391     1.0  0.20121  0.71153  0.86877  1.0000
  H   H1392     1.0  0.11203  0.58542  0.74785  1.0000
  C   C780      1.0  0.26543  0.64964  0.94037  1.0000
  H   H1393     1.0  0.21304  0.61567  0.85239  1.0000
  H   H1394     1.0  0.18803  0.61161  0.86380  1.0000
  H   H1395     1.0  0.20027  0.60048  0.84268  1.0000
  Fe  Fe89      1.0  0.30033  0.72748  0.85986  1.0000
  C   C781      1.0  0.10458  0.61577  0.75437  1.0000
  H   H1396     1.0  0.18256  0.70834  0.80936  1.0000
  H   H1397     1.0  0.19898  0.71402  0.77545  1.0000
  H   H1398     1.0  0.28690  0.63684  0.91799  1.0000
  H   H1399     1.0  0.16764  0.54560  0.83626  1.0000
  C   C782      1.0  0.12504  0.68071  0.81911  1.0000
  H   H1400     1.0  0.29166  0.81456  0.73996  1.0000
  C   C783      1.0  0.21403  0.52645  0.76332  1.0000
  C   C784      1.0  0.18622  0.51743  0.75269  1.0000
  H   H1401     1.0  0.09284  0.66543  0.78782  1.0000
  C   C785      1.0  0.14202  0.68585  0.82704  1.0000
  H   H1402     1.0  0.12710  0.60267  0.73215  1.0000
  C   C786      1.0  0.17453  0.68701  0.84632  1.0000
  C   C787      1.0  0.08513  0.63725  0.81792  1.0000
  H   H1403     1.0  0.09921  0.63812  0.82264  1.0000
  H   H1404     1.0  0.07440  0.65118  0.82003  1.0000
  H   H1405     1.0  0.10302  0.68392  0.75680  1.0000
  S   S176      1.0  0.05757  0.50320  0.88939  1.0000
  H   H1406     1.0  0.07243  0.66885  0.76311  1.0000
  H   H1407     1.0  0.22820  0.52200  0.76835  1.0000
  C   C788      1.0  0.20430  0.51177  0.75965  1.0000
  H   H1408     1.0  0.11890  0.66782  0.82877  1.0000
  C   C789      1.0  0.10025  0.65072  0.78349  1.0000
  C   C790      1.0  0.11237  0.66995  0.75234  1.0000
  H   H1409     1.0  0.13132  0.59326  0.75672  1.0000
  H   H1410     1.0  0.21094  0.49614  0.76188  1.0000
  C   C791      1.0  0.00789  0.49086  0.87860  1.0000
  C   C792      1.0  0.08901  0.63432  0.79663  1.0000
  H   H1411     1.0  0.02710  0.49665  0.93726  1.0000
  H   H1412     1.0  0.00764  0.54878  0.87930  1.0000
  C   C793      1.0  0.30311  0.74046  0.95526  1.0000
  C   C794      1.0  0.31117  0.86138  0.78393  1.0000
  C   C795      1.0  0.01672  0.58613  0.86525  1.0000
  S   S177      1.0  0.17331  0.49964  0.74781  1.0000
  H   H1413     1.0  0.99502  0.52123  0.89951  1.0000
  N   N42       1.0  0.10231  0.65202  0.76173  1.0000
  C   C796      1.0  0.11513  0.63348  0.75495  1.0000
  H   H1414     1.0  0.09630  0.61026  0.76878  1.0000
  C   C797      1.0  0.99205  0.52916  0.91226  1.0000
  H   H1415     1.0  0.15044  0.53239  0.79064  1.0000
  H   H1416     1.0  0.31600  0.60468  0.91911  1.0000
  H   H1417     1.0  0.09824  0.61940  0.79581  1.0000
  H   H1418     1.0  0.29515  0.86736  0.78367  1.0000
  H   H1419     1.0  0.12314  0.63728  0.73993  1.0000
  Fe  Fe90      1.0  0.29551  0.70111  0.89953  1.0000
  H   H1420     1.0  0.18277  0.52638  0.79908  1.0000
  H   H1421     1.0  0.15227  0.54794  0.81817  1.0000
  H   H1422     1.0  0.30208  0.78124  0.75308  1.0000
  H   H1423     1.0  0.29671  0.75360  0.78044  1.0000
  C   C798      1.0  0.11972  0.59825  0.74736  1.0000
  H   H1424     1.0  0.06926  0.49272  0.80598  1.0000
  C   C799      1.0  0.17910  0.52486  0.81523  1.0000
  H   H1425     1.0  0.29330  0.63002  0.96068  1.0000
  H   H1426     1.0  0.29605  0.61039  0.87082  1.0000
  C   C800      1.0  0.15474  0.48665  0.85645  1.0000
  H   H1427     1.0  0.30803  0.79514  0.89422  1.0000
  H   H1428     1.0  0.21706  0.70113  0.79052  1.0000
  H   H1429     1.0  0.27866  0.77564  0.78453  1.0000
  C   C801      1.0  0.29506  0.70999  0.94856  1.0000
  H   H1430     1.0  0.05434  0.56226  0.95203  1.0000
  C   C802      1.0  0.15886  0.66753  0.82917  1.0000
  H   H1431     1.0  0.31174  0.94948  0.77918  1.0000
  H   H1432     1.0  0.07002  0.65148  0.73148  1.0000
  H   H1433     1.0  0.02992  0.58491  0.87229  1.0000
  H   H1434     1.0  0.01654  0.55734  0.89748  1.0000
  H   H1435     1.0  0.29637  0.62786  0.77784  1.0000
  C   C803      1.0  0.31382  0.69261  0.79147  1.0000
  C   C804      1.0  0.29181  0.61891  0.79227  1.0000
  C   C805      1.0  0.30521  0.83838  0.72193  1.0000
  H   H1436     1.0  0.09531  0.65470  0.72528  1.0000
  H   H1437     1.0  0.27506  0.78408  0.90715  1.0000
  C   C806      1.0  0.29422  0.70197  0.96841  1.0000
  H   H1438     1.0  0.13918  0.48887  0.85383  1.0000
  C   C807      1.0  0.31612  0.83969  0.78027  1.0000
  C   C808      1.0  0.30710  0.81818  0.73628  1.0000
  H   H1439     1.0  0.31428  0.86217  0.79845  1.0000
  H   H1440     1.0  0.30006  0.73567  0.92687  1.0000
  H   H1441     1.0  0.31616  0.69957  0.77591  1.0000
  H   H1442     1.0  0.31497  0.66358  0.78438  1.0000
  N   N43       1.0  0.31529  0.81764  0.75467  1.0000
  C   C809      1.0  0.15375  0.48437  0.87840  1.0000
  H   H1443     1.0  0.31696  0.96808  0.79114  1.0000
  H   H1444     1.0  0.13013  0.49642  0.79067  1.0000
  C   C810      1.0  0.18196  0.48869  0.81680  1.0000
  H   H1445     1.0  0.21013  0.49284  0.82449  1.0000
  H   H1446     1.0  0.16898  0.48140  0.88208  1.0000
  H   H1447     1.0  0.31704  0.90694  0.83547  1.0000
  H   H1448     1.0  0.07811  0.48226  0.95869  1.0000
  H   H1449     1.0  0.29757  0.69486  0.79715  1.0000
  C   C811      1.0  0.31878  0.77006  0.83078  1.0000
  C   C812      1.0  0.09200  0.52707  0.96751  1.0000
  C   C813      1.0  0.07650  0.54339  0.96775  1.0000
  C   C814      1.0  0.09014  0.48362  0.72895  1.0000
  H   H1450     1.0  0.07221  0.51129  0.73673  1.0000
  C   C815      1.0  0.07046  0.49816  0.73068  1.0000
  H   H1451     1.0  0.05577  0.48154  0.94969  1.0000
  H   H1452     1.0  0.09423  0.47922  0.74360  1.0000
  H   H1453     1.0  0.03914  0.50787  0.96884  1.0000
  H   H1454     1.0  0.02729  0.53918  0.96966  1.0000
  Fe  Fe91      1.0  0.54737  0.09562  0.01530  1.0000
  S   S178      1.0  0.51396  0.10036  0.01954  1.0000
  Fe  Fe92      1.0  0.54846  0.09852  0.05730  1.0000
  S   S179      1.0  0.51517  0.10310  0.06468  1.0000
  S   S180      1.0  0.56252  0.09809  0.08354  1.0000
  Fe  Fe93      1.0  0.51649  0.07893  0.04730  1.0000
  S   S181      1.0  0.49696  0.05519  0.05895  1.0000
  Fe  Fe94      1.0  0.51577  0.12399  0.03645  1.0000
  S   S182      1.0  0.49685  0.15446  0.03498  1.0000
  S   S183      1.0  0.54984  0.07235  0.04213  1.0000
  S   S184      1.0  0.54912  0.12122  0.02996  1.0000
  H   H1455     1.0  0.52699  0.02033  0.00352  1.0000
  Fe  Fe95      1.0  0.34277  0.30759  0.03986  1.0000
  H   H1456     1.0  0.52253  0.04798  0.02261  1.0000
  S   S185      1.0  0.37739  0.36697  0.01855  1.0000
  Fe  Fe96      1.0  0.61939  0.17572  0.10114  1.0000
  S   S186      1.0  0.59648  0.17410  0.12828  1.0000
  S   S187      1.0  0.62515  0.15557  0.07844  1.0000
  Fe  Fe97      1.0  0.63198  0.21373  0.10776  1.0000
  S   S188      1.0  0.60963  0.21545  0.13535  1.0000
  H   H1457     1.0  0.63843  0.34839  0.97921  1.0000
  Fe  Fe98      1.0  0.61964  0.18217  0.14235  1.0000
  S   S189      1.0  0.62295  0.16758  0.17334  1.0000
  Fe  Fe99      1.0  0.58840  0.20716  0.11915  1.0000
  S   S190      1.0  0.55679  0.22273  0.11740  1.0000
  H   H1458     1.0  0.45368  0.06325  0.99187  1.0000
  S   S191      1.0  0.61000  0.20839  0.09089  1.0000
  Fe  Fe100     1.0  0.42434  0.17619  0.12212  1.0000
  S   S192      1.0  0.44620  0.19773  0.11317  1.0000
  S   S193      1.0  0.42377  0.15308  0.10383  1.0000
  Fe  Fe101     1.0  0.40808  0.19024  0.16112  1.0000
  S   S194      1.0  0.42889  0.21283  0.15505  1.0000
  S   S195      1.0  0.38814  0.18818  0.19060  1.0000
  Fe  Fe102     1.0  0.42057  0.21971  0.12515  1.0000
  S   S196      1.0  0.41492  0.25147  0.10923  1.0000
  Fe  Fe103     1.0  0.45245  0.18866  0.14362  1.0000
  S   S197      1.0  0.48299  0.17692  0.15202  1.0000
  S   S198      1.0  0.39808  0.19883  0.13203  1.0000
  S   S199      1.0  0.43215  0.16557  0.15191  1.0000
  C   C816      1.0  0.37271  0.16967  0.19829  1.0000
  C   C817      1.0  0.37199  0.15582  0.18654  1.0000
  C   C818      1.0  0.62442  0.35027  0.97326  1.0000
  H   H1459     1.0  0.55247  0.00312  0.02722  1.0000
  H   H1460     1.0  0.38047  0.15684  0.17194  1.0000
  H   H1461     1.0  0.62266  0.45335  0.98207  1.0000
  H   H1462     1.0  0.42785  0.43779  0.98951  1.0000
  C   C819      1.0  0.53638  0.20986  0.12718  1.0000
  C   C820      1.0  0.51785  0.21753  0.12130  1.0000
  C   C821      1.0  0.50133  0.20760  0.12879  1.0000
  C   C822      1.0  0.50321  0.19004  0.14240  1.0000
  C   C823      1.0  0.52169  0.18246  0.14838  1.0000
  C   C824      1.0  0.53824  0.19228  0.14076  1.0000
  H   H1463     1.0  0.51621  0.23126  0.11101  1.0000
  H   H1464     1.0  0.48712  0.21362  0.12418  1.0000
  H   H1465     1.0  0.52322  0.16892  0.15894  1.0000
  H   H1466     1.0  0.55236  0.18637  0.14556  1.0000
  C   C825      1.0  0.36990  0.26878  0.06730  1.0000
  C   C826      1.0  0.37388  0.24889  0.07659  1.0000
  C   C827      1.0  0.38748  0.24341  0.08968  1.0000
  C   C828      1.0  0.39727  0.25779  0.09347  1.0000
  C   C829      1.0  0.39325  0.27767  0.08423  1.0000
  C   C830      1.0  0.37960  0.28316  0.07123  1.0000
  H   H1467     1.0  0.39054  0.22803  0.09663  1.0000
  H   H1468     1.0  0.40084  0.28884  0.08702  1.0000
  H   H1469     1.0  0.37705  0.29841  0.06388  1.0000
  H   H1470     1.0  0.36564  0.45176  0.00844  1.0000
  H   H1471     1.0  0.34814  0.06831  0.16262  1.0000
  C   C831      1.0  0.46552  0.00230  0.99095  1.0000
  H   H1472     1.0  0.48921  0.22964  0.99991  1.0000
  C   C832      1.0  0.65020  0.08719  0.15203  1.0000
  H   H1473     1.0  0.58596  0.35518  0.97406  1.0000
  H   H1474     1.0  0.43733  0.00151  0.01105  1.0000
  C   C833      1.0  0.44998  0.01005  0.00744  1.0000
  H   H1475     1.0  0.39463  0.10697  0.19553  1.0000
  H   H1476     1.0  0.56177  0.03747  0.01482  1.0000
  H   H1477     1.0  0.57671  0.99203  0.01791  1.0000
  C   C834      1.0  0.33190  0.27639  0.13467  1.0000
  H   H1478     1.0  0.64524  0.42649  0.07596  1.0000
  C   C835      1.0  0.37762  0.37834  0.99424  1.0000
  C   C836      1.0  0.63922  0.24624  0.16448  1.0000
  H   H1479     1.0  0.60633  0.34367  0.04015  1.0000
  H   H1480     1.0  0.33954  0.40940  0.00945  1.0000
  H   H1481     1.0  0.63878  0.19935  0.19127  1.0000
  C   C837      1.0  0.55534  0.98553  0.06657  1.0000
  H   H1482     1.0  0.32434  0.06602  0.15751  1.0000
  C   C838      1.0  0.47512  0.15421  0.05257  1.0000
  C   C839      1.0  0.46744  0.13646  0.06025  1.0000
  C   C840      1.0  0.45079  0.13642  0.07524  1.0000
  C   C841      1.0  0.44213  0.15397  0.08285  1.0000
  C   C842      1.0  0.44924  0.17184  0.07449  1.0000
  C   C843      1.0  0.46573  0.17194  0.05942  1.0000
  H   H1483     1.0  0.47439  0.12276  0.05475  1.0000
  H   H1484     1.0  0.44500  0.12267  0.08137  1.0000
  H   H1485     1.0  0.44214  0.18550  0.07984  1.0000
  H   H1486     1.0  0.47179  0.18554  0.05372  1.0000
  C   C844      1.0  0.58022  0.11384  0.08178  1.0000
  C   C845      1.0  0.58465  0.11792  0.09889  1.0000
  C   C846      1.0  0.59810  0.13103  0.09800  1.0000
  C   C847      1.0  0.60789  0.13944  0.07998  1.0000
  C   C848      1.0  0.60406  0.13475  0.06288  1.0000
  C   C849      1.0  0.58994  0.12232  0.06374  1.0000
  H   H1487     1.0  0.57730  0.11129  0.11288  1.0000
  H   H1488     1.0  0.60107  0.13444  0.11123  1.0000
  H   H1489     1.0  0.61180  0.14099  0.04890  1.0000
  H   H1490     1.0  0.58684  0.11902  0.05049  1.0000
  C   C850      1.0  0.49983  0.03620  0.04480  1.0000
  C   C851      1.0  0.48856  0.02062  0.05120  1.0000
  C   C852      1.0  0.51605  0.02058  0.01666  1.0000
  C   C853      1.0  0.51357  0.03617  0.02747  1.0000
  H   H1491     1.0  0.47792  0.02057  0.06462  1.0000
  C   C854      1.0  0.46550  0.06516  0.99943  1.0000
  S   S200      1.0  0.56424  0.08936  0.98595  1.0000
  H   H1492     1.0  0.39545  0.46279  0.99299  1.0000
  C   C855      1.0  0.45746  0.06145  0.02125  1.0000
  H   H1493     1.0  0.47082  0.22371  0.98797  1.0000
  H   H1494     1.0  0.58569  0.20526  0.02391  1.0000
  H   H1495     1.0  0.45685  0.00807  0.02065  1.0000
  H   H1496     1.0  0.37008  0.32160  0.09530  1.0000
  H   H1497     1.0  0.44310  0.07149  0.02478  1.0000
  H   H1498     1.0  0.45497  0.04569  0.02591  1.0000
  H   H1499     1.0  0.46828  0.06412  0.02967  1.0000
  C   C856      1.0  0.57703  0.03109  0.01785  1.0000
  C   C857      1.0  0.33207  0.06861  0.16882  1.0000
  H   H1500     1.0  0.62460  0.12610  0.17575  1.0000
  H   H1501     1.0  0.63511  0.09896  0.12628  1.0000
  H   H1502     1.0  0.59172  0.00905  0.03827  1.0000
  N   N44       1.0  0.32204  0.29042  0.11901  1.0000
  H   H1503     1.0  0.59446  0.20299  0.18936  1.0000
  H   H1504     1.0  0.46661  0.16213  0.97228  1.0000
  H   H1505     1.0  0.40844  0.08834  0.21147  1.0000
  H   H1506     1.0  0.43032  0.41962  0.97370  1.0000
  C   C858      1.0  0.63240  0.21393  0.18319  1.0000
  S   S201      1.0  0.50894  0.98529  0.00956  1.0000
  H   H1507     1.0  0.56474  0.99370  0.07222  1.0000
  C   C859      1.0  0.59880  0.20668  0.20231  1.0000
  C   C860      1.0  0.40499  0.11904  0.21696  1.0000
  C   C861      1.0  0.56733  0.99687  0.03136  1.0000
  H   H1508     1.0  0.32723  0.31615  0.09707  1.0000
  H   H1509     1.0  0.58626  0.02552  0.00471  1.0000
  C   C862      1.0  0.39442  0.38613  0.98339  1.0000
  N   N45       1.0  0.64749  0.10674  0.15964  1.0000
  Fe  Fe104     1.0  0.58023  0.45473  0.97132  1.0000
  H   H1510     1.0  0.35083  0.25369  0.11811  1.0000
  S   S202      1.0  0.32004  0.36354  0.02757  1.0000
  H   H1511     1.0  0.61583  0.22613  0.20954  1.0000
  H   H1512     1.0  0.34135  0.43788  0.98310  1.0000
  H   H1513     1.0  0.53546  0.01522  0.08919  1.0000
  C   C863      1.0  0.57628  0.01428  0.03540  1.0000
  C   C864      1.0  0.64641  0.43475  0.99586  1.0000
  H   H1514     1.0  0.33330  0.32544  0.12762  1.0000
  H   H1515     1.0  0.53801  0.25809  0.05520  1.0000
  C   C865      1.0  0.59109  0.36997  0.97141  1.0000
  H   H1516     1.0  0.44428  0.02620  0.00333  1.0000
  H   H1517     1.0  0.39314  0.29481  0.02963  1.0000
  N   N46       1.0  0.60987  0.36804  0.97974  1.0000
  C   C866      1.0  0.61096  0.11913  0.15353  1.0000
  H   H1518     1.0  0.32560  0.08365  0.17272  1.0000
  H   H1519     1.0  0.59112  0.14192  0.16880  1.0000
  C   C867      1.0  0.39218  0.46050  0.97898  1.0000
  C   C868      1.0  0.63522  0.27052  0.08921  1.0000
  H   H1520     1.0  0.63180  0.24228  0.15355  1.0000
  C   C869      1.0  0.35805  0.45487  0.99551  1.0000
  H   H1521     1.0  0.33424  0.31548  0.97680  1.0000
  H   H1522     1.0  0.36316  0.27392  0.11940  1.0000
  H   H1523     1.0  0.53965  0.12841  0.98238  1.0000
  C   C870      1.0  0.53171  0.05658  0.97257  1.0000
  C   C871      1.0  0.61704  0.41321  0.01776  1.0000
  C   C872      1.0  0.59118  0.20291  0.03786  1.0000
  C   C873      1.0  0.40727  0.29447  0.01901  1.0000
  C   C874      1.0  0.63374  0.29148  0.08396  1.0000
  H   H1524     1.0  0.44335  0.17521  0.19472  1.0000
  H   H1525     1.0  0.61578  0.13052  0.14109  1.0000
  H   H1526     1.0  0.64656  0.06939  0.11011  1.0000
  H   H1527     1.0  0.58374  0.04330  0.02086  1.0000
  H   H1528     1.0  0.48032  0.08886  0.00291  1.0000
  C   C875      1.0  0.47068  0.08657  0.99301  1.0000
  H   H1529     1.0  0.39865  0.19257  0.04048  1.0000
  C   C876      1.0  0.65081  0.30071  0.08008  1.0000
  S   S203      1.0  0.58711  0.43539  0.99940  1.0000
  C   C877      1.0  0.55310  0.25196  0.05878  1.0000
  C   C878      1.0  0.61327  0.19385  0.03439  1.0000
  H   H1530     1.0  0.40753  0.38475  0.98990  1.0000
  H   H1531     1.0  0.48259  0.99284  0.04563  1.0000
  H   H1532     1.0  0.56450  0.25423  0.04549  1.0000
  C   C879      1.0  0.61283  0.22219  0.19612  1.0000
  H   H1533     1.0  0.47872  0.05353  0.99657  1.0000
  H   H1534     1.0  0.58533  0.18881  0.06757  1.0000
  H   H1535     1.0  0.35983  0.12981  0.18472  1.0000
  H   H1536     1.0  0.33536  0.03765  0.18187  1.0000
  C   C880      1.0  0.34499  0.31615  0.11859  1.0000
  H   H1537     1.0  0.35663  0.05201  0.19605  1.0000
  H   H1538     1.0  0.59017  0.21779  0.04207  1.0000
  H   H1539     1.0  0.63779  0.27154  0.12908  1.0000
  C   C881      1.0  0.45674  0.00552  0.97201  1.0000
  H   H1540     1.0  0.50865  0.06768  0.99461  1.0000
  S   S204      1.0  0.34563  0.33065  0.05684  1.0000
  C   C882      1.0  0.34053  0.05511  0.20257  1.0000
  H   H1541     1.0  0.52340  0.18807  0.01725  1.0000
  C   C883      1.0  0.47858  0.21923  0.00074  1.0000
  H   H1542     1.0  0.63523  0.38335  0.97583  1.0000
  H   H1543     1.0  0.41070  0.30997  0.01483  1.0000
  H   H1544     1.0  0.62903  0.15446  0.21255  1.0000
  H   H1545     1.0  0.41840  0.12239  0.20621  1.0000
  H   H1546     1.0  0.37625  0.24281  0.13918  1.0000
  H   H1547     1.0  0.34780  0.29662  0.09729  1.0000
  C   C884      1.0  0.61188  0.42959  0.00361  1.0000
  H   H1548     1.0  0.47734  0.23373  0.04990  1.0000
  H   H1549     1.0  0.60564  0.40498  0.02635  1.0000
  C   C885      1.0  0.36150  0.16835  0.21711  1.0000
  H   H1550     1.0  0.39539  0.42832  0.98985  1.0000
  H   H1551     1.0  0.47507  0.25705  0.07321  1.0000
  H   H1552     1.0  0.36582  0.42506  0.98591  1.0000
  H   H1553     1.0  0.56817  0.18376  0.01834  1.0000
  C   C886      1.0  0.34425  0.42300  0.01207  1.0000
  H   H1554     1.0  0.61935  0.30056  0.08262  1.0000
  H   H1555     1.0  0.45650  0.09695  0.99641  1.0000
  H   H1556     1.0  0.45820  0.24283  0.09077  1.0000
  H   H1557     1.0  0.45282  0.26364  0.04731  1.0000
  H   H1558     1.0  0.48343  0.23136  0.08315  1.0000
  H   H1559     1.0  0.56958  0.22423  0.07116  1.0000
  C   C887      1.0  0.63692  0.40720  0.02056  1.0000
  C   C888      1.0  0.64840  0.08852  0.13035  1.0000
  H   H1560     1.0  0.35453  0.30577  0.12822  1.0000
  H   H1561     1.0  0.45495  0.14941  0.19769  1.0000
  H   H1562     1.0  0.61969  0.19224  0.04782  1.0000
  H   H1563     1.0  0.64763  0.12569  0.13128  1.0000
  H   H1564     1.0  0.62005  0.10112  0.17911  1.0000
  C   C889      1.0  0.32932  0.05238  0.18669  1.0000
  C   C890      1.0  0.60432  0.36359  0.00166  1.0000
  H   H1565     1.0  0.48720  0.20391  0.00022  1.0000
  H   H1566     1.0  0.52385  0.99005  0.06321  1.0000
  C   C891      1.0  0.33556  0.30460  0.10704  1.0000
  C   C892      1.0  0.62182  0.35900  0.01323  1.0000
  H   H1567     1.0  0.34799  0.37353  0.99372  1.0000
  H   H1568     1.0  0.46132  0.25132  0.01762  1.0000
  H   H1569     1.0  0.54375  0.18513  0.99725  1.0000
  C   C893      1.0  0.36086  0.37980  0.98564  1.0000
  C   C894      1.0  0.61423  0.35679  0.03515  1.0000
  H   H1570     1.0  0.47067  0.98625  0.99576  1.0000
  H   H1571     1.0  0.40510  0.28938  0.00580  1.0000
  H   H1572     1.0  0.61532  0.17889  0.02995  1.0000
  H   H1573     1.0  0.52503  0.99231  0.09786  1.0000
  H   H1574     1.0  0.59596  0.35070  0.00603  1.0000
  H   H1575     1.0  0.59412  0.37660  0.00725  1.0000
  C   C895      1.0  0.65226  0.08936  0.19473  1.0000
  S   S205      1.0  0.35384  0.27486  0.04997  1.0000
  H   H1576     1.0  0.63946  0.07761  0.16111  1.0000
  H   H1577     1.0  0.60909  0.10568  0.14814  1.0000
  H   H1578     1.0  0.47834  0.01031  0.98889  1.0000
  C   C896      1.0  0.35242  0.26407  0.12760  1.0000
  H   H1579     1.0  0.63103  0.37111  0.00912  1.0000
  H   H1580     1.0  0.63149  0.34471  0.01052  1.0000
  C   C897      1.0  0.36161  0.25142  0.14472  1.0000
  H   H1581     1.0  0.36415  0.26111  0.15447  1.0000
  C   C898      1.0  0.52601  0.00537  0.08602  1.0000
  H   H1582     1.0  0.62776  0.21027  0.17042  1.0000
  H   H1583     1.0  0.58439  0.11710  0.17585  1.0000
  H   H1584     1.0  0.62206  0.26353  0.09178  1.0000
  H   H1585     1.0  0.36519  0.33776  0.11341  1.0000
  C   C899      1.0  0.57915  0.18931  0.05413  1.0000
  H   H1586     1.0  0.33115  0.27064  0.09750  1.0000
  C   C900      1.0  0.62589  0.11324  0.16798  1.0000
  H   H1587     1.0  0.60400  0.37044  0.03905  1.0000
  H   H1588     1.0  0.63072  0.28676  0.14817  1.0000
  C   C901      1.0  0.35811  0.33015  0.10484  1.0000
  H   H1589     1.0  0.62702  0.35443  0.04297  1.0000
  H   H1590     1.0  0.57990  0.13189  0.15283  1.0000
  H   H1591     1.0  0.58341  0.17375  0.05086  1.0000
  C   C902      1.0  0.40139  0.43865  0.97696  1.0000
  H   H1592     1.0  0.61796  0.33628  0.97926  1.0000
  S   S206      1.0  0.35177  0.32556  0.01045  1.0000
  H   H1593     1.0  0.32220  0.26525  0.14249  1.0000
  H   H1594     1.0  0.62155  0.20377  0.02266  1.0000
  H   H1595     1.0  0.36658  0.23764  0.07351  1.0000
  H   H1596     1.0  0.65012  0.13794  0.14979  1.0000
  H   H1597     1.0  0.51080  0.01407  0.08565  1.0000
  H   H1598     1.0  0.56726  0.15821  0.07971  1.0000
  N   N47       1.0  0.55667  0.19506  0.05766  1.0000
  C   C903      1.0  0.54977  0.21736  0.05336  1.0000
  C   C904      1.0  0.54725  0.18476  0.04576  1.0000
  C   C905      1.0  0.54889  0.18812  0.07886  1.0000
  C   C906      1.0  0.55450  0.22975  0.06737  1.0000
  C   C907      1.0  0.55206  0.16513  0.08557  1.0000
  C   C908      1.0  0.55246  0.19024  0.02336  1.0000
  C   C909      1.0  0.53934  0.18160  0.01328  1.0000
  C   C910      1.0  0.62656  0.44052  0.99281  1.0000
  C   C911      1.0  0.54916  0.15985  0.10766  1.0000
  H   H1599     1.0  0.53328  0.22056  0.05398  1.0000
  H   H1600     1.0  0.55600  0.22369  0.03833  1.0000
  H   H1601     1.0  0.55172  0.16821  0.04883  1.0000
  H   H1602     1.0  0.53068  0.18759  0.05002  1.0000
  H   H1603     1.0  0.53266  0.19383  0.08252  1.0000
  H   H1604     1.0  0.55617  0.19451  0.08834  1.0000
  H   H1605     1.0  0.54342  0.22849  0.08100  1.0000
  H   H1606     1.0  0.54125  0.15823  0.08051  1.0000
  H   H1607     1.0  0.55024  0.20661  0.01836  1.0000
  C   C912      1.0  0.35278  0.43482  0.99269  1.0000
  H   H1608     1.0  0.34900  0.34180  0.09568  1.0000
  H   H1609     1.0  0.54105  0.16508  0.01746  1.0000
  H   H1610     1.0  0.53521  0.01225  0.05534  1.0000
  C   C913      1.0  0.64732  0.06804  0.12577  1.0000
  H   H1611     1.0  0.55583  0.26029  0.06963  1.0000
  H   H1612     1.0  0.55051  0.14342  0.11196  1.0000
  H   H1613     1.0  0.56070  0.16506  0.11335  1.0000
  H   H1614     1.0  0.53418  0.16680  0.11421  1.0000
  C   C914      1.0  0.49121  0.00490  0.04048  1.0000
  C   C915      1.0  0.64362  0.15406  0.20355  1.0000
  C   C916      1.0  0.47058  0.24203  0.07817  1.0000
  C   C917      1.0  0.44715  0.16182  0.20565  1.0000
  H   H1615     1.0  0.33369  0.28467  0.14602  1.0000
  H   H1616     1.0  0.56724  0.02085  0.04806  1.0000
  C   C918      1.0  0.46420  0.23481  0.06169  1.0000
  H   H1617     1.0  0.35183  0.24061  0.15314  1.0000
  N   N48       1.0  0.49413  0.11942  0.12375  1.0000
  C   C919      1.0  0.51205  0.10372  0.12736  1.0000
  C   C920      1.0  0.48209  0.11285  0.11118  1.0000
  C   C921      1.0  0.50192  0.13819  0.11277  1.0000
  C   C922      1.0  0.48110  0.12443  0.14243  1.0000
  C   C923      1.0  0.47271  0.10680  0.15652  1.0000
  C   C924      1.0  0.52542  0.10823  0.14052  1.0000
  C   C925      1.0  0.48609  0.15569  0.10550  1.0000
  C   C926      1.0  0.48218  0.09002  0.11292  1.0000
  C   C927      1.0  0.46767  0.08586  0.10121  1.0000
  C   C928      1.0  0.46199  0.11321  0.17587  1.0000
  C   C929      1.0  0.54287  0.09116  0.14306  1.0000
  C   C930      1.0  0.49581  0.17295  0.09287  1.0000
  H   H1618     1.0  0.52165  0.10108  0.11318  1.0000
  H   H1619     1.0  0.50763  0.08904  0.13424  1.0000
  H   H1620     1.0  0.46626  0.12042  0.11369  1.0000
  H   H1621     1.0  0.48756  0.11782  0.09551  1.0000
  H   H1622     1.0  0.51334  0.13460  0.09990  1.0000
  H   H1623     1.0  0.50943  0.14450  0.12205  1.0000
  H   H1624     1.0  0.48905  0.13193  0.15037  1.0000
  H   H1625     1.0  0.46787  0.13569  0.13925  1.0000
  H   H1626     1.0  0.48465  0.09407  0.15978  1.0000
  H   H1627     1.0  0.46162  0.10170  0.15012  1.0000
  H   H1628     1.0  0.53187  0.12198  0.13416  1.0000
  H   H1629     1.0  0.51684  0.11000  0.15520  1.0000
  H   H1630     1.0  0.47589  0.16160  0.11793  1.0000
  H   H1631     1.0  0.47711  0.15083  0.09668  1.0000
  H   H1632     1.0  0.49727  0.08252  0.10701  1.0000
  H   H1633     1.0  0.47810  0.08289  0.12818  1.0000
  H   H1634     1.0  0.45216  0.09257  0.10674  1.0000
  H   H1635     1.0  0.47174  0.09200  0.08556  1.0000
  H   H1636     1.0  0.46837  0.06944  0.10247  1.0000
  H   H1637     1.0  0.47251  0.11820  0.18311  1.0000
  H   H1638     1.0  0.44943  0.12561  0.17352  1.0000
  H   H1639     1.0  0.45588  0.10039  0.18563  1.0000
  H   H1640     1.0  0.55259  0.09499  0.15197  1.0000
  H   H1641     1.0  0.53737  0.07707  0.15051  1.0000
  H   H1642     1.0  0.55195  0.08870  0.12869  1.0000
  H   H1643     1.0  0.50579  0.16788  0.07985  1.0000
  H   H1644     1.0  0.48416  0.18518  0.08779  1.0000
  H   H1645     1.0  0.50422  0.17906  0.10143  1.0000
  N   N49       1.0  0.43670  0.24297  0.03984  1.0000
  C   C931      1.0  0.42824  0.22427  0.04976  1.0000
  C   C932      1.0  0.44665  0.24968  0.05397  1.0000
  C   C933      1.0  0.41941  0.25917  0.03535  1.0000
  C   C934      1.0  0.45087  0.24025  0.02099  1.0000
  C   C935      1.0  0.46353  0.21921  0.01966  1.0000
  C   C936      1.0  0.41361  0.21780  0.03921  1.0000
  C   C937      1.0  0.42436  0.28064  0.02787  1.0000
  C   C938      1.0  0.41015  0.19633  0.04738  1.0000
  H   H1646     1.0  0.54418  0.40040  0.97306  1.0000
  H   H1647     1.0  0.42011  0.22618  0.06466  1.0000
  H   H1648     1.0  0.44022  0.21141  0.05215  1.0000
  H   H1649     1.0  0.43532  0.25355  0.06681  1.0000
  H   H1650     1.0  0.40778  0.26001  0.04850  1.0000
  H   H1651     1.0  0.41206  0.25545  0.02426  1.0000
  H   H1652     1.0  0.44259  0.24363  0.00853  1.0000
  H   H1653     1.0  0.45390  0.20799  0.02002  1.0000
  H   H1654     1.0  0.39889  0.22768  0.04134  1.0000
  H   H1655     1.0  0.41926  0.21885  0.02336  1.0000
  H   H1656     1.0  0.63376  0.06237  0.13445  1.0000
  H   H1657     1.0  0.42668  0.28722  0.04016  1.0000
  H   H1658     1.0  0.46030  0.21973  0.06755  1.0000
  H   H1659     1.0  0.57784  0.39946  0.98017  1.0000
  H   H1660     1.0  0.42413  0.18560  0.04430  1.0000
  H   H1661     1.0  0.40488  0.19459  0.06337  1.0000
  H   H1662     1.0  0.56638  0.37889  0.99435  1.0000
  H   H1663     1.0  0.60475  0.23569  0.18804  1.0000
  C   C939      1.0  0.59036  0.12802  0.16344  1.0000
  C   C940      1.0  0.50498  0.00488  0.02318  1.0000
  H   H1664     1.0  0.64211  0.24536  0.20006  1.0000
  H   H1665     1.0  0.47197  0.21401  0.03175  1.0000
  Fe  Fe105     1.0  0.35201  0.34954  0.02761  1.0000
  C   C941      1.0  0.36034  0.14052  0.19382  1.0000
  H   H1666     1.0  0.36559  0.06782  0.21878  1.0000
  N   N50       1.0  0.48019  0.09189  0.97205  1.0000
  S   S207      1.0  0.64328  0.18082  0.11586  1.0000
  S   S208      1.0  0.64853  0.32699  0.07306  1.0000
  H   H1667     1.0  0.43800  0.28056  0.01662  1.0000
  H   H1668     1.0  0.64980  0.07512  0.19125  1.0000
  H   H1669     1.0  0.33760  0.07134  0.20388  1.0000
  C   C942      1.0  0.47026  0.12994  0.97360  1.0000
  N   N51       1.0  0.37020  0.46636  0.97833  1.0000
  H   H1670     1.0  0.35578  0.41808  0.02157  1.0000
  H   H1671     1.0  0.63815  0.09660  0.20281  1.0000
  C   C943      1.0  0.64516  0.16013  0.18336  1.0000
  H   H1672     1.0  0.62708  0.25523  0.17347  1.0000
  C   C944      1.0  0.61918  0.38689  0.97441  1.0000
  H   H1673     1.0  0.33108  0.43215  0.01963  1.0000
  C   C945      1.0  0.53450  0.99858  0.06636  1.0000
  H   H1674     1.0  0.60606  0.19274  0.21055  1.0000
  H   H1675     1.0  0.55668  0.47704  0.02542  1.0000
  H   H1676     1.0  0.65002  0.21595  0.06214  1.0000
  C   C946      1.0  0.42402  0.43529  0.97584  1.0000
  H   H1677     1.0  0.34333  0.46410  0.99992  1.0000
  H   H1678     1.0  0.34505  0.01450  0.21117  1.0000
  H   H1679     1.0  0.64696  0.31667  0.03331  1.0000
  C   C947      1.0  0.64341  0.27770  0.13987  1.0000
  C   C948      1.0  0.34992  0.13868  0.21301  1.0000
  H   H1680     1.0  0.46301  0.12802  0.98910  1.0000
  H   H1681     1.0  0.38099  0.34253  0.97186  1.0000
  H   H1682     1.0  0.61224  0.39738  0.98487  1.0000
  H   H1683     1.0  0.64082  0.39438  0.03134  1.0000
  N   N52       1.0  0.64797  0.22753  0.17687  1.0000
  C   C949      1.0  0.57316  0.38517  0.97943  1.0000
  C   C950      1.0  0.65166  0.41792  0.00954  1.0000
  H   H1684     1.0  0.40511  0.32728  0.97255  1.0000
  H   H1685     1.0  0.58505  0.21275  0.21176  1.0000
  H   H1686     1.0  0.49752  0.11145  0.97967  1.0000
  H   H1687     1.0  0.64363  0.30384  0.01467  1.0000
  C   C951      1.0  0.39736  0.10232  0.21074  1.0000
  H   H1688     1.0  0.41822  0.15372  0.20943  1.0000
  H   H1689     1.0  0.44247  0.99945  0.97617  1.0000
  H   H1690     1.0  0.48997  0.14874  0.97873  1.0000
  H   H1691     1.0  0.54351  0.05438  0.98163  1.0000
  H   H1692     1.0  0.52121  0.08636  0.97841  1.0000
  C   C952      1.0  0.51472  0.07279  0.97920  1.0000
  H   H1693     1.0  0.52620  0.04222  0.97418  1.0000
  N   N53       1.0  0.56589  0.97915  0.04749  1.0000
  H   H1694     1.0  0.45731  0.16542  0.21425  1.0000
  H   H1695     1.0  0.39319  0.13227  0.21626  1.0000
  H   H1696     1.0  0.65110  0.21967  0.20736  1.0000
  C   C953      1.0  0.42806  0.15628  0.21883  1.0000
  C   C954      1.0  0.65289  0.23239  0.19510  1.0000
  H   H1697     1.0  0.38303  0.09944  0.22018  1.0000
  Fe  Fe106     1.0  0.41417  0.00207  0.40257  1.0000
  S   S209      1.0  0.44073  0.01662  0.38883  1.0000
  H   H1698     1.0  0.36630  0.17300  0.26344  1.0000
  H   H1699     1.0  0.63727  0.13896  0.44604  1.0000
  C   C955      1.0  0.49613  0.99816  0.36602  1.0000
  S   S210      1.0  0.36979  0.12440  0.30331  1.0000
  H   H1700     1.0  0.33674  0.09339  0.37501  1.0000
  C   C956      1.0  0.60499  0.02310  0.27136  1.0000
  Fe  Fe107     1.0  0.42359  0.03173  0.36503  1.0000
  S   S211      1.0  0.42579  0.06464  0.35654  1.0000
  H   H1701     1.0  0.40667  0.11348  0.27622  1.0000
  S   S212      1.0  0.39619  0.01915  0.38017  1.0000
  Fe  Fe108     1.0  0.55718  0.04670  0.37368  1.0000
  S   S213      1.0  0.57736  0.01731  0.37897  1.0000
  S   S214      1.0  0.52675  0.05125  0.36549  1.0000
  Fe  Fe109     1.0  0.58818  0.07093  0.37778  1.0000
  S   S215      1.0  0.61085  0.04371  0.38363  1.0000
  S   S216      1.0  0.59520  0.10174  0.37601  1.0000
  Fe  Fe110     1.0  0.60106  0.03332  0.35971  1.0000
  S   S217      1.0  0.62370  0.02334  0.33496  1.0000
  Fe  Fe111     1.0  0.58507  0.03050  0.40253  1.0000
  S   S218      1.0  0.58809  0.01213  0.43178  1.0000
  S   S219      1.0  0.58033  0.06166  0.35228  1.0000
  S   S220      1.0  0.56290  0.05873  0.39886  1.0000
  H   H1702     1.0  0.34472  0.01801  0.33673  1.0000
  H   H1703     1.0  0.65192  0.10247  0.32185  1.0000
  C   C957      1.0  0.60814  0.11115  0.35321  1.0000
  H   H1704     1.0  0.46149  0.05136  0.38671  1.0000
  C   C958      1.0  0.61026  0.13757  0.32521  1.0000
  C   C959      1.0  0.60007  0.12945  0.34319  1.0000
  H   H1705     1.0  0.60370  0.15155  0.31739  1.0000
  H   H1706     1.0  0.58576  0.13725  0.34925  1.0000
  H   H1707     1.0  0.60615  0.11205  0.26883  1.0000
  H   H1708     1.0  0.64019  0.11189  0.44965  1.0000
  H   H1709     1.0  0.52754  0.99224  0.44647  1.0000
  H   H1710     1.0  0.31969  0.04609  0.25106  1.0000
  C   C960      1.0  0.59442  0.02630  0.44702  1.0000
  C   C961      1.0  0.59744  0.04609  0.44015  1.0000
  C   C962      1.0  0.60314  0.05707  0.45222  1.0000
  H   H1711     1.0  0.45564  0.08217  0.28721  1.0000
  H   H1712     1.0  0.36894  0.13180  0.35618  1.0000
  H   H1713     1.0  0.59551  0.05296  0.42550  1.0000
  H   H1714     1.0  0.60548  0.07236  0.44681  1.0000
  C   C963      1.0  0.33871  0.00278  0.28983  1.0000
  C   C964      1.0  0.41059  0.08056  0.34098  1.0000
  C   C965      1.0  0.40984  0.10126  0.33901  1.0000
  C   C966      1.0  0.39757  0.11447  0.32711  1.0000
  C   C967      1.0  0.38570  0.10713  0.31728  1.0000
  C   C968      1.0  0.38680  0.08638  0.31875  1.0000
  C   C969      1.0  0.39942  0.07311  0.33051  1.0000
  H   H1715     1.0  0.41872  0.10709  0.34682  1.0000
  H   H1716     1.0  0.39706  0.13044  0.32576  1.0000
  H   H1717     1.0  0.37805  0.08058  0.31079  1.0000
  H   H1718     1.0  0.40082  0.05711  0.33141  1.0000
  C   C970      1.0  0.32189  0.98865  0.23669  1.0000
  C   C971      1.0  0.48875  0.01742  0.35738  1.0000
  C   C972      1.0  0.49883  0.03336  0.35659  1.0000
  C   C973      1.0  0.51616  0.03029  0.36472  1.0000
  C   C974      1.0  0.52394  0.01092  0.37290  1.0000
  Fe  Fe112     1.0  0.40818  0.99321  0.36378  1.0000
  H   H1719     1.0  0.47508  0.02011  0.35149  1.0000
  H   H1720     1.0  0.49290  0.04822  0.35000  1.0000
  H   H1721     1.0  0.53715  0.00845  0.37942  1.0000
  H   H1722     1.0  0.50569  0.99345  0.41492  1.0000
  H   H1723     1.0  0.43043  0.09061  0.29817  1.0000
  H   H1724     1.0  0.46200  0.99218  0.45775  1.0000
  H   H1725     1.0  0.37836  0.03975  0.30617  1.0000
  C   C975      1.0  0.61714  0.98429  0.34448  1.0000
  C   C976      1.0  0.62681  0.10122  0.34540  1.0000
  N   N54       1.0  0.61696  0.07091  0.28621  1.0000
  C   C977      1.0  0.63029  0.07086  0.30061  1.0000
  C   C978      1.0  0.59570  0.07930  0.29426  1.0000
  C   C979      1.0  0.61773  0.04947  0.28371  1.0000
  H   H1726     1.0  0.57479  0.00192  0.34197  1.0000
  C   C980      1.0  0.43262  0.13787  0.23478  1.0000
  H   H1727     1.0  0.46859  0.03101  0.43873  1.0000
  C   C981      1.0  0.60228  0.04542  0.27248  1.0000
  C   C982      1.0  0.59267  0.09618  0.30689  1.0000
  C   C983      1.0  0.57080  0.10577  0.31092  1.0000
  H   H1728     1.0  0.34165  0.00277  0.24693  1.0000
  H   H1729     1.0  0.63267  0.04353  0.27586  1.0000
  C   C984      1.0  0.33722  0.02378  0.37534  1.0000
  H   H1730     1.0  0.62308  0.06477  0.31550  1.0000
  C   C985      1.0  0.57175  0.00579  0.32686  1.0000
  H   H1731     1.0  0.58690  0.08471  0.28224  1.0000
  H   H1732     1.0  0.58825  0.06726  0.30410  1.0000
  H   H1733     1.0  0.61567  0.03986  0.29821  1.0000
  H   H1734     1.0  0.33392  0.98048  0.22690  1.0000
  H   H1735     1.0  0.34634  0.14764  0.33188  1.0000
  H   H1736     1.0  0.61577  0.08025  0.25558  1.0000
  H   H1737     1.0  0.35465  0.99803  0.28889  1.0000
  H   H1738     1.0  0.36267  0.08569  0.37715  1.0000
  H   H1739     1.0  0.33485  0.99384  0.40779  1.0000
  H   H1740     1.0  0.60401  0.05349  0.25734  1.0000
  Fe  Fe113     1.0  0.33649  0.07341  0.28448  1.0000
  H   H1741     1.0  0.58679  0.04997  0.27976  1.0000
  H   H1742     1.0  0.59733  0.08996  0.32117  1.0000
  H   H1743     1.0  0.60156  0.10821  0.30028  1.0000
  H   H1744     1.0  0.56136  0.09430  0.31835  1.0000
  H   H1745     1.0  0.56909  0.11710  0.32058  1.0000
  H   H1746     1.0  0.56562  0.11337  0.29715  1.0000
  H   H1747     1.0  0.34396  0.05711  0.38765  1.0000
  H   H1748     1.0  0.64411  0.11676  0.40236  1.0000
  H   H1749     1.0  0.35296  0.02306  0.37675  1.0000
  C   C986      1.0  0.35523  0.03872  0.23130  1.0000
  H   H1750     1.0  0.59365  0.02031  0.26362  1.0000
  C   C987      1.0  0.48622  0.02217  0.41193  1.0000
  H   H1751     1.0  0.34228  0.15161  0.23928  1.0000
  H   H1752     1.0  0.39238  0.15236  0.23621  1.0000
  H   H1753     1.0  0.37382  0.15707  0.35418  1.0000
  C   C988      1.0  0.38341  0.05196  0.24002  1.0000
  H   H1754     1.0  0.34099  0.04348  0.32632  1.0000
  N   N55       1.0  0.46197  0.05594  0.41583  1.0000
  H   H1755     1.0  0.48330  0.02083  0.39753  1.0000
  C   C989      1.0  0.35050  0.15269  0.22461  1.0000
  C   C990      1.0  0.51398  0.99483  0.37342  1.0000
  C   C991      1.0  0.44617  0.99753  0.46049  1.0000
  H   H1756     1.0  0.46454  0.08411  0.42352  1.0000
  H   H1757     1.0  0.62873  0.01836  0.41845  1.0000
  H   H1758     1.0  0.42050  0.16959  0.22557  1.0000
  H   H1759     1.0  0.52406  0.99222  0.30651  1.0000
  S   S221      1.0  0.34700  0.04030  0.28631  1.0000
  C   C992      1.0  0.64622  0.12482  0.45212  1.0000
  C   C993      1.0  0.52593  0.01798  0.46073  1.0000
  C   C994      1.0  0.41045  0.11261  0.23755  1.0000
  H   H1760     1.0  0.44095  0.14298  0.24426  1.0000
  H   H1761     1.0  0.58135  0.03451  0.32304  1.0000
  H   H1762     1.0  0.44353  0.12627  0.22761  1.0000
  C   C995      1.0  0.50090  0.07990  0.43300  1.0000
  H   H1763     1.0  0.40223  0.04969  0.43590  1.0000
  C   C996      1.0  0.33264  0.05942  0.36038  1.0000
  H   H1764     1.0  0.62702  0.98511  0.41760  1.0000
  H   H1765     1.0  0.40122  0.07563  0.43813  1.0000
  H   H1766     1.0  0.60953  0.98786  0.35850  1.0000
  C   C997      1.0  0.40695  0.05985  0.44385  1.0000
  H   H1767     1.0  0.63686  0.14329  0.39508  1.0000
  H   H1768     1.0  0.55517  0.03491  0.33243  1.0000
  H   H1769     1.0  0.32816  0.02918  0.38871  1.0000
  H   H1770     1.0  0.49359  0.00130  0.43769  1.0000
  H   H1771     1.0  0.35279  0.03033  0.24637  1.0000
  C   C998      1.0  0.56790  0.02859  0.32199  1.0000
  H   H1772     1.0  0.35549  0.09020  0.35356  1.0000
  H   H1773     1.0  0.43352  0.06618  0.45072  1.0000
  H   H1774     1.0  0.44105  0.99093  0.43357  1.0000
  C   C999      1.0  0.32360  0.18790  0.28153  1.0000
  H   H1775     1.0  0.48843  0.08249  0.36090  1.0000
  H   H1776     1.0  0.63324  0.08720  0.35325  1.0000
  C   C1000     1.0  0.62884  0.11524  0.24424  1.0000
  Fe  Fe114     1.0  0.34863  0.11131  0.29127  1.0000
  H   H1777     1.0  0.62004  0.01799  0.26329  1.0000
  H   H1778     1.0  0.38369  0.18637  0.24551  1.0000
  H   H1779     1.0  0.43310  0.08780  0.26354  1.0000
  C   C1001     1.0  0.38112  0.17784  0.26050  1.0000
  C   C1002     1.0  0.62414  0.08241  0.26653  1.0000
  C   C1003     1.0  0.46729  0.03373  0.42304  1.0000
  H   H1780     1.0  0.45084  0.10503  0.25643  1.0000
  C   C1004     1.0  0.62200  0.10534  0.26504  1.0000
  H   H1781     1.0  0.46859  0.09301  0.39152  1.0000
  N   N56       1.0  0.33651  0.04242  0.22246  1.0000
  H   H1782     1.0  0.60327  0.01409  0.28615  1.0000
  C   C1005     1.0  0.49156  0.00096  0.42268  1.0000
  H   H1783     1.0  0.39812  0.10543  0.24721  1.0000
  C   C1006     1.0  0.34231  0.15394  0.36139  1.0000
  H   H1784     1.0  0.34320  0.18282  0.30240  1.0000
  H   H1785     1.0  0.44837  0.10767  0.29155  1.0000
  C   C1007     1.0  0.55365  0.99675  0.32459  1.0000
  C   C1008     1.0  0.47087  0.06795  0.42651  1.0000
  H   H1786     1.0  0.51746  0.07777  0.43021  1.0000
  C   C1009     1.0  0.34571  0.03320  0.33916  1.0000
  H   H1787     1.0  0.64440  0.10886  0.23873  1.0000
  Fe  Fe115     1.0  0.44982  0.99143  0.37161  1.0000
  H   H1788     1.0  0.38854  0.06561  0.24191  1.0000
  S   S222      1.0  0.64081  0.13848  0.29457  1.0000
  H   H1789     1.0  0.43441  0.04068  0.44802  1.0000
  H   H1790     1.0  0.65211  0.16079  0.32271  1.0000
  H   H1791     1.0  0.33002  0.17382  0.27564  1.0000
  C   C1010     1.0  0.42965  0.05645  0.44178  1.0000
  H   H1792     1.0  0.36162  0.17931  0.22605  1.0000
  C   C1011     1.0  0.41999  0.11900  0.26665  1.0000
  C   C1012     1.0  0.39748  0.15967  0.26286  1.0000
  H   H1793     1.0  0.45507  0.02570  0.42228  1.0000
  H   H1794     1.0  0.49520  0.09575  0.42749  1.0000
  C   C1013     1.0  0.33392  0.00196  0.37668  1.0000
  S   S223      1.0  0.33666  0.11858  0.22251  1.0000
  H   H1795     1.0  0.64130  0.00583  0.30127  1.0000
  S   S224      1.0  0.32369  0.13145  0.27798  1.0000
  H   H1796     1.0  0.40026  0.05655  0.45946  1.0000
  H   H1797     1.0  0.39538  0.15282  0.27847  1.0000
  H   H1798     1.0  0.38121  0.18788  0.27093  1.0000
  H   H1799     1.0  0.42350  0.10053  0.23583  1.0000
  H   H1800     1.0  0.38338  0.13651  0.25732  1.0000
  C   C1014     1.0  0.40510  0.01048  0.46803  1.0000
  C   C1015     1.0  0.36428  0.14594  0.36234  1.0000
  H   H1801     1.0  0.55098  0.00255  0.30947  1.0000
  C   C1016     1.0  0.62517  0.99907  0.33036  1.0000
  H   H1802     1.0  0.35855  0.98808  0.39222  1.0000
  C   C1017     1.0  0.34220  0.98843  0.39396  1.0000
  H   H1803     1.0  0.54034  0.00350  0.33427  1.0000
  H   H1804     1.0  0.55130  0.99647  0.45014  1.0000
  H   H1805     1.0  0.53906  0.01258  0.43142  1.0000
  H   H1806     1.0  0.49938  0.02972  0.40951  1.0000
  C   C1018     1.0  0.63500  0.99446  0.31223  1.0000
  C   C1019     1.0  0.44330  0.09512  0.28722  1.0000
  H   H1807     1.0  0.37413  0.02568  0.34992  1.0000
  H   H1808     1.0  0.33461  0.06925  0.34607  1.0000
  C   C1020     1.0  0.34855  0.06227  0.37185  1.0000
  H   H1809     1.0  0.63219  0.08631  0.30121  1.0000
  H   H1810     1.0  0.37697  0.01379  0.31655  1.0000
  H   H1811     1.0  0.39482  0.04437  0.22930  1.0000
  C   C1021     1.0  0.46827  0.06062  0.39403  1.0000
  H   H1812     1.0  0.34750  0.17249  0.33345  1.0000
  S   S225      1.0  0.43442  0.00748  0.34659  1.0000
  H   H1813     1.0  0.36740  0.02911  0.22287  1.0000
  C   C1022     1.0  0.36782  0.03483  0.33745  1.0000
  H   H1814     1.0  0.35396  0.97937  0.33203  1.0000
  C   C1023     1.0  0.46289  0.08277  0.38452  1.0000
  C   C1024     1.0  0.65232  0.03026  0.42504  1.0000
  H   H1815     1.0  0.56460  0.03350  0.30701  1.0000
  C   C1025     1.0  0.38058  0.02802  0.31897  1.0000
  S   S226      1.0  0.35814  0.09320  0.26729  1.0000
  H   H1816     1.0  0.32075  0.20054  0.30730  1.0000
  C   C1026     1.0  0.33888  0.16009  0.33999  1.0000
  H   H1817     1.0  0.44651  0.08716  0.38546  1.0000
  C   C1027     1.0  0.43433  0.99677  0.44686  1.0000
  H   H1818     1.0  0.49991  0.06935  0.40689  1.0000
  C   C1028     1.0  0.63736  0.10978  0.32765  1.0000
  C   C1029     1.0  0.64330  0.12895  0.38965  1.0000
  H   H1819     1.0  0.42388  0.13015  0.27406  1.0000
  C   C1030     1.0  0.43749  0.10117  0.26700  1.0000
  H   H1820     1.0  0.36909  0.05066  0.33672  1.0000
  H   H1821     1.0  0.50052  0.05040  0.42838  1.0000
  S   S227      1.0  0.39865  0.00301  0.43356  1.0000
  H   H1822     1.0  0.36655  0.14269  0.37773  1.0000
  H   H1823     1.0  0.48458  0.05635  0.38970  1.0000
  C   C1031     1.0  0.39644  0.14406  0.25016  1.0000
  H   H1824     1.0  0.36344  0.05370  0.36745  1.0000
  C   C1032     1.0  0.53658  0.00391  0.44635  1.0000
  H   H1825     1.0  0.65056  0.04381  0.41378  1.0000
  C   C1033     1.0  0.62890  0.12778  0.31737  1.0000
  H   H1826     1.0  0.38201  0.04187  0.25427  1.0000
  H   H1827     1.0  0.39658  0.02551  0.32027  1.0000
  H   H1828     1.0  0.63321  0.12570  0.38072  1.0000
  H   H1829     1.0  0.41210  0.16496  0.25916  1.0000
  N   N57       1.0  0.41501  0.12873  0.24686  1.0000
  H   H1830     1.0  0.49574  0.07666  0.44895  1.0000
  H   H1831     1.0  0.43257  0.05397  0.41125  1.0000
  C   C1034     1.0  0.43953  0.06145  0.42016  1.0000
  H   H1832     1.0  0.46760  0.10189  0.35647  1.0000
  H   H1833     1.0  0.46657  0.06357  0.44250  1.0000
  H   H1834     1.0  0.62801  0.13151  0.24406  1.0000
  H   H1835     1.0  0.43480  0.07780  0.41595  1.0000
  C   C1035     1.0  0.49389  0.06580  0.42261  1.0000
  H   H1836     1.0  0.46623  0.07644  0.35507  1.0000
  Fe  Fe116     1.0  0.33163  0.11127  0.25525  1.0000
  C   C1036     1.0  0.47190  0.08601  0.36292  1.0000
  H   H1837     1.0  0.34138  0.99589  0.36330  1.0000
  C   C1037     1.0  0.41377  0.00335  0.45057  1.0000
  C   C1038     1.0  0.36336  0.05767  0.23290  1.0000
  H   H1838     1.0  0.65254  0.02083  0.38901  1.0000
  H   H1839     1.0  0.63095  0.10920  0.27463  1.0000
  C   C1039     1.0  0.35090  0.08427  0.36919  1.0000
  H   H1840     1.0  0.62046  0.99838  0.39540  1.0000
  H   H1841     1.0  0.33102  0.20017  0.27225  1.0000
  H   H1842     1.0  0.35277  0.06612  0.24348  1.0000
  H   H1843     1.0  0.64000  0.07651  0.26121  1.0000
  H   H1844     1.0  0.51143  0.02504  0.45617  1.0000
  C   C1040     1.0  0.31993  0.05341  0.23565  1.0000
  H   H1845     1.0  0.58541  0.00038  0.31702  1.0000
  N   N58       1.0  0.33209  0.03833  0.35757  1.0000
  H   H1846     1.0  0.32416  0.15476  0.31002  1.0000
  S   S228      1.0  0.38337  0.98373  0.35275  1.0000
  H   H1847     1.0  0.47966  0.99207  0.42322  1.0000
  N   N59       1.0  0.65223  0.98868  0.39400  1.0000
  C   C1041     1.0  0.63091  0.98545  0.40165  1.0000
  C   C1042     1.0  0.32640  0.98859  0.29095  1.0000
  H   H1848     1.0  0.64356  0.03405  0.43913  1.0000
  C   C1043     1.0  0.33061  0.02305  0.28947  1.0000
  C   C1044     1.0  0.64462  0.01310  0.41967  1.0000
  H   H1849     1.0  0.64363  0.00476  0.36697  1.0000
  C   C1045     1.0  0.32813  0.00760  0.24007  1.0000
  H   H1850     1.0  0.64546  0.00040  0.43181  1.0000
  C   C1046     1.0  0.59698  0.01758  0.46602  1.0000
  H   H1851     1.0  0.61903  0.11331  0.23440  1.0000
  H   H1852     1.0  0.32276  0.06881  0.23540  1.0000
  H   H1853     1.0  0.53502  0.02985  0.45939  1.0000
  H   H1854     1.0  0.33779  0.16704  0.36915  1.0000
  C   C1047     1.0  0.32687  0.18588  0.30249  1.0000
  H   H1855     1.0  0.33382  0.14194  0.36939  1.0000
  H   H1856     1.0  0.51959  0.97998  0.38031  1.0000
  S   S229      1.0  0.32963  0.08989  0.30980  1.0000
  H   H1857     1.0  0.65076  0.04223  0.29844  1.0000
  C   C1048     1.0  0.65145  0.05834  0.29747  1.0000
  H   H1858     1.0  0.32823  0.12390  0.34515  1.0000
  C   C1049     1.0  0.33228  0.02222  0.22070  1.0000
  H   H1859     1.0  0.65237  0.97890  0.36661  1.0000
  Fe  Fe117     1.0  0.44723  0.04022  0.55114  1.0000
  S   S230      1.0  0.43571  0.05105  0.52305  1.0000
  S   S231      1.0  0.46889  0.05713  0.55825  1.0000
  Fe  Fe118     1.0  0.41996  0.00868  0.56426  1.0000
  S   S232      1.0  0.40646  0.01675  0.53704  1.0000
  H   H1860     1.0  0.36045  0.19486  0.59207  1.0000
  Fe  Fe119     1.0  0.43782  0.01856  0.52161  1.0000
  S   S233      1.0  0.45315  0.00737  0.49367  1.0000
  Fe  Fe120     1.0  0.40556  0.04856  0.54086  1.0000
  S   S234      1.0  0.38000  0.07360  0.53602  1.0000
  S   S235      1.0  0.45164  0.00772  0.54859  1.0000
  S   S236      1.0  0.41679  0.04040  0.56904  1.0000
  Fe  Fe121     1.0  0.58210  0.02861  0.55260  1.0000
  S   S237      1.0  0.60939  0.01749  0.53208  1.0000
  S   S238      1.0  0.55689  0.01060  0.56003  1.0000
  Fe  Fe122     1.0  0.59893  0.06495  0.55689  1.0000
  S   S239      1.0  0.62730  0.05685  0.53679  1.0000
  S   S240      1.0  0.59006  0.09412  0.56869  1.0000
  Fe  Fe123     1.0  0.60811  0.04968  0.51809  1.0000
  C   C1050     1.0  0.64984  0.99295  0.58362  1.0000
  Fe  Fe124     1.0  0.62606  0.02557  0.55253  1.0000
  S   S241      1.0  0.57958  0.06015  0.53698  1.0000
  S   S242      1.0  0.59901  0.03411  0.57445  1.0000
  C   C1051     1.0  0.35469  0.01333  0.54205  1.0000
  C   C1052     1.0  0.44029  0.08462  0.60669  1.0000
  H   H1861     1.0  0.46752  0.06718  0.49032  1.0000
  H   H1862     1.0  0.56573  0.05643  0.49383  1.0000
  H   H1863     1.0  0.37401  0.01515  0.57101  1.0000
  C   C1053     1.0  0.33070  0.18736  0.57405  1.0000
  H   H1864     1.0  0.41806  0.11189  0.54185  1.0000
  H   H1865     1.0  0.62047  0.98898  0.58112  1.0000
  H   H1866     1.0  0.33262  0.98759  0.56286  1.0000
  C   C1054     1.0  0.38348  0.16933  0.70233  1.0000
  C   C1055     1.0  0.37505  0.17195  0.68540  1.0000
  C   C1056     1.0  0.36448  0.15761  0.68230  1.0000
  C   C1057     1.0  0.36205  0.14051  0.69623  1.0000
  C   C1058     1.0  0.32383  0.03849  0.54883  1.0000
  H   H1867     1.0  0.37649  0.18531  0.67471  1.0000
  H   H1868     1.0  0.35787  0.16000  0.66933  1.0000
  C   C1059     1.0  0.60672  0.10784  0.57391  1.0000
  C   C1060     1.0  0.58900  0.11006  0.51057  1.0000
  Fe  Fe125     1.0  0.33507  0.11990  0.66717  1.0000
  C   C1061     1.0  0.64654  0.16840  0.67591  1.0000
  H   H1869     1.0  0.37776  0.03404  0.59546  1.0000
  C   C1062     1.0  0.35876  0.20434  0.57777  1.0000
  C   C1063     1.0  0.49067  0.05087  0.50681  1.0000
  H   H1870     1.0  0.62804  0.98947  0.65929  1.0000
  H   H1871     1.0  0.32075  0.16393  0.69802  1.0000
  H   H1872     1.0  0.60449  0.02178  0.49272  1.0000
  C   C1064     1.0  0.37487  0.09052  0.55271  1.0000
  C   C1065     1.0  0.37709  0.11055  0.54603  1.0000
  C   C1066     1.0  0.37296  0.12428  0.55909  1.0000
  C   C1067     1.0  0.36571  0.11825  0.57879  1.0000
  C   C1068     1.0  0.36265  0.09842  0.58537  1.0000
  C   C1069     1.0  0.36761  0.08450  0.57242  1.0000
  H   H1873     1.0  0.38243  0.11537  0.53077  1.0000
  H   H1874     1.0  0.37529  0.13959  0.55390  1.0000
  H   H1875     1.0  0.35694  0.09362  0.60053  1.0000
  H   H1876     1.0  0.36557  0.06919  0.57769  1.0000
  H   H1877     1.0  0.58346  0.13288  0.57875  1.0000
  H   H1878     1.0  0.60613  0.04346  0.65188  1.0000
  H   H1879     1.0  0.61992  0.11041  0.48303  1.0000
  H   H1880     1.0  0.62012  0.15756  0.49971  1.0000
  H   H1881     1.0  0.61518  0.09290  0.69401  1.0000
  S   S243      1.0  0.33086  0.05547  0.64131  1.0000
  H   H1882     1.0  0.36295  0.01492  0.60631  1.0000
  H   H1883     1.0  0.41027  0.01767  0.49463  1.0000
  C   C1070     1.0  0.49319  0.04407  0.55933  1.0000
  C   C1071     1.0  0.49705  0.02315  0.56246  1.0000
  C   C1072     1.0  0.51663  0.01303  0.56285  1.0000
  C   C1073     1.0  0.53244  0.02377  0.56017  1.0000
  C   C1074     1.0  0.52851  0.04470  0.55740  1.0000
  C   C1075     1.0  0.50893  0.05482  0.55700  1.0000
  H   H1884     1.0  0.48494  0.01475  0.56477  1.0000
  H   H1885     1.0  0.32490  0.11982  0.56337  1.0000
  H   H1886     1.0  0.54049  0.05312  0.55571  1.0000
  H   H1887     1.0  0.50600  0.07101  0.55479  1.0000
  C   C1076     1.0  0.41729  0.11736  0.60398  1.0000
  H   H1888     1.0  0.64966  0.15840  0.53191  1.0000
  H   H1889     1.0  0.36889  0.19697  0.56607  1.0000
  H   H1890     1.0  0.55349  0.03156  0.48067  1.0000
  C   C1077     1.0  0.65118  0.04111  0.60278  1.0000
  H   H1891     1.0  0.60563  0.00708  0.66440  1.0000
  H   H1892     1.0  0.43179  0.12303  0.60005  1.0000
  C   C1078     1.0  0.43760  0.00523  0.47767  1.0000
  H   H1893     1.0  0.32117  0.06588  0.60129  1.0000
  C   C1079     1.0  0.37073  0.13775  0.71303  1.0000
  H   H1894     1.0  0.48923  0.07927  0.48693  1.0000
  H   H1895     1.0  0.64365  0.01550  0.63544  1.0000
  H   H1896     1.0  0.33603  0.21767  0.56056  1.0000
  C   C1080     1.0  0.40300  0.06390  0.61249  1.0000
  H   H1897     1.0  0.63290  0.08554  0.57015  1.0000
  H   H1898     1.0  0.62422  0.10292  0.53249  1.0000
  H   H1899     1.0  0.64603  0.16661  0.66126  1.0000
  H   H1900     1.0  0.64346  0.14449  0.50455  1.0000
  H   H1901     1.0  0.60990  0.03706  0.62828  1.0000
  H   H1902     1.0  0.63130  0.17872  0.52275  1.0000
  N   N60       1.0  0.42031  0.09543  0.60200  1.0000
  C   C1081     1.0  0.35178  0.01086  0.52154  1.0000
  H   H1903     1.0  0.44458  0.11067  0.53419  1.0000
  H   H1904     1.0  0.64241  0.07282  0.60365  1.0000
  H   H1905     1.0  0.59718  0.09502  0.51545  1.0000
  N   N61       1.0  0.62837  0.05796  0.63097  1.0000
  H   H1906     1.0  0.51954  0.99684  0.56527  1.0000
  H   H1907     1.0  0.32028  0.19407  0.71991  1.0000
  H   H1908     1.0  0.33324  0.01816  0.62868  1.0000
  C   C1082     1.0  0.61792  0.04010  0.63924  1.0000
  C   C1083     1.0  0.64574  0.05812  0.64073  1.0000
  H   H1909     1.0  0.38919  0.01552  0.47098  1.0000
  H   H1910     1.0  0.59624  0.12599  0.53063  1.0000
  C   C1084     1.0  0.46326  0.06882  0.63093  1.0000
  C   C1085     1.0  0.63668  0.18607  0.68306  1.0000
  Fe  Fe126     1.0  0.32609  0.08779  0.64646  1.0000
  H   H1911     1.0  0.64358  0.02812  0.60371  1.0000
  S   S244      1.0  0.32517  0.14522  0.64422  1.0000
  H   H1912     1.0  0.44279  0.09612  0.63256  1.0000
  H   H1913     1.0  0.41759  0.05430  0.61390  1.0000
  H   H1914     1.0  0.60807  0.07744  0.64936  1.0000
  H   H1915     1.0  0.35186  0.24626  0.71642  1.0000
  C   C1086     1.0  0.33713  0.20754  0.57465  1.0000
  H   H1916     1.0  0.62427  0.13586  0.54121  1.0000
  C   C1087     1.0  0.64583  0.12401  0.47385  1.0000
  H   H1917     1.0  0.35433  0.98806  0.50358  1.0000
  H   H1918     1.0  0.56760  0.10140  0.62160  1.0000
  C   C1088     1.0  0.40324  0.08581  0.61445  1.0000
  C   C1089     1.0  0.36326  0.02924  0.59610  1.0000
  H   H1919     1.0  0.56019  0.10013  0.51733  1.0000
  H   H1920     1.0  0.36376  0.99944  0.54853  1.0000
  H   H1921     1.0  0.33647  0.17588  0.58584  1.0000
  H   H1922     1.0  0.45074  0.09861  0.56715  1.0000
  H   H1923     1.0  0.59470  0.00227  0.47139  1.0000
  N   N62       1.0  0.62128  0.12544  0.50673  1.0000
  C   C1090     1.0  0.62162  0.14948  0.53034  1.0000
  H   H1924     1.0  0.60542  0.12453  0.70667  1.0000
  H   H1925     1.0  0.62873  0.19790  0.67375  1.0000
  H   H1926     1.0  0.45866  0.25671  0.70085  1.0000
  H   H1927     1.0  0.61335  0.99994  0.64043  1.0000
  H   H1928     1.0  0.38746  0.03903  0.62638  1.0000
  C   C1091     1.0  0.63095  0.02016  0.64666  1.0000
  H   H1929     1.0  0.37208  0.06325  0.62618  1.0000
  S   S245      1.0  0.62281  0.21012  0.71124  1.0000
  S   S246      1.0  0.39525  0.18866  0.70618  1.0000
  H   H1930     1.0  0.54715  0.05390  0.51542  1.0000
  H   H1931     1.0  0.61164  0.15345  0.71177  1.0000
  H   H1932     1.0  0.48756  0.03247  0.48646  1.0000
  H   H1933     1.0  0.43304  0.12145  0.56658  1.0000
  H   H1934     1.0  0.59089  0.14130  0.50848  1.0000
  H   H1935     1.0  0.59847  0.08176  0.60830  1.0000
  H   H1936     1.0  0.62907  0.05221  0.67067  1.0000
  H   H1937     1.0  0.49673  0.01378  0.52704  1.0000
  C   C1092     1.0  0.63578  0.05891  0.60938  1.0000
  H   H1938     1.0  0.63710  0.02159  0.65948  1.0000
  C   C1093     1.0  0.59474  0.08011  0.62429  1.0000
  C   C1094     1.0  0.60891  0.11076  0.71719  1.0000
  C   C1095     1.0  0.62432  0.12438  0.48528  1.0000
  C   C1096     1.0  0.58076  0.09926  0.62891  1.0000
  C   C1097     1.0  0.61372  0.07696  0.63366  1.0000
  C   C1098     1.0  0.61161  0.13857  0.58288  1.0000
  H   H1939     1.0  0.35118  0.04083  0.60171  1.0000
  C   C1099     1.0  0.42012  0.09422  0.58104  1.0000
  C   C1100     1.0  0.58300  0.17234  0.71142  1.0000
  C   C1101     1.0  0.43518  0.10533  0.56551  1.0000
  H   H1940     1.0  0.56665  0.03302  0.51046  1.0000
  H   H1941     1.0  0.61447  0.13708  0.47792  1.0000
  H   H1942     1.0  0.53407  0.05231  0.48606  1.0000
  C   C1102     1.0  0.40726  0.14516  0.62468  1.0000
  H   H1943     1.0  0.55881  0.12658  0.51659  1.0000
  C   C1103     1.0  0.50005  0.03697  0.49148  1.0000
  H   H1944     1.0  0.63676  0.10102  0.69847  1.0000
  H   H1945     1.0  0.50215  0.05500  0.51343  1.0000
  H   H1946     1.0  0.47142  0.07936  0.50921  1.0000
  H   H1947     1.0  0.39065  0.12168  0.62642  1.0000
  H   H1948     1.0  0.44649  0.28237  0.70185  1.0000
  H   H1949     1.0  0.48904  0.00305  0.50965  1.0000
  C   C1104     1.0  0.62724  0.14455  0.50932  1.0000
  H   H1950     1.0  0.65026  0.04966  0.57178  1.0000
  H   H1951     1.0  0.63287  0.09375  0.51031  1.0000
  H   H1952     1.0  0.42349  0.07839  0.57858  1.0000
  H   H1953     1.0  0.56669  0.10897  0.53708  1.0000
  H   H1954     1.0  0.38886  0.09472  0.61095  1.0000
  C   C1105     1.0  0.38711  0.05481  0.62796  1.0000
  C   C1106     1.0  0.44305  0.08151  0.62816  1.0000
  H   H1955     1.0  0.33672  0.01752  0.51832  1.0000
  H   H1956     1.0  0.39912  0.14902  0.63895  1.0000
  C   C1107     1.0  0.53103  0.02356  0.50597  1.0000
  H   H1957     1.0  0.48013  0.04345  0.51855  1.0000
  C   C1108     1.0  0.63240  0.10688  0.51746  1.0000
  H   H1958     1.0  0.52525  0.02900  0.52012  1.0000
  H   H1959     1.0  0.57549  0.09834  0.64483  1.0000
  C   C1109     1.0  0.50248  0.00582  0.51441  1.0000
  H   H1960     1.0  0.34234  0.17615  0.71832  1.0000
  C   C1110     1.0  0.47901  0.07035  0.49765  1.0000
  H   H1961     1.0  0.46429  0.05372  0.62712  1.0000
  C   C1111     1.0  0.34135  0.01933  0.57589  1.0000
  H   H1962     1.0  0.33519  0.15046  0.56651  1.0000
  H   H1963     1.0  0.43148  0.07364  0.63804  1.0000
  C   C1112     1.0  0.55654  0.04590  0.50379  1.0000
  H   H1964     1.0  0.45238  0.09284  0.59823  1.0000
  H   H1965     1.0  0.32012  0.07180  0.57578  1.0000
  H   H1966     1.0  0.60554  0.15587  0.53338  1.0000
  C   C1113     1.0  0.61864  0.00319  0.65306  1.0000
  H   H1967     1.0  0.41325  0.11391  0.63625  1.0000
  H   H1968     1.0  0.47560  0.07615  0.62165  1.0000
  S   S247      1.0  0.40985  0.98725  0.59114  1.0000
  C   C1114     1.0  0.59918  0.12664  0.51453  1.0000
  H   H1969     1.0  0.58639  0.06737  0.62964  1.0000
  H   H1970     1.0  0.40255  0.08619  0.63008  1.0000
  H   H1971     1.0  0.38975  0.05498  0.64281  1.0000
  H   H1972     1.0  0.62339  0.05978  0.60139  1.0000
  H   H1973     1.0  0.53651  0.99639  0.48449  1.0000
  H   H1974     1.0  0.58928  0.18434  0.70047  1.0000
  H   H1975     1.0  0.63443  0.07736  0.66306  1.0000
  H   H1976     1.0  0.62610  0.08093  0.71516  1.0000
  H   H1977     1.0  0.33482  0.98061  0.69155  1.0000
  C   C1115     1.0  0.64043  0.06133  0.66229  1.0000
  H   H1978     1.0  0.54194  0.00988  0.50958  1.0000
  N   N63       1.0  0.33605  0.01886  0.55630  1.0000
  N   N64       1.0  0.51427  0.01853  0.49812  1.0000
  S   S248      1.0  0.61263  0.06254  0.48616  1.0000
  H   H1979     1.0  0.58848  0.11157  0.49485  1.0000
  H   H1980     1.0  0.44393  0.06972  0.60181  1.0000
  C   C1116     1.0  0.33523  0.05603  0.53912  1.0000
  H   H1981     1.0  0.58847  0.11247  0.62342  1.0000
  H   H1982     1.0  0.43431  0.08793  0.54320  1.0000
  H   H1983     1.0  0.43190  0.26246  0.70655  1.0000
  H   H1984     1.0  0.40499  0.10012  0.57746  1.0000
  C   C1117     1.0  0.60564  0.04840  0.47125  1.0000
  C   C1118     1.0  0.63950  0.11175  0.57867  1.0000
  H   H1985     1.0  0.60558  0.15346  0.58615  1.0000
  C   C1119     1.0  0.62699  0.10026  0.57381  1.0000
  H   H1986     1.0  0.52610  0.98716  0.52962  1.0000
  C   C1120     1.0  0.36124  0.02650  0.57583  1.0000
  H   H1987     1.0  0.34286  0.00400  0.58465  1.0000
  C   C1121     1.0  0.62262  0.09544  0.70556  1.0000
  S   S249      1.0  0.36117  0.13556  0.59501  1.0000
  C   C1122     1.0  0.52231  0.00636  0.48180  1.0000
  H   H1988     1.0  0.40782  0.12657  0.59345  1.0000
  H   H1989     1.0  0.49384  0.98134  0.55040  1.0000
  C   C1123     1.0  0.59911  0.12694  0.57859  1.0000
  H   H1990     1.0  0.36284  0.04070  0.56595  1.0000
  H   H1991     1.0  0.36322  0.21900  0.57759  1.0000
  C   C1124     1.0  0.63179  0.13103  0.58308  1.0000
  H   H1992     1.0  0.42290  0.14767  0.62295  1.0000
  H   H1993     1.0  0.50733  0.04644  0.47865  1.0000
  C   C1125     1.0  0.54346  0.03878  0.49249  1.0000
  H   H1994     1.0  0.32776  0.21540  0.58627  1.0000
  H   H1995     1.0  0.34503  0.21377  0.71252  1.0000
  C   C1126     1.0  0.51389  0.98520  0.52255  1.0000
  C   C1127     1.0  0.63640  0.18823  0.70238  1.0000
  H   H1996     1.0  0.39915  0.06354  0.59821  1.0000
  H   H1997     1.0  0.39995  0.15522  0.61303  1.0000
  C   C1128     1.0  0.41701  0.01164  0.48147  1.0000
  H   H1998     1.0  0.36234  0.01905  0.51036  1.0000
  S   S250      1.0  0.34737  0.12281  0.69395  1.0000
  C   C1129     1.0  0.40663  0.12330  0.62397  1.0000
  C   C1130     1.0  0.56737  0.11160  0.52107  1.0000
  C   C1131     1.0  0.43282  0.10383  0.54496  1.0000
  C   C1132     1.0  0.64692  0.17295  0.71419  1.0000
  S   S251      1.0  0.35370  0.10073  0.64575  1.0000
  H   H1999     1.0  0.62128  0.09033  0.62794  1.0000
  H   H2000     1.0  0.37209  0.98260  0.51991  1.0000
  H   H2001     1.0  0.36456  0.02475  0.53953  1.0000
  C   C1133     1.0  0.38155  0.15195  0.71599  1.0000
  H   H2002     1.0  0.46509  0.06699  0.64636  1.0000
  H   H2003     1.0  0.34664  0.05215  0.52649  1.0000
  Fe  Fe127     1.0  0.34203  0.12493  0.62314  1.0000
  H   H2004     1.0  0.57715  0.16275  0.70375  1.0000
  C   C1134     1.0  0.35636  0.98898  0.51846  1.0000
  H   H2005     1.0  0.62848  0.16844  0.54830  1.0000
  C   C1135     1.0  0.63354  0.16473  0.53338  1.0000
  H   H2006     1.0  0.33943  0.18284  0.56017  1.0000
  S   S252      1.0  0.64702  0.14681  0.58746  1.0000
  H   H2007     1.0  0.34243  0.06042  0.54976  1.0000
  H   H2008     1.0  0.32971  0.08698  0.52531  1.0000
  C   C1136     1.0  0.31970  0.02017  0.63912  1.0000
  C   C1137     1.0  0.60253  0.02862  0.47812  1.0000
  H   H2009     1.0  0.32911  0.02843  0.58472  1.0000
  C   C1138     1.0  0.63184  0.98561  0.59022  1.0000
  H   H2010     1.0  0.65243  0.13687  0.47542  1.0000
  C   C1139     1.0  0.44605  0.26647  0.70848  1.0000
  H   H2011     1.0  0.51176  0.99615  0.48142  1.0000
  C   C1140     1.0  0.32353  0.00256  0.55913  1.0000
  H   H2012     1.0  0.34635  0.97981  0.52914  1.0000
  C   C1141     1.0  0.32111  0.07454  0.53159  1.0000
  H   H2013     1.0  0.60521  0.17059  0.72874  1.0000
  Fe  Fe128     1.0  0.47760  0.13287  0.87445  1.0000
  S   S253      1.0  0.48940  0.10630  0.85926  1.0000
  S   S254      1.0  0.45074  0.15646  0.87020  1.0000
  Fe  Fe129     1.0  0.51256  0.12588  0.89600  1.0000
  S   S255      1.0  0.52793  0.09883  0.88254  1.0000
  S   S256      1.0  0.52120  0.14105  0.91780  1.0000
  Fe  Fe130     1.0  0.51899  0.11652  0.85475  1.0000
  S   S257      1.0  0.53754  0.11512  0.82504  1.0000
  Fe  Fe131     1.0  0.49734  0.09038  0.88796  1.0000
  S   S258      1.0  0.49482  0.05824  0.90089  1.0000
  S   S259      1.0  0.50659  0.14448  0.86752  1.0000
  S   S260      1.0  0.48266  0.11603  0.90380  1.0000
  C   C1142     1.0  0.45850  0.25212  0.76803  1.0000
  Fe  Fe132     1.0  0.42845  0.41937  0.87601  1.0000
  S   S261      1.0  0.42947  0.39832  0.90417  1.0000
  S   S262      1.0  0.43208  0.40831  0.84751  1.0000
  Fe  Fe133     1.0  0.40412  0.42068  0.91572  1.0000
  Fe  Fe134     1.0  0.44903  0.41788  0.91047  1.0000
  S   S263      1.0  0.47766  0.40552  0.92228  1.0000
  S   S264      1.0  0.40195  0.44070  0.88712  1.0000
  S   S265      1.0  0.45038  0.43709  0.88113  1.0000
  C   C1143     1.0  0.44752  0.23409  0.80213  1.0000
  C   C1144     1.0  0.58169  0.11701  0.87338  1.0000
  H   H2014     1.0  0.38284  0.43113  0.81066  1.0000
  H   H2015     1.0  0.34182  0.98441  0.79381  1.0000
  H   H2016     1.0  0.36150  0.00085  0.80889  1.0000
  Fe  Fe135     1.0  0.58665  0.45743  0.92767  1.0000
  S   S266      1.0  0.60544  0.44638  0.90082  1.0000
  S   S267      1.0  0.56777  0.43998  0.95190  1.0000
  Fe  Fe136     1.0  0.60604  0.18937  0.78473  1.0000
  S   S268      1.0  0.58913  0.19142  0.76056  1.0000
  S   S269      1.0  0.61268  0.15912  0.80278  1.0000
  Fe  Fe137     1.0  0.60825  0.23384  0.77782  1.0000
  C   C1145     1.0  0.47773  0.01211  0.88440  1.0000
  Fe  Fe138     1.0  0.57112  0.21864  0.77177  1.0000
  C   C1146     1.0  0.60032  0.38761  0.91220  1.0000
  S   S270      1.0  0.58660  0.21521  0.79740  1.0000
  S   S271      1.0  0.62927  0.20735  0.76699  1.0000
  S   S272      1.0  0.43369  0.20062  0.77389  1.0000
  S   S273      1.0  0.39096  0.19834  0.76090  1.0000
  Fe  Fe139     1.0  0.41062  0.22138  0.75836  1.0000
  H   H2017     1.0  0.47836  0.07185  0.93935  1.0000
  Fe  Fe140     1.0  0.41551  0.17709  0.77397  1.0000
  S   S274      1.0  0.40969  0.15290  0.79959  1.0000
  Fe  Fe141     1.0  0.34704  0.34824  0.83985  1.0000
  S   S275      1.0  0.35320  0.31623  0.85405  1.0000
  S   S276      1.0  0.37100  0.36511  0.82177  1.0000
  H   H2018     1.0  0.33014  0.44272  0.80081  1.0000
  C   C1147     1.0  0.43875  0.29588  0.76266  1.0000
  S   S277      1.0  0.45600  0.00756  0.85759  1.0000
  C   C1148     1.0  0.36040  0.98482  0.81435  1.0000
  C   C1149     1.0  0.36992  0.43715  0.80300  1.0000
  C   C1150     1.0  0.32282  0.38317  0.78175  1.0000
  H   H2019     1.0  0.34681  0.30169  0.94610  1.0000
  H   H2020     1.0  0.64255  0.36107  0.94576  1.0000
  C   C1151     1.0  0.38176  0.26181  0.78123  1.0000
  C   C1152     1.0  0.36694  0.25008  0.78943  1.0000
  C   C1153     1.0  0.35094  0.25692  0.80346  1.0000
  C   C1154     1.0  0.34975  0.27541  0.80948  1.0000
  C   C1155     1.0  0.36436  0.28734  0.80095  1.0000
  C   C1156     1.0  0.38024  0.28060  0.78677  1.0000
  H   H2021     1.0  0.36785  0.23577  0.78498  1.0000
  H   H2022     1.0  0.33957  0.24772  0.80989  1.0000
  H   H2023     1.0  0.36351  0.30167  0.80539  1.0000
  H   H2024     1.0  0.39154  0.28985  0.78032  1.0000
  H   H2025     1.0  0.46691  0.47238  0.88314  1.0000
  C   C1157     1.0  0.48697  0.11192  0.96967  1.0000
  C   C1158     1.0  0.39635  0.33948  0.96361  1.0000
  H   H2026     1.0  0.49788  0.21400  0.79020  1.0000
  H   H2027     1.0  0.40892  0.28111  0.84245  1.0000
  S   S278      1.0  0.37559  0.41140  0.93260  1.0000
  H   H2028     1.0  0.58083  0.13696  0.73282  1.0000
  H   H2029     1.0  0.50146  0.29163  0.74540  1.0000
  C   C1159     1.0  0.60910  0.42063  0.90013  1.0000
  C   C1160     1.0  0.59727  0.40809  0.91324  1.0000
  H   H2030     1.0  0.59087  0.37800  0.92211  1.0000
  H   H2031     1.0  0.58552  0.41424  0.92390  1.0000
  C   C1161     1.0  0.41410  0.39657  0.84161  1.0000
  C   C1162     1.0  0.41806  0.39053  0.82338  1.0000
  C   C1163     1.0  0.40464  0.38093  0.81778  1.0000
  C   C1164     1.0  0.38716  0.37688  0.83042  1.0000
  C   C1165     1.0  0.38289  0.38301  0.84874  1.0000
  C   C1166     1.0  0.39635  0.39300  0.85430  1.0000
  H   H2032     1.0  0.43163  0.39333  0.81346  1.0000
  H   H2033     1.0  0.40795  0.37648  0.80355  1.0000
  H   H2034     1.0  0.36916  0.38038  0.85839  1.0000
  H   H2035     1.0  0.39305  0.39798  0.86829  1.0000
  C   C1167     1.0  0.48682  0.42324  0.93142  1.0000
  C   C1168     1.0  0.50586  0.41874  0.93658  1.0000
  C   C1169     1.0  0.51376  0.43326  0.94277  1.0000
  C   C1170     1.0  0.50222  0.45204  0.94462  1.0000
  H   H2036     1.0  0.42950  0.02412  0.91774  1.0000
  C   C1171     1.0  0.47533  0.44195  0.93346  1.0000
  H   H2037     1.0  0.51453  0.40408  0.93567  1.0000
  H   H2038     1.0  0.52862  0.42989  0.94625  1.0000
  H   H2039     1.0  0.46063  0.44558  0.92967  1.0000
  C   C1172     1.0  0.43963  0.15520  0.85050  1.0000
  C   C1173     1.0  0.43269  0.17296  0.83882  1.0000
  C   C1174     1.0  0.42363  0.17232  0.82307  1.0000
  C   C1175     1.0  0.42102  0.15395  0.81926  1.0000
  C   C1176     1.0  0.42761  0.13621  0.83118  1.0000
  C   C1177     1.0  0.43728  0.13679  0.84656  1.0000
  H   H2040     1.0  0.43477  0.18719  0.84168  1.0000
  H   H2041     1.0  0.41862  0.18601  0.81393  1.0000
  H   H2042     1.0  0.42546  0.12197  0.82838  1.0000
  H   H2043     1.0  0.44246  0.12305  0.85567  1.0000
  C   C1178     1.0  0.55810  0.12773  0.81978  1.0000
  C   C1179     1.0  0.57700  0.11702  0.82209  1.0000
  C   C1180     1.0  0.59374  0.12673  0.81682  1.0000
  C   C1181     1.0  0.59166  0.14710  0.80893  1.0000
  C   C1182     1.0  0.57283  0.15768  0.80612  1.0000
  C   C1183     1.0  0.55604  0.14801  0.81158  1.0000
  H   H2044     1.0  0.57869  0.10123  0.82803  1.0000
  H   H2045     1.0  0.60829  0.11848  0.81894  1.0000
  H   H2046     1.0  0.57113  0.17341  0.80000  1.0000
  H   H2047     1.0  0.54151  0.15622  0.80931  1.0000
  C   C1184     1.0  0.48427  0.04442  0.88838  1.0000
  C   C1185     1.0  0.47313  0.05384  0.87385  1.0000
  C   C1186     1.0  0.46443  0.04238  0.86455  1.0000
  C   C1187     1.0  0.48678  0.02352  0.89342  1.0000
  H   H2048     1.0  0.47099  0.06994  0.86993  1.0000
  H   H2049     1.0  0.45581  0.04973  0.85331  1.0000
  H   H2050     1.0  0.47020  0.99817  0.92458  1.0000
  C   C1188     1.0  0.53386  0.12663  0.93623  1.0000
  C   C1189     1.0  0.54558  0.10805  0.93391  1.0000
  C   C1190     1.0  0.55572  0.09712  0.94887  1.0000
  H   H2051     1.0  0.46851  0.30013  0.74956  1.0000
  C   C1191     1.0  0.53854  0.45393  0.89604  1.0000
  C   C1192     1.0  0.53220  0.13413  0.95355  1.0000
  H   H2052     1.0  0.54706  0.10223  0.92053  1.0000
  H   H2053     1.0  0.56496  0.08284  0.94699  1.0000
  H   H2054     1.0  0.34407  0.37223  0.75753  1.0000
  H   H2055     1.0  0.52341  0.14863  0.95530  1.0000
  S   S279      1.0  0.42349  0.43820  0.92504  1.0000
  H   H2056     1.0  0.45140  0.34790  0.88288  1.0000
  H   H2057     1.0  0.45253  0.02194  0.96747  1.0000
  H   H2058     1.0  0.46451  0.23737  0.76331  1.0000
  S   S280      1.0  0.48238  0.19075  0.73457  1.0000
  H   H2059     1.0  0.35241  0.23777  0.74196  1.0000
  C   C1193     1.0  0.62000  0.13877  0.75466  1.0000
  H   H2060     1.0  0.44602  0.24738  0.73603  1.0000
  H   H2061     1.0  0.50456  0.06505  0.80772  1.0000
  H   H2062     1.0  0.45688  0.12306  0.80106  1.0000
  S   S281      1.0  0.40264  0.25338  0.76439  1.0000
  H   H2063     1.0  0.59479  0.10499  0.72329  1.0000
  H   H2064     1.0  0.50219  0.12638  0.76091  1.0000
  H   H2065     1.0  0.50252  0.09850  0.78361  1.0000
  H   H2066     1.0  0.51876  0.99743  0.86528  1.0000
  C   C1194     1.0  0.49724  0.10635  0.79642  1.0000
  H   H2067     1.0  0.36836  0.44743  0.95769  1.0000
  H   H2068     1.0  0.52148  0.00342  0.82069  1.0000
  N   N65       1.0  0.46979  0.99609  0.95540  1.0000
  H   H2069     1.0  0.43262  0.08195  0.94812  1.0000
  C   C1195     1.0  0.46523  0.09407  0.95856  1.0000
  N   N66       1.0  0.56138  0.17464  0.87153  1.0000
  C   C1196     1.0  0.54983  0.17691  0.85515  1.0000
  C   C1197     1.0  0.56789  0.15268  0.87899  1.0000
  C   C1198     1.0  0.54744  0.18368  0.88800  1.0000
  C   C1199     1.0  0.57899  0.18567  0.86559  1.0000
  C   C1200     1.0  0.59412  0.18026  0.84745  1.0000
  C   C1201     1.0  0.54183  0.19865  0.84624  1.0000
  C   C1202     1.0  0.55541  0.18045  0.90751  1.0000
  C   C1203     1.0  0.57282  0.13790  0.86418  1.0000
  C   C1204     1.0  0.60967  0.19427  0.84157  1.0000
  C   C1205     1.0  0.53075  0.19877  0.82967  1.0000
  C   C1206     1.0  0.53957  0.18932  0.92320  1.0000
  H   H2070     1.0  0.53688  0.16883  0.86025  1.0000
  H   H2071     1.0  0.55886  0.16970  0.84290  1.0000
  H   H2072     1.0  0.58093  0.15075  0.88649  1.0000
  H   H2073     1.0  0.55589  0.14669  0.89021  1.0000
  H   H2074     1.0  0.53313  0.17761  0.89118  1.0000
  H   H2075     1.0  0.54347  0.20015  0.88387  1.0000
  H   H2076     1.0  0.57382  0.20214  0.86313  1.0000
  H   H2077     1.0  0.58774  0.18297  0.87759  1.0000
  H   H2078     1.0  0.58677  0.18149  0.83473  1.0000
  H   H2079     1.0  0.53111  0.20650  0.85719  1.0000
  H   H2080     1.0  0.55422  0.20731  0.84020  1.0000
  H   H2081     1.0  0.56865  0.18784  0.90569  1.0000
  H   H2082     1.0  0.55957  0.16432  0.91316  1.0000
  H   H2083     1.0  0.55899  0.13649  0.85929  1.0000
  H   H2084     1.0  0.57122  0.11124  0.88633  1.0000
  H   H2085     1.0  0.62038  0.18997  0.82860  1.0000
  H   H2086     1.0  0.60245  0.21002  0.83772  1.0000
  H   H2087     1.0  0.54103  0.19226  0.81755  1.0000
  H   H2088     1.0  0.51820  0.19015  0.83486  1.0000
  H   H2089     1.0  0.52463  0.21442  0.82392  1.0000
  H   H2090     1.0  0.53532  0.20571  0.91876  1.0000
  H   H2091     1.0  0.52610  0.18204  0.92592  1.0000
  H   H2092     1.0  0.54555  0.18669  0.93700  1.0000
  C   C1207     1.0  0.48672  0.13905  0.80688  1.0000
  C   C1208     1.0  0.48429  0.09292  0.81194  1.0000
  C   C1209     1.0  0.47852  0.16172  0.80302  1.0000
  C   C1210     1.0  0.48375  0.17274  0.81753  1.0000
  H   H2093     1.0  0.50176  0.13716  0.81087  1.0000
  H   H2094     1.0  0.47723  0.13281  0.82037  1.0000
  H   H2095     1.0  0.47679  0.10055  0.82441  1.0000
  H   H2096     1.0  0.46210  0.16409  0.80426  1.0000
  H   H2097     1.0  0.48463  0.16876  0.78835  1.0000
  H   H2098     1.0  0.48715  0.06382  0.83026  1.0000
  H   H2099     1.0  0.52877  0.12786  0.78157  1.0000
  H   H2100     1.0  0.47880  0.16567  0.83269  1.0000
  H   H2101     1.0  0.50011  0.17250  0.81514  1.0000
  H   H2102     1.0  0.47625  0.18856  0.81552  1.0000
  N   N67       1.0  0.38335  0.34691  0.91107  1.0000
  C   C1211     1.0  0.38530  0.32503  0.90959  1.0000
  C   C1212     1.0  0.38274  0.34947  0.93187  1.0000
  C   C1213     1.0  0.36365  0.35727  0.90520  1.0000
  C   C1214     1.0  0.39962  0.35671  0.89742  1.0000
  C   C1215     1.0  0.42139  0.34690  0.89910  1.0000
  C   C1216     1.0  0.38663  0.32019  0.88890  1.0000
  C   C1217     1.0  0.35704  0.37940  0.90837  1.0000
  C   C1218     1.0  0.39596  0.33328  0.94422  1.0000
  H   H2103     1.0  0.63871  0.38595  0.87407  1.0000
  Fe  Fe142     1.0  0.42375  0.45651  0.89528  1.0000
  C   C1219     1.0  0.38980  0.29758  0.88910  1.0000
  H   H2104     1.0  0.62549  0.10048  0.74106  1.0000
  H   H2105     1.0  0.37249  0.31866  0.91919  1.0000
  H   H2106     1.0  0.39859  0.31602  0.91518  1.0000
  H   H2107     1.0  0.49364  0.26272  0.77044  1.0000
  H   H2108     1.0  0.36729  0.34946  0.94028  1.0000
  H   H2109     1.0  0.35148  0.34900  0.91335  1.0000
  H   H2110     1.0  0.36379  0.35717  0.88956  1.0000
  H   H2111     1.0  0.39762  0.35784  0.88210  1.0000
  H   H2112     1.0  0.39844  0.37249  0.89951  1.0000
  H   H2113     1.0  0.42363  0.33038  0.90098  1.0000
  H   H2114     1.0  0.35310  0.47667  0.92292  1.0000
  H   H2115     1.0  0.37271  0.32676  0.88312  1.0000
  H   H2116     1.0  0.39928  0.32604  0.87866  1.0000
  H   H2117     1.0  0.36809  0.38891  0.90008  1.0000
  H   H2118     1.0  0.35501  0.38065  0.92399  1.0000
  H   H2119     1.0  0.38977  0.31904  0.94762  1.0000
  H   H2120     1.0  0.44067  0.98157  0.93982  1.0000
  H   H2121     1.0  0.34860  0.98383  0.82746  1.0000
  H   H2122     1.0  0.34741  0.38790  0.79354  1.0000
  Fe  Fe143     1.0  0.64766  0.34020  0.88092  1.0000
  C   C1220     1.0  0.52459  0.02498  0.84734  1.0000
  H   H2123     1.0  0.50577  0.39258  0.85602  1.0000
  H   H2124     1.0  0.37220  0.45479  0.92178  1.0000
  H   H2125     1.0  0.37739  0.29088  0.89899  1.0000
  H   H2126     1.0  0.39019  0.29460  0.87422  1.0000
  H   H2127     1.0  0.40413  0.29031  0.89388  1.0000
  H   H2128     1.0  0.49642  0.24707  0.75261  1.0000
  H   H2129     1.0  0.52368  0.15867  0.74460  1.0000
  H   H2130     1.0  0.44089  0.00216  0.90686  1.0000
  H   H2131     1.0  0.56030  0.10549  0.78791  1.0000
  H   H2132     1.0  0.54223  0.35428  0.93834  1.0000
  C   C1221     1.0  0.58248  0.38789  0.85316  1.0000
  C   C1222     1.0  0.43111  0.00754  0.91980  1.0000
  Fe  Fe144     1.0  0.32875  0.31129  0.84016  1.0000
  S   S282      1.0  0.32466  0.35812  0.86494  1.0000
  H   H2133     1.0  0.50872  0.03222  0.84885  1.0000
  H   H2134     1.0  0.43793  0.10498  0.78648  1.0000
  H   H2135     1.0  0.33161  0.39477  0.82383  1.0000
  H   H2136     1.0  0.34663  0.35732  0.78112  1.0000
  H   H2137     1.0  0.53780  0.41563  0.85655  1.0000
  H   H2138     1.0  0.38414  0.19500  0.80934  1.0000
  C   C1223     1.0  0.34057  0.16457  0.75793  1.0000
  H   H2139     1.0  0.34920  0.20298  0.75551  1.0000
  S   S283      1.0  0.33595  0.31205  0.90834  1.0000
  C   C1224     1.0  0.60215  0.39247  0.84047  1.0000
  H   H2140     1.0  0.32536  0.37933  0.90976  1.0000
  H   H2141     1.0  0.45397  0.21919  0.79798  1.0000
  H   H2142     1.0  0.35402  0.15777  0.74854  1.0000
  H   H2143     1.0  0.52219  0.01956  0.95360  1.0000
  C   C1225     1.0  0.48280  0.45606  0.94053  1.0000
  C   C1226     1.0  0.57321  0.40439  0.86596  1.0000
  C   C1227     1.0  0.61758  0.39941  0.95401  1.0000
  H   H2144     1.0  0.36901  0.12455  0.72387  1.0000
  C   C1228     1.0  0.46437  0.07543  0.94971  1.0000
  N   N68       1.0  0.38523  0.22756  0.85363  1.0000
  C   C1229     1.0  0.40036  0.24165  0.84788  1.0000
  C   C1230     1.0  0.39200  0.20994  0.86849  1.0000
  C   C1231     1.0  0.38408  0.21960  0.83557  1.0000
  C   C1232     1.0  0.36466  0.23812  0.86103  1.0000
  C   C1233     1.0  0.36284  0.25003  0.87784  1.0000
  C   C1234     1.0  0.39576  0.25988  0.83196  1.0000
  C   C1235     1.0  0.37245  0.20175  0.83874  1.0000
  C   C1236     1.0  0.40394  0.21379  0.88330  1.0000
  C   C1237     1.0  0.40692  0.19548  0.89905  1.0000
  H   H2145     1.0  0.44081  0.32694  0.76332  1.0000
  C   C1238     1.0  0.41047  0.27449  0.82907  1.0000
  C   C1239     1.0  0.36967  0.19710  0.81937  1.0000
  H   H2146     1.0  0.41527  0.23327  0.84254  1.0000
  H   H2147     1.0  0.40243  0.24767  0.86057  1.0000
  H   H2148     1.0  0.37905  0.20278  0.87672  1.0000
  H   H2149     1.0  0.40220  0.19806  0.86109  1.0000
  H   H2150     1.0  0.39934  0.21468  0.82774  1.0000
  H   H2151     1.0  0.37701  0.23166  0.82515  1.0000
  H   H2152     1.0  0.35825  0.24850  0.84894  1.0000
  H   H2153     1.0  0.35412  0.22723  0.86635  1.0000
  H   H2154     1.0  0.37341  0.26086  0.87443  1.0000
  H   H2155     1.0  0.36532  0.23957  0.89139  1.0000
  H   H2156     1.0  0.39696  0.25483  0.81783  1.0000
  H   H2157     1.0  0.38061  0.26834  0.83584  1.0000
  H   H2158     1.0  0.35744  0.20493  0.84753  1.0000
  H   H2159     1.0  0.38069  0.18798  0.84629  1.0000
  H   H2160     1.0  0.41900  0.21673  0.87572  1.0000
  H   H2161     1.0  0.39655  0.22676  0.89052  1.0000
  H   H2162     1.0  0.41482  0.18215  0.89243  1.0000
  H   H2163     1.0  0.41609  0.19834  0.90904  1.0000
  H   H2164     1.0  0.39234  0.19224  0.90767  1.0000
  N   N69       1.0  0.32465  0.41381  0.79714  1.0000
  C   C1240     1.0  0.37596  0.47483  0.94053  1.0000
  H   H2165     1.0  0.43374  0.27261  0.73726  1.0000
  H   H2166     1.0  0.42601  0.26684  0.82538  1.0000
  H   H2167     1.0  0.40726  0.28684  0.81697  1.0000
  S   S284      1.0  0.43232  0.16817  0.74564  1.0000
  H   H2168     1.0  0.47253  0.08897  0.80553  1.0000
  H   H2169     1.0  0.53703  0.13334  0.74606  1.0000
  C   C1241     1.0  0.46463  0.11713  0.77108  1.0000
  S   S285      1.0  0.61825  0.35404  0.89692  1.0000
  C   C1242     1.0  0.46647  0.02153  0.86999  1.0000
  S   S286      1.0  0.53731  0.22327  0.77886  1.0000
  C   C1243     1.0  0.50348  0.21025  0.77581  1.0000
  H   H2170     1.0  0.45940  0.14430  0.78307  1.0000
  H   H2171     1.0  0.44226  0.10610  0.76044  1.0000
  C   C1244     1.0  0.49690  0.07339  0.81974  1.0000
  H   H2172     1.0  0.50818  0.07649  0.82738  1.0000
  H   H2173     1.0  0.58352  0.14292  0.85126  1.0000
  H   H2174     1.0  0.44858  0.09215  0.92647  1.0000
  H   H2175     1.0  0.49580  0.01616  0.90429  1.0000
  H   H2176     1.0  0.62827  0.14781  0.74221  1.0000
  H   H2177     1.0  0.60232  0.16485  0.85066  1.0000
  C   C1245     1.0  0.54906  0.41728  0.89244  1.0000
  C   C1246     1.0  0.52312  0.21234  0.76702  1.0000
  H   H2178     1.0  0.47350  0.47020  0.94262  1.0000
  C   C1247     1.0  0.61540  0.37955  0.89824  1.0000
  H   H2179     1.0  0.58768  0.12555  0.77576  1.0000
  S   S287      1.0  0.59117  0.23930  0.75280  1.0000
  H   H2180     1.0  0.51106  0.10623  0.80214  1.0000
  H   H2181     1.0  0.47585  0.20216  0.77284  1.0000
  H   H2182     1.0  0.61104  0.14962  0.76408  1.0000
  Fe  Fe145     1.0  0.61076  0.21140  0.74346  1.0000
  C   C1248     1.0  0.49095  0.20363  0.76598  1.0000
  H   H2183     1.0  0.58032  0.08457  0.79040  1.0000
  H   H2184     1.0  0.59609  0.11735  0.87776  1.0000
  C   C1249     1.0  0.46647  0.12852  0.78728  1.0000
  H   H2185     1.0  0.58132  0.15190  0.75019  1.0000
  C   C1250     1.0  0.43579  0.35379  0.88078  1.0000
  H   H2186     1.0  0.33849  0.38812  0.88583  1.0000
  C   C1251     1.0  0.36049  0.38979  0.96660  1.0000
  N   N70       1.0  0.48743  0.12766  0.79058  1.0000
  H   H2187     1.0  0.51820  0.15376  0.78165  1.0000
  H   H2188     1.0  0.54546  0.20884  0.74156  1.0000
  C   C1252     1.0  0.45945  0.25004  0.78997  1.0000
  H   H2189     1.0  0.48925  0.46514  0.89371  1.0000
  C   C1253     1.0  0.58189  0.10267  0.76143  1.0000
  H   H2190     1.0  0.58444  0.10657  0.86270  1.0000
  H   H2191     1.0  0.61811  0.19323  0.85354  1.0000
  C   C1254     1.0  0.57013  0.09350  0.78054  1.0000
  H   H2192     1.0  0.35931  0.20941  0.81235  1.0000
  H   H2193     1.0  0.38650  0.36438  0.93225  1.0000
  H   H2194     1.0  0.44990  0.09952  0.96589  1.0000
  C   C1255     1.0  0.37710  0.39787  0.95586  1.0000
  H   H2195     1.0  0.49101  0.15064  0.76500  1.0000
  H   H2196     1.0  0.56063  0.08357  0.77763  1.0000
  H   H2197     1.0  0.53257  0.03071  0.83276  1.0000
  C   C1256     1.0  0.43959  0.99797  0.93832  1.0000
  C   C1257     1.0  0.53037  0.20716  0.74852  1.0000
  H   H2198     1.0  0.46645  0.28902  0.77424  1.0000
  H   H2199     1.0  0.46934  0.12589  0.75657  1.0000
  H   H2200     1.0  0.47961  0.99602  0.88841  1.0000
  H   H2201     1.0  0.34388  0.40379  0.77149  1.0000
  C   C1258     1.0  0.49951  0.13654  0.77190  1.0000
  Fe  Fe146     1.0  0.32883  0.32561  0.87829  1.0000
  H   H2202     1.0  0.33875  0.27343  0.86913  1.0000
  H   H2203     1.0  0.54226  0.99576  0.84858  1.0000
  H   H2204     1.0  0.43304  0.34822  0.86806  1.0000
  H   H2205     1.0  0.55513  0.36880  0.88471  1.0000
  H   H2206     1.0  0.64536  0.33878  0.80818  1.0000
  H   H2207     1.0  0.57089  0.11145  0.75245  1.0000
  C   C1259     1.0  0.59617  0.11564  0.76515  1.0000
  Fe  Fe147     1.0  0.44879  0.19357  0.74455  1.0000
  C   C1260     1.0  0.64803  0.27237  0.83319  1.0000
  H   H2208     1.0  0.60718  0.10489  0.77298  1.0000
  C   C1261     1.0  0.54150  0.12277  0.96884  1.0000
  C   C1262     1.0  0.49793  0.19893  0.74732  1.0000
  C   C1263     1.0  0.52009  0.14099  0.77367  1.0000
  H   H2209     1.0  0.53563  0.44166  0.87149  1.0000
  C   C1264     1.0  0.63798  0.28840  0.82170  1.0000
  H   H2210     1.0  0.49995  0.00288  0.83875  1.0000
  H   H2211     1.0  0.53128  0.02923  0.85858  1.0000
  C   C1265     1.0  0.51777  0.20054  0.73869  1.0000
  H   H2212     1.0  0.59064  0.09009  0.75416  1.0000
  C   C1266     1.0  0.62392  0.41265  0.88591  1.0000
  S   S288      1.0  0.61618  0.26176  0.78570  1.0000
  H   H2213     1.0  0.53836  0.06096  0.95712  1.0000
  H   H2214     1.0  0.54510  0.34593  0.91529  1.0000
  H   H2215     1.0  0.49948  0.99547  0.93852  1.0000
  C   C1267     1.0  0.62789  0.26519  0.80469  1.0000
  C   C1268     1.0  0.33712  0.38814  0.90165  1.0000
  C   C1269     1.0  0.55034  0.35584  0.92311  1.0000
  H   H2216     1.0  0.44249  0.25449  0.76704  1.0000
  H   H2217     1.0  0.47405  0.10218  0.77193  1.0000
  H   H2218     1.0  0.57382  0.37647  0.89380  1.0000
  H   H2219     1.0  0.32623  0.35599  0.76950  1.0000
  C   C1270     1.0  0.63732  0.24913  0.81667  1.0000
  C   C1271     1.0  0.59105  0.14379  0.73871  1.0000
  H   H2220     1.0  0.62080  0.29736  0.79837  1.0000
  H   H2221     1.0  0.54834  0.45157  0.90713  1.0000
  C   C1272     1.0  0.49087  0.26263  0.75561  1.0000
  H   H2222     1.0  0.55107  0.38686  0.92216  1.0000
  H   H2223     1.0  0.52021  0.02196  0.92821  1.0000
  H   H2224     1.0  0.49862  0.99413  0.96370  1.0000
  H   H2225     1.0  0.47496  0.24550  0.79274  1.0000
  C   C1273     1.0  0.51588  0.99590  0.83555  1.0000
  H   H2226     1.0  0.40736  0.40132  0.95555  1.0000
  C   C1274     1.0  0.53810  0.40207  0.86796  1.0000
  H   H2227     1.0  0.50303  0.27744  0.72622  1.0000
  N   N71       1.0  0.60652  0.12805  0.74752  1.0000
  C   C1275     1.0  0.62820  0.28482  0.80741  1.0000
  H   H2228     1.0  0.34439  0.43380  0.77992  1.0000
  H   H2229     1.0  0.56260  0.39647  0.95180  1.0000
  H   H2230     1.0  0.44752  0.06578  0.93163  1.0000
  H   H2231     1.0  0.63791  0.30354  0.82369  1.0000
  H   H2232     1.0  0.36254  0.14593  0.79942  1.0000
  N   N72       1.0  0.55411  0.40108  0.87985  1.0000
  H   H2233     1.0  0.57091  0.41866  0.85567  1.0000
  Fe  Fe148     1.0  0.54474  0.46763  0.95028  1.0000
  C   C1276     1.0  0.53242  0.14655  0.75365  1.0000
  C   C1277     1.0  0.44317  0.11405  0.77232  1.0000
  H   H2234     1.0  0.47857  0.25713  0.72688  1.0000
  H   H2235     1.0  0.53529  0.41556  0.90319  1.0000
  C   C1278     1.0  0.64735  0.25273  0.83077  1.0000
  C   C1279     1.0  0.49172  0.02410  0.94797  1.0000
  H   H2236     1.0  0.54590  0.15198  0.75534  1.0000
  H   H2237     1.0  0.46896  0.28316  0.72467  1.0000
  C   C1280     1.0  0.43290  0.31477  0.77211  1.0000
  H   H2238     1.0  0.43311  0.12865  0.77075  1.0000
  H   H2239     1.0  0.36609  0.40790  0.80009  1.0000
  C   C1281     1.0  0.39430  0.39556  0.96402  1.0000
  H   H2240     1.0  0.39835  0.43475  0.96361  1.0000
  H   H2241     1.0  0.62875  0.12067  0.78147  1.0000
  C   C1282     1.0  0.54625  0.37764  0.91331  1.0000
  H   H2242     1.0  0.58478  0.40595  0.87420  1.0000
  C   C1283     1.0  0.62730  0.39206  0.88511  1.0000
  H   H2243     1.0  0.36326  0.18307  0.82192  1.0000
  H   H2244     1.0  0.64647  0.15094  0.77231  1.0000
  C   C1284     1.0  0.44700  0.26336  0.73016  1.0000
  H   H2245     1.0  0.32322  0.99032  0.75898  1.0000
  H   H2246     1.0  0.63721  0.23396  0.81480  1.0000
  H   H2247     1.0  0.55131  0.98677  0.80968  1.0000
  H   H2248     1.0  0.48373  0.03239  0.93616  1.0000
  H   H2249     1.0  0.64835  0.33123  0.93084  1.0000
  N   N73       1.0  0.46889  0.26811  0.75450  1.0000
  H   H2250     1.0  0.46836  0.10581  0.94568  1.0000
  C   C1285     1.0  0.55338  0.10426  0.96652  1.0000
  H   H2251     1.0  0.65092  0.32585  0.78757  1.0000
  C   C1286     1.0  0.35674  0.42110  0.80591  1.0000
  H   H2252     1.0  0.43645  0.31161  0.78706  1.0000
  H   H2253     1.0  0.53627  0.27830  0.73294  1.0000
  H   H2254     1.0  0.35213  0.41681  0.82182  1.0000
  H   H2255     1.0  0.43105  0.44551  0.96342  1.0000
  C   C1287     1.0  0.34194  0.26211  0.88200  1.0000
  C   C1288     1.0  0.63150  0.35075  0.95108  1.0000
  H   H2256     1.0  0.56095  0.41578  0.90128  1.0000
  C   C1289     1.0  0.34677  0.19829  0.74227  1.0000
  H   H2257     1.0  0.54158  0.38926  0.85978  1.0000
  H   H2258     1.0  0.33258  0.40382  0.90439  1.0000
  C   C1290     1.0  0.55785  0.38057  0.89215  1.0000
  H   H2259     1.0  0.64274  0.11172  0.75973  1.0000
  C   C1291     1.0  0.51340  0.02746  0.94213  1.0000
  C   C1292     1.0  0.33478  0.31426  0.94657  1.0000
  C   C1293     1.0  0.49046  0.00146  0.95152  1.0000
  H   H2260     1.0  0.46252  0.06214  0.96099  1.0000
  H   H2261     1.0  0.53094  0.25308  0.73863  1.0000
  C   C1294     1.0  0.62866  0.41722  0.95021  1.0000
  H   H2262     1.0  0.49535  0.11567  0.95465  1.0000
  H   H2263     1.0  0.44813  0.23318  0.81776  1.0000
  H   H2264     1.0  0.51563  0.38692  0.88872  1.0000
  H   H2265     1.0  0.56090  0.44303  0.87344  1.0000
  H   H2266     1.0  0.41151  0.33033  0.93660  1.0000
  C   C1295     1.0  0.46671  0.26838  0.73365  1.0000
  H   H2267     1.0  0.39220  0.46966  0.93902  1.0000
  C   C1296     1.0  0.46034  0.00359  0.93744  1.0000
  H   H2268     1.0  0.52318  0.45203  0.90344  1.0000
  C   C1297     1.0  0.49838  0.07689  0.96632  1.0000
  H   H2269     1.0  0.45835  0.02019  0.93404  1.0000
  H   H2270     1.0  0.61316  0.39297  0.84967  1.0000
  H   H2271     1.0  0.52999  0.38191  0.91385  1.0000
  H   H2272     1.0  0.45309  0.26435  0.79540  1.0000
  H   H2273     1.0  0.60182  0.40563  0.95295  1.0000
  H   H2274     1.0  0.56655  0.35098  0.92333  1.0000
  S   S289      1.0  0.33025  0.28271  0.82816  1.0000
  H   H2275     1.0  0.41618  0.00345  0.92085  1.0000
  C   C1298     1.0  0.54637  0.43920  0.88167  1.0000
  H   H2276     1.0  0.60843  0.38051  0.83147  1.0000
  H   H2277     1.0  0.36144  0.45057  0.80912  1.0000
  H   H2278     1.0  0.58572  0.37295  0.86211  1.0000
  H   H2279     1.0  0.35539  0.17698  0.77683  1.0000
  S   S290      1.0  0.41111  0.98083  0.88442  1.0000
  C   C1299     1.0  0.47975  0.47794  0.88618  1.0000
  H   H2280     1.0  0.57232  0.38693  0.84329  1.0000
  H   H2281     1.0  0.63267  0.42251  0.87548  1.0000
  H   H2282     1.0  0.34086  0.27016  0.89437  1.0000
  H   H2283     1.0  0.48662  0.40312  0.87405  1.0000
  H   H2284     1.0  0.51164  0.41374  0.88824  1.0000
  H   H2285     1.0  0.43397  0.37037  0.87749  1.0000
  H   H2286     1.0  0.64458  0.41223  0.95161  1.0000
  Fe  Fe149     1.0  0.40900  0.19098  0.73226  1.0000
  H   H2287     1.0  0.61920  0.35540  0.94260  1.0000
  C   C1300     1.0  0.52621  0.00220  0.85022  1.0000
  H   H2288     1.0  0.42570  0.35138  0.91166  1.0000
  H   H2289     1.0  0.34726  0.39130  0.96022  1.0000
  C   C1301     1.0  0.50173  0.40434  0.86546  1.0000
  C   C1302     1.0  0.63584  0.12535  0.76620  1.0000
  H   H2290     1.0  0.62160  0.42761  0.96063  1.0000
  H   H2291     1.0  0.37570  0.44152  0.78731  1.0000
  H   H2292     1.0  0.36161  0.19037  0.73620  1.0000
  H   H2293     1.0  0.59979  0.40703  0.83064  1.0000
  H   H2294     1.0  0.50544  0.08180  0.95100  1.0000
  C   C1303     1.0  0.51662  0.40161  0.87931  1.0000
  H   H2295     1.0  0.50110  0.41935  0.85624  1.0000
  H   H2296     1.0  0.48218  0.99590  0.81871  1.0000
  H   H2297     1.0  0.51406  0.04372  0.93988  1.0000
  H   H2298     1.0  0.43168  0.23783  0.80011  1.0000
  H   H2299     1.0  0.35067  0.13264  0.78666  1.0000
  H   H2300     1.0  0.42864  0.00321  0.95067  1.0000
  C   C1304     1.0  0.44717  0.07914  0.93834  1.0000
  H   H2301     1.0  0.59391  0.37419  0.95541  1.0000
  H   H2302     1.0  0.43001  0.28461  0.77186  1.0000
  C   C1305     1.0  0.50472  0.27634  0.74158  1.0000
  H   H2303     1.0  0.38814  0.14959  0.72896  1.0000
  H   H2304     1.0  0.63106  0.31947  0.94996  1.0000
  H   H2305     1.0  0.43419  0.29982  0.74814  1.0000
  H   H2306     1.0  0.37321  0.14258  0.77483  1.0000
  C   C1306     1.0  0.46153  0.28848  0.76041  1.0000
  C   C1307     1.0  0.33581  0.36617  0.77186  1.0000
  Fe  Fe150     1.0  0.44397  0.97953  0.87370  1.0000
  H   H2307     1.0  0.52937  0.26724  0.75794  1.0000
  H   H2308     1.0  0.34877  0.46795  0.95964  1.0000
  H   H2309     1.0  0.55127  0.37573  0.96642  1.0000
  H   H2310     1.0  0.32187  0.40322  0.85709  1.0000
  C   C1308     1.0  0.33566  0.39745  0.78577  1.0000
  H   H2311     1.0  0.63229  0.12207  0.72510  1.0000
  C   C1309     1.0  0.52662  0.26821  0.74289  1.0000
  C   C1310     1.0  0.65260  0.13659  0.76682  1.0000
  H   H2312     1.0  0.48588  0.15244  0.95379  1.0000
  C   C1311     1.0  0.61911  0.11513  0.73315  1.0000
  H   H2313     1.0  0.41659  0.32000  0.77310  1.0000
  S   S291      1.0  0.51161  0.47099  0.95160  1.0000
  H   H2314     1.0  0.42709  0.47676  0.92911  1.0000
  C   C1312     1.0  0.33841  0.42877  0.79549  1.0000
  H   H2315     1.0  0.53813  0.46953  0.88819  1.0000
  C   C1313     1.0  0.34642  0.16513  0.77771  1.0000
  H   H2316     1.0  0.48520  0.03082  0.96120  1.0000
  S   S292      1.0  0.60087  0.47037  0.94711  1.0000
  C   C1314     1.0  0.64190  0.33010  0.94658  1.0000
  H   H2317     1.0  0.64727  0.17472  0.72890  1.0000
  H   H2318     1.0  0.45868  0.13173  0.96441  1.0000
  S   S293      1.0  0.42694  0.21589  0.72869  1.0000
  C   C1315     1.0  0.55685  0.38965  0.96686  1.0000
  H   H2319     1.0  0.62360  0.39047  0.94223  1.0000
  S   S294      1.0  0.32449  0.34258  0.82366  1.0000
  H   H2320     1.0  0.62775  0.42556  0.93532  1.0000
  H   H2321     1.0  0.49430  0.06212  0.96652  1.0000
  N   N74       1.0  0.33165  0.18424  0.74704  1.0000
  C   C1316     1.0  0.32629  0.32247  0.92985  1.0000
  C   C1317     1.0  0.36512  0.46345  0.95946  1.0000
  C   C1318     1.0  0.36925  0.47102  0.92258  1.0000
  C   C1319     1.0  0.32771  0.32208  0.96399  1.0000
  H   H2322     1.0  0.40342  0.35308  0.96111  1.0000
  H   H2323     1.0  0.33046  0.25214  0.88582  1.0000
  C   C1320     1.0  0.47878  0.14948  0.96931  1.0000
  C   C1321     1.0  0.35892  0.14531  0.78504  1.0000
  C   C1322     1.0  0.59930  0.16002  0.72236  1.0000
  H   H2324     1.0  0.33007  0.15359  0.76126  1.0000
  H   H2325     1.0  0.32374  0.20055  0.78242  1.0000
  H   H2326     1.0  0.33278  0.16747  0.78878  1.0000
  H   H2327     1.0  0.40078  0.47041  0.96758  1.0000
  H   H2328     1.0  0.52335  0.19687  0.72426  1.0000
  H   H2329     1.0  0.57058  0.17952  0.72163  1.0000
  H   H2330     1.0  0.32467  0.14857  0.73245  1.0000
  C   C1323     1.0  0.48463  0.97928  0.82193  1.0000
  C   C1324     1.0  0.32796  0.18023  0.72800  1.0000
  C   C1325     1.0  0.35520  0.23291  0.72751  1.0000
  C   C1326     1.0  0.34204  0.21752  0.72747  1.0000
  H   H2331     1.0  0.32619  0.22452  0.73069  1.0000
  H   H2332     1.0  0.37121  0.22647  0.72388  1.0000
  C   C1327     1.0  0.49673  0.95713  0.10156  1.0000
  S   S295      1.0  0.50570  0.92955  0.01217  1.0000
  H   H2333     1.0  0.43913  0.86638  0.19965  1.0000
  Fe  Fe151     1.0  0.46663  0.93884  0.05773  1.0000
  S   S296      1.0  0.47557  0.90870  0.04865  1.0000
  S   S297      1.0  0.44365  0.94487  0.08401  1.0000
  Fe  Fe152     1.0  0.50672  0.91542  0.04316  1.0000
  S   S298      1.0  0.53135  0.89029  0.05067  1.0000
  Fe  Fe153     1.0  0.47372  0.92536  0.01863  1.0000
  S   S299      1.0  0.49805  0.94437  0.05480  1.0000
  S   S300      1.0  0.46227  0.95535  0.02799  1.0000
  C   C1328     1.0  0.37037  0.85210  0.21217  1.0000
  H   H2334     1.0  0.51129  0.51702  0.98348  1.0000
  S   S301      1.0  0.35435  0.61931  0.98782  1.0000
  S   S302      1.0  0.58955  0.68143  0.99095  1.0000
  C   C1329     1.0  0.60059  0.80062  0.01283  1.0000
  Fe  Fe154     1.0  0.58742  0.86504  0.13358  1.0000
  S   S303      1.0  0.57049  0.84068  0.13289  1.0000
  S   S304      1.0  0.58515  0.89351  0.11166  1.0000
  Fe  Fe155     1.0  0.60121  0.84541  0.17183  1.0000
  S   S305      1.0  0.58458  0.81971  0.17429  1.0000
  S   S306      1.0  0.49349  0.66465  0.98847  1.0000
  Fe  Fe156     1.0  0.59699  0.81957  0.14250  1.0000
  S   S307      1.0  0.60507  0.78869  0.13338  1.0000
  Fe  Fe157     1.0  0.55935  0.84263  0.16429  1.0000
  S   S308      1.0  0.52634  0.84337  0.17712  1.0000
  S   S309      1.0  0.61519  0.84389  0.14044  1.0000
  S   S310      1.0  0.57497  0.86827  0.16472  1.0000
  Fe  Fe158     1.0  0.43160  0.82752  0.13861  1.0000
  S   S311      1.0  0.41300  0.85356  0.15163  1.0000
  S   S312      1.0  0.46536  0.82400  0.13003  1.0000
  Fe  Fe159     1.0  0.39484  0.80977  0.13567  1.0000
  S   S313      1.0  0.37341  0.83455  0.14890  1.0000
  S   S314      1.0  0.38561  0.78204  0.12871  1.0000
  Fe  Fe160     1.0  0.39379  0.85473  0.12951  1.0000
  S   S315      1.0  0.38172  0.88464  0.11359  1.0000
  Fe  Fe161     1.0  0.39435  0.83144  0.17009  1.0000
  S   S316      1.0  0.38554  0.83122  0.20282  1.0000
  S   S317      1.0  0.41368  0.83040  0.11473  1.0000
  S   S318      1.0  0.41445  0.80490  0.15859  1.0000
  H   H2335     1.0  0.45366  0.66066  0.98536  1.0000
  S   S319      1.0  0.61975  0.84546  0.19508  1.0000
  C   C1330     1.0  0.36186  0.86854  0.19995  1.0000
  H   H2336     1.0  0.34239  0.89706  0.19835  1.0000
  H   H2337     1.0  0.36468  0.86869  0.18439  1.0000
  H   H2338     1.0  0.58156  0.79016  0.99723  1.0000
  H   H2339     1.0  0.53726  0.51970  0.98048  1.0000
  C   C1331     1.0  0.36636  0.49464  0.99904  1.0000
  H   H2340     1.0  0.62601  0.89660  0.12125  1.0000
  H   H2341     1.0  0.60535  0.88862  0.18644  1.0000
  C   C1332     1.0  0.50918  0.83915  0.16355  1.0000
  C   C1333     1.0  0.48883  0.84045  0.17173  1.0000
  C   C1334     1.0  0.47503  0.83624  0.16157  1.0000
  C   C1335     1.0  0.48156  0.83054  0.14320  1.0000
  C   C1336     1.0  0.50180  0.82956  0.13496  1.0000
  C   C1337     1.0  0.51552  0.83390  0.14501  1.0000
  H   H2342     1.0  0.48377  0.84450  0.18608  1.0000
  H   H2343     1.0  0.45944  0.83707  0.16805  1.0000
  H   H2344     1.0  0.50693  0.82535  0.12068  1.0000
  H   H2345     1.0  0.53103  0.83283  0.13849  1.0000
  C   C1338     1.0  0.37227  0.76056  0.10641  1.0000
  C   C1339     1.0  0.37491  0.77968  0.10868  1.0000
  H   H2346     1.0  0.37741  0.74760  0.11648  1.0000
  H   H2347     1.0  0.37014  0.81108  0.09709  1.0000
  C   C1340     1.0  0.63737  0.79236  0.10327  1.0000
  C   C1341     1.0  0.62412  0.78013  0.11476  1.0000
  H   H2348     1.0  0.58185  0.93722  0.05799  1.0000
  H   H2349     1.0  0.38219  0.49221  0.00092  1.0000
  H   H2350     1.0  0.33127  0.57306  0.98524  1.0000
  C   C1342     1.0  0.60141  0.67794  0.01134  1.0000
  C   C1343     1.0  0.59217  0.67089  0.03012  1.0000
  C   C1344     1.0  0.60178  0.66961  0.04609  1.0000
  C   C1345     1.0  0.62048  0.67566  0.04336  1.0000
  H   H2351     1.0  0.35343  0.80685  0.07062  1.0000
  H   H2352     1.0  0.55303  0.97218  0.07787  1.0000
  H   H2353     1.0  0.57747  0.66688  0.03238  1.0000
  H   H2354     1.0  0.59458  0.66425  0.06063  1.0000
  H   H2355     1.0  0.58351  0.81638  0.99044  1.0000
  C   C1346     1.0  0.35554  0.63463  0.00443  1.0000
  C   C1347     1.0  0.33921  0.64929  0.00928  1.0000
  C   C1348     1.0  0.33982  0.66158  0.02263  1.0000
  C   C1349     1.0  0.35649  0.65890  0.03165  1.0000
  C   C1350     1.0  0.37263  0.64386  0.02715  1.0000
  C   C1351     1.0  0.37233  0.63198  0.01328  1.0000
  C   C1352     1.0  0.42311  0.87269  0.19981  1.0000
  H   H2356     1.0  0.32138  0.64150  0.97110  1.0000
  H   H2357     1.0  0.38542  0.64138  0.03434  1.0000
  H   H2358     1.0  0.38488  0.62048  0.00978  1.0000
  H   H2359     1.0  0.36661  0.52619  0.98679  1.0000
  H   H2360     1.0  0.33181  0.60764  0.03181  1.0000
  C   C1353     1.0  0.57209  0.61413  0.04322  1.0000
  H   H2361     1.0  0.36022  0.69092  0.97352  1.0000
  C   C1354     1.0  0.42680  0.92775  0.09239  1.0000
  C   C1355     1.0  0.43259  0.90742  0.09092  1.0000
  C   C1356     1.0  0.41916  0.89388  0.09863  1.0000
  C   C1357     1.0  0.39941  0.90089  0.10633  1.0000
  C   C1358     1.0  0.39351  0.92126  0.10751  1.0000
  C   C1359     1.0  0.40735  0.93452  0.10117  1.0000
  H   H2362     1.0  0.44752  0.90202  0.08430  1.0000
  H   H2363     1.0  0.42395  0.87806  0.09834  1.0000
  H   H2364     1.0  0.37828  0.92674  0.11357  1.0000
  H   H2365     1.0  0.40277  0.95019  0.10245  1.0000
  C   C1360     1.0  0.54560  0.89168  0.06803  1.0000
  C   C1361     1.0  0.54580  0.90978  0.07402  1.0000
  C   C1362     1.0  0.55789  0.91037  0.08752  1.0000
  C   C1363     1.0  0.56973  0.89282  0.09506  1.0000
  C   C1364     1.0  0.56941  0.87478  0.08908  1.0000
  C   C1365     1.0  0.55741  0.87421  0.07561  1.0000
  H   H2366     1.0  0.53687  0.92329  0.06803  1.0000
  H   H2367     1.0  0.55794  0.92431  0.09226  1.0000
  H   H2368     1.0  0.57886  0.86135  0.09446  1.0000
  H   H2369     1.0  0.55737  0.86020  0.07093  1.0000
  S   S320      1.0  0.63224  0.67424  0.06348  1.0000
  C   C1366     1.0  0.36825  0.79630  0.09551  1.0000
  H   H2370     1.0  0.62035  0.73919  0.00283  1.0000
  H   H2371     1.0  0.47730  0.54188  0.99654  1.0000
  H   H2372     1.0  0.62478  0.74894  0.03862  1.0000
  C   C1367     1.0  0.46245  0.64593  0.98710  1.0000
  H   H2373     1.0  0.54958  0.71057  0.17013  1.0000
  S   S321      1.0  0.55547  0.48112  0.97169  1.0000
  C   C1368     1.0  0.47557  0.53839  0.01262  1.0000
  H   H2374     1.0  0.53231  0.52914  0.03444  1.0000
  C   C1369     1.0  0.40427  0.88482  0.98387  1.0000
  H   H2375     1.0  0.58659  0.63355  0.01971  1.0000
  C   C1370     1.0  0.59572  0.82264  0.07473  1.0000
  C   C1371     1.0  0.64069  0.63002  0.97967  1.0000
  C   C1372     1.0  0.53421  0.50348  0.02119  1.0000
  H   H2376     1.0  0.56779  0.77146  0.13977  1.0000
  S   S322      1.0  0.32569  0.71806  0.07403  1.0000
  H   H2377     1.0  0.36025  0.52114  0.01288  1.0000
  H   H2378     1.0  0.64169  0.73771  0.09421  1.0000
  C   C1373     1.0  0.62226  0.62386  0.99426  1.0000
  C   C1374     1.0  0.45944  0.52510  0.01955  1.0000
  H   H2379     1.0  0.59340  0.83921  0.07098  1.0000
  H   H2380     1.0  0.54516  0.53165  0.01018  1.0000
  C   C1375     1.0  0.51690  0.54505  0.99076  1.0000
  C   C1376     1.0  0.55421  0.96537  0.04207  1.0000
  H   H2381     1.0  0.44987  0.53255  0.97650  1.0000
  H   H2382     1.0  0.48962  0.84941  0.08555  1.0000
  C   C1377     1.0  0.62578  0.76042  0.11134  1.0000
  H   H2383     1.0  0.58013  0.94967  0.07844  1.0000
  H   H2384     1.0  0.61346  0.61700  0.98665  1.0000
  H   H2385     1.0  0.43288  0.94632  0.00241  1.0000
  H   H2386     1.0  0.43836  0.63085  0.98571  1.0000
  H   H2387     1.0  0.47573  0.90149  0.09611  1.0000
  H   H2388     1.0  0.49272  0.52419  0.03545  1.0000
  N   N75       1.0  0.52962  0.77332  0.16424  1.0000
  C   C1378     1.0  0.54039  0.78415  0.17442  1.0000
  C   C1379     1.0  0.53482  0.77909  0.14239  1.0000
  C   C1380     1.0  0.50747  0.77994  0.17029  1.0000
  C   C1381     1.0  0.53553  0.78053  0.19698  1.0000
  C   C1382     1.0  0.49348  0.77429  0.15836  1.0000
  C   C1383     1.0  0.55633  0.78322  0.13389  1.0000
  C   C1384     1.0  0.56060  0.78488  0.11175  1.0000
  H   H2389     1.0  0.53935  0.97358  0.03918  1.0000
  H   H2390     1.0  0.53700  0.80060  0.16947  1.0000
  H   H2391     1.0  0.55681  0.78041  0.17036  1.0000
  H   H2392     1.0  0.32615  0.65132  0.00256  1.0000
  H   H2393     1.0  0.52520  0.79321  0.13733  1.0000
  H   H2394     1.0  0.50407  0.79653  0.16945  1.0000
  H   H2395     1.0  0.50255  0.77370  0.18579  1.0000
  N   N76       1.0  0.62624  0.61029  0.01289  1.0000
  H   H2396     1.0  0.49502  0.78303  0.14343  1.0000
  H   H2397     1.0  0.55825  0.79765  0.13747  1.0000
  H   H2398     1.0  0.61847  0.93663  0.05060  1.0000
  H   H2399     1.0  0.55910  0.77072  0.10736  1.0000
  C   C1385     1.0  0.48245  0.64366  0.98918  1.0000
  H   H2400     1.0  0.57612  0.78769  0.10626  1.0000
  H   H2401     1.0  0.40052  0.93997  0.06380  1.0000
  H   H2402     1.0  0.46389  0.51102  0.01327  1.0000
  H   H2403     1.0  0.57887  0.52187  0.97785  1.0000
  C   C1386     1.0  0.63463  0.62101  0.02533  1.0000
  C   C1387     1.0  0.60943  0.73738  0.99407  1.0000
  C   C1388     1.0  0.52206  0.52767  0.97887  1.0000
  H   H2404     1.0  0.48391  0.96083  0.09359  1.0000
  C   C1389     1.0  0.50791  0.55772  0.02175  1.0000
  C   C1390     1.0  0.52443  0.57108  0.01765  1.0000
  C   C1391     1.0  0.51865  0.58792  0.02988  1.0000
  H   H2405     1.0  0.50372  0.55375  0.03784  1.0000
  H   H2406     1.0  0.49463  0.56757  0.01679  1.0000
  H   H2407     1.0  0.52674  0.57823  0.00215  1.0000
  H   H2408     1.0  0.53889  0.56240  0.02099  1.0000
  H   H2409     1.0  0.53021  0.59781  0.02589  1.0000
  H   H2410     1.0  0.50415  0.59712  0.02720  1.0000
  H   H2411     1.0  0.51758  0.58168  0.04560  1.0000
  N   N77       1.0  0.40872  0.69752  0.00972  1.0000
  C   C1392     1.0  0.40975  0.71090  0.02387  1.0000
  C   C1393     1.0  0.42338  0.70161  0.99105  1.0000
  C   C1394     1.0  0.38800  0.70270  0.00461  1.0000
  C   C1395     1.0  0.41195  0.67564  0.01852  1.0000
  C   C1396     1.0  0.43073  0.66779  0.02809  1.0000
  C   C1397     1.0  0.39543  0.70829  0.04371  1.0000
  C   C1398     1.0  0.38402  0.69180  0.98892  1.0000
  H   H2412     1.0  0.63211  0.80251  0.02599  1.0000
  C   C1399     1.0  0.58240  0.80386  0.00286  1.0000
  C   C1400     1.0  0.43110  0.64589  0.03762  1.0000
  C   C1401     1.0  0.39843  0.72207  0.05696  1.0000
  N   N78       1.0  0.61514  0.77974  0.04317  1.0000
  H   H2413     1.0  0.40669  0.72691  0.01702  1.0000
  H   H2414     1.0  0.42498  0.70867  0.02738  1.0000
  Fe  Fe162     1.0  0.56093  0.62156  0.98263  1.0000
  H   H2415     1.0  0.57703  0.54600  0.00037  1.0000
  H   H2416     1.0  0.38429  0.71915  0.99970  1.0000
  H   H2417     1.0  0.37666  0.69908  0.01756  1.0000
  H   H2418     1.0  0.39886  0.67215  0.02972  1.0000
  H   H2419     1.0  0.41275  0.66607  0.00738  1.0000
  H   H2420     1.0  0.43129  0.67641  0.03954  1.0000
  H   H2421     1.0  0.44440  0.66840  0.01710  1.0000
  H   H2422     1.0  0.37965  0.71215  0.04181  1.0000
  H   H2423     1.0  0.39793  0.69268  0.05148  1.0000
  H   H2424     1.0  0.38523  0.67544  0.99413  1.0000
  C   C1402     1.0  0.60261  0.74802  0.06457  1.0000
  H   H2425     1.0  0.44063  0.72279  0.99668  1.0000
  H   H2426     1.0  0.45124  0.69716  0.00342  1.0000
  H   H2427     1.0  0.35162  0.69701  0.99761  1.0000
  H   H2428     1.0  0.39467  0.69430  0.97512  1.0000
  H   H2429     1.0  0.63297  0.72232  0.97490  1.0000
  H   H2430     1.0  0.44497  0.64038  0.04388  1.0000
  H   H2431     1.0  0.41810  0.64433  0.04950  1.0000
  H   H2432     1.0  0.43083  0.63640  0.02673  1.0000
  H   H2433     1.0  0.41396  0.71876  0.05989  1.0000
  H   H2434     1.0  0.39503  0.73803  0.05026  1.0000
  H   H2435     1.0  0.38815  0.71972  0.07106  1.0000
  H   H2436     1.0  0.48181  0.86457  0.11490  1.0000
  H   H2437     1.0  0.50416  0.55594  0.98577  1.0000
  C   C1403     1.0  0.43349  0.94214  0.98839  1.0000
  H   H2438     1.0  0.61025  0.92450  0.07496  1.0000
  H   H2439     1.0  0.61564  0.75082  0.12020  1.0000
  C   C1404     1.0  0.64842  0.55989  0.99296  1.0000
  C   C1405     1.0  0.60660  0.60468  0.02406  1.0000
  C   C1406     1.0  0.49385  0.62457  0.99110  1.0000
  C   C1407     1.0  0.60771  0.72517  0.06779  1.0000
  C   C1408     1.0  0.60213  0.81358  0.05602  1.0000
  C   C1409     1.0  0.64714  0.77411  0.01755  1.0000
  C   C1410     1.0  0.49209  0.87136  0.10256  1.0000
  H   H2440     1.0  0.60737  0.81803  0.08408  1.0000
  H   H2441     1.0  0.55083  0.95326  0.05446  1.0000
  H   H2442     1.0  0.34390  0.71679  0.11209  1.0000
  C   C1411     1.0  0.53501  0.89477  0.14715  1.0000
  H   H2443     1.0  0.46983  0.55245  0.01869  1.0000
  H   H2444     1.0  0.56434  0.96748  0.01048  1.0000
  C   C1412     1.0  0.61517  0.88612  0.19702  1.0000
  C   C1413     1.0  0.55859  0.71891  0.17601  1.0000
  C   C1414     1.0  0.60690  0.79045  0.06043  1.0000
  Fe  Fe163     1.0  0.56824  0.66296  0.98548  1.0000
  C   C1415     1.0  0.53160  0.52661  0.01959  1.0000
  H   H2445     1.0  0.60002  0.75277  0.07906  1.0000
  H   H2446     1.0  0.52982  0.55326  0.98619  1.0000
  S   S323      1.0  0.35749  0.67416  0.04849  1.0000
  H   H2447     1.0  0.55024  0.79749  0.10507  1.0000
  H   H2448     1.0  0.56099  0.62682  0.04822  1.0000
  H   H2449     1.0  0.64296  0.55110  0.98415  1.0000
  H   H2450     1.0  0.32732  0.67301  0.02598  1.0000
  N   N79       1.0  0.41118  0.88968  0.03607  1.0000
  C   C1416     1.0  0.42931  0.87368  0.03741  1.0000
  C   C1417     1.0  0.40794  0.89487  0.01519  1.0000
  C   C1418     1.0  0.41577  0.90825  0.04151  1.0000
  C   C1419     1.0  0.39268  0.88380  0.04962  1.0000
  C   C1420     1.0  0.39053  0.86128  0.05358  1.0000
  C   C1421     1.0  0.43661  0.86902  0.05727  1.0000
  C   C1422     1.0  0.40035  0.92760  0.03802  1.0000
  C   C1423     1.0  0.40401  0.87797  0.00570  1.0000
  H   H2451     1.0  0.47176  0.71268  0.97450  1.0000
  C   C1424     1.0  0.37017  0.85805  0.06558  1.0000
  C   C1425     1.0  0.45110  0.84930  0.05935  1.0000
  H   H2452     1.0  0.37457  0.94667  0.21439  1.0000
  H   H2453     1.0  0.44209  0.87804  0.02611  1.0000
  H   H2454     1.0  0.42672  0.85944  0.03413  1.0000
  H   H2455     1.0  0.39485  0.90687  0.01362  1.0000
  H   H2456     1.0  0.42103  0.90104  0.00593  1.0000
  H   H2457     1.0  0.43056  0.91167  0.03338  1.0000
  H   H2458     1.0  0.41705  0.90571  0.05717  1.0000
  H   H2459     1.0  0.39168  0.88795  0.06425  1.0000
  H   H2460     1.0  0.37908  0.89253  0.04418  1.0000
  H   H2461     1.0  0.40189  0.85218  0.06203  1.0000
  H   H2462     1.0  0.39232  0.85506  0.04003  1.0000
  H   H2463     1.0  0.44448  0.88107  0.05871  1.0000
  H   H2464     1.0  0.42393  0.86804  0.06947  1.0000
  H   H2465     1.0  0.38490  0.92472  0.04379  1.0000
  H   H2466     1.0  0.40158  0.93352  0.02223  1.0000
  H   H2467     1.0  0.41538  0.86436  0.00736  1.0000
  H   H2468     1.0  0.38899  0.87416  0.01211  1.0000
  H   H2469     1.0  0.32331  0.74979  0.10269  1.0000
  C   C1426     1.0  0.62253  0.90350  0.13467  1.0000
  C   C1427     1.0  0.44686  0.92543  0.98288  1.0000
  H   H2470     1.0  0.36815  0.86327  0.07981  1.0000
  H   H2471     1.0  0.35801  0.86623  0.05764  1.0000
  H   H2472     1.0  0.36912  0.84184  0.06844  1.0000
  H   H2473     1.0  0.45564  0.84630  0.07388  1.0000
  H   H2474     1.0  0.44389  0.83666  0.05816  1.0000
  H   H2475     1.0  0.46463  0.85012  0.04799  1.0000
  H   H2476     1.0  0.64410  0.68728  0.02227  1.0000
  H   H2477     1.0  0.49235  0.96344  0.11532  1.0000
  H   H2478     1.0  0.34905  0.49395  0.97694  1.0000
  H   H2479     1.0  0.62821  0.63725  0.02341  1.0000
  H   H2480     1.0  0.55856  0.93481  0.00694  1.0000
  C   C1428     1.0  0.59099  0.62189  0.03186  1.0000
  H   H2481     1.0  0.59905  0.59834  0.01483  1.0000
  H   H2482     1.0  0.48055  0.96813  0.97264  1.0000
  C   C1429     1.0  0.46547  0.61008  0.98862  1.0000
  H   H2483     1.0  0.56540  0.60706  0.03385  1.0000
  S   S324      1.0  0.54723  0.64285  0.00381  1.0000
  C   C1430     1.0  0.60980  0.93916  0.06509  1.0000
  C   C1431     1.0  0.45387  0.62911  0.98703  1.0000
  H   H2484     1.0  0.50770  0.91517  0.14610  1.0000
  C   C1432     1.0  0.36292  0.75809  0.09134  1.0000
  H   H2485     1.0  0.42686  0.68850  0.98325  1.0000
  H   H2486     1.0  0.50488  0.89021  0.15815  1.0000
  H   H2487     1.0  0.42252  0.89555  0.14575  1.0000
  H   H2488     1.0  0.51977  0.78677  0.20211  1.0000
  C   C1433     1.0  0.35877  0.79385  0.08053  1.0000
  H   H2489     1.0  0.36097  0.74334  0.08982  1.0000
  H   H2490     1.0  0.55256  0.92756  0.03286  1.0000
  Fe  Fe164     1.0  0.42877  0.59429  0.97324  1.0000
  N   N80       1.0  0.51304  0.53896  0.01256  1.0000
  H   H2491     1.0  0.53156  0.76761  0.13492  1.0000
  H   H2492     1.0  0.33467  0.81361  0.21592  1.0000
  Fe  Fe165     1.0  0.33552  0.70300  0.04762  1.0000
  C   C1434     1.0  0.35585  0.77478  0.07845  1.0000
  H   H2493     1.0  0.44533  0.53316  0.01474  1.0000
  H   H2494     1.0  0.57939  0.94800  0.02448  1.0000
  H   H2495     1.0  0.35789  0.48612  0.01183  1.0000
  C   C1435     1.0  0.57494  0.55147  0.98549  1.0000
  S   S325      1.0  0.34302  0.73112  0.02792  1.0000
  C   C1436     1.0  0.32526  0.80781  0.13862  1.0000
  H   H2496     1.0  0.44107  0.87819  0.15781  1.0000
  H   H2497     1.0  0.59774  0.75088  0.99357  1.0000
  C   C1437     1.0  0.56399  0.95581  0.02366  1.0000
  C   C1438     1.0  0.34927  0.88462  0.20790  1.0000
  H   H2498     1.0  0.64208  0.58127  0.02323  1.0000
  H   H2499     1.0  0.63627  0.80754  0.10578  1.0000
  C   C1439     1.0  0.55212  0.94048  0.02084  1.0000
  H   H2500     1.0  0.57451  0.71202  0.17282  1.0000
  C   C1440     1.0  0.62014  0.73464  0.97353  1.0000
  C   C1441     1.0  0.43746  0.89362  0.14991  1.0000
  H   H2501     1.0  0.45205  0.88681  0.12189  1.0000
  H   H2502     1.0  0.32102  0.82415  0.13884  1.0000
  H   H2503     1.0  0.58458  0.78418  0.03853  1.0000
  C   C1442     1.0  0.59994  0.78273  0.02988  1.0000
  H   H2504     1.0  0.53119  0.49881  0.00820  1.0000
  S   S326      1.0  0.45570  0.58879  0.98772  1.0000
  C   C1443     1.0  0.45298  0.89720  0.13167  1.0000
  H   H2505     1.0  0.44882  0.91277  0.12446  1.0000
  H   H2506     1.0  0.52224  0.89725  0.11428  1.0000
  C   C1444     1.0  0.48758  0.86596  0.08428  1.0000
  H   H2507     1.0  0.47192  0.87209  0.08257  1.0000
  C   C1445     1.0  0.58816  0.94818  0.06352  1.0000
  H   H2508     1.0  0.41970  0.94663  0.04351  1.0000
  H   H2509     1.0  0.50183  0.89950  0.09016  1.0000
  H   H2510     1.0  0.49780  0.87177  0.07122  1.0000
  H   H2511     1.0  0.47331  0.90053  0.14973  1.0000
  H   H2512     1.0  0.62748  0.68919  0.99425  1.0000
  S   S327      1.0  0.40291  0.57851  0.98706  1.0000
  H   H2513     1.0  0.32059  0.67151  0.08008  1.0000
  H   H2514     1.0  0.45666  0.52142  0.03568  1.0000
  H   H2515     1.0  0.56571  0.74830  0.17269  1.0000
  C   C1446     1.0  0.49554  0.52774  0.01926  1.0000
  H   H2516     1.0  0.53644  0.94750  0.02029  1.0000
  C   C1447     1.0  0.48967  0.89434  0.10171  1.0000
  H   H2517     1.0  0.47303  0.92948  0.10976  1.0000
  H   H2518     1.0  0.57546  0.60303  0.05616  1.0000
  H   H2519     1.0  0.50923  0.96422  0.09236  1.0000
  H   H2520     1.0  0.60966  0.71938  0.05387  1.0000
  C   C1448     1.0  0.48546  0.60788  0.99054  1.0000
  H   H2521     1.0  0.54107  0.87890  0.14578  1.0000
  H   H2522     1.0  0.51597  0.93169  0.11383  1.0000
  H   H2523     1.0  0.52373  0.49736  0.03397  1.0000
  H   H2524     1.0  0.46191  0.77590  0.15840  1.0000
  H   H2525     1.0  0.60917  0.59274  0.03674  1.0000
  H   H2526     1.0  0.47834  0.87720  0.14179  1.0000
  H   H2527     1.0  0.50764  0.86426  0.10397  1.0000
  C   C1449     1.0  0.62019  0.68373  0.00867  1.0000
  H   H2528     1.0  0.63688  0.90839  0.15691  1.0000
  H   H2529     1.0  0.39408  0.95829  0.04344  1.0000
  H   H2530     1.0  0.54596  0.80718  0.20068  1.0000
  C   C1450     1.0  0.50332  0.93447  0.10578  1.0000
  C   C1451     1.0  0.35832  0.51690  0.99916  1.0000
  H   H2531     1.0  0.56147  0.74130  0.15077  1.0000
  H   H2532     1.0  0.55400  0.71748  0.19205  1.0000
  C   C1452     1.0  0.33162  0.71372  0.12439  1.0000
  H   H2533     1.0  0.32084  0.70660  0.11949  1.0000
  C   C1453     1.0  0.63279  0.89969  0.21693  1.0000
  C   C1454     1.0  0.55607  0.74094  0.16660  1.0000
  H   H2534     1.0  0.33255  0.73908  0.13709  1.0000
  C   C1455     1.0  0.53394  0.75089  0.17016  1.0000
  C   C1456     1.0  0.62963  0.68274  0.02459  1.0000
  C   C1457     1.0  0.47162  0.77887  0.16782  1.0000
  C   C1458     1.0  0.62350  0.86657  0.20409  1.0000
  H   H2535     1.0  0.59549  0.71859  0.07810  1.0000
  S   S328      1.0  0.46235  0.91044  0.99858  1.0000
  C   C1459     1.0  0.58670  0.96878  0.04994  1.0000
  H   H2536     1.0  0.63718  0.87278  0.16342  1.0000
  H   H2537     1.0  0.49877  0.51302  0.01427  1.0000
  H   H2538     1.0  0.39296  0.89840  0.98117  1.0000
  H   H2539     1.0  0.62166  0.72011  0.07401  1.0000
  N   N81       1.0  0.49001  0.90115  0.12056  1.0000
  C   C1460     1.0  0.47423  0.89351  0.13667  1.0000
  H   H2540     1.0  0.59611  0.96671  0.03559  1.0000
  H   H2541     1.0  0.50880  0.92900  0.09179  1.0000
  H   H2542     1.0  0.49677  0.75818  0.15714  1.0000
  H   H2543     1.0  0.46748  0.79484  0.16967  1.0000
  H   H2544     1.0  0.56637  0.49865  0.01114  1.0000
  H   H2545     1.0  0.52616  0.74332  0.16219  1.0000
  H   H2546     1.0  0.61266  0.63816  0.99739  1.0000
  H   H2547     1.0  0.46878  0.76930  0.18224  1.0000
  H   H2548     1.0  0.41667  0.86367  0.19202  1.0000
  C   C1461     1.0  0.48593  0.92379  0.11750  1.0000
  H   H2549     1.0  0.51269  0.87644  0.12891  1.0000
  H   H2550     1.0  0.48125  0.92951  0.13160  1.0000
  H   H2551     1.0  0.52765  0.74650  0.18574  1.0000
  H   H2552     1.0  0.61365  0.91760  0.19746  1.0000
  C   C1462     1.0  0.61983  0.75763  0.05087  1.0000
  C   C1463     1.0  0.51008  0.89309  0.12638  1.0000
  C   C1464     1.0  0.51307  0.89910  0.14536  1.0000
  H   H2553     1.0  0.53673  0.89749  0.16156  1.0000
  H   H2554     1.0  0.54360  0.90460  0.13560  1.0000
  H   H2555     1.0  0.43694  0.90461  0.15960  1.0000
  H   H2556     1.0  0.53825  0.76435  0.20293  1.0000
  H   H2557     1.0  0.63260  0.75457  0.05886  1.0000
  H   H2558     1.0  0.50915  0.62260  0.99315  1.0000
  H   H2559     1.0  0.61524  0.82021  0.04770  1.0000
  H   H2560     1.0  0.60139  0.76923  0.02293  1.0000
  H   H2561     1.0  0.42161  0.88835  0.19203  1.0000
  H   H2562     1.0  0.58859  0.75237  0.05847  1.0000
  H   H2563     1.0  0.39138  0.91205  0.21554  1.0000
  S   S329      1.0  0.34269  0.77286  0.06001  1.0000
  C   C1465     1.0  0.44340  0.70764  0.99252  1.0000
  C   C1466     1.0  0.61991  0.90254  0.20331  1.0000
  H   H2564     1.0  0.64700  0.64094  0.98528  1.0000
  H   H2565     1.0  0.59270  0.78557  0.06841  1.0000
  H   H2566     1.0  0.41656  0.71426  0.98086  1.0000
  H   H2567     1.0  0.58953  0.81826  0.04785  1.0000
  H   H2568     1.0  0.33810  0.70302  0.13618  1.0000
  H   H2569     1.0  0.58152  0.81806  0.08299  1.0000
  Fe  Fe166     1.0  0.49464  0.95824  0.02424  1.0000
  H   H2570     1.0  0.55903  0.49714  0.03727  1.0000
  H   H2571     1.0  0.61744  0.78637  0.07102  1.0000
  S   S330      1.0  0.56992  0.58905  0.99496  1.0000
  C   C1467     1.0  0.64833  0.87789  0.15080  1.0000
  H   H2572     1.0  0.60110  0.81480  0.01763  1.0000
  H   H2573     1.0  0.61715  0.91974  0.13069  1.0000
  H   H2574     1.0  0.41026  0.96618  0.97998  1.0000
  Fe  Fe167     1.0  0.33043  0.74663  0.05386  1.0000
  Fe  Fe168     1.0  0.52690  0.65601  0.98198  1.0000
  H   H2575     1.0  0.65093  0.55020  0.00695  1.0000
  C   C1468     1.0  0.63988  0.59100  0.00911  1.0000
  H   H2576     1.0  0.56850  0.80782  0.01320  1.0000
  H   H2577     1.0  0.63771  0.77006  0.00850  1.0000
  H   H2578     1.0  0.63071  0.58723  0.98215  1.0000
  C   C1469     1.0  0.54851  0.79076  0.20569  1.0000
  H   H2579     1.0  0.61402  0.79768  0.00165  1.0000
  H   H2580     1.0  0.34221  0.52019  0.99816  1.0000
  H   H2581     1.0  0.61681  0.94917  0.07120  1.0000
  C   C1470     1.0  0.64056  0.75293  0.09663  1.0000
  H   H2582     1.0  0.61036  0.89671  0.14491  1.0000
  C   C1471     1.0  0.55538  0.49356  0.02396  1.0000
  H   H2583     1.0  0.63007  0.61531  0.04108  1.0000
  H   H2584     1.0  0.61881  0.57302  0.00392  1.0000
  H   H2585     1.0  0.33140  0.77714  0.11495  1.0000
  C   C1472     1.0  0.63453  0.78664  0.03301  1.0000
  H   H2586     1.0  0.56454  0.78474  0.20149  1.0000
  H   H2587     1.0  0.59684  0.62890  0.04184  1.0000
  C   C1473     1.0  0.36299  0.69932  0.98429  1.0000
  H   H2588     1.0  0.65281  0.90750  0.13363  1.0000
  H   H2589     1.0  0.34103  0.80490  0.13134  1.0000
  C   C1474     1.0  0.57600  0.53783  0.97280  1.0000
  C   C1475     1.0  0.42070  0.95331  0.97574  1.0000
  H   H2590     1.0  0.60238  0.72411  0.00137  1.0000
  C   C1476     1.0  0.40398  0.94410  0.04779  1.0000
  H   H2591     1.0  0.49460  0.59332  0.99121  1.0000
  C   C1477     1.0  0.63293  0.57841  0.99657  1.0000
  C   C1478     1.0  0.57135  0.57218  0.97891  1.0000
  H   H2592     1.0  0.64421  0.78633  0.04387  1.0000
  H   H2593     1.0  0.39595  0.87821  0.22002  1.0000
  H   H2594     1.0  0.64691  0.86964  0.13939  1.0000
  H   H2595     1.0  0.33249  0.84044  0.21065  1.0000
  C   C1479     1.0  0.36461  0.48844  0.97964  1.0000
  C   C1480     1.0  0.33345  0.56874  0.97059  1.0000
  H   H2596     1.0  0.32399  0.79986  0.15386  1.0000
  C   C1481     1.0  0.63621  0.86368  0.21789  1.0000
  H   H2597     1.0  0.32271  0.77039  0.13980  1.0000
  C   C1482     1.0  0.64103  0.90044  0.14413  1.0000
  H   H2598     1.0  0.65234  0.61699  0.97686  1.0000
  H   H2599     1.0  0.36114  0.71551  0.97811  1.0000
  H   H2600     1.0  0.40085  0.87275  0.97737  1.0000
  H   H2601     1.0  0.41922  0.88828  0.97649  1.0000
  H   H2602     1.0  0.32832  0.55414  0.97217  1.0000
  C   C1483     1.0  0.32453  0.82785  0.21822  1.0000
  C   C1484     1.0  0.65205  0.78492  0.08842  1.0000
  H   H2603     1.0  0.46992  0.51166  0.97403  1.0000
  Fe  Fe169     1.0  0.38440  0.60579  0.97339  1.0000
  C   C1485     1.0  0.45752  0.70853  0.97295  1.0000
  C   C1486     1.0  0.32120  0.73305  0.13196  1.0000
  H   H2604     1.0  0.59429  0.97840  0.05597  1.0000
  H   H2605     1.0  0.41285  0.94986  0.34006  1.0000
  S   S331      1.0  0.63177  0.93587  0.31700  1.0000
  S   S332      1.0  0.33691  0.93777  0.27228  1.0000
  S   S333      1.0  0.33556  0.89096  0.29350  1.0000
  Fe  Fe170     1.0  0.34583  0.91805  0.29911  1.0000
  S   S334      1.0  0.37670  0.91652  0.30601  1.0000
  H   H2606     1.0  0.43111  0.92322  0.28127  1.0000
  H   H2607     1.0  0.57947  0.94333  0.28195  1.0000
  H   H2608     1.0  0.39979  0.87180  0.29343  1.0000
  C   C1487     1.0  0.35508  0.87295  0.35195  1.0000
  C   C1488     1.0  0.35432  0.86844  0.24025  1.0000
  H   H2609     1.0  0.63418  0.95253  0.40551  1.0000
  C   C1489     1.0  0.38351  0.96625  0.33754  1.0000
  C   C1490     1.0  0.56680  0.94038  0.37788  1.0000
  C   C1491     1.0  0.36618  0.96719  0.32987  1.0000
  H   H2610     1.0  0.56297  0.95207  0.38740  1.0000
  H   H2611     1.0  0.59973  0.95046  0.40369  1.0000
  H   H2612     1.0  0.33770  0.91108  0.40816  1.0000
  H   H2613     1.0  0.34797  0.88870  0.38600  1.0000
  H   H2614     1.0  0.34984  0.90437  0.34183  1.0000
  H   H2615     1.0  0.50795  0.95234  0.31609  1.0000
  N   N82       1.0  0.33995  0.92077  0.37714  1.0000
  C   C1492     1.0  0.61936  0.96473  0.34048  1.0000
  C   C1493     1.0  0.39942  0.95070  0.33422  1.0000
  C   C1494     1.0  0.39754  0.93572  0.32400  1.0000
  C   C1495     1.0  0.37983  0.93633  0.31701  1.0000
  C   C1496     1.0  0.36436  0.95235  0.31965  1.0000
  H   H2616     1.0  0.43657  0.91522  0.23924  1.0000
  H   H2617     1.0  0.35829  0.94284  0.37729  1.0000
  H   H2618     1.0  0.40963  0.92339  0.32195  1.0000
  H   H2619     1.0  0.35080  0.95306  0.31416  1.0000
  H   H2620     1.0  0.58369  0.93578  0.32512  1.0000
  H   H2621     1.0  0.56123  0.93692  0.31539  1.0000
  H   H2622     1.0  0.32722  0.89561  0.37388  1.0000
  H   H2623     1.0  0.41441  0.85764  0.26398  1.0000
  H   H2624     1.0  0.65020  0.96217  0.42992  1.0000
  H   H2625     1.0  0.37776  0.88411  0.28368  1.0000
  C   C1497     1.0  0.56223  0.96709  0.34835  1.0000
  H   H2626     1.0  0.60005  0.96510  0.42205  1.0000
  H   H2627     1.0  0.37638  0.89609  0.24681  1.0000
  H   H2628     1.0  0.37105  0.89592  0.35394  1.0000
  H   H2629     1.0  0.33501  0.96348  0.36396  1.0000
  C   C1498     1.0  0.32955  0.92218  0.39770  1.0000
  C   C1499     1.0  0.42076  0.88357  0.23260  1.0000
  C   C1500     1.0  0.40113  0.86957  0.26273  1.0000
  S   S335      1.0  0.42443  0.97517  0.38747  1.0000
  H   H2630     1.0  0.40987  0.89968  0.27696  1.0000
  C   C1501     1.0  0.38955  0.87079  0.28362  1.0000
  H   H2631     1.0  0.60190  0.94394  0.29094  1.0000
  H   H2632     1.0  0.37186  0.85345  0.30718  1.0000
  N   N83       1.0  0.55580  0.97415  0.32870  1.0000
  S   S336      1.0  0.64091  0.95285  0.26074  1.0000
  H   H2633     1.0  0.36931  0.91583  0.40271  1.0000
  H   H2634     1.0  0.59172  0.92108  0.29546  1.0000
  C   C1502     1.0  0.42723  0.91624  0.25373  1.0000
  H   H2635     1.0  0.53585  0.95230  0.33287  1.0000
  H   H2636     1.0  0.54006  0.94896  0.36553  1.0000
  C   C1503     1.0  0.53563  0.96869  0.32918  1.0000
  C   C1504     1.0  0.58782  0.93762  0.29422  1.0000
  H   H2637     1.0  0.33972  0.87093  0.35131  1.0000
  H   H2638     1.0  0.45316  0.90955  0.26832  1.0000
  C   C1505     1.0  0.32189  0.83794  0.31049  1.0000
  C   C1506     1.0  0.55640  0.94704  0.36013  1.0000
  H   H2639     1.0  0.56026  0.93482  0.35136  1.0000
  H   H2640     1.0  0.32889  0.82220  0.30937  1.0000
  H   H2641     1.0  0.43197  0.88482  0.26660  1.0000
  C   C1507     1.0  0.37987  0.85217  0.29217  1.0000
  C   C1508     1.0  0.57136  0.96609  0.31275  1.0000
  C   C1509     1.0  0.63665  0.97518  0.30806  1.0000
  C   C1510     1.0  0.41917  0.89652  0.26288  1.0000
  C   C1511     1.0  0.34210  0.89942  0.37383  1.0000
  H   H2642     1.0  0.32993  0.93703  0.40143  1.0000
  H   H2643     1.0  0.58613  0.96994  0.31302  1.0000
  H   H2644     1.0  0.39146  0.86385  0.25508  1.0000
  H   H2645     1.0  0.42549  0.89706  0.22291  1.0000
  H   H2646     1.0  0.39138  0.83851  0.29277  1.0000
  H   H2647     1.0  0.36893  0.85067  0.28331  1.0000
  H   H2648     1.0  0.40225  0.91851  0.36672  1.0000
  H   H2649     1.0  0.36070  0.86208  0.36411  1.0000
  C   C1512     1.0  0.44000  0.92143  0.26666  1.0000
  H   H2650     1.0  0.58323  0.93737  0.37326  1.0000
  C   C1513     1.0  0.37486  0.91441  0.38719  1.0000
  H   H2651     1.0  0.33285  0.97309  0.29076  1.0000
  H   H2652     1.0  0.43496  0.87407  0.23602  1.0000
  H   H2653     1.0  0.38324  0.91216  0.25985  1.0000
  C   C1514     1.0  0.62906  0.96019  0.32220  1.0000
  C   C1515     1.0  0.50642  0.96893  0.31267  1.0000
  H   H2654     1.0  0.39371  0.93755  0.38218  1.0000
  H   H2655     1.0  0.37721  0.89838  0.38574  1.0000
  C   C1516     1.0  0.60332  0.96467  0.40617  1.0000
  H   H2656     1.0  0.56187  0.92639  0.38641  1.0000
  H   H2657     1.0  0.36484  0.86981  0.33809  1.0000
  N   N84       1.0  0.40735  0.88882  0.25106  1.0000
  S   S337      1.0  0.63936  0.92113  0.22300  1.0000
  H   H2658     1.0  0.44538  0.93577  0.25997  1.0000
  C   C1517     1.0  0.57520  0.94316  0.31327  1.0000
  H   H2659     1.0  0.35149  0.86836  0.25576  1.0000
  H   H2660     1.0  0.53657  0.96924  0.29792  1.0000
  H   H2661     1.0  0.37305  0.83941  0.24187  1.0000
  C   C1518     1.0  0.36652  0.85211  0.23236  1.0000
  H   H2662     1.0  0.40515  0.91284  0.39188  1.0000
  C   C1519     1.0  0.36002  0.92732  0.37427  1.0000
  C   C1520     1.0  0.39519  0.92131  0.38161  1.0000
  H   H2663     1.0  0.36737  0.92809  0.35881  1.0000
  H   H2664     1.0  0.61362  0.95311  0.35149  1.0000
  C   C1521     1.0  0.35532  0.89439  0.35447  1.0000
  H   H2665     1.0  0.33701  0.93440  0.34773  1.0000
  S   S338      1.0  0.32831  0.90448  0.23742  1.0000
  C   C1522     1.0  0.52663  0.97566  0.31026  1.0000
  H   H2666     1.0  0.41464  0.92882  0.25247  1.0000
  Fe  Fe171     1.0  0.32459  0.91144  0.26796  1.0000
  H   H2667     1.0  0.56781  0.97349  0.29822  1.0000
  H   H2668     1.0  0.41269  0.85599  0.22741  1.0000
  H   H2669     1.0  0.52467  0.97497  0.34110  1.0000
  C   C1523     1.0  0.38889  0.90381  0.24735  1.0000
  C   C1524     1.0  0.34544  0.88465  0.22805  1.0000
  H   H2670     1.0  0.62771  0.96486  0.38244  1.0000
  C   C1525     1.0  0.62529  0.96589  0.39808  1.0000
  H   H2671     1.0  0.64381  0.97201  0.29381  1.0000
  C   C1526     1.0  0.39085  0.91934  0.22828  1.0000
  C   C1527     1.0  0.64078  0.88012  0.22434  1.0000
  H   H2672     1.0  0.37251  0.94497  0.24030  1.0000
  H   H2673     1.0  0.49570  0.97552  0.32454  1.0000
  H   H2674     1.0  0.32386  0.85220  0.27222  1.0000
  H   H2675     1.0  0.57863  0.96608  0.34680  1.0000
  C   C1528     1.0  0.32812  0.93413  0.36256  1.0000
  H   H2676     1.0  0.50024  0.97403  0.29897  1.0000
  H   H2677     1.0  0.35896  0.93033  0.23053  1.0000
  H   H2678     1.0  0.33953  0.97292  0.39486  1.0000
  C   C1529     1.0  0.37309  0.93634  0.22848  1.0000
  H   H2679     1.0  0.65074  0.87767  0.23478  1.0000
  H   H2680     1.0  0.33327  0.84785  0.30478  1.0000
  H   H2681     1.0  0.64272  0.84864  0.22348  1.0000
  H   H2682     1.0  0.33280  0.82633  0.24590  1.0000
  Fe  Fe172     1.0  0.65108  0.93453  0.28759  1.0000
  H   H2683     1.0  0.40448  0.92618  0.22574  1.0000
  H   H2684     1.0  0.54464  0.78802  0.22180  1.0000
  S   S339      1.0  0.48260  0.97854  0.36828  1.0000
  H   H2685     1.0  0.59360  0.97733  0.39878  1.0000
  C   C1530     1.0  0.32173  0.95637  0.36528  1.0000
  H   H2686     1.0  0.55559  0.97829  0.35822  1.0000
  C   C1531     1.0  0.41182  0.87201  0.22062  1.0000
  H   H2687     1.0  0.59429  0.89036  0.67637  1.0000
  C   C1532     1.0  0.64353  0.96878  0.62010  1.0000
  H   H2688     1.0  0.56147  0.92887  0.70550  1.0000
  H   H2689     1.0  0.55043  0.90376  0.68818  1.0000
  H   H2690     1.0  0.36752  0.95796  0.56041  1.0000
  H   H2691     1.0  0.53470  0.88482  0.71866  1.0000
  H   H2692     1.0  0.38853  0.94612  0.64069  1.0000
  H   H2693     1.0  0.34931  0.86537  0.69935  1.0000
  H   H2694     1.0  0.35555  0.94840  0.65385  1.0000
  H   H2695     1.0  0.60161  0.92660  0.71571  1.0000
  C   C1533     1.0  0.38896  0.97658  0.59064  1.0000
  H   H2696     1.0  0.38262  0.92287  0.62496  1.0000
  H   H2697     1.0  0.38854  0.89755  0.65452  1.0000
  C   C1534     1.0  0.42771  0.93897  0.63364  1.0000
  C   C1535     1.0  0.38247  0.91679  0.68612  1.0000
  H   H2698     1.0  0.62855  0.94642  0.71334  1.0000
  N   N85       1.0  0.37788  0.92554  0.66597  1.0000
  H   H2699     1.0  0.60465  0.94362  0.67165  1.0000
  H   H2700     1.0  0.41419  0.91257  0.64181  1.0000
  C   C1536     1.0  0.54911  0.94998  0.64856  1.0000
  C   C1537     1.0  0.39544  0.89573  0.68884  1.0000
  H   H2701     1.0  0.36344  0.90390  0.61153  1.0000
  C   C1538     1.0  0.35831  0.93975  0.66821  1.0000
  C   C1539     1.0  0.34364  0.87828  0.70656  1.0000
  C   C1540     1.0  0.55868  0.89938  0.70057  1.0000
  C   C1541     1.0  0.36708  0.89847  0.62637  1.0000
  H   H2702     1.0  0.42897  0.95234  0.63958  1.0000
  H   H2703     1.0  0.44290  0.93041  0.63002  1.0000
  C   C1542     1.0  0.57156  0.91520  0.70125  1.0000
  C   C1543     1.0  0.61933  0.90516  0.66299  1.0000
  H   H2704     1.0  0.57951  0.90896  0.71376  1.0000
  C   C1544     1.0  0.33616  0.96952  0.68173  1.0000
  H   H2705     1.0  0.52036  0.97602  0.51091  1.0000
  C   C1545     1.0  0.50000  0.97323  0.53789  1.0000
  H   H2706     1.0  0.58430  0.95005  0.68992  1.0000
  C   C1546     1.0  0.35535  0.95942  0.59056  1.0000
  H   H2707     1.0  0.50842  0.95850  0.54335  1.0000
  C   C1547     1.0  0.37028  0.91609  0.63485  1.0000
  S   S340      1.0  0.63986  0.95270  0.64237  1.0000
  C   C1548     1.0  0.59588  0.93736  0.68566  1.0000
  C   C1549     1.0  0.38616  0.97116  0.57357  1.0000
  H   H2708     1.0  0.64009  0.88010  0.67502  1.0000
  H   H2709     1.0  0.62604  0.94240  0.54726  1.0000
  C   C1550     1.0  0.62851  0.87530  0.71969  1.0000
  C   C1551     1.0  0.37514  0.90924  0.65574  1.0000
  H   H2710     1.0  0.38658  0.88418  0.68807  1.0000
  C   C1552     1.0  0.36948  0.96240  0.57359  1.0000
  C   C1553     1.0  0.62876  0.97336  0.60840  1.0000
  C   C1554     1.0  0.41461  0.92568  0.64848  1.0000
  H   H2711     1.0  0.35440  0.89155  0.63552  1.0000
  H   H2712     1.0  0.34571  0.93117  0.67389  1.0000
  H   H2713     1.0  0.60739  0.89529  0.69323  1.0000
  C   C1555     1.0  0.60144  0.90211  0.67970  1.0000
  H   H2714     1.0  0.54414  0.93694  0.64502  1.0000
  H   H2715     1.0  0.39563  0.94902  0.66227  1.0000
  H   H2716     1.0  0.56198  0.95780  0.67043  1.0000
  H   H2717     1.0  0.39702  0.97339  0.56043  1.0000
  C   C1556     1.0  0.63378  0.88555  0.66143  1.0000
  H   H2718     1.0  0.37686  0.97803  0.62078  1.0000
  H   H2719     1.0  0.62615  0.87391  0.65863  1.0000
  H   H2720     1.0  0.57143  0.91442  0.66116  1.0000
  H   H2721     1.0  0.41034  0.87522  0.71076  1.0000
  H   H2722     1.0  0.62832  0.86434  0.71074  1.0000
  H   H2723     1.0  0.56819  0.88461  0.69930  1.0000
  N   N86       1.0  0.58624  0.92048  0.68301  1.0000
  C   C1557     1.0  0.40207  0.89076  0.70872  1.0000
  C   C1558     1.0  0.33010  0.89400  0.69841  1.0000
  H   H2724     1.0  0.64630  0.88803  0.64924  1.0000
  H   H2725     1.0  0.36302  0.90124  0.66462  1.0000
  H   H2726     1.0  0.62270  0.92075  0.69725  1.0000
  H   H2727     1.0  0.58683  0.93299  0.65263  1.0000
  H   H2728     1.0  0.62786  0.91615  0.66546  1.0000
  H   H2729     1.0  0.38074  0.88701  0.62538  1.0000
  H   H2730     1.0  0.35643  0.92710  0.63472  1.0000
  H   H2731     1.0  0.40894  0.89435  0.67757  1.0000
  H   H2732     1.0  0.42195  0.92066  0.66147  1.0000
  C   C1559     1.0  0.61769  0.95073  0.70312  1.0000
  H   H2733     1.0  0.63972  0.96230  0.53499  1.0000
  C   C1560     1.0  0.60969  0.93222  0.70120  1.0000
  H   H2734     1.0  0.42138  0.94402  0.61999  1.0000
  H   H2735     1.0  0.36838  0.91498  0.69660  1.0000
  H   H2736     1.0  0.54576  0.93935  0.67921  1.0000
  H   H2737     1.0  0.61424  0.91049  0.64878  1.0000
  C   C1561     1.0  0.39357  0.93748  0.65424  1.0000
  H   H2738     1.0  0.60536  0.96206  0.70888  1.0000
  C   C1562     1.0  0.57610  0.92727  0.66544  1.0000
  H   H2739     1.0  0.38951  0.92734  0.69156  1.0000
  C   C1563     1.0  0.55778  0.94415  0.66738  1.0000
  H   H2740     1.0  0.35698  0.94840  0.69691  1.0000
  H   H2741     1.0  0.53603  0.96206  0.65028  1.0000
  H   H2742     1.0  0.32363  0.96087  0.68695  1.0000
  H   H2743     1.0  0.34692  0.96360  0.62047  1.0000
  C   C1564     1.0  0.63735  0.95125  0.54853  1.0000
  C   C1565     1.0  0.64512  0.88507  0.71666  1.0000
  C   C1566     1.0  0.35622  0.95560  0.68165  1.0000
  S   S341      1.0  0.33431  0.94902  0.58983  1.0000
  C   C1567     1.0  0.35799  0.96523  0.60752  1.0000
  H   H2744     1.0  0.56036  0.95562  0.63627  1.0000
  H   H2745     1.0  0.63143  0.95945  0.56101  1.0000
  H   H2746     1.0  0.36805  0.96507  0.67667  1.0000
  H   H2747     1.0  0.62535  0.95747  0.68877  1.0000
  H   H2748     1.0  0.61501  0.96732  0.61330  1.0000
  H   H2749     1.0  0.41208  0.90112  0.70981  1.0000
  C   C1568     1.0  0.32315  0.91079  0.70765  1.0000
  H   H2750     1.0  0.48751  0.97061  0.53157  1.0000
  C   C1569     1.0  0.37492  0.97347  0.60765  1.0000
  H   H2751     1.0  0.33489  0.97785  0.66689  1.0000
  S   S342      1.0  0.32234  0.89185  0.67677  1.0000
  C   C1570     1.0  0.54335  0.89661  0.71920  1.0000
  C   C1571     1.0  0.61224  0.87954  0.73436  1.0000
  H   H2752     1.0  0.49888  0.49058  0.91135  1.0000
  H   H2753     1.0  0.33636  0.80200  0.87698  1.0000
  H   H2754     1.0  0.57359  0.94336  0.81260  1.0000
  Fe  Fe173     1.0  0.45225  0.93419  0.88561  1.0000
  S   S343      1.0  0.42021  0.93179  0.89743  1.0000
  S   S344      1.0  0.47602  0.90697  0.88691  1.0000
  Fe  Fe174     1.0  0.41414  0.95347  0.87060  1.0000
  S   S345      1.0  0.39488  0.95041  0.84964  1.0000
  Fe  Fe175     1.0  0.42025  0.95906  0.91023  1.0000
  C   C1572     1.0  0.35095  0.82361  0.73785  1.0000
  S   S346      1.0  0.44626  0.95385  0.85781  1.0000
  S   S347      1.0  0.45297  0.95981  0.90052  1.0000
  N   N87       1.0  0.32001  0.62177  0.94028  1.0000
  C   C1573     1.0  0.51995  0.75392  0.88700  1.0000
  Fe  Fe176     1.0  0.41266  0.60922  0.93546  1.0000
  H   H2755     1.0  0.32514  0.88934  0.81842  1.0000
  S   S348      1.0  0.42049  0.62623  0.90536  1.0000
  C   C1574     1.0  0.61268  0.89355  0.74600  1.0000
  H   H2756     1.0  0.49391  0.61598  0.86220  1.0000
  H   H2757     1.0  0.37546  0.75448  0.88006  1.0000
  S   S349      1.0  0.43392  0.58198  0.94547  1.0000
  H   H2758     1.0  0.56769  0.70386  0.92969  1.0000
  C   C1575     1.0  0.54104  0.75822  0.87853  1.0000
  C   C1576     1.0  0.57897  0.73065  0.93166  1.0000
  S   S350      1.0  0.57573  0.52866  0.93666  1.0000
  H   H2759     1.0  0.60951  0.74808  0.90126  1.0000
  C   C1577     1.0  0.62564  0.81864  0.75562  1.0000
  H   H2760     1.0  0.44621  0.64334  0.94952  1.0000
  H   H2761     1.0  0.56876  0.57117  0.93187  1.0000
  H   H2762     1.0  0.57841  0.74609  0.92348  1.0000
  H   H2763     1.0  0.36102  0.74356  0.91922  1.0000
  S   S351      1.0  0.56725  0.66560  0.91533  1.0000
  H   H2764     1.0  0.36779  0.97672  0.78590  1.0000
  H   H2765     1.0  0.58037  0.79646  0.85078  1.0000
  H   H2766     1.0  0.35736  0.73867  0.88948  1.0000
  H   H2767     1.0  0.33667  0.91641  0.78952  1.0000
  C   C1578     1.0  0.62684  0.89402  0.80305  1.0000
  Fe  Fe177     1.0  0.58110  0.84577  0.81059  1.0000
  S   S352      1.0  0.58550  0.87528  0.79201  1.0000
  Fe  Fe178     1.0  0.54147  0.84625  0.79788  1.0000
  Fe  Fe179     1.0  0.55300  0.88513  0.80180  1.0000
  S   S353      1.0  0.53993  0.91510  0.81038  1.0000
  S   S354      1.0  0.54939  0.85696  0.82271  1.0000
  Fe  Fe180     1.0  0.38344  0.85892  0.81104  1.0000
  S   S355      1.0  0.40395  0.83163  0.80225  1.0000
  S   S356      1.0  0.38020  0.86501  0.84171  1.0000
  Fe  Fe181     1.0  0.37872  0.82727  0.78881  1.0000
  S   S357      1.0  0.37193  0.79584  0.79126  1.0000
  Fe  Fe182     1.0  0.57535  0.86332  0.76916  1.0000
  S   S358      1.0  0.35742  0.85313  0.79981  1.0000
  C   C1579     1.0  0.60405  0.73170  0.86186  1.0000
  S   S359      1.0  0.35310  0.66610  0.85477  1.0000
  C   C1580     1.0  0.35127  0.78641  0.80658  1.0000
  H   H2768     1.0  0.33610  0.88565  0.84002  1.0000
  C   C1581     1.0  0.36728  0.81364  0.84899  1.0000
  H   H2769     1.0  0.37806  0.80869  0.74909  1.0000
  H   H2770     1.0  0.36089  0.86733  0.72971  1.0000
  C   C1582     1.0  0.35045  0.76589  0.80878  1.0000
  C   C1583     1.0  0.33879  0.92492  0.80058  1.0000
  H   H2771     1.0  0.57423  0.71947  0.90659  1.0000
  C   C1584     1.0  0.33522  0.66691  0.95663  1.0000
  H   H2772     1.0  0.36247  0.75621  0.80124  1.0000
  C   C1585     1.0  0.49683  0.85149  0.77680  1.0000
  C   C1586     1.0  0.48083  0.85727  0.76643  1.0000
  H   H2773     1.0  0.51026  0.85796  0.77156  1.0000
  H   H2774     1.0  0.48206  0.86823  0.75330  1.0000
  C   C1587     1.0  0.42185  0.49266  0.92719  1.0000
  H   H2775     1.0  0.50914  0.76810  0.88697  1.0000
  H   H2776     1.0  0.32140  0.62894  0.90919  1.0000
  C   C1588     1.0  0.57388  0.54493  0.95340  1.0000
  C   C1589     1.0  0.57032  0.56562  0.94688  1.0000
  H   H2777     1.0  0.63389  0.82363  0.79100  1.0000
  H   H2778     1.0  0.54719  0.81848  0.84769  1.0000
  H   H2779     1.0  0.40551  0.92139  0.75568  1.0000
  H   H2780     1.0  0.64842  0.64376  0.94953  1.0000
  H   H2781     1.0  0.62986  0.91353  0.75259  1.0000
  H   H2782     1.0  0.46926  0.95811  0.93728  1.0000
  H   H2783     1.0  0.49506  0.58012  0.93274  1.0000
  C   C1590     1.0  0.47809  0.82853  0.79998  1.0000
  H   H2784     1.0  0.34062  0.79541  0.74632  1.0000
  C   C1591     1.0  0.40090  0.63718  0.89229  1.0000
  C   C1592     1.0  0.40472  0.63804  0.87211  1.0000
  C   C1593     1.0  0.38985  0.64688  0.86099  1.0000
  C   C1594     1.0  0.37109  0.65550  0.86980  1.0000
  C   C1595     1.0  0.36717  0.65500  0.89003  1.0000
  C   C1596     1.0  0.38206  0.64566  0.90132  1.0000
  H   H2785     1.0  0.41924  0.63170  0.86502  1.0000
  H   H2786     1.0  0.39303  0.64728  0.84541  1.0000
  H   H2787     1.0  0.35273  0.66173  0.89691  1.0000
  H   H2788     1.0  0.37911  0.64533  0.91689  1.0000
  H   H2789     1.0  0.35795  0.60361  0.81122  1.0000
  C   C1597     1.0  0.40978  0.53424  0.92230  1.0000
  C   C1598     1.0  0.41305  0.52397  0.90639  1.0000
  C   C1599     1.0  0.41859  0.50306  0.90892  1.0000
  H   H2790     1.0  0.40495  0.55028  0.92041  1.0000
  H   H2791     1.0  0.41081  0.53214  0.89219  1.0000
  S   S360      1.0  0.38587  0.59397  0.94576  1.0000
  Fe  Fe183     1.0  0.41264  0.85170  0.77423  1.0000
  C   C1600     1.0  0.33435  0.75770  0.82094  1.0000
  H   H2792     1.0  0.63011  0.80576  0.85409  1.0000
  C   C1601     1.0  0.55858  0.78437  0.79227  1.0000
  C   C1602     1.0  0.62664  0.64684  0.91134  1.0000
  H   H2793     1.0  0.49468  0.64217  0.86087  1.0000
  H   H2794     1.0  0.60483  0.80321  0.80446  1.0000
  C   C1603     1.0  0.56642  0.79086  0.85856  1.0000
  H   H2795     1.0  0.55113  0.74359  0.87949  1.0000
  C   C1604     1.0  0.39300  0.92575  0.84815  1.0000
  C   C1605     1.0  0.39870  0.91904  0.83017  1.0000
  C   C1606     1.0  0.39544  0.90012  0.82826  1.0000
  C   C1607     1.0  0.38584  0.88811  0.84412  1.0000
  C   C1608     1.0  0.38042  0.89468  0.86218  1.0000
  C   C1609     1.0  0.38416  0.91340  0.86425  1.0000
  H   H2796     1.0  0.40563  0.92853  0.81771  1.0000
  H   H2797     1.0  0.40045  0.89483  0.81455  1.0000
  H   H2798     1.0  0.37291  0.88548  0.87449  1.0000
  H   H2799     1.0  0.37950  0.91864  0.87811  1.0000
  C   C1610     1.0  0.49360  0.90792  0.86543  1.0000
  C   C1611     1.0  0.51389  0.90204  0.86640  1.0000
  C   C1612     1.0  0.52815  0.90373  0.84938  1.0000
  C   C1613     1.0  0.52211  0.91125  0.83140  1.0000
  C   C1614     1.0  0.50180  0.91642  0.83035  1.0000
  C   C1615     1.0  0.48754  0.91480  0.84737  1.0000
  H   H2800     1.0  0.51859  0.89658  0.88035  1.0000
  H   H2801     1.0  0.54386  0.89957  0.85018  1.0000
  H   H2802     1.0  0.49712  0.92179  0.81639  1.0000
  H   H2803     1.0  0.47187  0.91872  0.84648  1.0000
  H   H2804     1.0  0.37431  0.79979  0.72804  1.0000
  C   C1616     1.0  0.35558  0.97533  0.79849  1.0000
  H   H2805     1.0  0.33497  0.67824  0.94321  1.0000
  C   C1617     1.0  0.42173  0.94811  0.95740  1.0000
  C   C1618     1.0  0.43525  0.93152  0.95190  1.0000
  C   C1619     1.0  0.47173  0.97360  0.96066  1.0000
  H   H2806     1.0  0.55176  0.72706  0.92297  1.0000
  H   H2807     1.0  0.43612  0.92743  0.93778  1.0000
  C   C1620     1.0  0.36748  0.79558  0.86530  1.0000
  C   C1621     1.0  0.36000  0.75278  0.87940  1.0000
  H   H2808     1.0  0.51489  0.62340  0.86875  1.0000
  N   N88       1.0  0.35183  0.94060  0.79119  1.0000
  C   C1622     1.0  0.37234  0.92975  0.78427  1.0000
  H   H2809     1.0  0.61633  0.81083  0.76830  1.0000
  H   H2810     1.0  0.36432  0.94595  0.81494  1.0000
  C   C1623     1.0  0.42846  0.66933  0.93642  1.0000
  H   H2811     1.0  0.32541  0.66810  0.82358  1.0000
  C   C1624     1.0  0.38851  0.94278  0.77432  1.0000
  C   C1625     1.0  0.40792  0.92976  0.76666  1.0000
  C   C1626     1.0  0.63465  0.66260  0.89868  1.0000
  S   S361      1.0  0.59165  0.86702  0.73807  1.0000
  H   H2812     1.0  0.37858  0.92003  0.79663  1.0000
  H   H2813     1.0  0.37137  0.91968  0.77410  1.0000
  H   H2814     1.0  0.49095  0.58550  0.95728  1.0000
  C   C1627     1.0  0.62951  0.90284  0.74340  1.0000
  H   H2815     1.0  0.32981  0.67470  0.96942  1.0000
  C   C1628     1.0  0.64568  0.89876  0.72862  1.0000
  H   H2816     1.0  0.37203  0.80002  0.87773  1.0000
  H   H2817     1.0  0.51547  0.74415  0.87847  1.0000
  S   S362      1.0  0.35016  0.89726  0.75539  1.0000
  H   H2818     1.0  0.64059  0.71969  0.92080  1.0000
  H   H2819     1.0  0.35904  0.89848  0.81179  1.0000
  H   H2820     1.0  0.33230  0.83448  0.78015  1.0000
  H   H2821     1.0  0.32426  0.57952  0.94292  1.0000
  H   H2822     1.0  0.49738  0.96282  0.89627  1.0000
  H   H2823     1.0  0.41935  0.93937  0.75968  1.0000
  H   H2824     1.0  0.60763  0.71710  0.91668  1.0000
  C   C1629     1.0  0.48941  0.50294  0.90310  1.0000
  C   C1630     1.0  0.63233  0.83631  0.76117  1.0000
  S   S363      1.0  0.39370  0.87929  0.78387  1.0000
  Fe  Fe184     1.0  0.40673  0.56798  0.95845  1.0000
  H   H2825     1.0  0.48491  0.93278  0.96324  1.0000
  H   H2826     1.0  0.52964  0.78095  0.85577  1.0000
  N   N89       1.0  0.48367  0.52090  0.91354  1.0000
  C   C1631     1.0  0.50271  0.52659  0.91635  1.0000
  C   C1632     1.0  0.47198  0.51428  0.93332  1.0000
  H   H2827     1.0  0.59884  0.78421  0.90412  1.0000
  C   C1633     1.0  0.47123  0.53748  0.90181  1.0000
  C   C1634     1.0  0.47174  0.55934  0.90406  1.0000
  C   C1635     1.0  0.51838  0.53046  0.89770  1.0000
  H   H2828     1.0  0.54757  0.79839  0.79122  1.0000
  C   C1636     1.0  0.46393  0.53030  0.94670  1.0000
  H   H2829     1.0  0.55090  0.89184  0.73211  1.0000
  C   C1637     1.0  0.45571  0.57410  0.89444  1.0000
  C   C1638     1.0  0.53412  0.54153  0.90111  1.0000
  H   H2830     1.0  0.52172  0.67777  0.93067  1.0000
  H   H2831     1.0  0.51029  0.51445  0.92650  1.0000
  H   H2832     1.0  0.49961  0.54002  0.92349  1.0000
  H   H2833     1.0  0.45860  0.50845  0.93198  1.0000
  C   C1639     1.0  0.32441  0.76536  0.88845  1.0000
  H   H2834     1.0  0.63206  0.90610  0.80802  1.0000
  H   H2835     1.0  0.35181  0.96471  0.76647  1.0000
  H   H2836     1.0  0.47586  0.53687  0.88597  1.0000
  H   H2837     1.0  0.45535  0.53514  0.90522  1.0000
  H   H2838     1.0  0.48639  0.56372  0.89702  1.0000
  H   H2839     1.0  0.46934  0.56136  0.91942  1.0000
  H   H2840     1.0  0.52633  0.51595  0.89338  1.0000
  H   H2841     1.0  0.51130  0.53930  0.88538  1.0000
  H   H2842     1.0  0.48803  0.65250  0.94655  1.0000
  C   C1640     1.0  0.34745  0.60710  0.91389  1.0000
  H   H2843     1.0  0.47521  0.53937  0.94731  1.0000
  H   H2844     1.0  0.45087  0.54031  0.94144  1.0000
  C   C1641     1.0  0.32945  0.91165  0.72507  1.0000
  H   H2845     1.0  0.52908  0.96522  0.87338  1.0000
  H   H2846     1.0  0.33402  0.74182  0.82272  1.0000
  H   H2847     1.0  0.45785  0.57324  0.87871  1.0000
  H   H2848     1.0  0.44061  0.57085  0.90152  1.0000
  H   H2849     1.0  0.45655  0.58962  0.89601  1.0000
  H   H2850     1.0  0.52721  0.55646  0.90502  1.0000
  H   H2851     1.0  0.54197  0.53268  0.91296  1.0000
  H   H2852     1.0  0.54537  0.54367  0.88768  1.0000
  H   H2853     1.0  0.56775  0.75933  0.81312  1.0000
  H   H2854     1.0  0.51010  0.61409  0.94510  1.0000
  H   H2855     1.0  0.32583  0.60986  0.80997  1.0000
  C   C1642     1.0  0.41192  0.52353  0.94078  1.0000
  H   H2856     1.0  0.51319  0.60881  0.92083  1.0000
  H   H2857     1.0  0.54487  0.76762  0.88779  1.0000
  C   C1643     1.0  0.60594  0.64770  0.91637  1.0000
  H   H2858     1.0  0.42062  0.66095  0.92927  1.0000
  H   H2859     1.0  0.32140  0.70030  0.79953  1.0000
  C   C1644     1.0  0.50679  0.96397  0.85526  1.0000
  C   C1645     1.0  0.63974  0.77850  0.84185  1.0000
  H   H2860     1.0  0.51396  0.97855  0.80560  1.0000
  H   H2861     1.0  0.61512  0.73251  0.84819  1.0000
  C   C1646     1.0  0.63793  0.86172  0.78897  1.0000
  H   H2862     1.0  0.34963  0.56683  0.96442  1.0000
  C   C1647     1.0  0.51958  0.95486  0.87144  1.0000
  C   C1648     1.0  0.50663  0.94924  0.89109  1.0000
  H   H2863     1.0  0.57999  0.96344  0.82207  1.0000
  C   C1649     1.0  0.32185  0.65158  0.95697  1.0000
  S   S364      1.0  0.58333  0.64066  0.96597  1.0000
  H   H2864     1.0  0.53909  0.94699  0.83312  1.0000
  H   H2865     1.0  0.38194  0.81883  0.84572  1.0000
  H   H2866     1.0  0.35426  0.64000  0.79753  1.0000
  H   H2867     1.0  0.50005  0.95127  0.85319  1.0000
  H   H2868     1.0  0.50949  0.95478  0.81880  1.0000
  H   H2869     1.0  0.51591  0.57833  0.94498  1.0000
  H   H2870     1.0  0.56640  0.59512  0.95435  1.0000
  H   H2871     1.0  0.38828  0.61953  0.79779  1.0000
  C   C1650     1.0  0.63479  0.71887  0.93658  1.0000
  H   H2872     1.0  0.54669  0.79884  0.82756  1.0000
  H   H2873     1.0  0.61867  0.84684  0.76562  1.0000
  H   H2874     1.0  0.63646  0.63398  0.91733  1.0000
  H   H2875     1.0  0.47719  0.81709  0.81271  1.0000
  H   H2876     1.0  0.54721  0.96482  0.84322  1.0000
  H   H2877     1.0  0.52948  0.94095  0.86763  1.0000
  H   H2878     1.0  0.36453  0.80956  0.83552  1.0000
  H   H2879     1.0  0.51625  0.94173  0.90198  1.0000
  C   C1651     1.0  0.47198  0.49416  0.89897  1.0000
  H   H2880     1.0  0.49678  0.93878  0.88998  1.0000
  H   H2881     1.0  0.48120  0.50167  0.94138  1.0000
  S   S365      1.0  0.40987  0.62296  0.96219  1.0000
  H   H2882     1.0  0.62607  0.74860  0.96665  1.0000
  C   C1652     1.0  0.32523  0.61573  0.92036  1.0000
  H   H2883     1.0  0.32383  0.92459  0.73224  1.0000
  C   C1653     1.0  0.50725  0.97094  0.81999  1.0000
  N   N90       1.0  0.34517  0.77022  0.88610  1.0000
  C   C1654     1.0  0.34660  0.78909  0.87139  1.0000
  N   N91       1.0  0.44815  0.85985  0.85957  1.0000
  C   C1655     1.0  0.43084  0.86207  0.87621  1.0000
  C   C1656     1.0  0.44909  0.83981  0.85352  1.0000
  C   C1657     1.0  0.46691  0.85975  0.86729  1.0000
  C   C1658     1.0  0.44505  0.87732  0.84340  1.0000
  C   C1659     1.0  0.45505  0.87398  0.82242  1.0000
  C   C1660     1.0  0.42885  0.88000  0.88707  1.0000
  C   C1661     1.0  0.48705  0.85562  0.85352  1.0000
  C   C1662     1.0  0.42937  0.83560  0.84920  1.0000
  C   C1663     1.0  0.43246  0.81536  0.84238  1.0000
  C   C1664     1.0  0.45451  0.89374  0.80829  1.0000
  C   C1665     1.0  0.41059  0.88024  0.90327  1.0000
  C   C1666     1.0  0.50427  0.85099  0.86494  1.0000
  H   H2884     1.0  0.43151  0.84821  0.88730  1.0000
  H   H2885     1.0  0.41642  0.86393  0.87093  1.0000
  H   H2886     1.0  0.46052  0.83772  0.84043  1.0000
  H   H2887     1.0  0.45394  0.82753  0.86512  1.0000
  H   H2888     1.0  0.46737  0.84869  0.88097  1.0000
  H   H2889     1.0  0.46692  0.87455  0.87128  1.0000
  H   H2890     1.0  0.42893  0.88210  0.84283  1.0000
  H   H2891     1.0  0.44996  0.89066  0.84654  1.0000
  H   H2892     1.0  0.44700  0.86430  0.81707  1.0000
  H   H2893     1.0  0.47078  0.86669  0.82151  1.0000
  H   H2894     1.0  0.44187  0.87892  0.89428  1.0000
  H   H2895     1.0  0.42734  0.89438  0.87683  1.0000
  H   H2896     1.0  0.48932  0.86917  0.84252  1.0000
  H   H2897     1.0  0.48821  0.84274  0.84598  1.0000
  H   H2898     1.0  0.41779  0.83481  0.86247  1.0000
  H   H2899     1.0  0.42351  0.84749  0.83789  1.0000
  H   H2900     1.0  0.41804  0.81235  0.84009  1.0000
  H   H2901     1.0  0.44301  0.81531  0.82846  1.0000
  H   H2902     1.0  0.43828  0.80313  0.85345  1.0000
  H   H2903     1.0  0.43890  0.90142  0.80814  1.0000
  H   H2904     1.0  0.46319  0.90372  0.81243  1.0000
  H   H2905     1.0  0.46122  0.89073  0.79336  1.0000
  H   H2906     1.0  0.41168  0.86602  0.91373  1.0000
  H   H2907     1.0  0.40966  0.89265  0.91143  1.0000
  H   H2908     1.0  0.39669  0.88240  0.89718  1.0000
  H   H2909     1.0  0.51857  0.84952  0.85471  1.0000
  H   H2910     1.0  0.50383  0.86322  0.87320  1.0000
  H   H2911     1.0  0.50360  0.83671  0.87522  1.0000
  C   C1667     1.0  0.35957  0.74885  0.85877  1.0000
  C   C1668     1.0  0.37437  0.73028  0.85387  1.0000
  H   H2912     1.0  0.36349  0.76166  0.84748  1.0000
  H   H2913     1.0  0.34459  0.74624  0.85780  1.0000
  H   H2914     1.0  0.37060  0.71674  0.86426  1.0000
  H   H2915     1.0  0.37369  0.72794  0.83901  1.0000
  H   H2916     1.0  0.38981  0.73218  0.85424  1.0000
  H   H2917     1.0  0.36478  0.77708  0.90314  1.0000
  C   C1669     1.0  0.32794  0.60538  0.95548  1.0000
  C   C1670     1.0  0.61480  0.77782  0.90013  1.0000
  N   N92       1.0  0.61376  0.72990  0.94002  1.0000
  C   C1671     1.0  0.54246  0.76853  0.85706  1.0000
  H   H2918     1.0  0.58106  0.75067  0.87768  1.0000
  H   H2919     1.0  0.53969  0.75733  0.84898  1.0000
  H   H2920     1.0  0.35027  0.83746  0.74380  1.0000
  H   H2921     1.0  0.37903  0.78346  0.85991  1.0000
  H   H2922     1.0  0.34252  0.59452  0.88968  1.0000
  H   H2923     1.0  0.64953  0.77167  0.85223  1.0000
  N   N93       1.0  0.48298  0.64223  0.92120  1.0000
  C   C1672     1.0  0.49389  0.65357  0.93067  1.0000
  C   C1673     1.0  0.48232  0.62169  0.93314  1.0000
  C   C1674     1.0  0.49382  0.64096  0.90069  1.0000
  C   C1675     1.0  0.46190  0.65267  0.92013  1.0000
  C   C1676     1.0  0.44885  0.65741  0.93962  1.0000
  C   C1677     1.0  0.49384  0.67596  0.92183  1.0000
  C   C1678     1.0  0.48761  0.62591  0.89026  1.0000
  C   C1679     1.0  0.50295  0.60859  0.93495  1.0000
  C   C1680     1.0  0.50097  0.58679  0.94298  1.0000
  H   H2924     1.0  0.35518  0.64629  0.82040  1.0000
  Fe  Fe185     1.0  0.56029  0.65473  0.94743  1.0000
  C   C1681     1.0  0.49849  0.62700  0.86924  1.0000
  H   H2925     1.0  0.50985  0.64651  0.92979  1.0000
  H   H2926     1.0  0.41373  0.91892  0.77877  1.0000
  H   H2927     1.0  0.47480  0.62287  0.94830  1.0000
  H   H2928     1.0  0.47293  0.61339  0.92763  1.0000
  H   H2929     1.0  0.51025  0.63727  0.90021  1.0000
  H   H2930     1.0  0.49157  0.65587  0.89134  1.0000
  H   H2931     1.0  0.46180  0.66687  0.90955  1.0000
  H   H2932     1.0  0.45373  0.64338  0.91434  1.0000
  S   S366      1.0  0.38924  0.84515  0.75958  1.0000
  H   H2933     1.0  0.49106  0.96952  0.93194  1.0000
  H   H2934     1.0  0.50053  0.67765  0.90618  1.0000
  H   H2935     1.0  0.47848  0.68451  0.92337  1.0000
  H   H2936     1.0  0.47137  0.62906  0.88997  1.0000
  H   H2937     1.0  0.49137  0.61029  0.89764  1.0000
  H   H2938     1.0  0.63250  0.68771  0.93603  1.0000
  H   H2939     1.0  0.32335  0.61302  0.84236  1.0000
  C   C1682     1.0  0.48125  0.96143  0.94381  1.0000
  S   S367      1.0  0.40664  0.96276  0.94115  1.0000
  H   H2940     1.0  0.63019  0.86906  0.77658  1.0000
  C   C1683     1.0  0.49371  0.94153  0.95093  1.0000
  H   H2941     1.0  0.32312  0.60976  0.97016  1.0000
  C   C1684     1.0  0.52235  0.53522  0.95727  1.0000
  C   C1685     1.0  0.34622  0.90931  0.81752  1.0000
  H   H2942     1.0  0.32287  0.77395  0.76595  1.0000
  H   H2943     1.0  0.38839  0.62505  0.82166  1.0000
  H   H2944     1.0  0.35079  0.65939  0.95739  1.0000
  S   S368      1.0  0.57316  0.83284  0.78713  1.0000
  H   H2945     1.0  0.49859  0.50684  0.88861  1.0000
  H   H2946     1.0  0.32761  0.65097  0.92614  1.0000
  S   S369      1.0  0.51558  0.82897  0.80662  1.0000
  C   C1686     1.0  0.49555  0.83703  0.79357  1.0000
  H   H2947     1.0  0.54475  0.83598  0.87530  1.0000
  S   S370      1.0  0.60260  0.83090  0.83117  1.0000
  H   H2948     1.0  0.57106  0.73134  0.94678  1.0000
  C   C1687     1.0  0.41834  0.50284  0.94309  1.0000
  H   H2949     1.0  0.32035  0.87094  0.77272  1.0000
  C   C1688     1.0  0.61608  0.80673  0.82944  1.0000
  C   C1689     1.0  0.61443  0.79636  0.81495  1.0000
  H   H2950     1.0  0.59133  0.69213  0.88880  1.0000
  H   H2951     1.0  0.59900  0.76074  0.93519  1.0000
  C   C1690     1.0  0.33561  0.79881  0.81630  1.0000
  C   C1691     1.0  0.59318  0.66414  0.90842  1.0000
  H   H2952     1.0  0.35086  0.91662  0.82811  1.0000
  H   H2953     1.0  0.33308  0.63271  0.84830  1.0000
  Fe  Fe186     1.0  0.36950  0.87137  0.77148  1.0000
  C   C1692     1.0  0.46196  0.83455  0.78977  1.0000
  H   H2954     1.0  0.38383  0.95372  0.76182  1.0000
  H   H2955     1.0  0.59986  0.63541  0.92607  1.0000
  H   H2956     1.0  0.36286  0.76748  0.94072  1.0000
  C   C1693     1.0  0.62873  0.79776  0.84289  1.0000
  C   C1694     1.0  0.60119  0.67961  0.89521  1.0000
  C   C1695     1.0  0.61361  0.75150  0.93056  1.0000
  H   H2957     1.0  0.33850  0.66914  0.78720  1.0000
  C   C1696     1.0  0.32167  0.58463  0.95718  1.0000
  H   H2958     1.0  0.32043  0.76600  0.87395  1.0000
  C   C1697     1.0  0.60596  0.72955  0.96148  1.0000
  H   H2959     1.0  0.62807  0.63008  0.95395  1.0000
  H   H2960     1.0  0.61679  0.88666  0.81543  1.0000
  C   C1698     1.0  0.38394  0.61473  0.81368  1.0000
  H   H2961     1.0  0.59034  0.76213  0.83315  1.0000
  H   H2962     1.0  0.41917  0.67185  0.95066  1.0000
  C   C1699     1.0  0.64435  0.82936  0.77805  1.0000
  Fe  Fe187     1.0  0.57492  0.49558  0.94576  1.0000
  C   C1700     1.0  0.60073  0.71977  0.93172  1.0000
  H   H2963     1.0  0.62420  0.78588  0.90586  1.0000
  H   H2964     1.0  0.34135  0.78783  0.85796  1.0000
  H   H2965     1.0  0.33841  0.95413  0.81697  1.0000
  S   S371      1.0  0.54638  0.67832  0.96577  1.0000
  H   H2966     1.0  0.46157  0.50590  0.89138  1.0000
  H   H2967     1.0  0.62476  0.75802  0.93561  1.0000
  C   C1701     1.0  0.32241  0.67030  0.79338  1.0000
  H   H2968     1.0  0.39202  0.95076  0.78503  1.0000
  H   H2969     1.0  0.45775  0.90700  0.96052  1.0000
  H   H2970     1.0  0.32628  0.63034  0.79082  1.0000
  H   H2971     1.0  0.53307  0.54584  0.95169  1.0000
  H   H2972     1.0  0.55904  0.81453  0.88784  1.0000
  H   H2973     1.0  0.36773  0.59860  0.88827  1.0000
  H   H2974     1.0  0.61217  0.72726  0.87434  1.0000
  H   H2975     1.0  0.35568  0.82628  0.85331  1.0000
  H   H2976     1.0  0.57296  0.79381  0.82070  1.0000
  C   C1702     1.0  0.32000  0.62609  0.80645  1.0000
  H   H2977     1.0  0.33945  0.78712  0.90988  1.0000
  H   H2978     1.0  0.54547  0.96660  0.80001  1.0000
  N   N94       1.0  0.32713  0.63786  0.81877  1.0000
  C   C1703     1.0  0.62194  0.67896  0.89050  1.0000
  H   H2979     1.0  0.54151  0.76908  0.81724  1.0000
  H   H2980     1.0  0.53593  0.80469  0.87003  1.0000
  H   H2981     1.0  0.34665  0.82732  0.72329  1.0000
  C   C1704     1.0  0.34959  0.63576  0.81346  1.0000
  C   C1705     1.0  0.56751  0.71956  0.92212  1.0000
  S   S372      1.0  0.56243  0.48384  0.92431  1.0000
  C   C1706     1.0  0.55651  0.82277  0.87328  1.0000
  H   H2982     1.0  0.34445  0.60336  0.95314  1.0000
  H   H2983     1.0  0.61836  0.90094  0.79107  1.0000
  H   H2984     1.0  0.39215  0.59945  0.81774  1.0000
  H   H2985     1.0  0.44872  0.82770  0.79454  1.0000
  H   H2986     1.0  0.62812  0.69088  0.88030  1.0000
  H   H2987     1.0  0.46345  0.48705  0.91256  1.0000
  C   C1707     1.0  0.33005  0.89712  0.82848  1.0000
  H   H2988     1.0  0.61658  0.82420  0.74387  1.0000
  C   C1708     1.0  0.61854  0.75545  0.90804  1.0000
  C   C1709     1.0  0.56894  0.57921  0.95961  1.0000
  H   H2989     1.0  0.63874  0.80787  0.75023  1.0000
  H   H2990     1.0  0.45589  0.66629  0.94694  1.0000
  C   C1710     1.0  0.34279  0.89578  0.73334  1.0000
  H   H2991     1.0  0.59969  0.70447  0.94016  1.0000
  C   C1711     1.0  0.34944  0.77364  0.90506  1.0000
  H   H2992     1.0  0.33438  0.74933  0.92359  1.0000
  H   H2993     1.0  0.35153  0.59214  0.92250  1.0000
  H   H2994     1.0  0.60060  0.76311  0.86282  1.0000
  H   H2995     1.0  0.47598  0.95530  0.81113  1.0000
  C   C1712     1.0  0.35174  0.60483  0.89242  1.0000
  C   C1713     1.0  0.55967  0.78651  0.82739  1.0000
  H   H2996     1.0  0.62464  0.76944  0.80223  1.0000
  H   H2997     1.0  0.51946  0.74609  0.90226  1.0000
  H   H2998     1.0  0.57350  0.74518  0.84382  1.0000
  C   C1714     1.0  0.55666  0.77325  0.81317  1.0000
  H   H2999     1.0  0.34586  0.63559  0.93880  1.0000
  C   C1715     1.0  0.34337  0.95243  0.77366  1.0000
  H   H3000     1.0  0.62947  0.69327  0.96018  1.0000
  S   S373      1.0  0.42129  0.49033  0.88911  1.0000
  C   C1716     1.0  0.46333  0.84887  0.77290  1.0000
  H   H3001     1.0  0.59498  0.72000  0.86220  1.0000
  S   S374      1.0  0.54289  0.87546  0.77762  1.0000
  H   H3002     1.0  0.49862  0.93251  0.93895  1.0000
  C   C1717     1.0  0.45702  0.52067  0.96761  1.0000
  C   C1718     1.0  0.63495  0.64020  0.96005  1.0000
  C   C1719     1.0  0.62570  0.77729  0.81367  1.0000
  H   H3003     1.0  0.64136  0.84363  0.74802  1.0000
  H   H3004     1.0  0.57386  0.78802  0.78707  1.0000
  N   N95       1.0  0.56178  0.77594  0.84778  1.0000
  C   C1720     1.0  0.57887  0.75857  0.84621  1.0000
  S   S375      1.0  0.44381  0.85591  0.75915  1.0000
  H   H3005     1.0  0.34271  0.80640  0.76611  1.0000
  H   H3006     1.0  0.59994  0.89753  0.75682  1.0000
  H   H3007     1.0  0.55569  0.77480  0.78259  1.0000
  H   H3008     1.0  0.57042  0.82829  0.86535  1.0000
  C   C1721     1.0  0.59080  0.75197  0.86329  1.0000
  H   H3009     1.0  0.62634  0.85565  0.80069  1.0000
  C   C1722     1.0  0.55008  0.80931  0.86173  1.0000
  H   H3010     1.0  0.56958  0.78381  0.87321  1.0000
  C   C1723     1.0  0.34878  0.76182  0.94134  1.0000
  H   H3011     1.0  0.50607  0.70151  0.92531  1.0000
  C   C1724     1.0  0.50603  0.68559  0.93204  1.0000
  H   H3012     1.0  0.35827  0.60909  0.83490  1.0000
  H   H3013     1.0  0.63451  0.74999  0.90319  1.0000
  C   C1725     1.0  0.64474  0.87887  0.79598  1.0000
  S   S376      1.0  0.65223  0.74442  0.82500  1.0000
  H   H3014     1.0  0.37294  0.49125  0.94017  1.0000
  H   H3015     1.0  0.42078  0.49470  0.95723  1.0000
  N   N96       1.0  0.51742  0.97371  0.83596  1.0000
  Fe  Fe188     1.0  0.32491  0.68621  0.86534  1.0000
  S   S377      1.0  0.40567  0.53512  0.96156  1.0000
  H   H3016     1.0  0.35742  0.61697  0.91587  1.0000
  C   C1726     1.0  0.37267  0.81327  0.73497  1.0000
  H   H3017     1.0  0.37433  0.49736  0.96821  1.0000
  C   C1727     1.0  0.32091  0.96143  0.77758  1.0000
  H   H3018     1.0  0.52724  0.52233  0.94926  1.0000
  C   C1728     1.0  0.35248  0.95327  0.80614  1.0000
  H   H3019     1.0  0.45695  0.96906  0.96685  1.0000
  C   C1729     1.0  0.33739  0.80989  0.75191  1.0000
  H   H3020     1.0  0.33606  0.81463  0.81470  1.0000
  C   C1730     1.0  0.36150  0.61455  0.81904  1.0000
  C   C1731     1.0  0.63777  0.69626  0.94520  1.0000
  C   C1732     1.0  0.34819  0.75567  0.92196  1.0000
  H   H3021     1.0  0.34518  0.94272  0.76234  1.0000
  C   C1733     1.0  0.63833  0.76829  0.82713  1.0000
  C   C1734     1.0  0.57292  0.95985  0.81074  1.0000
  H   H3022     1.0  0.43008  0.68409  0.92724  1.0000
  H   H3023     1.0  0.61879  0.78014  0.88403  1.0000
  H   H3024     1.0  0.34865  0.61963  0.88312  1.0000
  H   H3025     1.0  0.33590  0.77359  0.94506  1.0000
  H   H3026     1.0  0.34784  0.74867  0.95313  1.0000
  S   S378      1.0  0.53920  0.63342  0.96196  1.0000
  C   C1735     1.0  0.44749  0.91998  0.96477  1.0000
  C   C1736     1.0  0.32945  0.63996  0.93961  1.0000
  H   H3027     1.0  0.50725  0.54263  0.95465  1.0000
  H   H3028     1.0  0.32365  0.74968  0.89578  1.0000
  C   C1737     1.0  0.53879  0.96339  0.83202  1.0000
  H   H3029     1.0  0.45903  0.97861  0.80908  1.0000
  H   H3030     1.0  0.64489  0.72633  0.94196  1.0000
  H   H3031     1.0  0.62432  0.65432  0.96162  1.0000
  H   H3032     1.0  0.47665  0.97476  0.83672  1.0000
  H   H3033     1.0  0.49952  0.68501  0.94769  1.0000
  H   H3034     1.0  0.37492  0.97717  0.81851  1.0000
  H   H3035     1.0  0.48246  0.97610  0.79251  1.0000
  H   H3036     1.0  0.58151  0.96485  0.79623  1.0000
  H   H3037     1.0  0.48837  0.48400  0.87207  1.0000
  H   H3038     1.0  0.44596  0.51084  0.96813  1.0000
  H   H3039     1.0  0.38899  0.89189  0.72062  1.0000
  H   H3040     1.0  0.50710  0.94418  0.95576  1.0000
  H   H3041     1.0  0.60200  0.71471  0.96843  1.0000
  H   H3042     1.0  0.59167  0.74007  0.96374  1.0000
  C   C1738     1.0  0.47504  0.97183  0.80772  1.0000
  S   S379      1.0  0.32200  0.71282  0.88016  1.0000
  C   C1739     1.0  0.32209  0.62962  0.84020  1.0000
  H   H3043     1.0  0.45083  0.71989  0.96172  1.0000
  C   C1740     1.0  0.35007  0.87923  0.72385  1.0000
  H   H3044     1.0  0.32362  0.93219  0.80657  1.0000
  H   H3045     1.0  0.49394  0.97471  0.86133  1.0000
  H   H3046     1.0  0.38218  0.82373  0.72540  1.0000
  C   C1741     1.0  0.55129  0.97041  0.81204  1.0000
  H   H3047     1.0  0.46101  0.69371  0.96806  1.0000
  H   H3048     1.0  0.37769  0.47888  0.90926  1.0000
  H   H3049     1.0  0.53282  0.91075  0.72088  1.0000
  H   H3050     1.0  0.76747  0.35631  0.16822  1.0000
  S   S380      1.0  0.71674  0.36475  0.01879  1.0000
  H   H3051     1.0  0.74391  0.40997  0.16523  1.0000
  Fe  Fe189     1.0  0.67460  0.34112  0.05465  1.0000
  S   S381      1.0  0.70595  0.32495  0.04884  1.0000
  C   C1742     1.0  0.79447  0.33385  0.14707  1.0000
  Fe  Fe190     1.0  0.71537  0.35397  0.05095  1.0000
  S   S382      1.0  0.74209  0.35591  0.06463  1.0000
  Fe  Fe191     1.0  0.70425  0.33753  0.01737  1.0000
  S   S383      1.0  0.71671  0.31616  0.99565  1.0000
  S   S384      1.0  0.68394  0.36928  0.05923  1.0000
  C   C1743     1.0  0.68335  0.13553  0.11893  1.0000
  Fe  Fe192     1.0  0.82031  0.44314  0.10380  1.0000
  S   S385      1.0  0.78973  0.46154  0.10445  1.0000
  S   S386      1.0  0.84600  0.44598  0.07910  1.0000
  Fe  Fe193     1.0  0.81020  0.41967  0.14427  1.0000
  S   S387      1.0  0.77890  0.43649  0.14826  1.0000
  S   S388      1.0  0.82267  0.39247  0.16453  1.0000
  Fe  Fe194     1.0  0.77857  0.43242  0.11755  1.0000
  S   S389      1.0  0.75060  0.42405  0.11062  1.0000
  H   H3052     1.0  0.69155  0.24656  0.21169  1.0000
  S   S390      1.0  0.80907  0.41400  0.11444  1.0000
  S   S391      1.0  0.82414  0.44738  0.13319  1.0000
  H   H3053     1.0  0.68246  0.29586  0.07950  1.0000
  H   H3054     1.0  0.69309  0.21276  0.13055  1.0000
  H   H3055     1.0  0.83641  0.31306  0.16892  1.0000
  H   H3056     1.0  0.82766  0.30377  0.15071  1.0000
  Fe  Fe195     1.0  0.79281  0.46405  0.13476  1.0000
  C   C1744     1.0  0.80562  0.47283  0.19224  1.0000
  C   C1745     1.0  0.82433  0.36820  0.09384  1.0000
  C   C1746     1.0  0.75022  0.34170  0.14250  1.0000
  H   H3057     1.0  0.83294  0.36012  0.08194  1.0000
  H   H3058     1.0  0.72206  0.33358  0.14043  1.0000
  H   H3059     1.0  0.86272  0.37033  0.21676  1.0000
  H   H3060     1.0  0.76569  0.39820  0.17575  1.0000
  H   H3061     1.0  0.69590  0.15277  0.17156  1.0000
  H   H3062     1.0  0.76128  0.36575  0.12102  1.0000
  C   C1747     1.0  0.67804  0.27468  0.01741  1.0000
  C   C1748     1.0  0.76765  0.35128  0.12919  1.0000
  H   H3063     1.0  0.66558  0.31543  0.01161  1.0000
  C   C1749     1.0  0.79805  0.36584  0.12442  1.0000
  H   H3064     1.0  0.81202  0.42347  0.18902  1.0000
  C   C1750     1.0  0.67971  0.14703  0.20076  1.0000
  C   C1751     1.0  0.83130  0.39552  0.18541  1.0000
  C   C1752     1.0  0.84553  0.38049  0.19344  1.0000
  H   H3065     1.0  0.80972  0.34218  0.16808  1.0000
  H   H3066     1.0  0.85186  0.36770  0.18619  1.0000
  N   N97       1.0  0.78394  0.35413  0.13913  1.0000
  C   C1753     1.0  0.81341  0.33390  0.15558  1.0000
  H   H3067     1.0  0.80877  0.37063  0.13165  1.0000
  H   H3068     1.0  0.85942  0.42852  0.03972  1.0000
  H   H3069     1.0  0.79026  0.38560  0.19992  1.0000
  C   C1754     1.0  0.74419  0.37490  0.07748  1.0000
  C   C1755     1.0  0.76314  0.37953  0.07723  1.0000
  C   C1756     1.0  0.76539  0.39461  0.08714  1.0000
  C   C1757     1.0  0.74873  0.40489  0.09787  1.0000
  C   C1758     1.0  0.72983  0.40004  0.09837  1.0000
  C   C1759     1.0  0.72755  0.38513  0.08827  1.0000
  H   H3070     1.0  0.77613  0.37164  0.06901  1.0000
  H   H3071     1.0  0.77997  0.39837  0.08636  1.0000
  H   H3072     1.0  0.71684  0.40783  0.10669  1.0000
  H   H3073     1.0  0.71296  0.38139  0.08899  1.0000
  H   H3074     1.0  0.77385  0.34154  0.11791  1.0000
  H   H3075     1.0  0.78421  0.32612  0.15898  1.0000
  C   C1760     1.0  0.67770  0.12085  0.13738  1.0000
  C   C1761     1.0  0.77565  0.36565  0.15579  1.0000
  H   H3076     1.0  0.71716  0.23341  0.97260  1.0000
  H   H3077     1.0  0.72572  0.41467  0.01596  1.0000
  C   C1762     1.0  0.72495  0.24382  0.97728  1.0000
  C   C1763     1.0  0.93135  0.47651  0.99523  1.0000
  C   C1764     1.0  0.72968  0.46954  0.07700  1.0000
  C   C1765     1.0  0.76192  0.38587  0.15094  1.0000
  C   C1766     1.0  0.66929  0.28888  0.08210  1.0000
  H   H3078     1.0  0.67162  0.20206  0.17524  1.0000
  H   H3079     1.0  0.68164  0.07564  0.20170  1.0000
  H   H3080     1.0  0.87217  0.44712  0.12050  1.0000
  C   C1767     1.0  0.72071  0.46156  0.01572  1.0000
  H   H3081     1.0  0.85417  0.44397  0.19872  1.0000
  H   H3082     1.0  0.69114  0.23536  0.00349  1.0000
  H   H3083     1.0  0.76121  0.39096  0.03499  1.0000
  H   H3084     1.0  0.82076  0.47269  0.16292  1.0000
  C   C1768     1.0  0.67452  0.43352  0.06226  1.0000
  C   C1769     1.0  0.66565  0.28776  0.03248  1.0000
  H   H3085     1.0  0.68507  0.25902  0.08931  1.0000
  C   C1770     1.0  0.67429  0.23652  0.19423  1.0000
  H   H3086     1.0  0.67594  0.13373  0.10704  1.0000
  H   H3087     1.0  0.75416  0.38685  0.01327  1.0000
  H   H3088     1.0  0.66554  0.16413  0.15629  1.0000
  H   H3089     1.0  0.73739  0.23511  0.98457  1.0000
  H   H3090     1.0  0.79764  0.35886  0.20279  1.0000
  H   H3091     1.0  0.93625  0.46005  0.99741  1.0000
  H   H3092     1.0  0.67560  0.29193  0.04093  1.0000
  H   H3093     1.0  0.75558  0.32608  0.14893  1.0000
  C   C1771     1.0  0.73213  0.45510  0.06256  1.0000
  C   C1772     1.0  0.65481  0.30711  0.02230  1.0000
  C   C1773     1.0  0.75394  0.39836  0.02231  1.0000
  H   H3094     1.0  0.82483  0.34090  0.14452  1.0000
  H   H3095     1.0  0.74307  0.35027  0.15445  1.0000
  C   C1774     1.0  0.71196  0.44860  0.06233  1.0000
  H   H3096     1.0  0.79856  0.32394  0.13578  1.0000
  N   N98       1.0  0.68809  0.25417  0.02552  1.0000
  H   H3097     1.0  0.67889  0.24763  0.18146  1.0000
  H   H3098     1.0  0.65416  0.28768  0.13179  1.0000
  C   C1775     1.0  0.65373  0.26079  0.15357  1.0000
  H   H3099     1.0  0.90563  0.45923  0.98444  1.0000
  H   H3100     1.0  0.86904  0.47310  0.10905  1.0000
  H   H3101     1.0  0.88233  0.41122  0.03558  1.0000
  C   C1776     1.0  0.81005  0.35519  0.10732  1.0000
  H   H3102     1.0  0.77047  0.39651  0.14044  1.0000
  H   H3103     1.0  0.66163  0.09387  0.12066  1.0000
  H   H3104     1.0  0.78801  0.36936  0.16162  1.0000
  H   H3105     1.0  0.78963  0.37998  0.11767  1.0000
  H   H3106     1.0  0.66821  0.27321  0.00732  1.0000
  H   H3107     1.0  0.80871  0.46867  0.20736  1.0000
  H   H3108     1.0  0.83501  0.37167  0.10197  1.0000
  H   H3109     1.0  0.74037  0.33282  0.11852  1.0000
  H   H3110     1.0  0.74910  0.38411  0.14466  1.0000
  S   S392      1.0  0.67246  0.35230  0.02308  1.0000
  H   H3111     1.0  0.79991  0.35214  0.09839  1.0000
  H   H3112     1.0  0.81914  0.34084  0.11260  1.0000
  H   H3113     1.0  0.72742  0.35659  0.12508  1.0000
  H   H3114     1.0  0.74421  0.38558  0.18005  1.0000
  H   H3115     1.0  0.87549  0.46696  0.02508  1.0000
  C   C1777     1.0  0.75345  0.39540  0.16919  1.0000
  C   C1778     1.0  0.82486  0.46935  0.17763  1.0000
  N   N99       1.0  0.87576  0.47420  0.99387  1.0000
  C   C1779     1.0  0.68129  0.15320  0.18054  1.0000
  H   H3116     1.0  0.70063  0.41175  0.06797  1.0000
  H   H3117     1.0  0.83115  0.45329  0.18026  1.0000
  H   H3118     1.0  0.67104  0.09829  0.21178  1.0000
  C   C1780     1.0  0.70048  0.24357  0.00922  1.0000
  C   C1781     1.0  0.66319  0.21024  0.14667  1.0000
  C   C1782     1.0  0.70056  0.25513  0.04027  1.0000
  C   C1783     1.0  0.71712  0.26826  0.03335  1.0000
  H   H3119     1.0  0.69050  0.18820  0.14454  1.0000
  H   H3120     1.0  0.77284  0.36969  0.21361  1.0000
  H   H3121     1.0  0.87600  0.43120  0.00476  1.0000
  C   C1784     1.0  0.67182  0.24212  0.03571  1.0000
  C   C1785     1.0  0.72678  0.27004  0.05032  1.0000
  C   C1786     1.0  0.66410  0.15975  0.17187  1.0000
  C   C1787     1.0  0.67071  0.26803  0.08771  1.0000
  H   H3122     1.0  0.67430  0.44240  0.07377  1.0000
  H   H3123     1.0  0.90495  0.47460  0.01641  1.0000
  H   H3124     1.0  0.71239  0.23190  0.01483  1.0000
  C   C1788     1.0  0.71335  0.31528  0.97176  1.0000
  C   C1789     1.0  0.86078  0.47141  0.14934  1.0000
  H   H3125     1.0  0.81241  0.30499  0.17449  1.0000
  H   H3126     1.0  0.69083  0.26041  0.05329  1.0000
  H   H3127     1.0  0.70813  0.23992  0.04569  1.0000
  H   H3128     1.0  0.71115  0.28362  0.02691  1.0000
  H   H3129     1.0  0.72905  0.26142  0.02258  1.0000
  C   C1790     1.0  0.82298  0.31258  0.16285  1.0000
  H   H3130     1.0  0.68933  0.21187  0.03295  1.0000
  H   H3131     1.0  0.68627  0.21885  0.05663  1.0000
  H   H3132     1.0  0.67907  0.15115  0.12187  1.0000
  H   H3133     1.0  0.68903  0.28393  0.00843  1.0000
  C   C1791     1.0  0.65379  0.25872  0.09095  1.0000
  H   H3134     1.0  0.85278  0.46290  0.98462  1.0000
  H   H3135     1.0  0.89147  0.45532  0.14330  1.0000
  C   C1792     1.0  0.89783  0.47431  0.98737  1.0000
  H   H3136     1.0  0.73366  0.25506  0.05706  1.0000
  H   H3137     1.0  0.73858  0.27957  0.04495  1.0000
  H   H3138     1.0  0.71555  0.27715  0.06152  1.0000
  H   H3139     1.0  0.88199  0.43312  0.04588  1.0000
  C   C1793     1.0  0.66609  0.21611  0.16577  1.0000
  H   H3140     1.0  0.65939  0.11829  0.18045  1.0000
  C   C1794     1.0  0.88115  0.43881  0.01475  1.0000
  H   H3141     1.0  0.76257  0.40994  0.01344  1.0000
  H   H3142     1.0  0.65867  0.41039  0.05895  1.0000
  H   H3143     1.0  0.81594  0.38241  0.08719  1.0000
  S   S393      1.0  0.67667  0.41067  0.01271  1.0000
  Fe  Fe196     1.0  0.68484  0.37869  0.02702  1.0000
  H   H3144     1.0  0.70038  0.46226  0.06142  1.0000
  C   C1795     1.0  0.82319  0.41196  0.19491  1.0000
  H   H3145     1.0  0.65775  0.44317  0.98740  1.0000
  C   C1796     1.0  0.78882  0.37138  0.21014  1.0000
  C   C1797     1.0  0.88415  0.42893  0.19799  1.0000
  H   H3146     1.0  0.85475  0.46151  0.01759  1.0000
  H   H3147     1.0  0.67864  0.22473  0.16171  1.0000
  C   C1798     1.0  0.71279  0.47287  0.99738  1.0000
  N   N100      1.0  0.71144  0.43618  0.04707  1.0000
  C   C1799     1.0  0.73132  0.42296  0.04272  1.0000
  H   H3148     1.0  0.73873  0.46245  0.04812  1.0000
  H   H3149     1.0  0.89354  0.45833  0.10776  1.0000
  C   C1800     1.0  0.70526  0.44926  0.02894  1.0000
  C   C1801     1.0  0.66079  0.14763  0.21222  1.0000
  C   C1802     1.0  0.73240  0.40769  0.02906  1.0000
  C   C1803     1.0  0.69593  0.42275  0.05543  1.0000
  C   C1804     1.0  0.87119  0.46112  0.01336  1.0000
  C   C1805     1.0  0.86809  0.44300  0.18784  1.0000
  H   H3150     1.0  0.88111  0.46235  0.05874  1.0000
  H   H3151     1.0  0.67525  0.09765  0.17098  1.0000
  C   C1806     1.0  0.87585  0.42730  0.03523  1.0000
  H   H3152     1.0  0.73567  0.41421  0.05650  1.0000
  H   H3153     1.0  0.74339  0.43195  0.03651  1.0000
  C   C1807     1.0  0.82894  0.41310  0.21251  1.0000
  C   C1808     1.0  0.65934  0.10368  0.17598  1.0000
  H   H3154     1.0  0.70805  0.44008  0.07723  1.0000
  H   H3155     1.0  0.69450  0.41368  0.04461  1.0000
  H   H3156     1.0  0.70063  0.44014  0.01980  1.0000
  C   C1809     1.0  0.88123  0.46748  0.13592  1.0000
  H   H3157     1.0  0.68514  0.12384  0.14875  1.0000
  H   H3158     1.0  0.69973  0.13272  0.11401  1.0000
  H   H3159     1.0  0.72435  0.39534  0.03706  1.0000
  C   C1810     1.0  0.67882  0.21984  0.04396  1.0000
  H   H3160     1.0  0.89763  0.43746  0.01126  1.0000
  H   H3161     1.0  0.66596  0.25877  0.21370  1.0000
  H   H3162     1.0  0.65376  0.20798  0.03869  1.0000
  H   H3163     1.0  0.74304  0.44183  0.06723  1.0000
  H   H3164     1.0  0.66561  0.40751  0.08273  1.0000
  C   C1811     1.0  0.87878  0.46109  0.11722  1.0000
  H   H3165     1.0  0.89860  0.42717  0.18786  1.0000
  C   C1812     1.0  0.66760  0.08437  0.20840  1.0000
  H   H3166     1.0  0.66282  0.24866  0.04846  1.0000
  C   C1813     1.0  0.73408  0.34114  0.13088  1.0000
  H   H3167     1.0  0.74444  0.47329  0.07739  1.0000
  S   S394      1.0  0.70159  0.13862  0.21119  1.0000
  H   H3168     1.0  0.85457  0.45729  0.15221  1.0000
  C   C1814     1.0  0.87385  0.46411  0.18069  1.0000
  C   C1815     1.0  0.66110  0.20857  0.05103  1.0000
  H   H3169     1.0  0.69174  0.46030  0.03281  1.0000
  H   H3170     1.0  0.66686  0.25315  0.14455  1.0000
  C   C1816     1.0  0.85164  0.38188  0.21080  1.0000
  C   C1817     1.0  0.68308  0.20134  0.13541  1.0000
  H   H3171     1.0  0.68047  0.19643  0.12229  1.0000
  H   H3172     1.0  0.88964  0.46233  0.17320  1.0000
  H   H3173     1.0  0.87745  0.45076  0.97683  1.0000
  H   H3174     1.0  0.69887  0.26574  0.98256  1.0000
  H   H3175     1.0  0.86609  0.43601  0.17574  1.0000
  H   H3176     1.0  0.72360  0.46249  0.09189  1.0000
  H   H3177     1.0  0.73484  0.45185  0.01084  1.0000
  H   H3178     1.0  0.68512  0.22240  0.19341  1.0000
  H   H3179     1.0  0.66844  0.44365  0.04995  1.0000
  H   H3180     1.0  0.88610  0.43466  0.21094  1.0000
  H   H3181     1.0  0.65414  0.28017  0.04275  1.0000
  C   C1818     1.0  0.86842  0.46557  0.97911  1.0000
  C   C1819     1.0  0.85178  0.47023  0.07499  1.0000
  H   H3182     1.0  0.87967  0.41391  0.20297  1.0000
  H   H3183     1.0  0.65873  0.26785  0.16406  1.0000
  C   C1820     1.0  0.65478  0.12341  0.14432  1.0000
  H   H3184     1.0  0.71872  0.26715  0.99467  1.0000
  H   H3185     1.0  0.87403  0.47004  0.19409  1.0000
  C   C1821     1.0  0.67599  0.24425  0.21248  1.0000
  H   H3186     1.0  0.79504  0.46344  0.19035  1.0000
  H   H3187     1.0  0.70988  0.46220  0.98880  1.0000
  H   H3188     1.0  0.66121  0.24253  0.02571  1.0000
  C   C1822     1.0  0.87012  0.47432  0.06401  1.0000
  H   H3189     1.0  0.66076  0.05712  0.12896  1.0000
  S   S395      1.0  0.65688  0.23231  0.09637  1.0000
  H   H3190     1.0  0.65676  0.22344  0.13703  1.0000
  H   H3191     1.0  0.68381  0.10541  0.13450  1.0000
  H   H3192     1.0  0.66629  0.19298  0.05777  1.0000
  C   C1823     1.0  0.66022  0.41848  0.07050  1.0000
  H   H3193     1.0  0.66519  0.07828  0.15357  1.0000
  C   C1824     1.0  0.71043  0.25670  0.99090  1.0000
  H   H3194     1.0  0.72369  0.47288  0.02340  1.0000
  H   H3195     1.0  0.65313  0.19896  0.14971  1.0000
  H   H3196     1.0  0.82226  0.42565  0.21999  1.0000
  Fe  Fe197     1.0  0.94425  0.10572  0.43825  1.0000
  H   H3197     1.0  0.67241  0.00624  0.40015  1.0000
  Fe  Fe198     1.0  0.91785  0.11691  0.40679  1.0000
  S   S396      1.0  0.88952  0.11881  0.42839  1.0000
  S   S397      1.0  0.91885  0.12290  0.37437  1.0000
  Fe  Fe199     1.0  0.90563  0.13455  0.44375  1.0000
  H   H3198     1.0  0.90573  0.44210  0.30401  1.0000
  Fe  Fe200     1.0  0.90482  0.09059  0.44456  1.0000
  H   H3199     1.0  0.94407  0.39504  0.36195  1.0000
  S   S398      1.0  0.93298  0.13480  0.42085  1.0000
  S   S399      1.0  0.93219  0.08752  0.42185  1.0000
  C   C1825     1.0  0.95843  0.32849  0.31569  1.0000
  S   S400      1.0  0.91946  0.45303  0.33518  1.0000
  H   H3200     1.0  0.84248  0.10098  0.27251  1.0000
  S   S401      1.0  0.94643  0.42791  0.38217  1.0000
  Fe  Fe201     1.0  0.82367  0.19926  0.34894  1.0000
  S   S402      1.0  0.79830  0.18550  0.36816  1.0000
  S   S403      1.0  0.85226  0.18318  0.33379  1.0000
  Fe  Fe202     1.0  0.80182  0.24186  0.34865  1.0000
  S   S404      1.0  0.77445  0.23155  0.36780  1.0000
  S   S405      1.0  0.80344  0.27494  0.33897  1.0000
  Fe  Fe203     1.0  0.79605  0.21071  0.38513  1.0000
  S   S406      1.0  0.79133  0.20493  0.41826  1.0000
  Fe  Fe204     1.0  0.77882  0.20735  0.34917  1.0000
  S   S407      1.0  0.75225  0.20189  0.33712  1.0000
  S   S408      1.0  0.82299  0.22255  0.36719  1.0000
  S   S409      1.0  0.80453  0.21963  0.32877  1.0000
  H   H3201     1.0  0.70266  0.13600  0.32397  1.0000
  S   S410      1.0  0.69463  0.10530  0.29853  1.0000
  C   C1826     1.0  0.67902  0.16705  0.33091  1.0000
  Fe  Fe205     1.0  0.71638  0.12515  0.28115  1.0000
  S   S411      1.0  0.74035  0.13038  0.29703  1.0000
  S   S412      1.0  0.69298  0.14662  0.26639  1.0000
  Fe  Fe206     1.0  0.87291  0.37826  0.25812  1.0000
  S   S413      1.0  0.86385  0.36046  0.28762  1.0000
  S   S414      1.0  0.84908  0.39975  0.24322  1.0000
  Fe  Fe207     1.0  0.91719  0.36243  0.25830  1.0000
  S   S415      1.0  0.91151  0.34270  0.28717  1.0000
  S   S416      1.0  0.94744  0.36915  0.24221  1.0000
  Fe  Fe208     1.0  0.88589  0.33533  0.27640  1.0000
  S   S417      1.0  0.87969  0.30335  0.28236  1.0000
  Fe  Fe209     1.0  0.88991  0.36921  0.29633  1.0000
  S   S418      1.0  0.89001  0.37410  0.32686  1.0000
  S   S419      1.0  0.89367  0.35255  0.24621  1.0000
  S   S420      1.0  0.89691  0.38953  0.26810  1.0000
  C   C1827     1.0  0.96944  0.35563  0.25017  1.0000
  H   H3202     1.0  0.93942  0.43533  0.25655  1.0000
  H   H3203     1.0  0.85986  0.24408  0.35426  1.0000
  C   C1828     1.0  0.96622  0.43041  0.43910  1.0000
  H   H3204     1.0  0.97645  0.34730  0.29476  1.0000
  C   C1829     1.0  0.97064  0.33559  0.25904  1.0000
  H   H3205     1.0  0.70036  0.14458  0.37074  1.0000
  H   H3206     1.0  0.93626  0.46410  0.46574  1.0000
  H   H3207     1.0  0.97467  0.40552  0.34199  1.0000
  H   H3208     1.0  0.95785  0.32810  0.26123  1.0000
  C   C1830     1.0  0.69308  0.01971  0.28082  1.0000
  H   H3209     1.0  0.68115  0.18308  0.29138  1.0000
  H   H3210     1.0  0.69676  0.01514  0.29525  1.0000
  H   H3211     1.0  0.85991  0.24653  0.43597  1.0000
  C   C1831     1.0  0.82499  0.28251  0.32367  1.0000
  C   C1832     1.0  0.84108  0.26857  0.31681  1.0000
  C   C1833     1.0  0.85781  0.27517  0.30424  1.0000
  C   C1834     1.0  0.85859  0.29571  0.29848  1.0000
  C   C1835     1.0  0.84256  0.30961  0.30548  1.0000
  C   C1836     1.0  0.82587  0.30303  0.31807  1.0000
  H   H3212     1.0  0.84054  0.25271  0.32098  1.0000
  H   H3213     1.0  0.87013  0.26431  0.29884  1.0000
  H   H3214     1.0  0.84294  0.32541  0.30107  1.0000
  H   H3215     1.0  0.81348  0.31387  0.32340  1.0000
  C   C1837     1.0  0.74906  0.18171  0.32630  1.0000
  C   C1838     1.0  0.73481  0.18506  0.31395  1.0000
  C   C1839     1.0  0.73191  0.16958  0.30489  1.0000
  C   C1840     1.0  0.74293  0.15040  0.30840  1.0000
  C   C1841     1.0  0.75687  0.14693  0.32109  1.0000
  C   C1842     1.0  0.75993  0.16246  0.32997  1.0000
  H   H3216     1.0  0.72624  0.19986  0.31105  1.0000
  H   H3217     1.0  0.72135  0.17258  0.29497  1.0000
  H   H3218     1.0  0.76543  0.13213  0.32399  1.0000
  H   H3219     1.0  0.77057  0.15956  0.33978  1.0000
  C   C1843     1.0  0.81649  0.23649  0.45727  1.0000
  C   C1844     1.0  0.87622  0.24315  0.43086  1.0000
  C   C1845     1.0  0.80060  0.20971  0.45255  1.0000
  C   C1846     1.0  0.80174  0.21718  0.43262  1.0000
  C   C1847     1.0  0.81071  0.23418  0.42490  1.0000
  C   C1848     1.0  0.81788  0.24387  0.43721  1.0000
  H   H3220     1.0  0.67950  0.03618  0.22931  1.0000
  H   H3221     1.0  0.81160  0.24015  0.40957  1.0000
  H   H3222     1.0  0.82413  0.25741  0.43126  1.0000
  H   H3223     1.0  0.65763  0.17745  0.28877  1.0000
  H   H3224     1.0  0.75002  0.01716  0.29591  1.0000
  H   H3225     1.0  0.66600  0.01854  0.33737  1.0000
  Fe  Fe210     1.0  0.97886  0.42852  0.36975  1.0000
  C   C1849     1.0  0.68088  0.01225  0.25371  1.0000
  H   H3226     1.0  0.93317  0.15748  0.46264  1.0000
  C   C1850     1.0  0.90814  0.03568  0.41036  1.0000
  H   H3227     1.0  0.85525  0.22115  0.38675  1.0000
  C   C1851     1.0  0.91023  0.43145  0.33358  1.0000
  C   C1852     1.0  0.90472  0.42989  0.31608  1.0000
  C   C1853     1.0  0.89821  0.41248  0.31401  1.0000
  C   C1854     1.0  0.89714  0.39652  0.32944  1.0000
  C   C1855     1.0  0.90203  0.39831  0.34717  1.0000
  C   C1856     1.0  0.90853  0.41577  0.34926  1.0000
  H   H3228     1.0  0.89404  0.41143  0.30046  1.0000
  H   H3229     1.0  0.90099  0.38613  0.35926  1.0000
  H   H3230     1.0  0.91228  0.41710  0.36295  1.0000
  H   H3231     1.0  0.67503  0.14946  0.30939  1.0000
  H   H3232     1.0  0.96448  0.17497  0.42547  1.0000
  Fe  Fe211     1.0  0.70174  0.08818  0.27342  1.0000
  S   S421      1.0  0.70721  0.05417  0.28099  1.0000
  N   N101      1.0  0.68319  0.15006  0.34725  1.0000
  C   C1857     1.0  0.89947  0.13928  0.36403  1.0000
  C   C1858     1.0  0.90371  0.14799  0.34452  1.0000
  C   C1859     1.0  0.88911  0.16156  0.33568  1.0000
  C   C1860     1.0  0.87002  0.16655  0.34616  1.0000
  C   C1861     1.0  0.86554  0.15777  0.36567  1.0000
  C   C1862     1.0  0.88027  0.14403  0.37461  1.0000
  H   H3233     1.0  0.91846  0.14440  0.33625  1.0000
  H   H3234     1.0  0.89276  0.16837  0.32066  1.0000
  H   H3235     1.0  0.85074  0.16142  0.37376  1.0000
  H   H3236     1.0  0.87679  0.13710  0.38960  1.0000
  H   H3237     1.0  0.94326  0.32932  0.32458  1.0000
  H   H3238     1.0  0.85664  0.28725  0.39109  1.0000
  C   C1863     1.0  0.89888  0.30637  0.40269  1.0000
  H   H3239     1.0  0.88830  0.23469  0.37303  1.0000
  S   S422      1.0  0.93589  0.45889  0.42669  1.0000
  C   C1864     1.0  0.77555  0.27993  0.44514  1.0000
  H   H3240     1.0  0.89697  0.21310  0.36137  1.0000
  C   C1865     1.0  0.90293  0.05025  0.42258  1.0000
  C   C1866     1.0  0.89766  0.04466  0.44268  1.0000
  C   C1867     1.0  0.89761  0.02435  0.45048  1.0000
  C   C1868     1.0  0.90314  0.00970  0.43824  1.0000
  H   H3241     1.0  0.90249  0.06588  0.41635  1.0000
  H   H3242     1.0  0.66992  0.18042  0.33673  1.0000
  C   C1869     1.0  0.84154  0.98670  0.44183  1.0000
  C   C1870     1.0  0.94531  0.18475  0.45136  1.0000
  N   N102      1.0  0.87724  0.20040  0.40133  1.0000
  H   H3243     1.0  0.81276  0.37301  0.22459  1.0000
  C   C1871     1.0  0.87167  0.21354  0.41693  1.0000
  C   C1872     1.0  0.86771  0.18184  0.40905  1.0000
  C   C1873     1.0  0.84499  0.18517  0.41679  1.0000
  C   C1874     1.0  0.83691  0.16536  0.42162  1.0000
  H   H3244     1.0  0.90476  0.18807  0.41222  1.0000
  H   H3245     1.0  0.85528  0.21851  0.41986  1.0000
  H   H3246     1.0  0.87572  0.20471  0.43088  1.0000
  H   H3247     1.0  0.87498  0.17230  0.42090  1.0000
  H   H3248     1.0  0.87014  0.17236  0.39763  1.0000
  H   H3249     1.0  0.90470  0.16236  0.39421  1.0000
  H   H3250     1.0  0.83684  0.19544  0.40590  1.0000
  H   H3251     1.0  0.84176  0.19150  0.43052  1.0000
  C   C1875     1.0  0.88468  0.31425  0.38805  1.0000
  C   C1876     1.0  0.95875  0.39890  0.32125  1.0000
  N   N103      1.0  0.97855  0.99520  0.40404  1.0000
  H   H3252     1.0  0.82083  0.16802  0.42797  1.0000
  H   H3253     1.0  0.83856  0.15863  0.40831  1.0000
  H   H3254     1.0  0.84492  0.15464  0.43239  1.0000
  C   C1877     1.0  0.96189  0.05223  0.38766  1.0000
  H   H3255     1.0  0.77685  0.35542  0.25015  1.0000
  H   H3256     1.0  0.67458  0.17543  0.37664  1.0000
  H   H3257     1.0  0.73046  0.98478  0.25598  1.0000
  C   C1878     1.0  0.89954  0.19380  0.39803  1.0000
  H   H3258     1.0  0.93948  0.40955  0.25500  1.0000
  Fe  Fe212     1.0  0.94080  0.45098  0.35598  1.0000
  C   C1879     1.0  0.66606  0.18063  0.29925  1.0000
  H   H3259     1.0  0.65999  0.06373  0.28311  1.0000
  H   H3260     1.0  0.68238  0.12343  0.33562  1.0000
  H   H3261     1.0  0.77800  0.27750  0.42979  1.0000
  H   H3262     1.0  0.96836  0.42560  0.42512  1.0000
  H   H3263     1.0  0.93810  0.17310  0.38977  1.0000
  C   C1880     1.0  0.67590  0.99626  0.36108  1.0000
  C   C1881     1.0  0.70390  0.17996  0.37837  1.0000
  H   H3264     1.0  0.94822  0.19853  0.42100  1.0000
  H   H3265     1.0  0.93284  0.18961  0.36760  1.0000
  S   S423      1.0  0.94022  0.47708  0.37087  1.0000
  H   H3266     1.0  0.66824  0.02588  0.42666  1.0000
  H   H3267     1.0  0.94706  0.05311  0.38361  1.0000
  H   H3268     1.0  0.86875  0.22185  0.34311  1.0000
  H   H3269     1.0  0.95013  0.35263  0.29361  1.0000
  Fe  Fe213     1.0  0.69948  0.12659  0.24361  1.0000
  H   H3270     1.0  0.74379  0.01968  0.27197  1.0000
  H   H3271     1.0  0.66165  0.07523  0.22224  1.0000
  H   H3272     1.0  0.95622  0.19318  0.45420  1.0000
  N   N104      1.0  0.80495  0.34981  0.26061  1.0000
  H   H3273     1.0  0.88229  0.25742  0.42746  1.0000
  C   C1882     1.0  0.79688  0.33399  0.27649  1.0000
  C   C1883     1.0  0.80134  0.36911  0.26885  1.0000
  H   H3274     1.0  0.96759  0.41362  0.26978  1.0000
  C   C1884     1.0  0.75839  0.98979  0.28295  1.0000
  C   C1885     1.0  0.80882  0.36778  0.28826  1.0000
  C   C1886     1.0  0.79906  0.31280  0.27130  1.0000
  C   C1887     1.0  0.78733  0.29937  0.28739  1.0000
  C   C1888     1.0  0.69051  0.04490  0.25223  1.0000
  C   C1889     1.0  0.80994  0.38848  0.29227  1.0000
  H   H3275     1.0  0.95308  0.99276  0.42721  1.0000
  H   H3276     1.0  0.84310  0.01841  0.43131  1.0000
  H   H3277     1.0  0.80463  0.33159  0.28918  1.0000
  H   H3278     1.0  0.78084  0.33914  0.28200  1.0000
  H   H3279     1.0  0.78511  0.37529  0.27135  1.0000
  H   H3280     1.0  0.85487  0.00777  0.45223  1.0000
  H   H3281     1.0  0.69324  0.17181  0.32280  1.0000
  H   H3282     1.0  0.83425  0.33538  0.26658  1.0000
  H   H3283     1.0  0.67371  0.13266  0.38740  1.0000
  H   H3284     1.0  0.83463  0.35747  0.24937  1.0000
  H   H3285     1.0  0.82375  0.35855  0.28805  1.0000
  H   H3286     1.0  0.79842  0.36083  0.30059  1.0000
  H   H3287     1.0  0.79348  0.31308  0.25771  1.0000
  H   H3288     1.0  0.81498  0.30566  0.26982  1.0000
  H   H3289     1.0  0.77107  0.30496  0.28863  1.0000
  H   H3290     1.0  0.79027  0.28388  0.28405  1.0000
  H   H3291     1.0  0.79187  0.29880  0.30160  1.0000
  S   S424      1.0  0.97310  0.44960  0.34252  1.0000
  C   C1890     1.0  0.80824  0.21906  0.46475  1.0000
  H   H3292     1.0  0.79586  0.34021  0.23677  1.0000
  H   H3293     1.0  0.82098  0.39571  0.28088  1.0000
  H   H3294     1.0  0.79515  0.39821  0.29268  1.0000
  H   H3295     1.0  0.81478  0.38704  0.30651  1.0000
  H   H3296     1.0  0.88322  0.23328  0.44281  1.0000
  H   H3297     1.0  0.69100  0.00555  0.33175  1.0000
  H   H3298     1.0  0.76620  0.29479  0.44634  1.0000
  H   H3299     1.0  0.85914  0.31238  0.24800  1.0000
  H   H3300     1.0  0.68697  0.98230  0.36235  1.0000
  H   H3301     1.0  0.76345  0.98626  0.26802  1.0000
  H   H3302     1.0  0.96177  0.06571  0.39406  1.0000
  C   C1891     1.0  0.85221  0.00485  0.43821  1.0000
  C   C1892     1.0  0.66344  0.14651  0.35968  1.0000
  H   H3303     1.0  0.95639  0.03149  0.45930  1.0000
  H   H3304     1.0  0.70586  0.16774  0.39088  1.0000
  S   S425      1.0  0.67708  0.10666  0.25860  1.0000
  H   H3305     1.0  0.96026  0.31731  0.30588  1.0000
  C   C1893     1.0  0.94635  0.16373  0.46413  1.0000
  H   H3306     1.0  0.68750  0.18910  0.35499  1.0000
  C   C1894     1.0  0.96640  0.03340  0.40244  1.0000
  H   H3307     1.0  0.97349  0.05234  0.37438  1.0000
  H   H3308     1.0  0.93810  0.17554  0.42637  1.0000
  H   H3309     1.0  0.95106  0.37029  0.35571  1.0000
  C   C1895     1.0  0.79314  0.35340  0.24425  1.0000
  C   C1896     1.0  0.97857  0.42071  0.45264  1.0000
  H   H3310     1.0  0.78890  0.38589  0.23421  1.0000
  H   H3311     1.0  0.97374  0.01694  0.37821  1.0000
  S   S426      1.0  0.97421  0.09545  0.44753  1.0000
  H   H3312     1.0  0.86497  0.33515  0.23220  1.0000
  H   H3313     1.0  0.98530  0.38065  0.24043  1.0000
  H   H3314     1.0  0.87150  0.19866  0.46754  1.0000
  H   H3315     1.0  0.98055  0.03376  0.40720  1.0000
  C   C1897     1.0  0.70845  0.11641  0.35000  1.0000
  C   C1898     1.0  0.66298  0.05961  0.31326  1.0000
  C   C1899     1.0  0.66755  0.16294  0.31586  1.0000
  S   S427      1.0  0.72494  0.10665  0.25682  1.0000
  H   H3316     1.0  0.79028  0.27983  0.44909  1.0000
  N   N105      1.0  0.96378  0.38522  0.30621  1.0000
  C   C1900     1.0  0.68310  0.03161  0.24379  1.0000
  C   C1901     1.0  0.88066  0.23310  0.41274  1.0000
  H   H3317     1.0  0.67616  0.04761  0.31327  1.0000
  H   H3318     1.0  0.97590  0.13490  0.42368  1.0000
  H   H3319     1.0  0.83183  0.99539  0.41381  1.0000
  H   H3320     1.0  0.93470  0.16293  0.36939  1.0000
  C   C1902     1.0  0.68911  0.17606  0.36678  1.0000
  C   C1903     1.0  0.93743  0.42041  0.26520  1.0000
  H   H3321     1.0  0.96175  0.41421  0.31486  1.0000
  H   H3322     1.0  0.83113  0.34156  0.22308  1.0000
  C   C1904     1.0  0.83370  0.33177  0.23699  1.0000
  C   C1905     1.0  0.83892  0.98149  0.42238  1.0000
  H   H3323     1.0  0.65389  0.14201  0.35096  1.0000
  H   H3324     1.0  0.72242  0.09928  0.32671  1.0000
  H   H3325     1.0  0.76929  0.01827  0.27470  1.0000
  H   H3326     1.0  0.98372  0.38128  0.33591  1.0000
  C   C1906     1.0  0.95061  0.39295  0.29093  1.0000
  C   C1907     1.0  0.92961  0.17568  0.37760  1.0000
  H   H3327     1.0  0.70225  0.11282  0.36561  1.0000
  H   H3328     1.0  0.69264  0.05958  0.24425  1.0000
  H   H3329     1.0  0.90751  0.20657  0.39143  1.0000
  C   C1908     1.0  0.76527  0.26329  0.45836  1.0000
  C   C1909     1.0  0.69358  0.13162  0.33847  1.0000
  H   H3330     1.0  0.88373  0.24135  0.33860  1.0000
  C   C1910     1.0  0.84313  0.39806  0.22058  1.0000
  H   H3331     1.0  0.69829  0.19430  0.38404  1.0000
  C   C1911     1.0  0.69676  0.15631  0.35835  1.0000
  H   H3332     1.0  0.86535  0.19990  0.37539  1.0000
  C   C1912     1.0  0.95853  0.36512  0.31645  1.0000
  H   H3333     1.0  0.94271  0.36686  0.32409  1.0000
  S   S428      1.0  0.89339  0.16495  0.45170  1.0000
  H   H3334     1.0  0.89340  0.01993  0.46599  1.0000
  H   H3335     1.0  0.96979  0.32345  0.32536  1.0000
  H   H3336     1.0  0.72227  0.12279  0.34884  1.0000
  H   H3337     1.0  0.72489  0.08620  0.35073  1.0000
  H   H3338     1.0  0.89872  0.29018  0.40817  1.0000
  C   C1913     1.0  0.66416  0.12996  0.37773  1.0000
  H   H3339     1.0  0.77038  0.98358  0.29172  1.0000
  H   H3340     1.0  0.97788  0.99067  0.36503  1.0000
  H   H3341     1.0  0.66971  0.11513  0.37309  1.0000
  Fe  Fe214     1.0  0.94884  0.45387  0.39594  1.0000
  C   C1914     1.0  0.95685  0.38355  0.35754  1.0000
  S   S429      1.0  0.91445  0.99765  0.40223  1.0000
  H   H3342     1.0  0.89706  0.23042  0.40831  1.0000
  C   C1915     1.0  0.68543  0.00652  0.27248  1.0000
  C   C1916     1.0  0.87325  0.23320  0.34982  1.0000
  C   C1917     1.0  0.90727  0.17706  0.38533  1.0000
  Fe  Fe215     1.0  0.97300  0.47372  0.35958  1.0000
  C   C1918     1.0  0.88343  0.22304  0.36720  1.0000
  C   C1919     1.0  0.94931  0.18328  0.42972  1.0000
  H   H3343     1.0  0.91191  0.04018  0.39480  1.0000
  C   C1920     1.0  0.90824  0.01540  0.41812  1.0000
  H   H3344     1.0  0.93013  0.19351  0.45457  1.0000
  N   N106      1.0  0.82319  0.14991  0.30109  1.0000
  C   C1921     1.0  0.82268  0.12958  0.29646  1.0000
  C   C1922     1.0  0.81966  0.14875  0.32293  1.0000
  C   C1923     1.0  0.80599  0.16426  0.29350  1.0000
  C   C1924     1.0  0.84234  0.15785  0.29181  1.0000
  C   C1925     1.0  0.86170  0.14226  0.28900  1.0000
  C   C1926     1.0  0.82197  0.12905  0.27488  1.0000
  C   C1927     1.0  0.80175  0.18537  0.29937  1.0000
  C   C1928     1.0  0.83524  0.13433  0.33399  1.0000
  C   C1929     1.0  0.82850  0.13272  0.35598  1.0000
  C   C1930     1.0  0.88007  0.15260  0.28245  1.0000
  C   C1931     1.0  0.82699  0.10765  0.27046  1.0000
  C   C1932     1.0  0.78748  0.19989  0.28738  1.0000
  H   H3345     1.0  0.80930  0.12354  0.30533  1.0000
  H   H3346     1.0  0.83555  0.11849  0.30070  1.0000
  H   H3347     1.0  0.81941  0.16364  0.32689  1.0000
  H   H3348     1.0  0.80471  0.14455  0.32930  1.0000
  H   H3349     1.0  0.79195  0.15780  0.29828  1.0000
  H   H3350     1.0  0.80852  0.16658  0.27731  1.0000
  H   H3351     1.0  0.84115  0.16664  0.27708  1.0000
  H   H3352     1.0  0.84495  0.16881  0.30029  1.0000
  H   H3353     1.0  0.86135  0.13343  0.27763  1.0000
  H   H3354     1.0  0.86382  0.13157  0.30244  1.0000
  H   H3355     1.0  0.80670  0.13523  0.27177  1.0000
  H   H3356     1.0  0.83248  0.13813  0.26481  1.0000
  H   H3357     1.0  0.81569  0.19172  0.29732  1.0000
  H   H3358     1.0  0.79457  0.18454  0.31488  1.0000
  H   H3359     1.0  0.83777  0.11899  0.33050  1.0000
  H   H3360     1.0  0.84956  0.14019  0.33053  1.0000
  H   H3361     1.0  0.81446  0.12633  0.36060  1.0000
  H   H3362     1.0  0.84021  0.12283  0.36356  1.0000
  H   H3363     1.0  0.82615  0.14768  0.36042  1.0000
  H   H3364     1.0  0.87921  0.16268  0.26832  1.0000
  H   H3365     1.0  0.88129  0.16149  0.29348  1.0000
  H   H3366     1.0  0.89372  0.14119  0.28068  1.0000
  H   H3367     1.0  0.82571  0.10775  0.25512  1.0000
  S   S430      1.0  0.89118  0.06295  0.45810  1.0000
  H   H3368     1.0  0.77351  0.19381  0.28854  1.0000
  H   H3369     1.0  0.78353  0.21437  0.29296  1.0000
  H   H3370     1.0  0.79456  0.20268  0.27186  1.0000
  N   N107      1.0  0.87714  0.30765  0.35525  1.0000
  C   C1933     1.0  0.86503  0.32840  0.35508  1.0000
  C   C1934     1.0  0.89123  0.30362  0.36988  1.0000
  C   C1935     1.0  0.88970  0.30694  0.33530  1.0000
  C   C1936     1.0  0.86410  0.29166  0.35926  1.0000
  C   C1937     1.0  0.84882  0.29109  0.37841  1.0000
  C   C1938     1.0  0.84990  0.33465  0.34082  1.0000
  C   C1939     1.0  0.90382  0.28683  0.33261  1.0000
  C   C1940     1.0  0.83574  0.27509  0.38044  1.0000
  C   C1941     1.0  0.83770  0.35531  0.34297  1.0000
  C   C1942     1.0  0.92007  0.28939  0.31473  1.0000
  H   H3371     1.0  0.87523  0.33974  0.35158  1.0000
  H   H3372     1.0  0.85628  0.33036  0.36963  1.0000
  H   H3373     1.0  0.89477  0.28725  0.37511  1.0000
  H   H3374     1.0  0.90586  0.30835  0.36286  1.0000
  H   H3375     1.0  0.89872  0.31936  0.33141  1.0000
  H   H3376     1.0  0.88026  0.30953  0.32388  1.0000
  H   H3377     1.0  0.85600  0.29287  0.34694  1.0000
  H   H3378     1.0  0.87341  0.27655  0.35991  1.0000
  H   H3379     1.0  0.83874  0.30562  0.37904  1.0000
  H   H3380     1.0  0.85771  0.33557  0.32559  1.0000
  H   H3381     1.0  0.83926  0.32394  0.34358  1.0000
  H   H3382     1.0  0.89508  0.27571  0.33059  1.0000
  H   H3383     1.0  0.91138  0.28042  0.34527  1.0000
  H   H3384     1.0  0.88490  0.33060  0.38363  1.0000
  H   H3385     1.0  0.84480  0.25992  0.38172  1.0000
  H   H3386     1.0  0.82715  0.35938  0.33247  1.0000
  H   H3387     1.0  0.82899  0.35531  0.35790  1.0000
  H   H3388     1.0  0.84760  0.36682  0.33984  1.0000
  H   H3389     1.0  0.92941  0.27467  0.31278  1.0000
  H   H3390     1.0  0.91345  0.29546  0.30142  1.0000
  H   H3391     1.0  0.92980  0.29970  0.31645  1.0000
  H   H3392     1.0  0.87382  0.24383  0.40122  1.0000
  H   H3393     1.0  0.66182  0.12413  0.44425  1.0000
  Fe  Fe216     1.0  0.67202  0.12533  0.28220  1.0000
  H   H3394     1.0  0.96793  0.35865  0.32779  1.0000
  H   H3395     1.0  0.65807  0.19447  0.30489  1.0000
  H   H3396     1.0  0.95372  0.38285  0.27989  1.0000
  H   H3397     1.0  0.94246  0.40117  0.32663  1.0000
  H   H3398     1.0  0.72647  0.99109  0.28663  1.0000
  C   C1943     1.0  0.65623  0.00733  0.39996  1.0000
  H   H3399     1.0  0.89412  0.31458  0.41527  1.0000
  H   H3400     1.0  0.91432  0.30869  0.39590  1.0000
  H   H3401     1.0  0.82799  0.27758  0.36775  1.0000
  H   H3402     1.0  0.65492  0.16062  0.36446  1.0000
  S   S431      1.0  0.67276  0.99567  0.24196  1.0000
  H   H3403     1.0  0.71862  0.18117  0.36890  1.0000
  H   H3404     1.0  0.97185  0.98776  0.46494  1.0000
  H   H3405     1.0  0.95176  0.01228  0.39422  1.0000
  C   C1944     1.0  0.95100  0.44612  0.44376  1.0000
  H   H3406     1.0  0.96575  0.37907  0.36948  1.0000
  H   H3407     1.0  0.68116  0.00775  0.36685  1.0000
  H   H3408     1.0  0.90310  0.99406  0.44435  1.0000
  H   H3409     1.0  0.75057  0.26419  0.45408  1.0000
  C   C1945     1.0  0.79671  0.37197  0.22856  1.0000
  C   C1946     1.0  0.95262  0.41396  0.27898  1.0000
  H   H3410     1.0  0.67209  0.23323  0.22570  1.0000
  H   H3411     1.0  0.86947  0.31219  0.39565  1.0000
  C   C1947     1.0  0.96744  0.01408  0.39389  1.0000
  C   C1948     1.0  0.86941  0.21089  0.38296  1.0000
  H   H3412     1.0  0.80861  0.38078  0.25816  1.0000
  H   H3413     1.0  0.92201  0.42151  0.27352  1.0000
  H   H3414     1.0  0.67010  0.99312  0.33280  1.0000
  C   C1949     1.0  0.65498  0.99205  0.37204  1.0000
  C   C1950     1.0  0.96942  0.99293  0.42538  1.0000
  H   H3415     1.0  0.95007  0.42557  0.28840  1.0000
  H   H3416     1.0  0.73649  0.98411  0.30829  1.0000
  H   H3417     1.0  0.93467  0.39296  0.29772  1.0000
  C   C1951     1.0  0.96127  0.34886  0.30348  1.0000
  H   H3418     1.0  0.89938  0.17953  0.37276  1.0000
  C   C1952     1.0  0.82716  0.34398  0.25408  1.0000
  C   C1953     1.0  0.85586  0.32306  0.23476  1.0000
  H   H3419     1.0  0.71136  0.15805  0.34868  1.0000
  H   H3420     1.0  0.98002  0.05306  0.44645  1.0000
  C   C1954     1.0  0.96990  0.39216  0.33893  1.0000
  H   H3421     1.0  0.68310  0.99194  0.28049  1.0000
  C   C1955     1.0  0.75512  0.01259  0.28134  1.0000
  C   C1956     1.0  0.69597  0.03880  0.27061  1.0000
  H   H3422     1.0  0.82425  0.27578  0.39376  1.0000
  H   H3423     1.0  0.98360  0.46589  0.44611  1.0000
  H   H3424     1.0  0.81646  0.09824  0.28009  1.0000
  H   H3425     1.0  0.66833  0.07417  0.31032  1.0000
  S   S432      1.0  0.98171  0.45254  0.38571  1.0000
  H   H3426     1.0  0.79362  0.19663  0.45855  1.0000
  C   C1957     1.0  0.67570  0.00376  0.33943  1.0000
  H   H3427     1.0  0.86690  0.00202  0.42863  1.0000
  C   C1958     1.0  0.98621  0.36512  0.24720  1.0000
  H   H3428     1.0  0.95428  0.03405  0.41531  1.0000
  C   C1959     1.0  0.71455  0.09671  0.34197  1.0000
  C   C1960     1.0  0.73911  0.98143  0.29300  1.0000
  H   H3429     1.0  0.77452  0.24893  0.45528  1.0000
  S   S433      1.0  0.91790  0.10668  0.46236  1.0000
  H   H3430     1.0  0.95934  0.15382  0.45731  1.0000
  H   H3431     1.0  0.82704  0.99032  0.45137  1.0000
  C   C1961     1.0  0.94810  0.45202  0.46208  1.0000
  H   H3432     1.0  0.79987  0.98530  0.42770  1.0000
  H   H3433     1.0  0.97084  0.00599  0.43172  1.0000
  H   H3434     1.0  0.70128  0.08966  0.34260  1.0000
  H   H3435     1.0  0.65944  0.14321  0.22782  1.0000
  H   H3436     1.0  0.82545  0.31915  0.23892  1.0000
  H   H3437     1.0  0.86020  0.31490  0.22215  1.0000
  C   C1962     1.0  0.98554  0.38263  0.29697  1.0000
  H   H3438     1.0  0.65363  0.05765  0.32794  1.0000
  H   H3439     1.0  0.98527  0.17186  0.46003  1.0000
  H   H3440     1.0  0.74332  0.18977  0.62386  1.0000
  H   H3441     1.0  0.69984  0.18325  0.62997  1.0000
  C   C1963     1.0  0.65672  0.15527  0.70707  1.0000
  H   H3442     1.0  0.68897  0.26654  0.49112  1.0000
  Fe  Fe217     1.0  0.71144  0.13111  0.61477  1.0000
  S   S434      1.0  0.70708  0.10679  0.64067  1.0000
  S   S435      1.0  0.74186  0.14094  0.60848  1.0000
  Fe  Fe218     1.0  0.69235  0.09299  0.62242  1.0000
  S   S436      1.0  0.69573  0.06145  0.61597  1.0000
  Fe  Fe219     1.0  0.67709  0.12555  0.64856  1.0000
  H   H3443     1.0  0.82629  0.32894  0.54805  1.0000
  S   S437      1.0  0.69926  0.11569  0.59573  1.0000
  S   S438      1.0  0.68223  0.15044  0.62357  1.0000
  H   H3444     1.0  0.71880  0.02134  0.67505  1.0000
  H   H3445     1.0  0.66827  0.20831  0.70308  1.0000
  H   H3446     1.0  0.96869  0.16135  0.50377  1.0000
  H   H3447     1.0  0.98317  0.05374  0.51042  1.0000
  H   H3448     1.0  0.69268  0.98045  0.54372  1.0000
  Fe  Fe220     1.0  0.90741  0.31633  0.61215  1.0000
  S   S439      1.0  0.88582  0.34369  0.61941  1.0000
  S   S440      1.0  0.90178  0.29005  0.59960  1.0000
  Fe  Fe221     1.0  0.94294  0.33151  0.62302  1.0000
  S   S441      1.0  0.92356  0.35987  0.63108  1.0000
  C   C1964     1.0  0.70931  0.00333  0.65811  1.0000
  Fe  Fe222     1.0  0.90042  0.34038  0.64573  1.0000
  S   S442      1.0  0.88288  0.33915  0.67664  1.0000
  Fe  Fe223     1.0  0.91067  0.36073  0.60431  1.0000
  S   S443      1.0  0.90820  0.38605  0.57926  1.0000
  S   S444      1.0  0.92084  0.31168  0.63941  1.0000
  S   S445      1.0  0.93120  0.33372  0.59534  1.0000
  Fe  Fe224     1.0  0.82851  0.25154  0.54422  1.0000
  S   S446      1.0  0.80248  0.25625  0.52821  1.0000
  S   S447      1.0  0.83203  0.27786  0.55814  1.0000
  Fe  Fe225     1.0  0.84071  0.20890  0.53603  1.0000
  S   S448      1.0  0.81558  0.21002  0.52015  1.0000
  S   S449      1.0  0.86231  0.17998  0.53790  1.0000
  Fe  Fe226     1.0  0.82301  0.24002  0.50539  1.0000
  H   H3449     1.0  0.95848  0.37092  0.60299  1.0000
  Fe  Fe227     1.0  0.79684  0.22573  0.54399  1.0000
  S   S450      1.0  0.76469  0.22078  0.55424  1.0000
  S   S451      1.0  0.84963  0.23811  0.51986  1.0000
  S   S452      1.0  0.82132  0.22190  0.56150  1.0000
  H   H3450     1.0  0.66529  0.03989  0.67232  1.0000
  C   C1965     1.0  0.88210  0.28693  0.58832  1.0000
  C   C1966     1.0  0.86416  0.30033  0.58873  1.0000
  C   C1967     1.0  0.84895  0.29717  0.57965  1.0000
  C   C1968     1.0  0.85145  0.28059  0.57002  1.0000
  C   C1969     1.0  0.86930  0.26703  0.56984  1.0000
  C   C1970     1.0  0.88448  0.27019  0.57897  1.0000
  H   H3451     1.0  0.86191  0.31299  0.59620  1.0000
  H   H3452     1.0  0.83512  0.30762  0.58011  1.0000
  H   H3453     1.0  0.87147  0.25419  0.56256  1.0000
  H   H3454     1.0  0.89823  0.25961  0.57866  1.0000
  H   H3455     1.0  0.71597  0.23542  0.51563  1.0000
  H   H3456     1.0  0.69496  0.23997  0.48999  1.0000
  C   C1971     1.0  0.85555  0.39506  0.68730  1.0000
  C   C1972     1.0  0.86643  0.37922  0.67769  1.0000
  C   C1973     1.0  0.87034  0.35992  0.68817  1.0000
  H   H3457     1.0  0.91952  0.24403  0.62810  1.0000
  C   C1974     1.0  0.95263  0.36851  0.50455  1.0000
  H   H3458     1.0  0.85240  0.40985  0.67900  1.0000
  H   H3459     1.0  0.87155  0.38188  0.66215  1.0000
  H   H3460     1.0  0.68523  0.22040  0.63453  1.0000
  C   C1975     1.0  0.74055  0.27868  0.53973  1.0000
  C   C1976     1.0  0.74783  0.16306  0.59300  1.0000
  C   C1977     1.0  0.76739  0.16705  0.59014  1.0000
  C   C1978     1.0  0.77282  0.18451  0.57800  1.0000
  C   C1979     1.0  0.75865  0.19822  0.56878  1.0000
  C   C1980     1.0  0.73903  0.19430  0.57171  1.0000
  C   C1981     1.0  0.73364  0.17672  0.58371  1.0000
  H   H3461     1.0  0.77837  0.15665  0.59747  1.0000
  H   H3462     1.0  0.78782  0.18762  0.57610  1.0000
  H   H3463     1.0  0.72795  0.20492  0.56472  1.0000
  H   H3464     1.0  0.71851  0.17380  0.58586  1.0000
  C   C1982     1.0  0.70124  0.03942  0.63252  1.0000
  C   C1983     1.0  0.70842  0.03949  0.64953  1.0000
  C   C1984     1.0  0.69838  0.02125  0.62831  1.0000
  H   H3465     1.0  0.71088  0.05340  0.65280  1.0000
  H   H3466     1.0  0.69362  0.02086  0.61486  1.0000
  H   H3467     1.0  0.69134  0.20366  0.71255  1.0000
  H   H3468     1.0  0.92263  0.02953  0.47761  1.0000
  C   C1985     1.0  0.88688  0.15217  0.49136  1.0000
  H   H3469     1.0  0.68541  0.22288  0.67083  1.0000
  H   H3470     1.0  0.84068  0.35121  0.57835  1.0000
  C   C1986     1.0  0.85494  0.08960  0.51333  1.0000
  C   C1987     1.0  0.95860  0.12469  0.49056  1.0000
  H   H3471     1.0  0.89448  0.13752  0.48853  1.0000
  H   H3472     1.0  0.83047  0.38473  0.58910  1.0000
  H   H3473     1.0  0.65516  0.10591  0.57858  1.0000
  C   C1988     1.0  0.92508  0.40245  0.57799  1.0000
  C   C1989     1.0  0.92781  0.40840  0.59486  1.0000
  H   H3474     1.0  0.93387  0.40504  0.54688  1.0000
  H   H3475     1.0  0.91922  0.40321  0.60877  1.0000
  C   C1990     1.0  0.69992  0.19112  0.67644  1.0000
  H   H3476     1.0  0.67033  0.06526  0.66427  1.0000
  H   H3477     1.0  0.94612  0.38443  0.50534  1.0000
  H   H3478     1.0  0.96203  0.05915  0.47706  1.0000
  C   C1991     1.0  0.89226  0.34495  0.55523  1.0000
  C   C1992     1.0  0.84176  0.37308  0.59565  1.0000
  S   S453      1.0  0.82403  0.25010  0.47261  1.0000
  C   C1993     1.0  0.86349  0.35676  0.70838  1.0000
  H   H3479     1.0  0.83410  0.36460  0.60904  1.0000
  H   H3480     1.0  0.88301  0.14401  0.52268  1.0000
  C   C1994     1.0  0.88044  0.15584  0.51060  1.0000
  C   C1995     1.0  0.88077  0.37174  0.52901  1.0000
  H   H3481     1.0  0.88286  0.30283  0.70987  1.0000
  H   H3482     1.0  0.73213  0.23559  0.61603  1.0000
  H   H3483     1.0  0.84453  0.36453  0.52238  1.0000
  H   H3484     1.0  0.65587  0.19276  0.63321  1.0000
  H   H3485     1.0  0.68042  0.08825  0.52842  1.0000
  C   C1996     1.0  0.95011  0.42199  0.55892  1.0000
  C   C1997     1.0  0.86715  0.19009  0.49854  1.0000
  H   H3486     1.0  0.67808  0.99491  0.59062  1.0000
  H   H3487     1.0  0.94265  0.35863  0.51430  1.0000
  C   C1998     1.0  0.71271  0.25040  0.50692  1.0000
  C   C1999     1.0  0.96093  0.44278  0.47537  1.0000
  H   H3488     1.0  0.72570  0.27096  0.48343  1.0000
  H   H3489     1.0  0.89061  0.39439  0.54142  1.0000
  C   C2000     1.0  0.95278  0.42798  0.57582  1.0000
  H   H3490     1.0  0.72229  0.11816  0.67645  1.0000
  H   H3491     1.0  0.83555  0.11362  0.49960  1.0000
  H   H3492     1.0  0.94331  0.42618  0.60675  1.0000
  C   C2001     1.0  0.82727  0.16507  0.47905  1.0000
  C   C2002     1.0  0.94140  0.42141  0.59372  1.0000
  H   H3493     1.0  0.84533  0.14507  0.49787  1.0000
  H   H3494     1.0  0.73734  0.21178  0.50108  1.0000
  H   H3495     1.0  0.69888  0.98967  0.63823  1.0000
  H   H3496     1.0  0.68116  0.24858  0.51196  1.0000
  H   H3497     1.0  0.78895  0.41976  0.69802  1.0000
  H   H3498     1.0  0.87213  0.21222  0.68620  1.0000
  H   H3499     1.0  0.88776  0.40878  0.50697  1.0000
  C   C2003     1.0  0.89542  0.29105  0.70536  1.0000
  H   H3500     1.0  0.80742  0.21300  0.48001  1.0000
  H   H3501     1.0  0.80646  0.44554  0.70234  1.0000
  C   C2004     1.0  0.94321  0.14290  0.49645  1.0000
  C   C2005     1.0  0.92978  0.17859  0.49290  1.0000
  C   C2006     1.0  0.96606  0.16818  0.48879  1.0000
  H   H3502     1.0  0.98392  0.39893  0.61450  1.0000
  H   H3503     1.0  0.92862  0.03760  0.49805  1.0000
  C   C2007     1.0  0.92548  0.17828  0.51523  1.0000
  H   H3504     1.0  0.86641  0.34191  0.71664  1.0000
  S   S454      1.0  0.83437  0.41227  0.71870  1.0000
  H   H3505     1.0  0.97354  0.43485  0.62321  1.0000
  C   C2008     1.0  0.97216  0.36321  0.57469  1.0000
  C   C2009     1.0  0.91252  0.19771  0.52057  1.0000
  S   S455      1.0  0.71593  0.98051  0.67318  1.0000
  C   C2010     1.0  0.91023  0.25662  0.65506  1.0000
  C   C2011     1.0  0.95402  0.03070  0.47531  1.0000
  H   H3506     1.0  0.92820  0.14034  0.49510  1.0000
  C   C2012     1.0  0.66507  0.08704  0.52699  1.0000
  C   C2013     1.0  0.72947  0.13135  0.66916  1.0000
  H   H3507     1.0  0.86761  0.38241  0.52461  1.0000
  H   H3508     1.0  0.68398  0.17608  0.65194  1.0000
  C   C2014     1.0  0.84187  0.35452  0.53656  1.0000
  H   H3509     1.0  0.70530  0.15188  0.68177  1.0000
  H   H3510     1.0  0.76252  0.01056  0.66049  1.0000
  H   H3511     1.0  0.67303  0.20308  0.61272  1.0000
  H   H3512     1.0  0.93945  0.17631  0.52119  1.0000
  H   H3513     1.0  0.91729  0.16577  0.52254  1.0000
  H   H3514     1.0  0.85168  0.38227  0.55620  1.0000
  H   H3515     1.0  0.70295  0.14671  0.65860  1.0000
  C   C2015     1.0  0.88813  0.27604  0.69629  1.0000
  H   H3516     1.0  0.65321  0.21940  0.62531  1.0000
  C   C2016     1.0  0.93207  0.03859  0.48198  1.0000
  H   H3517     1.0  0.74162  0.24607  0.52601  1.0000
  H   H3518     1.0  0.96885  0.38462  0.53040  1.0000
  C   C2017     1.0  0.97331  0.36388  0.51023  1.0000
  C   C2018     1.0  0.69449  0.21284  0.68103  1.0000
  N   N108      1.0  0.87446  0.35777  0.54743  1.0000
  H   H3519     1.0  0.72793  0.98089  0.52787  1.0000
  H   H3520     1.0  0.89870  0.20089  0.51416  1.0000
  H   H3521     1.0  0.97415  0.34689  0.57988  1.0000
  H   H3522     1.0  0.92082  0.21050  0.51526  1.0000
  C   C2019     1.0  0.76491  0.19300  0.50595  1.0000
  H   H3523     1.0  0.95088  0.10397  0.51723  1.0000
  H   H3524     1.0  0.75715  0.18093  0.51519  1.0000
  C   C2020     1.0  0.76346  0.98584  0.63341  1.0000
  H   H3525     1.0  0.85387  0.20976  0.67241  1.0000
  C   C2021     1.0  0.89637  0.38472  0.53009  1.0000
  C   C2022     1.0  0.93603  0.40950  0.55997  1.0000
  C   C2023     1.0  0.69302  0.18784  0.64432  1.0000
  C   C2024     1.0  0.92564  0.32234  0.54920  1.0000
  H   H3526     1.0  0.85891  0.33229  0.55571  1.0000
  H   H3527     1.0  0.88740  0.33406  0.56825  1.0000
  C   C2025     1.0  0.71282  0.02136  0.66213  1.0000
  C   C2026     1.0  0.67780  0.20724  0.64101  1.0000
  H   H3528     1.0  0.86290  0.34742  0.58873  1.0000
  H   H3529     1.0  0.93345  0.33396  0.55168  1.0000
  H   H3530     1.0  0.92187  0.31226  0.56314  1.0000
  H   H3531     1.0  0.93579  0.31329  0.53879  1.0000
  H   H3532     1.0  0.85282  0.38045  0.59981  1.0000
  N   N109      1.0  0.81699  0.13500  0.53156  1.0000
  C   C2027     1.0  0.83492  0.11865  0.52961  1.0000
  C   C2028     1.0  0.82079  0.14908  0.54373  1.0000
  C   C2029     1.0  0.79884  0.12550  0.54100  1.0000
  C   C2030     1.0  0.81354  0.14672  0.51200  1.0000
  C   C2031     1.0  0.83146  0.15612  0.49947  1.0000
  C   C2032     1.0  0.83577  0.10493  0.51443  1.0000
  C   C2033     1.0  0.77903  0.14026  0.54483  1.0000
  C   C2034     1.0  0.82012  0.14075  0.56572  1.0000
  C   C2035     1.0  0.82814  0.15431  0.57590  1.0000
  C   C2036     1.0  0.87061  0.17490  0.51415  1.0000
  C   C2037     1.0  0.76255  0.12944  0.55754  1.0000
  H   H3533     1.0  0.83579  0.10860  0.54378  1.0000
  H   H3534     1.0  0.84902  0.12507  0.52608  1.0000
  H   H3535     1.0  0.83566  0.15365  0.53802  1.0000
  H   H3536     1.0  0.81010  0.16340  0.54247  1.0000
  H   H3537     1.0  0.80139  0.11561  0.55494  1.0000
  H   H3538     1.0  0.79609  0.11538  0.53176  1.0000
  H   H3539     1.0  0.80849  0.13736  0.50340  1.0000
  H   H3540     1.0  0.80111  0.15945  0.51381  1.0000
  H   H3541     1.0  0.94479  0.38613  0.65658  1.0000
  H   H3542     1.0  0.83413  0.16835  0.50622  1.0000
  H   H3543     1.0  0.82301  0.09658  0.51833  1.0000
  H   H3544     1.0  0.77388  0.14719  0.53089  1.0000
  H   H3545     1.0  0.78065  0.15243  0.55223  1.0000
  H   H3546     1.0  0.80455  0.13970  0.57298  1.0000
  H   H3547     1.0  0.82914  0.12565  0.56810  1.0000
  H   H3548     1.0  0.84453  0.15324  0.57131  1.0000
  H   H3549     1.0  0.82110  0.17016  0.57241  1.0000
  H   H3550     1.0  0.82498  0.14955  0.59190  1.0000
  N   N110      1.0  0.94686  0.16324  0.48536  1.0000
  H   H3551     1.0  0.74846  0.14023  0.55971  1.0000
  H   H3552     1.0  0.75990  0.11733  0.55057  1.0000
  H   H3553     1.0  0.76655  0.12294  0.57208  1.0000
  N   N111      1.0  0.87366  0.27335  0.66565  1.0000
  C   C2038     1.0  0.86795  0.25418  0.67786  1.0000
  H   H3554     1.0  0.87694  0.26890  0.70758  1.0000
  C   C2039     1.0  0.85581  0.28441  0.65668  1.0000
  C   C2040     1.0  0.89077  0.26943  0.64931  1.0000
  C   C2041     1.0  0.92550  0.25228  0.63701  1.0000
  C   C2042     1.0  0.86207  0.23940  0.66691  1.0000
  C   C2043     1.0  0.85779  0.30564  0.64501  1.0000
  H   H3555     1.0  0.96325  0.09226  0.49644  1.0000
  H   H3556     1.0  0.73313  0.20434  0.65476  1.0000
  C   C2044     1.0  0.87395  0.18661  0.47948  1.0000
  C   C2045     1.0  0.97419  0.39425  0.64572  1.0000
  C   C2046     1.0  0.83836  0.31582  0.63791  1.0000
  H   H3557     1.0  0.97317  0.12506  0.49450  1.0000
  H   H3558     1.0  0.88021  0.24564  0.68544  1.0000
  H   H3559     1.0  0.90191  0.28325  0.71839  1.0000
  C   C2047     1.0  0.72994  0.25498  0.48984  1.0000
  H   H3560     1.0  0.84231  0.28591  0.66819  1.0000
  H   H3561     1.0  0.85245  0.27591  0.64627  1.0000
  H   H3562     1.0  0.88614  0.26263  0.63828  1.0000
  N   N112      1.0  0.75073  0.25137  0.49461  1.0000
  H   H3563     1.0  0.90709  0.29831  0.69480  1.0000
  H   H3564     1.0  0.90758  0.24202  0.66397  1.0000
  H   H3565     1.0  0.84811  0.24588  0.66109  1.0000
  H   H3566     1.0  0.87404  0.23545  0.65471  1.0000
  H   H3567     1.0  0.86952  0.30471  0.63195  1.0000
  H   H3568     1.0  0.86152  0.31552  0.65388  1.0000
  H   H3569     1.0  0.97963  0.38483  0.65875  1.0000
  H   H3570     1.0  0.90783  0.38955  0.49889  1.0000
  H   H3571     1.0  0.88659  0.36338  0.51659  1.0000
  C   C2048     1.0  0.79676  0.47265  0.67387  1.0000
  H   H3572     1.0  0.72772  0.27108  0.54722  1.0000
  H   H3573     1.0  0.76346  0.99795  0.62055  1.0000
  C   C2049     1.0  0.65637  0.15280  0.68800  1.0000
  H   H3574     1.0  0.66304  0.03668  0.61164  1.0000
  H   H3575     1.0  0.83410  0.45688  0.69958  1.0000
  C   C2050     1.0  0.74489  0.27729  0.51805  1.0000
  S   S456      1.0  0.97699  0.32416  0.61831  1.0000
  H   H3576     1.0  0.82611  0.31790  0.65044  1.0000
  H   H3577     1.0  0.84036  0.33077  0.62933  1.0000
  H   H3578     1.0  0.83420  0.30680  0.62843  1.0000
  H   H3579     1.0  0.94902  0.39624  0.63105  1.0000
  N   N113      1.0  0.70899  0.18845  0.65564  1.0000
  C   C2051     1.0  0.70172  0.00343  0.64136  1.0000
  H   H3580     1.0  0.70995  0.26154  0.51691  1.0000
  H   H3581     1.0  0.86471  0.29628  0.68432  1.0000
  C   C2052     1.0  0.71347  0.14991  0.66700  1.0000
  H   H3582     1.0  0.76226  0.22705  0.47798  1.0000
  C   C2053     1.0  0.97774  0.32589  0.54908  1.0000
  H   H3583     1.0  0.67277  0.03360  0.57758  1.0000
  H   H3584     1.0  0.95875  0.42711  0.54503  1.0000
  H   H3585     1.0  0.88823  0.29719  0.66933  1.0000
  C   C2054     1.0  0.75108  0.25522  0.51471  1.0000
  H   H3586     1.0  0.85943  0.20472  0.50104  1.0000
  H   H3587     1.0  0.81320  0.17587  0.47995  1.0000
  H   H3588     1.0  0.66895  0.05957  0.58001  1.0000
  C   C2055     1.0  0.75101  0.21309  0.50631  1.0000
  H   H3589     1.0  0.77848  0.19328  0.51187  1.0000
  H   H3590     1.0  0.90097  0.26431  0.69272  1.0000
  C   C2056     1.0  0.97215  0.37298  0.59218  1.0000
  C   C2057     1.0  0.69330  0.25146  0.49946  1.0000
  H   H3591     1.0  0.90079  0.35420  0.56063  1.0000
  H   H3592     1.0  0.95382  0.36603  0.48935  1.0000
  H   H3593     1.0  0.87031  0.33596  0.53108  1.0000
  C   C2058     1.0  0.95206  0.10496  0.50128  1.0000
  H   H3594     1.0  0.73690  0.29464  0.54171  1.0000
  C   C2059     1.0  0.85215  0.35882  0.58137  1.0000
  C   C2060     1.0  0.74075  0.98241  0.60294  1.0000
  C   C2061     1.0  0.82997  0.33899  0.53405  1.0000
  H   H3595     1.0  0.81580  0.34665  0.52914  1.0000
  C   C2062     1.0  0.98380  0.30418  0.55828  1.0000
  H   H3596     1.0  0.92945  0.26646  0.62795  1.0000
  H   H3597     1.0  0.75429  0.22168  0.62512  1.0000
  C   C2063     1.0  0.90682  0.33224  0.54093  1.0000
  H   H3598     1.0  0.70929  0.97958  0.60737  1.0000
  H   H3599     1.0  0.68628  0.18393  0.68134  1.0000
  H   H3600     1.0  0.84620  0.22296  0.69290  1.0000
  C   C2064     1.0  0.86195  0.34418  0.54301  1.0000
  H   H3601     1.0  0.66448  0.14335  0.71642  1.0000
  C   C2065     1.0  0.86294  0.37030  0.56249  1.0000
  H   H3602     1.0  0.77654  0.22837  0.49574  1.0000
  C   C2066     1.0  0.74283  0.22133  0.61637  1.0000
  C   C2067     1.0  0.72316  0.98205  0.54354  1.0000
  C   C2068     1.0  0.85836  0.21992  0.68051  1.0000
  H   H3603     1.0  0.74704  0.21538  0.52166  1.0000
  H   H3604     1.0  0.73776  0.12835  0.65465  1.0000
  S   S457      1.0  0.98180  0.46174  0.51754  1.0000
  H   H3605     1.0  0.72111  0.20364  0.61516  1.0000
  H   H3606     1.0  0.66305  0.11383  0.50606  1.0000
  H   H3607     1.0  0.96919  0.40975  0.64873  1.0000
  H   H3608     1.0  0.87307  0.37843  0.56714  1.0000
  C   C2069     1.0  0.73196  0.20346  0.62472  1.0000
  H   H3609     1.0  0.95928  0.36236  0.54055  1.0000
  H   H3610     1.0  0.83244  0.36353  0.54735  1.0000
  H   H3611     1.0  0.70832  0.21910  0.68008  1.0000
  H   H3612     1.0  0.85523  0.07999  0.50236  1.0000
  H   H3613     1.0  0.72959  0.24623  0.47831  1.0000
  H   H3614     1.0  0.67975  0.22895  0.70477  1.0000
  H   H3615     1.0  0.74009  0.13335  0.67813  1.0000
  H   H3616     1.0  0.76690  0.45227  0.70382  1.0000
  H   H3617     1.0  0.89971  0.32012  0.53834  1.0000
  C   C2070     1.0  0.95598  0.38644  0.64299  1.0000
  H   H3618     1.0  0.91712  0.26493  0.66312  1.0000
  C   C2071     1.0  0.97245  0.36802  0.53110  1.0000
  H   H3619     1.0  0.96495  0.18460  0.48833  1.0000
  H   H3620     1.0  0.91159  0.34143  0.52677  1.0000
  H   H3621     1.0  0.91571  0.17689  0.48862  1.0000
  H   H3622     1.0  0.75645  0.28113  0.48102  1.0000
  C   C2072     1.0  0.76306  0.26525  0.48013  1.0000
  Fe  Fe228     1.0  0.66958  0.13267  0.60689  1.0000
  H   H3623     1.0  0.83857  0.32974  0.52302  1.0000
  H   H3624     1.0  0.95890  0.44765  0.48930  1.0000
  H   H3625     1.0  0.75728  0.28581  0.51127  1.0000
  H   H3626     1.0  0.77837  0.26322  0.48368  1.0000
  C   C2073     1.0  0.96759  0.04291  0.48154  1.0000
  H   H3627     1.0  0.91050  0.37529  0.53346  1.0000
  H   H3628     1.0  0.97130  0.33677  0.65641  1.0000
  C   C2074     1.0  0.90133  0.39846  0.51077  1.0000
  H   H3629     1.0  0.95745  0.36837  0.57006  1.0000
  S   S458      1.0  0.97078  0.44301  0.57499  1.0000
  H   H3630     1.0  0.85521  0.25777  0.68966  1.0000
  H   H3631     1.0  0.78906  0.00996  0.65725  1.0000
  C   C2075     1.0  0.72283  0.16858  0.65615  1.0000
  C   C2076     1.0  0.88387  0.16773  0.47584  1.0000
  H   H3632     1.0  0.96547  0.33271  0.55944  1.0000
  H   H3633     1.0  0.75043  0.22008  0.60123  1.0000
  C   C2077     1.0  0.84872  0.39191  0.70751  1.0000
  H   H3634     1.0  0.78876  0.45984  0.67537  1.0000
  H   H3635     1.0  0.97158  0.32571  0.53590  1.0000
  H   H3636     1.0  0.75381  0.27157  0.54658  1.0000
  C   C2078     1.0  0.65405  0.10773  0.51981  1.0000
  H   H3637     1.0  0.72897  0.16532  0.64118  1.0000
  H   H3638     1.0  0.73747  0.99753  0.60718  1.0000
  H   H3639     1.0  0.74914  0.98962  0.64330  1.0000
  C   C2079     1.0  0.72140  0.20457  0.64603  1.0000
  H   H3640     1.0  0.76633  0.25020  0.51828  1.0000
  H   H3641     1.0  0.71035  0.18321  0.68656  1.0000
  H   H3642     1.0  0.91238  0.40765  0.51201  1.0000
  C   C2080     1.0  0.83168  0.47312  0.70016  1.0000
  H   H3643     1.0  0.77596  0.02071  0.63724  1.0000
  H   H3644     1.0  0.73591  0.16910  0.66283  1.0000
  C   C2081     1.0  0.66420  0.20544  0.62721  1.0000
  H   H3645     1.0  0.71896  0.99191  0.58370  1.0000
  C   C2082     1.0  0.76099  0.23021  0.49294  1.0000
  H   H3646     1.0  0.96027  0.37103  0.63950  1.0000
  H   H3647     1.0  0.86822  0.09727  0.50879  1.0000
  C   C2083     1.0  0.78047  0.98803  0.64370  1.0000
  H   H3648     1.0  0.76930  0.18957  0.49090  1.0000
  H   H3649     1.0  0.94298  0.14211  0.51225  1.0000
  C   C2084     1.0  0.87848  0.28655  0.67826  1.0000
  H   H3650     1.0  0.97254  0.38922  0.58775  1.0000
  H   H3651     1.0  0.65673  0.04419  0.64002  1.0000
  H   H3652     1.0  0.93746  0.10360  0.49796  1.0000
  S   S459      1.0  0.66751  0.12963  0.68035  1.0000
  S   S460      1.0  0.66185  0.10943  0.63263  1.0000
  H   H3653     1.0  0.96463  0.04015  0.49769  1.0000
  H   H3654     1.0  0.93931  0.24301  0.64146  1.0000
  H   H3655     1.0  0.89508  0.28376  0.64117  1.0000
  C   C2085     1.0  0.66442  0.98871  0.59547  1.0000
  H   H3656     1.0  0.73151  0.28466  0.51158  1.0000
  H   H3657     1.0  0.71968  0.99815  0.54501  1.0000
  H   H3658     1.0  0.71233  0.21969  0.64584  1.0000
  C   C2086     1.0  0.68280  0.21338  0.70163  1.0000
  H   H3659     1.0  0.93243  0.19399  0.48604  1.0000
  H   H3660     1.0  0.97074  0.29623  0.56141  1.0000
  H   H3661     1.0  0.79503  0.98654  0.63376  1.0000
  H   H3662     1.0  0.86360  0.47242  0.69672  1.0000
  H   H3663     1.0  0.81279  0.46651  0.67310  1.0000
  H   H3664     1.0  0.90819  0.19632  0.53663  1.0000
  H   H3665     1.0  0.96050  0.12432  0.47481  1.0000
  H   H3666     1.0  0.97977  0.34812  0.50880  1.0000
  H   H3667     1.0  0.92823  0.05442  0.47510  1.0000
  C   C2087     1.0  0.77673  0.00860  0.65001  1.0000
  H   H3668     1.0  0.66810  0.20993  0.65501  1.0000
  H   H3669     1.0  0.66608  0.07664  0.51658  1.0000
  H   H3670     1.0  0.85584  0.07984  0.52762  1.0000
  H   H3671     1.0  0.95685  0.01478  0.48216  1.0000
  C   C2088     1.0  0.66134  0.04641  0.58172  1.0000
  H   H3672     1.0  0.65531  0.10978  0.47885  1.0000
  C   C2089     1.0  0.84985  0.47737  0.70680  1.0000
  N   N114      1.0  0.79327  0.47449  0.71083  1.0000
  H   H3673     1.0  0.79959  0.47695  0.64245  1.0000
  H   H3674     1.0  0.97433  0.47012  0.62039  1.0000
  H   H3675     1.0  0.75338  0.98198  0.59061  1.0000
  C   C2090     1.0  0.85289  0.37268  0.71804  1.0000
  H   H3676     1.0  0.76577  0.41594  0.71395  1.0000
  C   C2091     1.0  0.77998  0.42162  0.71256  1.0000
  C   C2092     1.0  0.79516  0.45198  0.71383  1.0000
  C   C2093     1.0  0.77564  0.44365  0.71505  1.0000
  C   C2094     1.0  0.65885  0.05598  0.67212  1.0000
  C   C2095     1.0  0.72247  0.97946  0.59559  1.0000
  H   H3677     1.0  0.65425  0.07015  0.63268  1.0000
  H   H3678     1.0  0.65472  0.05890  0.68735  1.0000
  H   H3679     1.0  0.65738  0.08077  0.54149  1.0000
  S   S461      1.0  0.65447  0.00701  0.56042  1.0000
  H   H3680     1.0  0.98274  0.37366  0.49952  1.0000
  H   H3681     1.0  0.98522  0.36582  0.59921  1.0000
  C   C2096     1.0  0.98541  0.16218  0.47444  1.0000
  H   H3682     1.0  0.65384  0.11742  0.53064  1.0000
  H   H3683     1.0  0.82608  0.15312  0.47109  1.0000
  C   C2097     1.0  0.97625  0.42716  0.47059  1.0000
  H   H3684     1.0  0.83957  0.17306  0.47075  1.0000
  H   H3685     1.0  0.68073  0.33310  0.81115  1.0000
  C   C2098     1.0  0.69352  0.40925  0.84664  1.0000
  H   H3686     1.0  0.69862  0.28594  0.81634  1.0000
  H   H3687     1.0  0.68608  0.31339  0.77463  1.0000
  H   H3688     1.0  0.70570  0.41435  0.83511  1.0000
  S   S462      1.0  0.86820  0.44288  0.87995  1.0000
  H   H3689     1.0  0.81575  0.47861  0.82391  1.0000
  S   S463      1.0  0.95988  0.46232  0.89253  1.0000
  C   C2099     1.0  0.69552  0.43411  0.86615  1.0000
  S   S464      1.0  0.90203  0.46682  0.90637  1.0000
  H   H3690     1.0  0.68112  0.24725  0.79556  1.0000
  Fe  Fe229     1.0  0.68749  0.31749  0.88928  1.0000
  H   H3691     1.0  0.84375  0.46768  0.95191  1.0000
  S   S465      1.0  0.70915  0.30586  0.91042  1.0000
  Fe  Fe230     1.0  0.68449  0.34298  0.84963  1.0000
  H   H3692     1.0  0.71981  0.27390  0.80232  1.0000
  S   S466      1.0  0.69953  0.36260  0.82344  1.0000
  H   H3693     1.0  0.70726  0.24426  0.79683  1.0000
  H   H3694     1.0  0.85137  0.47128  0.80966  1.0000
  H   H3695     1.0  0.88774  0.43764  0.76052  1.0000
  S   S467      1.0  0.65790  0.30778  0.89196  1.0000
  S   S468      1.0  0.67688  0.35011  0.88008  1.0000
  S   S469      1.0  0.69725  0.31089  0.85862  1.0000
  Fe  Fe231     1.0  0.80397  0.40049  0.79234  1.0000
  S   S470      1.0  0.83531  0.39150  0.77676  1.0000
  S   S471      1.0  0.78871  0.37781  0.81539  1.0000
  Fe  Fe232     1.0  0.84232  0.41785  0.78702  1.0000
  S   S472      1.0  0.87060  0.41667  0.79867  1.0000
  S   S473      1.0  0.81194  0.42526  0.80414  1.0000
  N   N115      1.0  0.69617  0.41207  0.86645  1.0000
  H   H3696     1.0  0.88987  0.45725  0.79759  1.0000
  H   H3697     1.0  0.73544  0.40152  0.84172  1.0000
  C   C2100     1.0  0.75377  0.39500  0.86374  1.0000
  H   H3698     1.0  0.71520  0.43218  0.88754  1.0000
  H   H3699     1.0  0.68843  0.33927  0.96940  1.0000
  H   H3700     1.0  0.65758  0.42294  0.81615  1.0000
  H   H3701     1.0  0.68038  0.44249  0.86445  1.0000
  C   C2101     1.0  0.72408  0.36725  0.82174  1.0000
  C   C2102     1.0  0.73211  0.38049  0.80576  1.0000
  C   C2103     1.0  0.75181  0.38408  0.80367  1.0000
  C   C2104     1.0  0.76374  0.37418  0.81742  1.0000
  C   C2105     1.0  0.75565  0.36100  0.83342  1.0000
  C   C2106     1.0  0.73580  0.35783  0.83579  1.0000
  H   H3702     1.0  0.72309  0.38793  0.79488  1.0000
  H   H3703     1.0  0.75785  0.39427  0.79130  1.0000
  H   H3704     1.0  0.76480  0.35318  0.84405  1.0000
  H   H3705     1.0  0.72976  0.34770  0.84823  1.0000
  C   C2107     1.0  0.70978  0.31043  0.93399  1.0000
  C   C2108     1.0  0.69673  0.32543  0.94324  1.0000
  H   H3706     1.0  0.70366  0.46622  0.89521  1.0000
  H   H3707     1.0  0.78834  0.41250  0.72393  1.0000
  S   S474      1.0  0.91802  0.46677  0.85931  1.0000
  C   C2109     1.0  0.72455  0.29825  0.94363  1.0000
  H   H3708     1.0  0.68552  0.33518  0.93573  1.0000
  C   C2110     1.0  0.74870  0.31458  0.74161  1.0000
  C   C2111     1.0  0.70041  0.46240  0.88182  1.0000
  H   H3709     1.0  0.73480  0.28680  0.93660  1.0000
  H   H3710     1.0  0.71588  0.38373  0.87005  1.0000
  Fe  Fe233     1.0  0.80482  0.44502  0.77673  1.0000
  S   S475      1.0  0.83584  0.43939  0.76026  1.0000
  H   H3711     1.0  0.70555  0.44053  0.85313  1.0000
  Fe  Fe234     1.0  0.82616  0.41369  0.75124  1.0000
  Fe  Fe235     1.0  0.92932  0.47326  0.88459  1.0000
  H   H3712     1.0  0.76693  0.39793  0.85245  1.0000
  H   H3713     1.0  0.75573  0.32774  0.73391  1.0000
  S   S476      1.0  0.65390  0.33624  0.84951  1.0000
  H   H3714     1.0  0.84771  0.37000  0.73357  1.0000
  H   H3715     1.0  0.80099  0.44528  0.72754  1.0000
  C   C2112     1.0  0.86903  0.43687  0.85678  1.0000
  C   C2113     1.0  0.85148  0.43988  0.84894  1.0000
  C   C2114     1.0  0.85181  0.43393  0.83101  1.0000
  C   C2115     1.0  0.86959  0.42462  0.82103  1.0000
  C   C2116     1.0  0.88710  0.42162  0.82890  1.0000
  C   C2117     1.0  0.88686  0.42784  0.84664  1.0000
  H   H3716     1.0  0.83767  0.44690  0.85671  1.0000
  H   H3717     1.0  0.83839  0.43674  0.82483  1.0000
  H   H3718     1.0  0.90093  0.41449  0.82124  1.0000
  H   H3719     1.0  0.90042  0.42530  0.85269  1.0000
  C   C2118     1.0  0.88931  0.44972  0.74775  1.0000
  C   C2119     1.0  0.67383  0.42049  0.83981  1.0000
  N   N116      1.0  0.71098  0.30490  0.79026  1.0000
  C   C2120     1.0  0.72507  0.30158  0.77157  1.0000
  C   C2121     1.0  0.70592  0.28491  0.80100  1.0000
  C   C2122     1.0  0.69259  0.31903  0.78520  1.0000
  C   C2123     1.0  0.72040  0.31395  0.80312  1.0000
  C   C2124     1.0  0.74038  0.30183  0.80856  1.0000
  C   C2125     1.0  0.73512  0.31972  0.76035  1.0000
  C   C2126     1.0  0.69847  0.32782  0.96222  1.0000
  C   C2127     1.0  0.69237  0.27524  0.79185  1.0000
  C   C2128     1.0  0.69240  0.25326  0.80089  1.0000
  C   C2129     1.0  0.74963  0.31319  0.81990  1.0000
  H   H3720     1.0  0.69446  0.39300  0.84634  1.0000
  H   H3721     1.0  0.66065  0.41810  0.85115  1.0000
  H   H3722     1.0  0.71714  0.29731  0.76126  1.0000
  H   H3723     1.0  0.73710  0.28862  0.77422  1.0000
  H   H3724     1.0  0.76624  0.44463  0.72958  1.0000
  C   C2130     1.0  0.65687  0.33511  0.79553  1.0000
  H   H3725     1.0  0.76071  0.30187  0.74492  1.0000
  H   H3726     1.0  0.69647  0.33382  0.77770  1.0000
  H   H3727     1.0  0.72251  0.32959  0.79659  1.0000
  H   H3728     1.0  0.71016  0.31547  0.81711  1.0000
  H   H3729     1.0  0.75149  0.29868  0.79551  1.0000
  H   H3730     1.0  0.73787  0.28735  0.81790  1.0000
  H   H3731     1.0  0.72384  0.33282  0.75626  1.0000
  H   H3732     1.0  0.74447  0.32425  0.76916  1.0000
  S   S477      1.0  0.66266  0.27599  0.84981  1.0000
  H   H3733     1.0  0.68562  0.47095  0.87919  1.0000
  H   H3734     1.0  0.67676  0.28316  0.79433  1.0000
  H   H3735     1.0  0.69731  0.27582  0.77597  1.0000
  H   H3736     1.0  0.66810  0.39774  0.82522  1.0000
  H   H3737     1.0  0.83559  0.47651  0.79159  1.0000
  H   H3738     1.0  0.86793  0.46362  0.77889  1.0000
  H   H3739     1.0  0.73940  0.31597  0.83362  1.0000
  H   H3740     1.0  0.76383  0.30420  0.82369  1.0000
  H   H3741     1.0  0.75288  0.32768  0.81102  1.0000
  H   H3742     1.0  0.65310  0.40311  0.91625  1.0000
  Fe  Fe236     1.0  0.66629  0.30432  0.86030  1.0000
  H   H3743     1.0  0.68406  0.41460  0.81001  1.0000
  H   H3744     1.0  0.73507  0.42205  0.85408  1.0000
  C   C2131     1.0  0.71594  0.39985  0.87035  1.0000
  C   C2132     1.0  0.67910  0.40450  0.88126  1.0000
  C   C2133     1.0  0.70034  0.43988  0.88444  1.0000
  C   C2134     1.0  0.68348  0.39435  0.90178  1.0000
  C   C2135     1.0  0.66446  0.38943  0.91545  1.0000
  H   H3745     1.0  0.71837  0.40037  0.88516  1.0000
  H   H3746     1.0  0.66624  0.41683  0.88327  1.0000
  H   H3747     1.0  0.67312  0.39313  0.87588  1.0000
  H   H3748     1.0  0.68878  0.43617  0.89721  1.0000
  H   H3749     1.0  0.69392  0.37999  0.90088  1.0000
  H   H3750     1.0  0.69017  0.40402  0.90851  1.0000
  H   H3751     1.0  0.98320  0.45519  0.84852  1.0000
  H   H3752     1.0  0.65977  0.34933  0.78588  1.0000
  H   H3753     1.0  0.66784  0.38322  0.93025  1.0000
  H   H3754     1.0  0.73999  0.31061  0.73180  1.0000
  C   C2136     1.0  0.73477  0.40577  0.85613  1.0000
  Fe  Fe237     1.0  0.88955  0.46364  0.88041  1.0000
  H   H3755     1.0  0.75386  0.37858  0.86716  1.0000
  H   H3756     1.0  0.90304  0.44492  0.73757  1.0000
  H   H3757     1.0  0.85995  0.47825  0.93097  1.0000
  C   C2137     1.0  0.89164  0.47035  0.80354  1.0000
  N   N117      1.0  0.82291  0.37488  0.86029  1.0000
  C   C2138     1.0  0.81535  0.39623  0.85191  1.0000
  C   C2139     1.0  0.83490  0.36359  0.84435  1.0000
  C   C2140     1.0  0.80482  0.36493  0.86911  1.0000
  C   C2141     1.0  0.83482  0.37386  0.87612  1.0000
  C   C2142     1.0  0.85352  0.38421  0.87026  1.0000
  C   C2143     1.0  0.80407  0.41009  0.86678  1.0000
  C   C2144     1.0  0.80890  0.34201  0.87642  1.0000
  C   C2145     1.0  0.84816  0.37522  0.82740  1.0000
  C   C2146     1.0  0.86191  0.36113  0.81446  1.0000
  C   C2147     1.0  0.86130  0.38679  0.88810  1.0000
  C   C2148     1.0  0.79513  0.43043  0.85647  1.0000
  C   C2149     1.0  0.78937  0.33383  0.88442  1.0000
  H   H3758     1.0  0.80550  0.39628  0.84131  1.0000
  H   H3759     1.0  0.82763  0.40396  0.84333  1.0000
  H   H3760     1.0  0.84455  0.35003  0.85069  1.0000
  H   H3761     1.0  0.82475  0.35798  0.83703  1.0000
  H   H3762     1.0  0.79457  0.36738  0.85832  1.0000
  H   H3763     1.0  0.79613  0.37169  0.88183  1.0000
  H   H3764     1.0  0.82509  0.38003  0.88878  1.0000
  H   H3765     1.0  0.84034  0.35805  0.88193  1.0000
  H   H3766     1.0  0.85047  0.39923  0.86161  1.0000
  H   H3767     1.0  0.86567  0.37486  0.86168  1.0000
  H   H3768     1.0  0.79163  0.40365  0.87670  1.0000
  H   H3769     1.0  0.81446  0.41280  0.87565  1.0000
  H   H3770     1.0  0.81779  0.33853  0.88832  1.0000
  H   H3771     1.0  0.81698  0.33371  0.86451  1.0000
  H   H3772     1.0  0.83856  0.38610  0.81816  1.0000
  H   H3773     1.0  0.85755  0.38365  0.83248  1.0000
  H   H3774     1.0  0.87077  0.37000  0.80221  1.0000
  H   H3775     1.0  0.87241  0.35032  0.82284  1.0000
  H   H3776     1.0  0.85307  0.35284  0.80832  1.0000
  H   H3777     1.0  0.85015  0.39702  0.89669  1.0000
  H   H3778     1.0  0.86482  0.37212  0.89742  1.0000
  H   H3779     1.0  0.87512  0.39359  0.88333  1.0000
  H   H3780     1.0  0.78432  0.42863  0.84759  1.0000
  H   H3781     1.0  0.78722  0.44004  0.86741  1.0000
  H   H3782     1.0  0.80699  0.43816  0.84686  1.0000
  H   H3783     1.0  0.78080  0.34121  0.89681  1.0000
  H   H3784     1.0  0.78008  0.33625  0.87289  1.0000
  H   H3785     1.0  0.79263  0.31748  0.88966  1.0000
  H   H3786     1.0  0.75500  0.40051  0.87706  1.0000
  H   H3787     1.0  0.90415  0.46631  0.76120  1.0000
  S   S478      1.0  0.79409  0.42096  0.76605  1.0000
  H   H3788     1.0  0.86792  0.45364  0.94366  1.0000
  H   H3789     1.0  0.71205  0.46700  0.86942  1.0000
  H   H3790     1.0  0.91508  0.47818  0.81563  1.0000
  H   H3791     1.0  0.66260  0.12731  0.77668  1.0000
  H   H3792     1.0  0.66154  0.13980  0.75210  1.0000
  H   H3793     1.0  0.87635  0.45173  0.74023  1.0000
  C   C2150     1.0  0.67594  0.32362  0.80259  1.0000
  C   C2151     1.0  0.85955  0.46879  0.94555  1.0000
  H   H3794     1.0  0.73133  0.25362  0.96410  1.0000
  C   C2152     1.0  0.72631  0.30063  0.96225  1.0000
  H   H3795     1.0  0.77943  0.47395  0.74109  1.0000
  H   H3796     1.0  0.73795  0.29104  0.96931  1.0000
  H   H3797     1.0  0.68867  0.25164  0.81700  1.0000
  H   H3798     1.0  0.92403  0.46260  0.79694  1.0000
  H   H3799     1.0  0.91301  0.45205  0.82091  1.0000
  C   C2153     1.0  0.67079  0.41349  0.82167  1.0000
  H   H3800     1.0  0.65823  0.37812  0.91030  1.0000
  H   H3801     1.0  0.67226  0.30984  0.81245  1.0000
  C   C2154     1.0  0.91220  0.46557  0.80958  1.0000
  H   H3802     1.0  0.85111  0.46904  0.72162  1.0000
  H   H3803     1.0  0.81473  0.47318  0.72917  1.0000
  H   H3804     1.0  0.88040  0.47201  0.81689  1.0000
  H   H3805     1.0  0.67424  0.43682  0.83611  1.0000
  H   H3806     1.0  0.65495  0.24019  0.83964  1.0000
  H   H3807     1.0  0.65411  0.32409  0.95513  1.0000
  C   C2155     1.0  0.86899  0.47826  0.95846  1.0000
  C   C2156     1.0  0.89084  0.46924  0.75407  1.0000
  S   S479      1.0  0.78690  0.47562  0.77988  1.0000
  C   C2157     1.0  0.87168  0.47676  0.76794  1.0000
  S   S480      1.0  0.92138  0.52074  0.03194  1.0000
  Fe  Fe238     1.0  0.90843  0.57863  0.02269  1.0000
  S   S481      1.0  0.90825  0.56087  0.05241  1.0000
  S   S482      1.0  0.90000  0.61212  0.01942  1.0000
  Fe  Fe239     1.0  0.93673  0.54310  0.03987  1.0000
  S   S483      1.0  0.96224  0.53269  0.05662  1.0000
  Fe  Fe240     1.0  0.89287  0.54059  0.04179  1.0000
  S   S484      1.0  0.86430  0.53427  0.06131  1.0000
  S   S485      1.0  0.89135  0.55944  0.01246  1.0000
  Fe  Fe241     1.0  0.84663  0.62814  0.12320  1.0000
  S   S486      1.0  0.82184  0.61273  0.12087  1.0000
  S   S487      1.0  0.86479  0.64552  0.09816  1.0000
  Fe  Fe242     1.0  0.83967  0.62072  0.16758  1.0000
  S   S488      1.0  0.81407  0.60416  0.16910  1.0000
  S   S489      1.0  0.84965  0.62429  0.19541  1.0000
  Fe  Fe243     1.0  0.83314  0.58924  0.14469  1.0000
  S   S490      1.0  0.84015  0.55625  0.14136  1.0000
  Fe  Fe244     1.0  0.80447  0.62870  0.14520  1.0000
  S   S491      1.0  0.77292  0.64589  0.14645  1.0000
  S   S492      1.0  0.85959  0.60375  0.14503  1.0000
  S   S493      1.0  0.82848  0.64610  0.14565  1.0000
  S   S494      1.0  0.78251  0.49296  0.14749  1.0000
  H   H3808     1.0  0.90417  0.61338  0.13222  1.0000
  H   H3809     1.0  0.70385  0.89405  0.19745  1.0000
  H   H3810     1.0  0.85011  0.51834  0.18181  1.0000
  H   H3811     1.0  0.90897  0.64307  0.14370  1.0000
  H   H3812     1.0  0.96620  0.57160  0.03315  1.0000
  C   C2158     1.0  0.87437  0.49393  0.06004  1.0000
  H   H3813     1.0  0.89522  0.75363  0.18738  1.0000
  H   H3814     1.0  0.79279  0.54227  0.07546  1.0000
  C   C2159     1.0  0.94593  0.60860  0.06337  1.0000
  Fe  Fe245     1.0  0.70361  0.68395  0.06312  1.0000
  S   S495      1.0  0.70765  0.71300  0.04323  1.0000
  S   S496      1.0  0.73114  0.66234  0.07162  1.0000
  H   H3815     1.0  0.66921  0.80301  0.15986  1.0000
  H   H3816     1.0  0.72400  0.48174  0.98815  1.0000
  Fe  Fe246     1.0  0.69154  0.70307  0.02328  1.0000
  C   C2160     1.0  0.98083  0.49862  0.98492  1.0000
  S   S497      1.0  0.68920  0.67328  0.04219  1.0000
  H   H3817     1.0  0.85746  0.71485  0.03240  1.0000
  H   H3818     1.0  0.87513  0.53752  0.18455  1.0000
  S   S498      1.0  0.93856  0.56270  0.01076  1.0000
  H   H3819     1.0  0.95938  0.61592  0.03306  1.0000
  H   H3820     1.0  0.85122  0.49578  0.02524  1.0000
  C   C2161     1.0  0.65374  0.76518  0.08504  1.0000
  H   H3821     1.0  0.92699  0.58647  0.07074  1.0000
  H   H3822     1.0  0.95933  0.59718  0.06547  1.0000
  H   H3823     1.0  0.94808  0.62269  0.06730  1.0000
  C   C2162     1.0  0.86066  0.64331  0.20118  1.0000
  C   C2163     1.0  0.86369  0.66094  0.18821  1.0000
  C   C2164     1.0  0.87160  0.67592  0.19386  1.0000
  H   H3824     1.0  0.89649  0.80558  0.21174  1.0000
  C   C2165     1.0  0.88413  0.56332  0.11095  1.0000
  H   H3825     1.0  0.83804  0.52832  0.00618  1.0000
  H   H3826     1.0  0.85992  0.66307  0.17384  1.0000
  H   H3827     1.0  0.87379  0.68950  0.18373  1.0000
  H   H3828     1.0  0.76675  0.54069  0.07842  1.0000
  H   H3829     1.0  0.93783  0.79561  0.21535  1.0000
  C   C2166     1.0  0.76126  0.65075  0.12565  1.0000
  C   C2167     1.0  0.77035  0.64239  0.10903  1.0000
  C   C2168     1.0  0.76090  0.64638  0.09267  1.0000
  C   C2169     1.0  0.74229  0.65877  0.09262  1.0000
  C   C2170     1.0  0.73321  0.66734  0.10916  1.0000
  C   C2171     1.0  0.74266  0.66327  0.12565  1.0000
  H   H3830     1.0  0.78461  0.63278  0.10879  1.0000
  H   H3831     1.0  0.76808  0.63990  0.07990  1.0000
  H   H3832     1.0  0.71884  0.67688  0.10933  1.0000
  H   H3833     1.0  0.73549  0.66983  0.13845  1.0000
  C   C2172     1.0  0.82346  0.53941  0.14273  1.0000
  C   C2173     1.0  0.80495  0.54075  0.15499  1.0000
  C   C2174     1.0  0.79250  0.52647  0.15625  1.0000
  C   C2175     1.0  0.79850  0.51070  0.14538  1.0000
  C   C2176     1.0  0.81698  0.50944  0.13307  1.0000
  C   C2177     1.0  0.82938  0.52372  0.13176  1.0000
  H   H3834     1.0  0.80031  0.55264  0.16366  1.0000
  H   H3835     1.0  0.77822  0.52755  0.16584  1.0000
  H   H3836     1.0  0.82170  0.49749  0.12447  1.0000
  H   H3837     1.0  0.84361  0.52266  0.12205  1.0000
  H   H3838     1.0  0.83975  0.69150  0.02223  1.0000
  C   C2178     1.0  0.86024  0.50941  0.06706  1.0000
  C   C2179     1.0  0.84221  0.50518  0.07856  1.0000
  H   H3839     1.0  0.88568  0.49504  0.15748  1.0000
  H   H3840     1.0  0.65502  0.76006  0.02498  1.0000
  Fe  Fe247     1.0  0.67708  0.72515  0.05839  1.0000
  C   C2180     1.0  0.83304  0.57247  0.08659  1.0000
  H   H3841     1.0  0.83142  0.51709  0.08424  1.0000
  H   H3842     1.0  0.75798  0.60121  0.04144  1.0000
  H   H3843     1.0  0.93996  0.55511  0.10886  1.0000
  C   C2181     1.0  0.88879  0.62114  0.04119  1.0000
  C   C2182     1.0  0.89150  0.64011  0.04330  1.0000
  C   C2183     1.0  0.88420  0.64720  0.06094  1.0000
  C   C2184     1.0  0.87351  0.63571  0.07645  1.0000
  C   C2185     1.0  0.87004  0.61701  0.07424  1.0000
  C   C2186     1.0  0.87779  0.60967  0.05659  1.0000
  H   H3844     1.0  0.89987  0.64908  0.03143  1.0000
  H   H3845     1.0  0.88696  0.66163  0.06261  1.0000
  H   H3846     1.0  0.86167  0.60810  0.08614  1.0000
  H   H3847     1.0  0.87526  0.59516  0.05491  1.0000
  C   C2187     1.0  0.65767  0.61914  0.02250  1.0000
  H   H3848     1.0  0.77059  0.58840  0.15867  1.0000
  S   S499      1.0  0.70515  0.70054  0.99185  1.0000
  C   C2188     1.0  0.97117  0.55648  0.10304  1.0000
  C   C2189     1.0  0.97962  0.56589  0.03922  1.0000
  H   H3849     1.0  0.94091  0.59975  0.03702  1.0000
  C   C2190     1.0  0.94478  0.61278  0.04168  1.0000
  H   H3850     1.0  0.76586  0.60216  0.10634  1.0000
  H   H3851     1.0  0.76863  0.57339  0.06642  1.0000
  C   C2191     1.0  0.80956  0.67607  0.18916  1.0000
  H   H3852     1.0  0.89872  0.65012  0.12156  1.0000
  H   H3853     1.0  0.81591  0.70522  0.14294  1.0000
  H   H3854     1.0  0.89321  0.60088  0.10851  1.0000
  C   C2192     1.0  0.74825  0.60820  0.05357  1.0000
  H   H3855     1.0  0.93332  0.62601  0.03843  1.0000
  S   S500      1.0  0.93360  0.52833  0.97592  1.0000
  C   C2193     1.0  0.92046  0.73033  0.18350  1.0000
  H   H3856     1.0  0.68025  0.63072  0.03232  1.0000
  C   C2194     1.0  0.86931  0.49811  0.16263  1.0000
  H   H3857     1.0  0.87065  0.57474  0.11361  1.0000
  H   H3858     1.0  0.87538  0.53727  0.15924  1.0000
  H   H3859     1.0  0.88847  0.49709  0.05149  1.0000
  H   H3860     1.0  0.78370  0.62447  0.21708  1.0000
  C   C2195     1.0  0.80312  0.68846  0.17020  1.0000
  H   H3861     1.0  0.78632  0.50719  0.08322  1.0000
  H   H3862     1.0  0.88828  0.48115  0.13151  1.0000
  C   C2196     1.0  0.67001  0.88602  0.17027  1.0000
  C   C2197     1.0  0.68908  0.88130  0.17967  1.0000
  H   H3863     1.0  0.77251  0.60963  0.06752  1.0000
  H   H3864     1.0  0.79922  0.57739  0.07049  1.0000
  H   H3865     1.0  0.86293  0.50792  0.15021  1.0000
  Fe  Fe248     1.0  0.66019  0.68844  0.05684  1.0000
  H   H3866     1.0  0.78016  0.65781  0.18213  1.0000
  H   H3867     1.0  0.73372  0.60270  0.05699  1.0000
  C   C2198     1.0  0.66307  0.78518  0.00419  1.0000
  C   C2199     1.0  0.67009  0.81462  0.16838  1.0000
  H   H3868     1.0  0.86978  0.50214  0.19280  1.0000
  H   H3869     1.0  0.89701  0.78566  0.17619  1.0000
  H   H3870     1.0  0.66215  0.79451  0.07948  1.0000
  H   H3871     1.0  0.69071  0.91240  0.18075  1.0000
  H   H3872     1.0  0.97243  0.55638  0.11838  1.0000
  H   H3873     1.0  0.89218  0.54571  0.97410  1.0000
  H   H3874     1.0  0.94763  0.76965  0.21406  1.0000
  H   H3875     1.0  0.97602  0.49937  0.97078  1.0000
  H   H3876     1.0  0.66880  0.90197  0.16316  1.0000
  H   H3877     1.0  0.70273  0.87964  0.16851  1.0000
  H   H3878     1.0  0.91723  0.79733  0.19472  1.0000
  H   H3879     1.0  0.69688  0.87076  0.08929  1.0000
  C   C2200     1.0  0.91774  0.75761  0.20388  1.0000
  H   H3880     1.0  0.97159  0.51110  0.99207  1.0000
  C   C2201     1.0  0.86595  0.51110  0.17897  1.0000
  H   H3881     1.0  0.87686  0.81773  0.16504  1.0000
  H   H3882     1.0  0.94972  0.56467  0.08400  1.0000
  H   H3883     1.0  0.66276  0.56430  0.98483  1.0000
  C   C2202     1.0  0.67021  0.83488  0.15508  1.0000
  C   C2203     1.0  0.67192  0.85134  0.16639  1.0000
  H   H3884     1.0  0.87804  0.82722  0.18660  1.0000
  H   H3885     1.0  0.65501  0.59372  0.00180  1.0000
  H   H3886     1.0  0.65672  0.63172  0.04874  1.0000
  H   H3887     1.0  0.68696  0.84705  0.17054  1.0000
  H   H3888     1.0  0.83240  0.49844  0.17279  1.0000
  H   H3889     1.0  0.75208  0.63901  0.19038  1.0000
  H   H3890     1.0  0.90049  0.82171  0.16914  1.0000
  N   N118      1.0  0.66897  0.87272  0.15601  1.0000
  H   H3891     1.0  0.87559  0.69391  0.04074  1.0000
  H   H3892     1.0  0.67221  0.77544  0.99382  1.0000
  H   H3893     1.0  0.67709  0.89958  0.20248  1.0000
  H   H3894     1.0  0.79685  0.51323  0.10202  1.0000
  H   H3895     1.0  0.77053  0.51213  0.10583  1.0000
  H   H3896     1.0  0.69876  0.48328  0.00123  1.0000
  S   S501      1.0  0.67171  0.75684  0.06553  1.0000
  H   H3897     1.0  0.67310  0.78893  0.01286  1.0000
  S   S502      1.0  0.88654  0.69300  0.21885  1.0000
  N   N119      1.0  0.81997  0.67280  0.05754  1.0000
  C   C2204     1.0  0.81250  0.66937  0.07918  1.0000
  C   C2205     1.0  0.82701  0.65279  0.05071  1.0000
  C   C2206     1.0  0.83796  0.68320  0.05408  1.0000
  C   C2207     1.0  0.80458  0.68568  0.04607  1.0000
  C   C2208     1.0  0.78229  0.68439  0.05443  1.0000
  C   C2209     1.0  0.80882  0.68820  0.08915  1.0000
  C   C2210     1.0  0.84984  0.68546  0.03301  1.0000
  C   C2211     1.0  0.81166  0.63837  0.05444  1.0000
  C   C2212     1.0  0.82156  0.61831  0.04808  1.0000
  C   C2213     1.0  0.76880  0.69597  0.04007  1.0000
  C   C2214     1.0  0.79526  0.68541  0.10892  1.0000
  H   H3898     1.0  0.85069  0.48242  0.14062  1.0000
  H   H3899     1.0  0.82337  0.65793  0.08672  1.0000
  H   H3900     1.0  0.79860  0.66284  0.08264  1.0000
  H   H3901     1.0  0.83238  0.65485  0.03473  1.0000
  H   H3902     1.0  0.84004  0.64469  0.05752  1.0000
  H   H3903     1.0  0.84859  0.67519  0.06395  1.0000
  H   H3904     1.0  0.83348  0.69856  0.05783  1.0000
  H   H3905     1.0  0.80576  0.70183  0.04438  1.0000
  H   H3906     1.0  0.80760  0.68236  0.03093  1.0000
  H   H3907     1.0  0.77751  0.69094  0.06803  1.0000
  H   H3908     1.0  0.77940  0.66882  0.05783  1.0000
  H   H3909     1.0  0.82327  0.69112  0.09158  1.0000
  H   H3910     1.0  0.80193  0.70166  0.08002  1.0000
  H   H3911     1.0  0.87173  0.50594  0.98258  1.0000
  H   H3912     1.0  0.85829  0.67074  0.02974  1.0000
  H   H3913     1.0  0.80515  0.63522  0.07006  1.0000
  H   H3914     1.0  0.79968  0.64465  0.04571  1.0000
  H   H3915     1.0  0.81026  0.60837  0.05017  1.0000
  H   H3916     1.0  0.82841  0.62049  0.03244  1.0000
  H   H3917     1.0  0.83332  0.61086  0.05681  1.0000
  H   H3918     1.0  0.77208  0.68931  0.02653  1.0000
  H   H3919     1.0  0.75298  0.69525  0.04669  1.0000
  H   H3920     1.0  0.77072  0.71196  0.03645  1.0000
  H   H3921     1.0  0.79431  0.69838  0.11635  1.0000
  H   H3922     1.0  0.77999  0.68443  0.10703  1.0000
  H   H3923     1.0  0.80119  0.67159  0.11826  1.0000
  C   C2215     1.0  0.78350  0.51647  0.09492  1.0000
  C   C2216     1.0  0.70021  0.87278  0.10336  1.0000
  C   C2217     1.0  0.86507  0.69952  0.03028  1.0000
  H   H3924     1.0  0.91181  0.72082  0.17864  1.0000
  H   H3925     1.0  0.87581  0.50218  0.01907  1.0000
  H   H3926     1.0  0.65635  0.83817  0.14886  1.0000
  S   S503      1.0  0.67402  0.69671  0.07978  1.0000
  H   H3927     1.0  0.82400  0.48251  0.09134  1.0000
  H   H3928     1.0  0.68388  0.81014  0.17489  1.0000
  C   C2218     1.0  0.78767  0.65078  0.19470  1.0000
  H   H3929     1.0  0.88035  0.55204  0.10364  1.0000
  C   C2219     1.0  0.85266  0.52596  0.01106  1.0000
  H   H3930     1.0  0.87723  0.76409  0.21580  1.0000
  H   H3931     1.0  0.89474  0.52148  0.17140  1.0000
  C   C2220     1.0  0.87862  0.52783  0.17312  1.0000
  S   S504      1.0  0.66135  0.71762  0.03654  1.0000
  C   C2221     1.0  0.66381  0.63357  0.03316  1.0000
  H   H3932     1.0  0.74814  0.61177  0.08270  1.0000
  H   H3933     1.0  0.88850  0.55565  0.12505  1.0000
  C   C2222     1.0  0.76194  0.58081  0.07933  1.0000
  H   H3934     1.0  0.74703  0.57609  0.08473  1.0000
  H   H3935     1.0  0.92857  0.73893  0.17048  1.0000
  H   H3936     1.0  0.68327  0.83315  0.14326  1.0000
  C   C2223     1.0  0.75828  0.60362  0.07155  1.0000
  C   C2224     1.0  0.69021  0.89789  0.19070  1.0000
  H   H3937     1.0  0.86289  0.53479  0.00023  1.0000
  H   H3938     1.0  0.76037  0.60801  0.14101  1.0000
  H   H3939     1.0  0.70562  0.88732  0.10124  1.0000
  H   H3940     1.0  0.67445  0.73556  0.98392  1.0000
  C   C2225     1.0  0.98142  0.54726  0.05124  1.0000
  H   H3941     1.0  0.77262  0.61866  0.18743  1.0000
  H   H3942     1.0  0.67624  0.85803  0.11989  1.0000
  H   H3943     1.0  0.82257  0.66450  0.18506  1.0000
  H   H3944     1.0  0.79664  0.59437  0.08696  1.0000
  H   H3945     1.0  0.66415  0.60371  0.02857  1.0000
  H   H3946     1.0  0.71958  0.48359  0.07267  1.0000
  H   H3947     1.0  0.87463  0.79119  0.19360  1.0000
  C   C2226     1.0  0.90625  0.74445  0.19612  1.0000
  Fe  Fe249     1.0  0.92138  0.54155  0.00338  1.0000
  H   H3948     1.0  0.65610  0.79913  0.99573  1.0000
  C   C2227     1.0  0.92694  0.60081  0.07557  1.0000
  H   H3949     1.0  0.91367  0.61091  0.07079  1.0000
  H   H3950     1.0  0.93539  0.62642  0.09667  1.0000
  H   H3951     1.0  0.81102  0.56418  0.11106  1.0000
  H   H3952     1.0  0.79730  0.67929  0.16210  1.0000
  C   C2228     1.0  0.77442  0.55217  0.10223  1.0000
  H   H3953     1.0  0.90961  0.62903  0.09571  1.0000
  H   H3954     1.0  0.95631  0.59495  0.09890  1.0000
  H   H3955     1.0  0.89822  0.73491  0.20846  1.0000
  C   C2229     1.0  0.92196  0.61923  0.10257  1.0000
  H   H3956     1.0  0.83255  0.58772  0.08966  1.0000
  C   C2230     1.0  0.94999  0.56514  0.09942  1.0000
  C   C2231     1.0  0.91718  0.62063  0.12465  1.0000
  C   C2232     1.0  0.76557  0.58590  0.11127  1.0000
  H   H3957     1.0  0.83651  0.57260  0.07062  1.0000
  H   H3958     1.0  0.74540  0.62468  0.04877  1.0000
  N   N120      1.0  0.92500  0.59844  0.09742  1.0000
  C   C2233     1.0  0.94357  0.58657  0.10445  1.0000
  H   H3959     1.0  0.93136  0.72028  0.19200  1.0000
  H   H3960     1.0  0.92487  0.65052  0.12106  1.0000
  C   C2234     1.0  0.91218  0.64246  0.12785  1.0000
  H   H3961     1.0  0.81508  0.54948  0.09219  1.0000
  H   H3962     1.0  0.94171  0.58479  0.12055  1.0000
  H   H3963     1.0  0.93017  0.61345  0.13180  1.0000
  H   H3964     1.0  0.66974  0.88450  0.11333  1.0000
  H   H3965     1.0  0.84524  0.56228  0.09322  1.0000
  C   C2235     1.0  0.81330  0.56497  0.09518  1.0000
  H   H3966     1.0  0.74952  0.58431  0.11582  1.0000
  H   H3967     1.0  0.77670  0.56449  0.13551  1.0000
  H   H3968     1.0  0.87377  0.70028  0.01530  1.0000
  H   H3969     1.0  0.78460  0.54600  0.11292  1.0000
  H   H3970     1.0  0.89544  0.58065  0.08441  1.0000
  H   H3971     1.0  0.71215  0.86041  0.10767  1.0000
  H   H3972     1.0  0.74803  0.58649  0.15072  1.0000
  C   C2236     1.0  0.68523  0.87594  0.13857  1.0000
  H   H3973     1.0  0.91368  0.56131  0.09436  1.0000
  H   H3974     1.0  0.79009  0.58546  0.12659  1.0000
  C   C2237     1.0  0.86164  0.50375  0.01372  1.0000
  C   C2238     1.0  0.90677  0.58912  0.10751  1.0000
  H   H3975     1.0  0.90827  0.58234  0.12280  1.0000
  C   C2239     1.0  0.77528  0.58066  0.12975  1.0000
  C   C2240     1.0  0.90102  0.57320  0.09795  1.0000
  H   H3976     1.0  0.76348  0.64489  0.21966  1.0000
  H   H3977     1.0  0.80114  0.64091  0.18833  1.0000
  C   C2241     1.0  0.76274  0.59159  0.14598  1.0000
  C   C2242     1.0  0.79571  0.57859  0.08626  1.0000
  H   H3978     1.0  0.75008  0.67433  0.20230  1.0000
  N   N121      1.0  0.77491  0.57419  0.09491  1.0000
  H   H3979     1.0  0.75935  0.54993  0.11050  1.0000
  C   C2243     1.0  0.77952  0.53861  0.08625  1.0000
  H   H3980     1.0  0.92797  0.76451  0.19129  1.0000
  C   C2244     1.0  0.88606  0.81684  0.17637  1.0000
  H   H3981     1.0  0.82605  0.70759  0.16369  1.0000
  H   H3982     1.0  0.69951  0.86631  0.14152  1.0000
  H   H3983     1.0  0.83325  0.68492  0.15316  1.0000
  H   H3984     1.0  0.66453  0.62223  0.00702  1.0000
  H   H3985     1.0  0.68836  0.89158  0.13598  1.0000
  H   H3986     1.0  0.85035  0.53153  0.02511  1.0000
  C   C2245     1.0  0.82069  0.69702  0.15672  1.0000
  N   N122      1.0  0.90554  0.77341  0.21561  1.0000
  H   H3987     1.0  0.68898  0.86728  0.19042  1.0000
  C   C2246     1.0  0.68138  0.87247  0.11878  1.0000
  C   C2247     1.0  0.88948  0.79535  0.18715  1.0000
  C   C2248     1.0  0.90263  0.79350  0.20278  1.0000
  C   C2249     1.0  0.76242  0.62729  0.19815  1.0000
  C   C2250     1.0  0.77422  0.63677  0.20889  1.0000
  H   H3988     1.0  0.79162  0.70147  0.17356  1.0000
  H   H3989     1.0  0.98205  0.56531  0.09312  1.0000
  H   H3990     1.0  0.83971  0.48347  0.19435  1.0000
  H   H3991     1.0  0.65948  0.64927  0.02629  1.0000
  H   H3992     1.0  0.81532  0.68671  0.19567  1.0000
  H   H3993     1.0  0.75352  0.61693  0.20870  1.0000
  H   H3994     1.0  0.76359  0.68969  0.18315  1.0000
  H   H3995     1.0  0.84907  0.49634  0.99163  1.0000
  H   H3996     1.0  0.97499  0.54083  0.10005  1.0000
  H   H3997     1.0  0.90492  0.49808  0.99988  1.0000
  C   C2251     1.0  0.87686  0.67342  0.21243  1.0000
  H   H3998     1.0  0.65708  0.88540  0.18236  1.0000
  C   C2252     1.0  0.74438  0.70540  0.20485  1.0000
  H   H3999     1.0  0.92788  0.74669  0.21263  1.0000
  H   H4000     1.0  0.65689  0.81528  0.18021  1.0000
  H   H4001     1.0  0.66111  0.84991  0.18031  1.0000
  C   C2253     1.0  0.86451  0.49527  0.99447  1.0000
  H   H4002     1.0  0.81482  0.64248  0.21676  1.0000
  C   C2254     1.0  0.75872  0.68688  0.19908  1.0000
  H   H4003     1.0  0.79846  0.48877  0.18976  1.0000
  N   N123      1.0  0.79381  0.66625  0.20368  1.0000
  C   C2255     1.0  0.83964  0.48319  0.17875  1.0000
  H   H4004     1.0  0.78183  0.69588  0.21065  1.0000
  C   C2256     1.0  0.83800  0.48561  0.08258  1.0000
  H   H4005     1.0  0.90065  0.48429  0.97316  1.0000
  H   H4006     1.0  0.93617  0.48282  0.97977  1.0000
  H   H4007     1.0  0.93873  0.48312  0.00438  1.0000
  H   H4008     1.0  0.97811  0.48415  0.99417  1.0000
  C   C2257     1.0  0.90873  0.48154  0.00103  1.0000
  H   H4009     1.0  0.73161  0.70838  0.19688  1.0000
  H   H4010     1.0  0.75202  0.71873  0.20105  1.0000
  C   C2258     1.0  0.77645  0.68171  0.21052  1.0000
  N   N124      1.0  0.86078  0.47877  0.16800  1.0000
  C   C2259     1.0  0.86593  0.64082  0.21972  1.0000
  H   H4011     1.0  0.98588  0.54448  0.44245  1.0000
  S   S505      1.0  0.92619  0.94108  0.39774  1.0000
  C   C2260     1.0  0.74261  0.95554  0.27174  1.0000
  Fe  Fe250     1.0  0.91166  0.93573  0.45393  1.0000
  S   S506      1.0  0.92196  0.90907  0.43865  1.0000
  S   S507      1.0  0.67984  0.94640  0.28243  1.0000
  Fe  Fe251     1.0  0.94504  0.92689  0.42067  1.0000
  Fe  Fe252     1.0  0.90210  0.92559  0.41738  1.0000
  S   S508      1.0  0.87662  0.91149  0.41310  1.0000
  C   C2261     1.0  0.97501  0.97749  0.39630  1.0000
  S   S509      1.0  0.89071  0.95147  0.43376  1.0000
  H   H4012     1.0  0.78139  0.82823  0.31522  1.0000
  C   C2262     1.0  0.97578  0.95981  0.36795  1.0000
  H   H4013     1.0  0.74153  0.93958  0.27193  1.0000
  C   C2263     1.0  0.79199  0.95562  0.43346  1.0000
  H   H4014     1.0  0.79862  0.85923  0.28655  1.0000
  H   H4015     1.0  0.93552  0.57827  0.46171  1.0000
  S   S510      1.0  0.66392  0.90698  0.27378  1.0000
  H   H4016     1.0  0.94008  0.60953  0.43948  1.0000
  H   H4017     1.0  0.95924  0.96228  0.36994  1.0000
  H   H4018     1.0  0.69142  0.93409  0.32903  1.0000
  C   C2264     1.0  0.82633  0.96275  0.40301  1.0000
  H   H4019     1.0  0.80465  0.65381  0.26088  1.0000
  H   H4020     1.0  0.86374  0.62725  0.22989  1.0000
  C   C2265     1.0  0.93841  0.78016  0.22359  1.0000
  H   H4021     1.0  0.86770  0.79703  0.22869  1.0000
  H   H4022     1.0  0.69485  0.94515  0.42069  1.0000
  S   S511      1.0  0.94256  0.65932  0.38169  1.0000
  S   S512      1.0  0.92042  0.66868  0.26093  1.0000
  H   H4023     1.0  0.83361  0.96412  0.36249  1.0000
  Fe  Fe253     1.0  0.90301  0.67830  0.28875  1.0000
  S   S513      1.0  0.92265  0.70007  0.28980  1.0000
  S   S514      1.0  0.89676  0.65449  0.31466  1.0000
  Fe  Fe254     1.0  0.90163  0.72251  0.27320  1.0000
  S   S515      1.0  0.89659  0.75437  0.27951  1.0000
  S   S516      1.0  0.88029  0.70135  0.27445  1.0000
  Fe  Fe255     1.0  0.78834  0.86208  0.35135  1.0000
  S   S517      1.0  0.78975  0.82920  0.36331  1.0000
  S   S518      1.0  0.75843  0.88182  0.34771  1.0000
  Fe  Fe256     1.0  0.83291  0.85978  0.34938  1.0000
  S   S519      1.0  0.83774  0.82657  0.35982  1.0000
  S   S520      1.0  0.85981  0.87566  0.34320  1.0000
  Fe  Fe257     1.0  0.81681  0.82493  0.34016  1.0000
  S   S521      1.0  0.81699  0.79915  0.32439  1.0000
  Fe  Fe258     1.0  0.81048  0.83347  0.38206  1.0000
  S   S522      1.0  0.81322  0.81672  0.41240  1.0000
  S   S523      1.0  0.81440  0.85765  0.32723  1.0000
  S   S524      1.0  0.80660  0.86673  0.37256  1.0000
  C   C2266     1.0  0.97856  0.54395  0.38949  1.0000
  Fe  Fe259     1.0  0.98405  0.59041  0.39150  1.0000
  S   S525      1.0  0.72382  0.90418  0.26843  1.0000
  C   C2267     1.0  0.73239  0.84506  0.28478  1.0000
  H   H4024     1.0  0.72441  0.82435  0.32829  1.0000
  H   H4025     1.0  0.75469  0.95244  0.31685  1.0000
  H   H4026     1.0  0.95302  0.50003  0.33002  1.0000
  Fe  Fe260     1.0  0.89917  0.69315  0.24637  1.0000
  C   C2268     1.0  0.74914  0.88846  0.32549  1.0000
  C   C2269     1.0  0.76178  0.88793  0.30755  1.0000
  C   C2270     1.0  0.75384  0.89286  0.29018  1.0000
  C   C2271     1.0  0.73321  0.89865  0.29058  1.0000
  C   C2272     1.0  0.72060  0.89961  0.30850  1.0000
  C   C2273     1.0  0.72857  0.89472  0.32585  1.0000
  H   H4027     1.0  0.77768  0.88354  0.30708  1.0000
  H   H4028     1.0  0.76371  0.89214  0.27638  1.0000
  H   H4029     1.0  0.70469  0.90400  0.30899  1.0000
  H   H4030     1.0  0.71869  0.89547  0.33965  1.0000
  C   C2274     1.0  0.87201  0.85860  0.44488  1.0000
  H   H4031     1.0  0.96867  0.57761  0.34564  1.0000
  C   C2275     1.0  0.80600  0.81917  0.45128  1.0000
  C   C2276     1.0  0.80163  0.82824  0.43283  1.0000
  C   C2277     1.0  0.78850  0.84638  0.43100  1.0000
  C   C2278     1.0  0.77977  0.85532  0.44754  1.0000
  H   H4032     1.0  0.81601  0.80505  0.45283  1.0000
  H   H4033     1.0  0.78493  0.85342  0.41688  1.0000
  H   H4034     1.0  0.76945  0.86925  0.44607  1.0000
  C   C2279     1.0  0.87408  0.76677  0.29141  1.0000
  C   C2280     1.0  0.85657  0.75844  0.29600  1.0000
  C   C2281     1.0  0.83903  0.76873  0.30577  1.0000
  C   C2282     1.0  0.83898  0.78726  0.31123  1.0000
  C   C2283     1.0  0.85638  0.79577  0.30629  1.0000
  C   C2284     1.0  0.87383  0.78560  0.29631  1.0000
  H   H4035     1.0  0.85655  0.74404  0.29210  1.0000
  H   H4036     1.0  0.82559  0.76210  0.30947  1.0000
  H   H4037     1.0  0.85637  0.81018  0.31017  1.0000
  H   H4038     1.0  0.88725  0.79229  0.29253  1.0000
  C   C2285     1.0  0.94913  0.77909  0.24066  1.0000
  C   C2286     1.0  0.92891  0.65782  0.36382  1.0000
  C   C2287     1.0  0.91968  0.67542  0.35349  1.0000
  C   C2288     1.0  0.91001  0.67449  0.33822  1.0000
  C   C2289     1.0  0.90865  0.65592  0.33386  1.0000
  C   C2290     1.0  0.91680  0.63832  0.34499  1.0000
  C   C2291     1.0  0.92724  0.63926  0.35969  1.0000
  H   H4039     1.0  0.92030  0.68980  0.35703  1.0000
  H   H4040     1.0  0.90330  0.68810  0.33004  1.0000
  H   H4041     1.0  0.91528  0.62396  0.34207  1.0000
  H   H4042     1.0  0.93356  0.62561  0.36813  1.0000
  C   C2292     1.0  0.94550  0.58749  0.46504  1.0000
  Fe  Fe261     1.0  0.93863  0.69236  0.26104  1.0000
  H   H4043     1.0  0.82665  0.66543  0.25652  1.0000
  H   H4044     1.0  0.90578  0.87648  0.42786  1.0000
  H   H4045     1.0  0.80344  0.68221  0.23347  1.0000
  H   H4046     1.0  0.83973  0.87894  0.46629  1.0000
  H   H4047     1.0  0.97629  0.65164  0.33650  1.0000
  C   C2293     1.0  0.96985  0.68018  0.31672  1.0000
  H   H4048     1.0  0.96435  0.50084  0.38479  1.0000
  H   H4049     1.0  0.71278  0.96772  0.26387  1.0000
  H   H4050     1.0  0.95799  0.52543  0.40733  1.0000
  C   C2294     1.0  0.81331  0.66793  0.23087  1.0000
  C   C2295     1.0  0.87246  0.90299  0.39265  1.0000
  C   C2296     1.0  0.85348  0.89858  0.39309  1.0000
  C   C2297     1.0  0.84950  0.89043  0.37794  1.0000
  C   C2298     1.0  0.86443  0.88666  0.36207  1.0000
  C   C2299     1.0  0.88331  0.89167  0.36130  1.0000
  C   C2300     1.0  0.88737  0.89977  0.37659  1.0000
  H   H4051     1.0  0.84178  0.90132  0.40530  1.0000
  H   H4052     1.0  0.83485  0.88708  0.37861  1.0000
  H   H4053     1.0  0.89493  0.88897  0.34900  1.0000
  H   H4054     1.0  0.90205  0.90318  0.37610  1.0000
  H   H4055     1.0  0.71484  0.83366  0.36254  1.0000
  C   C2301     1.0  0.78926  0.92966  0.30728  1.0000
  H   H4056     1.0  0.95437  0.69169  0.35065  1.0000
  C   C2302     1.0  0.77522  0.94014  0.29302  1.0000
  C   C2303     1.0  0.87400  0.65571  0.22531  1.0000
  H   H4057     1.0  0.83848  0.87279  0.43080  1.0000
  H   H4058     1.0  0.74114  0.85695  0.28460  1.0000
  H   H4059     1.0  0.75757  0.83900  0.34245  1.0000
  C   C2304     1.0  0.80200  0.84414  0.28224  1.0000
  C   C2305     1.0  0.83816  0.94501  0.43306  1.0000
  N   N125      1.0  0.94017  0.56231  0.32760  1.0000
  C   C2306     1.0  0.92958  0.57128  0.34543  1.0000
  C   C2307     1.0  0.93075  0.57343  0.31036  1.0000
  C   C2308     1.0  0.93662  0.54082  0.33095  1.0000
  C   C2309     1.0  0.96241  0.56244  0.32361  1.0000
  H   H4060     1.0  0.97043  0.54847  0.33122  1.0000
  C   C2310     1.0  0.93478  0.55929  0.36505  1.0000
  C   C2311     1.0  0.94409  0.52938  0.31340  1.0000
  C   C2312     1.0  0.93220  0.59602  0.30454  1.0000
  C   C2313     1.0  0.91988  0.60599  0.28868  1.0000
  H   H4061     1.0  0.96782  0.57830  0.44185  1.0000
  C   C2314     1.0  0.92882  0.57211  0.38121  1.0000
  N   N126      1.0  0.82750  0.96459  0.42360  1.0000
  H   H4062     1.0  0.91311  0.57279  0.34653  1.0000
  H   H4063     1.0  0.93231  0.58677  0.34443  1.0000
  H   H4064     1.0  0.93780  0.56685  0.29705  1.0000
  H   H4065     1.0  0.91469  0.57182  0.31295  1.0000
  H   H4066     1.0  0.92041  0.54006  0.33570  1.0000
  H   H4067     1.0  0.94412  0.53178  0.34303  1.0000
  C   C2315     1.0  0.78455  0.84654  0.46591  1.0000
  H   H4068     1.0  0.96081  0.59469  0.32532  1.0000
  H   H4069     1.0  0.70675  0.96645  0.29504  1.0000
  H   H4070     1.0  0.76564  0.97329  0.44801  1.0000
  H   H4071     1.0  0.92672  0.54625  0.36958  1.0000
  H   H4072     1.0  0.95093  0.55351  0.36371  1.0000
  H   H4073     1.0  0.95980  0.53086  0.30699  1.0000
  H   H4074     1.0  0.93464  0.53517  0.30201  1.0000
  H   H4075     1.0  0.92660  0.60427  0.31693  1.0000
  H   H4076     1.0  0.94789  0.59796  0.29859  1.0000
  H   H4077     1.0  0.92504  0.59876  0.27549  1.0000
  H   H4078     1.0  0.90382  0.60516  0.29403  1.0000
  H   H4079     1.0  0.92149  0.62206  0.28463  1.0000
  H   H4080     1.0  0.66585  0.95772  0.39368  1.0000
  S   S526      1.0  0.68524  0.93793  0.23770  1.0000
  H   H4081     1.0  0.79094  0.94011  0.31669  1.0000
  H   H4082     1.0  0.91274  0.57861  0.38266  1.0000
  H   H4083     1.0  0.93160  0.56270  0.39525  1.0000
  H   H4084     1.0  0.93785  0.58437  0.37813  1.0000
  S   S527      1.0  0.91908  0.71618  0.24415  1.0000
  H   H4085     1.0  0.86697  0.84152  0.37955  1.0000
  H   H4086     1.0  0.79206  0.64843  0.23250  1.0000
  H   H4087     1.0  0.95433  0.54419  0.46204  1.0000
  S   S528      1.0  0.97567  0.61092  0.36481  1.0000
  C   C2316     1.0  0.91706  0.77505  0.23100  1.0000
  C   C2317     1.0  0.78279  0.83578  0.28381  1.0000
  C   C2318     1.0  0.72862  0.96883  0.25809  1.0000
  C   C2319     1.0  0.80330  0.65527  0.22097  1.0000
  H   H4088     1.0  0.96838  0.56213  0.30789  1.0000
  H   H4089     1.0  0.76335  0.94764  0.44814  1.0000
  H   H4090     1.0  0.87243  0.86215  0.45943  1.0000
  H   H4091     1.0  0.87570  0.80818  0.45954  1.0000
  H   H4092     1.0  0.71655  0.94045  0.29887  1.0000
  Fe  Fe262     1.0  0.96949  0.63507  0.38318  1.0000
  H   H4093     1.0  0.72332  0.85737  0.35263  1.0000
  H   H4094     1.0  0.71980  0.86141  0.25965  1.0000
  H   H4095     1.0  0.97685  0.59083  0.45710  1.0000
  H   H4096     1.0  0.82422  0.85397  0.44268  1.0000
  C   C2320     1.0  0.94111  0.74206  0.30913  1.0000
  H   H4097     1.0  0.94327  0.72460  0.33738  1.0000
  C   C2321     1.0  0.81242  0.89190  0.45547  1.0000
  S   S529      1.0  0.93648  0.95213  0.43789  1.0000
  C   C2322     1.0  0.83624  0.86172  0.44434  1.0000
  H   H4098     1.0  0.72277  0.94424  0.33218  1.0000
  H   H4099     1.0  0.81003  0.84542  0.26700  1.0000
  C   C2323     1.0  0.76007  0.80130  0.31771  1.0000
  C   C2324     1.0  0.77475  0.78849  0.30368  1.0000
  C   C2325     1.0  0.77913  0.76671  0.31351  1.0000
  H   H4100     1.0  0.76791  0.80020  0.33016  1.0000
  H   H4101     1.0  0.74683  0.79365  0.32354  1.0000
  H   H4102     1.0  0.78690  0.82115  0.27872  1.0000
  H   H4103     1.0  0.74854  0.81559  0.35221  1.0000
  H   H4104     1.0  0.76872  0.78847  0.29040  1.0000
  H   H4105     1.0  0.78922  0.79401  0.29962  1.0000
  H   H4106     1.0  0.76526  0.76001  0.31785  1.0000
  H   H4107     1.0  0.78981  0.75786  0.30325  1.0000
  H   H4108     1.0  0.78598  0.76579  0.32658  1.0000
  H   H4109     1.0  0.84366  0.77366  0.23538  1.0000
  H   H4110     1.0  0.93886  0.71133  0.31981  1.0000
  H   H4111     1.0  0.97027  0.71056  0.38918  1.0000
  C   C2326     1.0  0.72819  0.84635  0.26426  1.0000
  H   H4112     1.0  0.75797  0.95718  0.26427  1.0000
  C   C2327     1.0  0.94755  0.72229  0.32196  1.0000
  H   H4113     1.0  0.87279  0.82362  0.43055  1.0000
  N   N127      1.0  0.85522  0.84698  0.44629  1.0000
  H   H4114     1.0  0.94756  0.49937  0.30655  1.0000
  C   C2328     1.0  0.71232  0.95523  0.32393  1.0000
  C   C2329     1.0  0.85189  0.83370  0.46581  1.0000
  H   H4115     1.0  0.86693  0.85871  0.40693  1.0000
  H   H4116     1.0  0.95887  0.49421  0.45512  1.0000
  C   C2330     1.0  0.82775  0.87373  0.46133  1.0000
  H   H4117     1.0  0.97620  0.96033  0.43485  1.0000
  H   H4118     1.0  0.81195  0.83402  0.29170  1.0000
  C   C2331     1.0  0.89334  0.84887  0.43641  1.0000
  H   H4119     1.0  0.77389  0.84601  0.27349  1.0000
  C   C2332     1.0  0.93940  0.60898  0.45530  1.0000
  H   H4120     1.0  0.74236  0.84420  0.25380  1.0000
  H   H4121     1.0  0.85445  0.94477  0.42932  1.0000
  H   H4122     1.0  0.82808  0.64195  0.24843  1.0000
  H   H4123     1.0  0.81803  0.93427  0.45945  1.0000
  S   S530      1.0  0.97533  0.61412  0.41043  1.0000
  H   H4124     1.0  0.72274  0.97197  0.22877  1.0000
  H   H4125     1.0  0.84687  0.82461  0.43329  1.0000
  H   H4126     1.0  0.94874  0.75401  0.31128  1.0000
  C   C2333     1.0  0.83278  0.93926  0.45550  1.0000
  H   H4127     1.0  0.71906  0.83490  0.26391  1.0000
  H   H4128     1.0  0.88364  0.82678  0.39522  1.0000
  C   C2334     1.0  0.96590  0.70055  0.38086  1.0000
  H   H4129     1.0  0.71780  0.84842  0.29438  1.0000
  H   H4130     1.0  0.76978  0.67685  0.22594  1.0000
  N   N128      1.0  0.87544  0.75727  0.35999  1.0000
  C   C2335     1.0  0.85685  0.75752  0.37529  1.0000
  C   C2336     1.0  0.89291  0.74574  0.36918  1.0000
  C   C2337     1.0  0.87821  0.77868  0.35199  1.0000
  C   C2338     1.0  0.87365  0.74726  0.34349  1.0000
  C   C2339     1.0  0.86990  0.72523  0.34917  1.0000
  C   C2340     1.0  0.83683  0.76563  0.36774  1.0000
  C   C2341     1.0  0.89822  0.78173  0.33829  1.0000
  C   C2342     1.0  0.89847  0.75513  0.38509  1.0000
  C   C2343     1.0  0.91711  0.74276  0.39235  1.0000
  C   C2344     1.0  0.86565  0.71755  0.33190  1.0000
  C   C2345     1.0  0.81932  0.76720  0.38456  1.0000
  C   C2346     1.0  0.89936  0.80402  0.33190  1.0000
  H   H4131     1.0  0.85750  0.76694  0.38615  1.0000
  H   H4132     1.0  0.85586  0.74232  0.38386  1.0000
  H   H4133     1.0  0.88988  0.73052  0.37628  1.0000
  H   H4134     1.0  0.90636  0.74308  0.35784  1.0000
  H   H4135     1.0  0.87636  0.78750  0.36398  1.0000
  H   H4136     1.0  0.86626  0.78628  0.34353  1.0000
  H   H4137     1.0  0.86174  0.75612  0.33558  1.0000
  H   H4138     1.0  0.88748  0.74698  0.33241  1.0000
  H   H4139     1.0  0.85701  0.72360  0.36109  1.0000
  H   H4140     1.0  0.88328  0.71532  0.35390  1.0000
  H   H4141     1.0  0.83691  0.78079  0.35904  1.0000
  H   H4142     1.0  0.83387  0.75560  0.35855  1.0000
  H   H4143     1.0  0.89973  0.77506  0.32499  1.0000
  H   H4144     1.0  0.91122  0.77490  0.34552  1.0000
  H   H4145     1.0  0.90156  0.77058  0.37960  1.0000
  H   H4146     1.0  0.88617  0.75560  0.39777  1.0000
  H   H4147     1.0  0.92063  0.74954  0.40395  1.0000
  H   H4148     1.0  0.91468  0.72716  0.39849  1.0000
  H   H4149     1.0  0.93008  0.74246  0.38030  1.0000
  H   H4150     1.0  0.87781  0.71947  0.31918  1.0000
  H   H4151     1.0  0.86459  0.70136  0.33590  1.0000
  H   H4152     1.0  0.85127  0.72567  0.32779  1.0000
  H   H4153     1.0  0.81806  0.75230  0.39359  1.0000
  H   H4154     1.0  0.82113  0.77776  0.39383  1.0000
  H   H4155     1.0  0.80526  0.77304  0.37869  1.0000
  H   H4156     1.0  0.91362  0.80590  0.32189  1.0000
  H   H4157     1.0  0.88690  0.81165  0.32413  1.0000
  H   H4158     1.0  0.89868  0.81135  0.34468  1.0000
  C   C2347     1.0  0.90880  0.86163  0.43704  1.0000
  H   H4159     1.0  0.86926  0.87349  0.43560  1.0000
  C   C2348     1.0  0.98530  0.51649  0.36361  1.0000
  H   H4160     1.0  0.90855  0.86377  0.45216  1.0000
  H   H4161     1.0  0.73110  0.94657  0.23937  1.0000
  H   H4162     1.0  0.75415  0.81854  0.28005  1.0000
  N   N129      1.0  0.75340  0.82296  0.30964  1.0000
  C   C2349     1.0  0.74457  0.83117  0.34487  1.0000
  H   H4163     1.0  0.73213  0.81371  0.29616  1.0000
  H   H4164     1.0  0.68719  0.95017  0.34710  1.0000
  H   H4165     1.0  0.76560  0.85005  0.30725  1.0000
  H   H4166     1.0  0.73347  0.84139  0.37262  1.0000
  C   C2350     1.0  0.74338  0.82401  0.29241  1.0000
  C   C2351     1.0  0.73784  0.83183  0.32523  1.0000
  C   C2352     1.0  0.77077  0.83438  0.30486  1.0000
  C   C2353     1.0  0.72796  0.84153  0.35896  1.0000
  N   N130      1.0  0.97653  0.55920  0.46780  1.0000
  H   H4167     1.0  0.87792  0.65350  0.23964  1.0000
  C   C2354     1.0  0.97219  0.51352  0.38123  1.0000
  H   H4168     1.0  0.73265  0.84798  0.32019  1.0000
  H   H4169     1.0  0.95275  0.64681  0.31613  1.0000
  S   S531      1.0  0.97247  0.68537  0.25609  1.0000
  H   H4170     1.0  0.89443  0.84755  0.42093  1.0000
  C   C2355     1.0  0.85862  0.83427  0.43050  1.0000
  H   H4171     1.0  0.84295  0.85220  0.40742  1.0000
  C   C2356     1.0  0.85854  0.84605  0.40958  1.0000
  C   C2357     1.0  0.88588  0.76723  0.22607  1.0000
  H   H4172     1.0  0.78677  0.95924  0.41921  1.0000
  H   H4173     1.0  0.77807  0.95312  0.46401  1.0000
  H   H4174     1.0  0.74867  0.96403  0.23092  1.0000
  C   C2358     1.0  0.77365  0.95763  0.44940  1.0000
  C   C2359     1.0  0.66558  0.96403  0.42263  1.0000
  Fe  Fe263     1.0  0.67069  0.96299  0.25448  1.0000
  H   H4175     1.0  0.92476  0.74671  0.31288  1.0000
  H   H4176     1.0  0.86226  0.92739  0.46292  1.0000
  H   H4177     1.0  0.85485  0.75958  0.25580  1.0000
  C   C2360     1.0  0.86774  0.83265  0.39426  1.0000
  Fe  Fe264     1.0  0.69222  0.92049  0.26653  1.0000
  C   C2361     1.0  0.96970  0.57993  0.32961  1.0000
  H   H4178     1.0  0.85942  0.81996  0.39621  1.0000
  H   H4179     1.0  0.92744  0.50473  0.32617  1.0000
  C   C2362     1.0  0.67908  0.94403  0.42728  1.0000
  C   C2363     1.0  0.81842  0.65653  0.25038  1.0000
  H   H4180     1.0  0.94954  0.70422  0.38117  1.0000
  H   H4181     1.0  0.74850  0.93138  0.30984  1.0000
  H   H4182     1.0  0.67433  0.93203  0.42174  1.0000
  H   H4183     1.0  0.78351  0.91642  0.31663  1.0000
  H   H4184     1.0  0.78153  0.95321  0.28420  1.0000
  H   H4185     1.0  0.96532  0.72842  0.25686  1.0000
  C   C2364     1.0  0.87146  0.78243  0.23799  1.0000
  H   H4186     1.0  0.94099  0.79009  0.25021  1.0000
  C   C2365     1.0  0.71832  0.95529  0.30165  1.0000
  H   H4187     1.0  0.94923  0.61895  0.45755  1.0000
  C   C2366     1.0  0.94290  0.50707  0.31947  1.0000
  C   C2367     1.0  0.96759  0.57921  0.45738  1.0000
  H   H4188     1.0  0.97205  0.68472  0.30061  1.0000
  H   H4189     1.0  0.77515  0.92953  0.28310  1.0000
  H   H4190     1.0  0.79987  0.88710  0.45100  1.0000
  C   C2368     1.0  0.75373  0.94601  0.30391  1.0000
  H   H4191     1.0  0.85122  0.90977  0.45456  1.0000
  H   H4192     1.0  0.83930  0.93832  0.37397  1.0000
  H   H4193     1.0  0.97203  0.91552  0.45300  1.0000
  C   C2369     1.0  0.96879  0.52728  0.39412  1.0000
  S   S532      1.0  0.97768  0.91568  0.41153  1.0000
  H   H4194     1.0  0.81669  0.97612  0.39632  1.0000
  H   H4195     1.0  0.94464  0.74027  0.29354  1.0000
  C   C2370     1.0  0.79770  0.82842  0.46773  1.0000
  H   H4196     1.0  0.89772  0.83373  0.44435  1.0000
  N   N131      1.0  0.73890  0.95976  0.29236  1.0000
  H   H4197     1.0  0.97419  0.71942  0.35389  1.0000
  C   C2371     1.0  0.85191  0.77464  0.24693  1.0000
  H   H4198     1.0  0.92394  0.85422  0.43127  1.0000
  H   H4199     1.0  0.92380  0.61464  0.46157  1.0000
  C   C2372     1.0  0.97083  0.69023  0.34759  1.0000
  H   H4200     1.0  0.83196  0.95182  0.46335  1.0000
  H   H4201     1.0  0.95873  0.97673  0.39915  1.0000
  H   H4202     1.0  0.83571  0.93217  0.42692  1.0000
  H   H4203     1.0  0.80420  0.92448  0.29910  1.0000
  C   C2373     1.0  0.84651  0.96021  0.38881  1.0000
  H   H4204     1.0  0.95351  0.68101  0.32160  1.0000
  H   H4205     1.0  0.81913  0.94964  0.40302  1.0000
  C   C2374     1.0  0.69154  0.94956  0.33130  1.0000
  H   H4206     1.0  0.81942  0.90232  0.44326  1.0000
  H   H4207     1.0  0.79933  0.93974  0.43517  1.0000
  H   H4208     1.0  0.97225  0.51157  0.43742  1.0000
  H   H4209     1.0  0.85100  0.97410  0.44957  1.0000
  H   H4210     1.0  0.84241  0.78497  0.25655  1.0000
  H   H4211     1.0  0.87795  0.78501  0.25011  1.0000
  S   S533      1.0  0.97302  0.56160  0.40523  1.0000
  H   H4212     1.0  0.97722  0.72650  0.32164  1.0000
  H   H4213     1.0  0.85208  0.97476  0.38425  1.0000
  H   H4214     1.0  0.98107  0.94509  0.37637  1.0000
  H   H4215     1.0  0.98180  0.95941  0.35231  1.0000
  H   H4216     1.0  0.83876  0.82623  0.46695  1.0000
  C   C2375     1.0  0.96905  0.64526  0.31070  1.0000
  H   H4217     1.0  0.85797  0.94925  0.39569  1.0000
  H   H4218     1.0  0.88866  0.75286  0.23620  1.0000
  H   H4219     1.0  0.95027  0.76385  0.24943  1.0000
  Fe  Fe265     1.0  0.65590  0.92633  0.24604  1.0000
  C   C2376     1.0  0.96888  0.49605  0.44086  1.0000
  C   C2377     1.0  0.84438  0.95311  0.37037  1.0000
  H   H4220     1.0  0.96966  0.68484  0.38810  1.0000
  N   N132      1.0  0.97804  0.69417  0.32597  1.0000
  H   H4221     1.0  0.67815  0.93980  0.44329  1.0000
  C   C2378     1.0  0.66697  0.97068  0.40040  1.0000
  H   H4222     1.0  0.85908  0.95142  0.36063  1.0000
  H   H4223     1.0  0.96091  0.49341  0.42973  1.0000
  Fe  Fe266     1.0  0.91637  0.96536  0.41621  1.0000
  C   C2379     1.0  0.84806  0.92205  0.46332  1.0000
  H   H4224     1.0  0.91843  0.76071  0.24138  1.0000
  H   H4225     1.0  0.97620  0.67450  0.35366  1.0000
  H   H4226     1.0  0.90904  0.78672  0.23983  1.0000
  H   H4227     1.0  0.98220  0.96318  0.40399  1.0000
  C   C2380     1.0  0.98009  0.72230  0.26005  1.0000
  C   C2381     1.0  0.97713  0.70329  0.35995  1.0000
  H   H4228     1.0  0.96445  0.78253  0.23513  1.0000
  C   C2382     1.0  0.73317  0.96239  0.23807  1.0000
  H   H4229     1.0  0.68027  0.96000  0.32355  1.0000
  C   C2383     1.0  0.97869  0.97429  0.43866  1.0000
  C   C2384     1.0  0.97039  0.71530  0.31711  1.0000
  H   H4230     1.0  0.80633  0.89989  0.46805  1.0000
  C   C2385     1.0  0.96918  0.97446  0.45997  1.0000
  H   H4231     1.0  0.73848  0.70302  0.22071  1.0000
  H   H4232     1.0  0.95286  0.97457  0.46202  1.0000
  H   H4233     1.0  0.80629  0.97091  0.44947  1.0000
  H   H4234     1.0  0.97585  0.96088  0.46913  1.0000
  H   H4235     1.0  0.97497  0.71713  0.30102  1.0000
  H   H4236     1.0  0.67064  0.97524  0.42900  1.0000
  C   C2386     1.0  0.80650  0.96997  0.43404  1.0000
  H   H4237     1.0  0.82755  0.67138  0.22163  1.0000
  H   H4238     1.0  0.71196  0.97026  0.32749  1.0000
  H   H4239     1.0  0.97168  0.65018  0.29469  1.0000
  H   H4240     1.0  0.97566  0.62922  0.31383  1.0000
  C   C2387     1.0  0.97873  0.65761  0.32073  1.0000
  C   C2388     1.0  0.98295  0.97663  0.37447  1.0000
  H   H4241     1.0  0.68249  0.97359  0.39493  1.0000
  H   H4242     1.0  0.85439  0.97798  0.41441  1.0000
  C   C2389     1.0  0.98416  0.63085  0.46939  1.0000
  Fe  Fe267     1.0  0.70640  0.91470  0.65703  1.0000
  S   S534      1.0  0.71132  0.92355  0.68430  1.0000
  S   S535      1.0  0.72726  0.88982  0.64335  1.0000
  Fe  Fe268     1.0  0.66734  0.94319  0.65629  1.0000
  S   S536      1.0  0.66899  0.95455  0.68324  1.0000
  C   C2390     1.0  0.81654  0.75722  0.65941  1.0000
  Fe  Fe269     1.0  0.70113  0.95503  0.67034  1.0000
  H   H4243     1.0  0.80661  0.71060  0.65421  1.0000
  Fe  Fe270     1.0  0.67883  0.92231  0.69493  1.0000
  H   H4244     1.0  0.87035  0.67309  0.57167  1.0000
  S   S537      1.0  0.69889  0.94625  0.64214  1.0000
  S   S538      1.0  0.67461  0.91081  0.66896  1.0000
  Fe  Fe271     1.0  0.80271  0.83155  0.55011  1.0000
  S   S539      1.0  0.81784  0.85613  0.55370  1.0000
  S   S540      1.0  0.80578  0.80222  0.57082  1.0000
  Fe  Fe272     1.0  0.78976  0.85430  0.51184  1.0000
  S   S541      1.0  0.80435  0.88035  0.51272  1.0000
  S   S542      1.0  0.77364  0.85848  0.48624  1.0000
  Fe  Fe273     1.0  0.82952  0.85716  0.52185  1.0000
  S   S543      1.0  0.86188  0.85430  0.50856  1.0000
  Fe  Fe274     1.0  0.79083  0.87671  0.54447  1.0000
  S   S544      1.0  0.77490  0.90440  0.55722  1.0000
  S   S545      1.0  0.81603  0.83131  0.51864  1.0000
  S   S546      1.0  0.77457  0.85197  0.54319  1.0000
  H   H4245     1.0  0.78213  0.94571  0.64755  1.0000
  H   H4246     1.0  0.71331  0.94867  0.53440  1.0000
  Fe  Fe275     1.0  0.90828  0.71508  0.61629  1.0000
  S   S547      1.0  0.92081  0.74101  0.62084  1.0000
  S   S548      1.0  0.92116  0.70211  0.58910  1.0000
  Fe  Fe276     1.0  0.87782  0.71512  0.65385  1.0000
  S   S549      1.0  0.88826  0.74094  0.66152  1.0000
  S   S550      1.0  0.85032  0.70212  0.66978  1.0000
  Fe  Fe277     1.0  0.88877  0.75422  0.62985  1.0000
  S   S551      1.0  0.87586  0.78655  0.61981  1.0000
  Fe  Fe278     1.0  0.91933  0.72507  0.65167  1.0000
  S   S552      1.0  0.94464  0.71746  0.66908  1.0000
  S   S553      1.0  0.87648  0.72931  0.62289  1.0000
  S   S554      1.0  0.90859  0.69821  0.64639  1.0000
  H   H4247     1.0  0.92616  0.80332  0.55727  1.0000
  H   H4248     1.0  0.97419  0.67017  0.52304  1.0000
  H   H4249     1.0  0.73259  0.96826  0.63264  1.0000
  H   H4250     1.0  0.78256  0.69512  0.68009  1.0000
  H   H4251     1.0  0.70478  0.92999  0.58578  1.0000
  H   H4252     1.0  0.94289  0.67353  0.66176  1.0000
  H   H4253     1.0  0.86965  0.78076  0.55506  1.0000
  C   C2391     1.0  0.85222  0.68428  0.69096  1.0000
  C   C2392     1.0  0.88907  0.91145  0.49370  1.0000
  H   H4254     1.0  0.70804  0.87612  0.55712  1.0000
  H   H4255     1.0  0.84871  0.49365  0.70690  1.0000
  H   H4256     1.0  0.94075  0.61553  0.50164  1.0000
  C   C2393     1.0  0.96903  0.71974  0.65642  1.0000
  H   H4257     1.0  0.69244  0.90867  0.61611  1.0000
  C   C2394     1.0  0.83296  0.77066  0.65293  1.0000
  N   N133      1.0  0.93806  0.65191  0.68799  1.0000
  C   C2395     1.0  0.97214  0.57126  0.50109  1.0000
  C   C2396     1.0  0.69008  0.93574  0.58111  1.0000
  C   C2397     1.0  0.86689  0.68347  0.70211  1.0000
  H   H4258     1.0  0.71553  0.90110  0.57469  1.0000
  H   H4259     1.0  0.82767  0.78526  0.64436  1.0000
  C   C2398     1.0  0.71691  0.90441  0.55862  1.0000
  C   C2399     1.0  0.82582  0.79840  0.58359  1.0000
  C   C2400     1.0  0.82905  0.81338  0.59280  1.0000
  C   C2401     1.0  0.84439  0.80958  0.60393  1.0000
  C   C2402     1.0  0.85686  0.79095  0.60559  1.0000
  C   C2403     1.0  0.85395  0.77621  0.59593  1.0000
  C   C2404     1.0  0.83818  0.77974  0.58538  1.0000
  H   H4260     1.0  0.81932  0.82770  0.59183  1.0000
  H   H4261     1.0  0.84647  0.82107  0.61141  1.0000
  H   H4262     1.0  0.86391  0.76212  0.59639  1.0000
  H   H4263     1.0  0.83583  0.76813  0.57821  1.0000
  H   H4264     1.0  0.73428  0.87505  0.55645  1.0000
  C   C2405     1.0  0.73981  0.89411  0.61914  1.0000
  C   C2406     1.0  0.75238  0.87809  0.61122  1.0000
  C   C2407     1.0  0.76299  0.88105  0.59214  1.0000
  C   C2408     1.0  0.76127  0.90014  0.58094  1.0000
  C   C2409     1.0  0.74857  0.91616  0.58878  1.0000
  C   C2410     1.0  0.73773  0.91312  0.60778  1.0000
  H   H4265     1.0  0.75398  0.86333  0.61991  1.0000
  H   H4266     1.0  0.77270  0.86861  0.58618  1.0000
  H   H4267     1.0  0.74716  0.93091  0.58011  1.0000
  H   H4268     1.0  0.72785  0.92542  0.61367  1.0000
  H   H4269     1.0  0.96101  0.62219  0.57245  1.0000
  H   H4270     1.0  0.88598  0.63692  0.66145  1.0000
  H   H4271     1.0  0.91565  0.62213  0.57957  1.0000
  C   C2411     1.0  0.69779  0.91779  0.55239  1.0000
  H   H4272     1.0  0.91421  0.89368  0.47863  1.0000
  H   H4273     1.0  0.75934  0.91971  0.67689  1.0000
  H   H4274     1.0  0.88093  0.64110  0.68633  1.0000
  H   H4275     1.0  0.94824  0.55236  0.48492  1.0000
  H   H4276     1.0  0.97295  0.57754  0.52967  1.0000
  H   H4277     1.0  0.91978  0.64485  0.51389  1.0000
  H   H4278     1.0  0.95569  0.49719  0.49846  1.0000
  H   H4279     1.0  0.89911  0.86280  0.48699  1.0000
  C   C2412     1.0  0.95716  0.67965  0.57884  1.0000
  C   C2413     1.0  0.94028  0.68197  0.59318  1.0000
  H   H4280     1.0  0.95870  0.69078  0.56586  1.0000
  H   H4281     1.0  0.66594  0.90903  0.62328  1.0000
  H   H4282     1.0  0.92956  0.84615  0.54863  1.0000
  S   S555      1.0  0.89892  0.93378  0.48580  1.0000
  H   H4283     1.0  0.75786  0.95577  0.65867  1.0000
  H   H4284     1.0  0.86820  0.84775  0.59027  1.0000
  C   C2414     1.0  0.87206  0.87639  0.50340  1.0000
  H   H4285     1.0  0.96108  0.59245  0.59740  1.0000
  H   H4286     1.0  0.92865  0.64084  0.58273  1.0000
  C   C2415     1.0  0.92498  0.61473  0.50848  1.0000
  H   H4287     1.0  0.85217  0.78411  0.66536  1.0000
  H   H4288     1.0  0.94409  0.61293  0.60678  1.0000
  C   C2416     1.0  0.93710  0.85129  0.51754  1.0000
  H   H4289     1.0  0.79814  0.95770  0.57303  1.0000
  C   C2417     1.0  0.79399  0.48590  0.65441  1.0000
  H   H4290     1.0  0.85459  0.79901  0.53968  1.0000
  H   H4291     1.0  0.97455  0.52471  0.49779  1.0000
  H   H4292     1.0  0.86235  0.92491  0.51083  1.0000
  H   H4293     1.0  0.73025  0.91167  0.55252  1.0000
  H   H4294     1.0  0.95177  0.63963  0.62520  1.0000
  H   H4295     1.0  0.94607  0.83619  0.51673  1.0000
  C   C2418     1.0  0.95336  0.65089  0.61235  1.0000
  H   H4296     1.0  0.72253  0.94309  0.55675  1.0000
  H   H4297     1.0  0.92980  0.85635  0.50449  1.0000
  H   H4298     1.0  0.78274  0.97611  0.60028  1.0000
  H   H4299     1.0  0.95823  0.64256  0.54462  1.0000
  H   H4300     1.0  0.80252  0.49853  0.65173  1.0000
  C   C2419     1.0  0.87041  0.91130  0.50576  1.0000
  C   C2420     1.0  0.92152  0.85098  0.53612  1.0000
  H   H4301     1.0  0.94720  0.65621  0.51382  1.0000
  H   H4302     1.0  0.86136  0.88451  0.58005  1.0000
  H   H4303     1.0  0.96047  0.74169  0.57071  1.0000
  H   H4304     1.0  0.94360  0.66213  0.55621  1.0000
  C   C2421     1.0  0.91642  0.65467  0.68587  1.0000
  C   C2422     1.0  0.93844  0.66769  0.61007  1.0000
  C   C2423     1.0  0.72080  0.88435  0.55133  1.0000
  H   H4305     1.0  0.80470  0.72348  0.62068  1.0000
  C   C2424     1.0  0.96916  0.73111  0.58101  1.0000
  H   H4306     1.0  0.80359  0.93079  0.57768  1.0000
  H   H4307     1.0  0.67215  0.97420  0.62312  1.0000
  H   H4308     1.0  0.91543  0.82262  0.53255  1.0000
  C   C2425     1.0  0.86179  0.89376  0.51050  1.0000
  H   H4309     1.0  0.91869  0.64763  0.65639  1.0000
  C   C2426     1.0  0.94077  0.66523  0.70159  1.0000
  C   C2427     1.0  0.79947  0.77220  0.63104  1.0000
  H   H4310     1.0  0.92524  0.66921  0.62103  1.0000
  H   H4311     1.0  0.96034  0.68747  0.50617  1.0000
  C   C2428     1.0  0.92873  0.62987  0.57312  1.0000
  N   N134      1.0  0.80737  0.75305  0.64338  1.0000
  C   C2429     1.0  0.90176  0.82372  0.57223  1.0000
  H   H4312     1.0  0.84578  0.76089  0.67948  1.0000
  C   C2430     1.0  0.91154  0.64270  0.67153  1.0000
  H   H4313     1.0  0.85195  0.84430  0.57488  1.0000
  H   H4314     1.0  0.81628  0.94522  0.58841  1.0000
  H   H4315     1.0  0.85116  0.79574  0.48808  1.0000
  H   H4316     1.0  0.88642  0.81298  0.52327  1.0000
  C   C2431     1.0  0.92644  0.79624  0.58780  1.0000
  H   H4317     1.0  0.87044  0.81292  0.56694  1.0000
  H   H4318     1.0  0.93459  0.59348  0.59928  1.0000
  H   H4319     1.0  0.94697  0.62109  0.68336  1.0000
  H   H4320     1.0  0.86392  0.83051  0.54672  1.0000
  H   H4321     1.0  0.87459  0.78118  0.52928  1.0000
  H   H4322     1.0  0.89839  0.84329  0.52411  1.0000
  H   H4323     1.0  0.68547  0.95061  0.58586  1.0000
  H   H4324     1.0  0.96182  0.62883  0.69701  1.0000
  H   H4325     1.0  0.77960  0.75021  0.66308  1.0000
  C   C2432     1.0  0.94793  0.61437  0.57534  1.0000
  C   C2433     1.0  0.94674  0.60263  0.59599  1.0000
  H   H4326     1.0  0.89034  0.86294  0.56198  1.0000
  H   H4327     1.0  0.92290  0.61087  0.54885  1.0000
  H   H4328     1.0  0.67682  0.95726  0.53716  1.0000
  C   C2434     1.0  0.86986  0.79072  0.54081  1.0000
  H   H4329     1.0  0.87729  0.69401  0.69778  1.0000
  C   C2435     1.0  0.97201  0.73090  0.63779  1.0000
  H   H4330     1.0  0.96038  0.71902  0.58819  1.0000
  H   H4331     1.0  0.65946  0.93107  0.59309  1.0000
  H   H4332     1.0  0.97416  0.66941  0.67674  1.0000
  C   C2436     1.0  0.83863  0.67074  0.69683  1.0000
  H   H4333     1.0  0.79132  0.76895  0.62034  1.0000
  C   C2437     1.0  0.94350  0.66575  0.52534  1.0000
  N   N135      1.0  0.69218  0.93784  0.55929  1.0000
  C   C2438     1.0  0.94348  0.65248  0.54552  1.0000
  H   H4334     1.0  0.89909  0.79610  0.54113  1.0000
  C   C2439     1.0  0.96784  0.52429  0.48502  1.0000
  H   H4335     1.0  0.93971  0.51990  0.50420  1.0000
  H   H4336     1.0  0.91603  0.79563  0.60191  1.0000
  H   H4337     1.0  0.91652  0.62641  0.67563  1.0000
  H   H4338     1.0  0.66160  0.92871  0.53937  1.0000
  C   C2440     1.0  0.86274  0.85358  0.57630  1.0000
  C   C2441     1.0  0.70464  0.97225  0.55190  1.0000
  H   H4339     1.0  0.72532  0.96503  0.59000  1.0000
  H   H4340     1.0  0.95454  0.65913  0.70797  1.0000
  H   H4341     1.0  0.89044  0.82113  0.58558  1.0000
  H   H4342     1.0  0.82754  0.78361  0.67954  1.0000
  C   C2442     1.0  0.88031  0.85362  0.55890  1.0000
  H   H4343     1.0  0.96993  0.64045  0.47207  1.0000
  C   C2443     1.0  0.78842  0.48448  0.69108  1.0000
  H   H4344     1.0  0.95066  0.60333  0.56527  1.0000
  H   H4345     1.0  0.87425  0.86191  0.54567  1.0000
  H   H4346     1.0  0.84816  0.84268  0.47780  1.0000
  C   C2444     1.0  0.67755  0.91771  0.61464  1.0000
  C   C2445     1.0  0.67330  0.94935  0.55238  1.0000
  C   C2446     1.0  0.83996  0.77504  0.67048  1.0000
  C   C2447     1.0  0.91498  0.80305  0.57079  1.0000
  H   H4347     1.0  0.72349  0.88661  0.53518  1.0000
  H   H4348     1.0  0.94954  0.64813  0.65793  1.0000
  H   H4349     1.0  0.78162  0.74060  0.64137  1.0000
  H   H4350     1.0  0.80350  0.72094  0.67616  1.0000
  H   H4351     1.0  0.87617  0.79190  0.49319  1.0000
  H   H4352     1.0  0.84612  0.76297  0.64400  1.0000
  C   C2448     1.0  0.82322  0.74097  0.63055  1.0000
  H   H4353     1.0  0.69991  0.97452  0.56721  1.0000
  H   H4354     1.0  0.95881  0.56391  0.50658  1.0000
  C   C2449     1.0  0.89949  0.89385  0.48725  1.0000
  H   H4355     1.0  0.76788  0.81779  0.63610  1.0000
  H   H4356     1.0  0.96749  0.58745  0.49610  1.0000
  H   H4357     1.0  0.68568  0.90867  0.55744  1.0000
  C   C2450     1.0  0.78257  0.96268  0.61184  1.0000
  C   C2451     1.0  0.95022  0.51294  0.49246  1.0000
  H   H4358     1.0  0.93508  0.78100  0.58691  1.0000
  C   C2452     1.0  0.70894  0.94962  0.55022  1.0000
  H   H4359     1.0  0.87976  0.69497  0.57393  1.0000
  H   H4360     1.0  0.77128  0.78202  0.64983  1.0000
  C   C2453     1.0  0.77866  0.80686  0.62802  1.0000
  C   C2454     1.0  0.90652  0.83684  0.53646  1.0000
  C   C2455     1.0  0.88458  0.80517  0.53858  1.0000
  N   N136      1.0  0.92685  0.64031  0.55265  1.0000
  C   C2456     1.0  0.90653  0.65325  0.55359  1.0000
  C   C2457     1.0  0.92876  0.62440  0.54009  1.0000
  C   C2458     1.0  0.78527  0.94396  0.60198  1.0000
  H   H4361     1.0  0.77160  0.94274  0.59686  1.0000
  C   C2459     1.0  0.90277  0.67056  0.56562  1.0000
  H   H4362     1.0  0.92897  0.67555  0.52421  1.0000
  C   C2460     1.0  0.91772  0.62996  0.52237  1.0000
  H   H4363     1.0  0.77797  0.49195  0.65422  1.0000
  C   C2461     1.0  0.88190  0.68271  0.56524  1.0000
  H   H4364     1.0  0.80617  0.74359  0.70890  1.0000
  H   H4365     1.0  0.89473  0.64373  0.55962  1.0000
  H   H4366     1.0  0.90352  0.66044  0.53891  1.0000
  H   H4367     1.0  0.90680  0.65068  0.70002  1.0000
  H   H4368     1.0  0.97406  0.68144  0.64090  1.0000
  H   H4369     1.0  0.94730  0.86190  0.51743  1.0000
  C   C2462     1.0  0.94982  0.65834  0.66814  1.0000
  C   C2463     1.0  0.81615  0.73321  0.61444  1.0000
  H   H4370     1.0  0.84032  0.70778  0.61247  1.0000
  H   H4371     1.0  0.90393  0.66492  0.58110  1.0000
  H   H4372     1.0  0.80486  0.76386  0.67061  1.0000
  H   H4373     1.0  0.83866  0.87432  0.58975  1.0000
  H   H4374     1.0  0.94316  0.68028  0.69338  1.0000
  H   H4375     1.0  0.90147  0.63011  0.52751  1.0000
  H   H4376     1.0  0.67595  0.93169  0.62065  1.0000
  H   H4377     1.0  0.85791  0.81191  0.50208  1.0000
  C   C2464     1.0  0.96995  0.64825  0.59765  1.0000
  C   C2465     1.0  0.94616  0.63031  0.69481  1.0000
  H   H4378     1.0  0.79202  0.79262  0.65284  1.0000
  H   H4379     1.0  0.91357  0.68105  0.55953  1.0000
  H   H4380     1.0  0.87999  0.68953  0.55011  1.0000
  C   C2466     1.0  0.78498  0.78800  0.64211  1.0000
  C   C2467     1.0  0.95940  0.67926  0.52130  1.0000
  H   H4381     1.0  0.84553  0.88142  0.56386  1.0000
  H   H4382     1.0  0.91073  0.67999  0.71218  1.0000
  H   H4383     1.0  0.97884  0.51554  0.47491  1.0000
  C   C2468     1.0  0.76632  0.94979  0.64533  1.0000
  H   H4384     1.0  0.65769  0.88166  0.70539  1.0000
  H   H4385     1.0  0.97115  0.73934  0.59225  1.0000
  H   H4386     1.0  0.91071  0.83397  0.57557  1.0000
  H   H4387     1.0  0.79354  0.49932  0.68704  1.0000
  H   H4388     1.0  0.93698  0.80660  0.58739  1.0000
  C   C2469     1.0  0.77791  0.71030  0.67213  1.0000
  C   C2470     1.0  0.75821  0.93012  0.64608  1.0000
  C   C2471     1.0  0.76457  0.91414  0.66278  1.0000
  C   C2472     1.0  0.97186  0.66276  0.58102  1.0000
  H   H4389     1.0  0.79179  0.81405  0.62061  1.0000
  H   H4390     1.0  0.80986  0.74586  0.60404  1.0000
  H   H4391     1.0  0.94262  0.58724  0.48091  1.0000
  H   H4392     1.0  0.94210  0.51287  0.48052  1.0000
  H   H4393     1.0  0.77915  0.67985  0.71950  1.0000
  H   H4394     1.0  0.74468  0.95153  0.61651  1.0000
  H   H4395     1.0  0.90546  0.79164  0.57146  1.0000
  C   C2473     1.0  0.83356  0.72089  0.60280  1.0000
  C   C2474     1.0  0.79624  0.72039  0.66378  1.0000
  N   N137      1.0  0.89168  0.83335  0.55502  1.0000
  H   H4396     1.0  0.82728  0.67126  0.68823  1.0000
  H   H4397     1.0  0.78966  0.93025  0.61223  1.0000
  H   H4398     1.0  0.84718  0.89376  0.51940  1.0000
  H   H4399     1.0  0.91092  0.67080  0.68120  1.0000
  H   H4400     1.0  0.66650  0.96137  0.56129  1.0000
  H   H4401     1.0  0.91372  0.86662  0.53636  1.0000
  H   H4402     1.0  0.74168  0.93309  0.64855  1.0000
  H   H4403     1.0  0.76321  0.92370  0.63252  1.0000
  H   H4404     1.0  0.78104  0.90984  0.66051  1.0000
  H   H4405     1.0  0.75788  0.90059  0.66343  1.0000
  C   C2475     1.0  0.87693  0.82081  0.55256  1.0000
  H   H4406     1.0  0.77035  0.70873  0.66027  1.0000
  H   H4407     1.0  0.80122  0.82138  0.48187  1.0000
  H   H4408     1.0  0.83122  0.48176  0.68533  1.0000
  C   C2476     1.0  0.81233  0.47975  0.71408  1.0000
  H   H4409     1.0  0.95938  0.73861  0.63115  1.0000
  H   H4410     1.0  0.77145  0.80322  0.61681  1.0000
  C   C2477     1.0  0.98284  0.56953  0.51830  1.0000
  H   H4411     1.0  0.81194  0.77952  0.62202  1.0000
  H   H4412     1.0  0.69979  0.92003  0.53620  1.0000
  H   H4413     1.0  0.83124  0.72800  0.63940  1.0000
  H   H4414     1.0  0.82998  0.72909  0.70089  1.0000
  H   H4415     1.0  0.76725  0.71911  0.68244  1.0000
  C   C2478     1.0  0.79036  0.74175  0.65252  1.0000
  H   H4416     1.0  0.82816  0.71537  0.59145  1.0000
  C   C2479     1.0  0.80187  0.94456  0.58422  1.0000
  H   H4417     1.0  0.82376  0.74297  0.66724  1.0000
  C   C2480     1.0  0.89102  0.87635  0.49213  1.0000
  H   H4418     1.0  0.77197  0.48790  0.69156  1.0000
  C   C2481     1.0  0.85144  0.87479  0.57751  1.0000
  H   H4419     1.0  0.84516  0.73022  0.59549  1.0000
  C   C2482     1.0  0.67480  0.92266  0.59340  1.0000
  H   H4420     1.0  0.83486  0.75007  0.62297  1.0000
  H   H4421     1.0  0.95557  0.69034  0.53145  1.0000
  H   H4422     1.0  0.67616  0.90822  0.58829  1.0000
  H   H4423     1.0  0.88152  0.82472  0.47381  1.0000
  C   C2483     1.0  0.86324  0.80341  0.48976  1.0000
  H   H4424     1.0  0.94479  0.61905  0.53469  1.0000
  H   H4425     1.0  0.88355  0.66191  0.66656  1.0000
  H   H4426     1.0  0.91883  0.62127  0.71384  1.0000
  H   H4427     1.0  0.92377  0.59930  0.51628  1.0000
  C   C2484     1.0  0.88912  0.64589  0.67154  1.0000
  H   H4428     1.0  0.98201  0.65575  0.63687  1.0000
  H   H4429     1.0  0.91577  0.61820  0.49680  1.0000
  H   H4430     1.0  0.84227  0.91601  0.47861  1.0000
  C   C2485     1.0  0.97220  0.65912  0.66733  1.0000
  H   H4431     1.0  0.79646  0.96144  0.61782  1.0000
  H   H4432     1.0  0.95944  0.59570  0.71930  1.0000
  N   N138      1.0  0.76454  0.96569  0.62751  1.0000
  H   H4433     1.0  0.81133  0.49621  0.71282  1.0000
  C   C2486     1.0  0.74533  0.96608  0.62049  1.0000
  H   H4434     1.0  0.73562  0.97480  0.55147  1.0000
  C   C2487     1.0  0.93492  0.62015  0.71414  1.0000
  C   C2488     1.0  0.96089  0.54572  0.47468  1.0000
  C   C2489     1.0  0.65683  0.93728  0.55170  1.0000
  H   H4435     1.0  0.77199  0.51379  0.71252  1.0000
  C   C2490     1.0  0.81940  0.73357  0.71385  1.0000
  H   H4436     1.0  0.98352  0.70190  0.67964  1.0000
  H   H4437     1.0  0.82004  0.86410  0.47384  1.0000
  H   H4438     1.0  0.80603  0.70730  0.71889  1.0000
  S   S556      1.0  0.98298  0.62518  0.50867  1.0000
  H   H4439     1.0  0.98047  0.64407  0.67199  1.0000
  C   C2491     1.0  0.98202  0.66654  0.64661  1.0000
  H   H4440     1.0  0.94144  0.59002  0.70672  1.0000
  C   C2492     1.0  0.84000  0.65612  0.71350  1.0000
  H   H4441     1.0  0.98464  0.66104  0.56986  1.0000
  C   C2493     1.0  0.86789  0.66918  0.71907  1.0000
  C   C2494     1.0  0.92326  0.66985  0.71832  1.0000
  H   H4442     1.0  0.82984  0.64540  0.71761  1.0000
  C   C2495     1.0  0.94336  0.59787  0.71832  1.0000
  H   H4443     1.0  0.78157  0.97664  0.65695  1.0000
  C   C2496     1.0  0.66114  0.97687  0.61381  1.0000
  H   H4444     1.0  0.65361  0.92651  0.56514  1.0000
  C   C2497     1.0  0.98609  0.56187  0.48420  1.0000
  C   C2498     1.0  0.98570  0.71031  0.66509  1.0000
  C   C2499     1.0  0.86960  0.81750  0.47108  1.0000
  C   C2500     1.0  0.81132  0.53359  0.75200  1.0000
  C   C2501     1.0  0.71088  0.60759  0.87209  1.0000
  H   H4445     1.0  0.65538  0.81612  0.77435  1.0000
  S   S557      1.0  0.90712  0.51828  0.82537  1.0000
  C   C2502     1.0  0.77342  0.50484  0.72705  1.0000
  C   C2503     1.0  0.79493  0.67286  0.74422  1.0000
  Fe  Fe279     1.0  0.67129  0.69015  0.87886  1.0000
  C   C2504     1.0  0.66839  0.85368  0.76607  1.0000
  H   H4446     1.0  0.68491  0.58077  0.89078  1.0000
  Fe  Fe280     1.0  0.70914  0.70527  0.85705  1.0000
  S   S558      1.0  0.69531  0.73776  0.85689  1.0000
  S   S559      1.0  0.74107  0.69290  0.84512  1.0000
  Fe  Fe281     1.0  0.68133  0.72786  0.88802  1.0000
  H   H4447     1.0  0.97974  0.52258  0.92237  1.0000
  H   H4448     1.0  0.96030  0.57073  0.89585  1.0000
  H   H4449     1.0  0.69771  0.81536  0.81734  1.0000
  S   S560      1.0  0.69764  0.69647  0.88887  1.0000
  S   S561      1.0  0.68383  0.69665  0.84722  1.0000
  Fe  Fe282     1.0  0.81381  0.58207  0.75546  1.0000
  S   S562      1.0  0.84067  0.58455  0.76726  1.0000
  C   C2505     1.0  0.69204  0.63569  0.83750  1.0000
  Fe  Fe283     1.0  0.78890  0.61795  0.77368  1.0000
  S   S563      1.0  0.81409  0.62216  0.78691  1.0000
  S   S564      1.0  0.75932  0.63873  0.77873  1.0000
  Fe  Fe284     1.0  0.83293  0.61771  0.75800  1.0000
  Fe  Fe285     1.0  0.81899  0.58887  0.79445  1.0000
  S   S565      1.0  0.82317  0.57159  0.82366  1.0000
  C   C2506     1.0  0.83000  0.66511  0.79213  1.0000
  S   S566      1.0  0.79244  0.58461  0.78338  1.0000
  C   C2507     1.0  0.71991  0.64271  0.88861  1.0000
  H   H4450     1.0  0.70149  0.63634  0.82284  1.0000
  C   C2508     1.0  0.74571  0.67783  0.82675  1.0000
  C   C2509     1.0  0.76362  0.66434  0.82446  1.0000
  C   C2510     1.0  0.76779  0.65208  0.81003  1.0000
  C   C2511     1.0  0.75437  0.65359  0.79735  1.0000
  C   C2512     1.0  0.73647  0.66714  0.79960  1.0000
  C   C2513     1.0  0.73209  0.67914  0.81431  1.0000
  H   H4451     1.0  0.77419  0.66316  0.83409  1.0000
  H   H4452     1.0  0.78130  0.64133  0.80895  1.0000
  H   H4453     1.0  0.72592  0.66836  0.78994  1.0000
  H   H4454     1.0  0.71834  0.68965  0.81577  1.0000
  H   H4455     1.0  0.84236  0.51036  0.78152  1.0000
  S   S567      1.0  0.87641  0.49607  0.87495  1.0000
  C   C2514     1.0  0.69886  0.71642  0.93526  1.0000
  C   C2515     1.0  0.68389  0.73318  0.93512  1.0000
  H   H4456     1.0  0.66879  0.69064  0.93094  1.0000
  H   H4457     1.0  0.95782  0.52592  0.89998  1.0000
  C   C2516     1.0  0.67341  0.81343  0.80283  1.0000
  H   H4458     1.0  0.70585  0.71106  0.92183  1.0000
  C   C2517     1.0  0.84161  0.48323  0.80173  1.0000
  H   H4459     1.0  0.82414  0.48295  0.75420  1.0000
  H   H4460     1.0  0.98295  0.56407  0.96137  1.0000
  H   H4461     1.0  0.72494  0.65909  0.90987  1.0000
  C   C2518     1.0  0.79745  0.49755  0.77023  1.0000
  H   H4462     1.0  0.82924  0.49707  0.82756  1.0000
  H   H4463     1.0  0.78522  0.54815  0.76896  1.0000
  H   H4464     1.0  0.68863  0.62385  0.89322  1.0000
  H   H4465     1.0  0.77725  0.58503  0.83098  1.0000
  C   C2519     1.0  0.87620  0.51172  0.76144  1.0000
  C   C2520     1.0  0.79380  0.53397  0.76575  1.0000
  C   C2521     1.0  0.96762  0.55630  0.94059  1.0000
  C   C2522     1.0  0.76319  0.59487  0.82786  1.0000
  C   C2523     1.0  0.79862  0.72031  0.74580  1.0000
  H   H4466     1.0  0.74677  0.64281  0.90018  1.0000
  H   H4467     1.0  0.74357  0.62310  0.87496  1.0000
  H   H4468     1.0  0.89079  0.50838  0.75187  1.0000
  H   H4469     1.0  0.83566  0.51470  0.73707  1.0000
  H   H4470     1.0  0.93676  0.62698  0.72642  1.0000
  C   C2524     1.0  0.88362  0.53184  0.82199  1.0000
  C   C2525     1.0  0.88206  0.55112  0.81109  1.0000
  C   C2526     1.0  0.86331  0.56316  0.81082  1.0000
  C   C2527     1.0  0.84621  0.55586  0.82147  1.0000
  C   C2528     1.0  0.84768  0.53618  0.83129  1.0000
  C   C2529     1.0  0.86637  0.52410  0.83133  1.0000
  H   H4471     1.0  0.89539  0.55708  0.80366  1.0000
  H   H4472     1.0  0.86218  0.57837  0.80310  1.0000
  H   H4473     1.0  0.83439  0.53032  0.83904  1.0000
  H   H4474     1.0  0.86740  0.50877  0.83855  1.0000
  H   H4475     1.0  0.69530  0.58831  0.90919  1.0000
  C   C2530     1.0  0.92391  0.51369  0.94677  1.0000
  C   C2531     1.0  0.91120  0.51151  0.93457  1.0000
  C   C2532     1.0  0.89167  0.52186  0.93644  1.0000
  H   H4476     1.0  0.67551  0.66528  0.82894  1.0000
  C   C2533     1.0  0.88478  0.53415  0.95076  1.0000
  H   H4477     1.0  0.93908  0.50579  0.94511  1.0000
  H   H4478     1.0  0.91660  0.50190  0.92363  1.0000
  H   H4479     1.0  0.80885  0.67696  0.73524  1.0000
  H   H4480     1.0  0.93527  0.59101  0.73240  1.0000
  N   N139      1.0  0.65418  0.84489  0.78313  1.0000
  Fe  Fe286     1.0  0.89132  0.49970  0.89882  1.0000
  C   C2534     1.0  0.70321  0.64155  0.85191  1.0000
  H   H4481     1.0  0.67489  0.81029  0.83365  1.0000
  C   C2535     1.0  0.87636  0.53183  0.76811  1.0000
  C   C2536     1.0  0.87997  0.54823  0.75057  1.0000
  C   C2537     1.0  0.81554  0.49710  0.75728  1.0000
  H   H4482     1.0  0.89409  0.54372  0.74077  1.0000
  H   H4483     1.0  0.88117  0.56214  0.75563  1.0000
  H   H4484     1.0  0.71568  0.63026  0.90022  1.0000
  C   C2538     1.0  0.68985  0.61183  0.88462  1.0000
  C   C2539     1.0  0.67524  0.74019  0.95273  1.0000
  C   C2540     1.0  0.78240  0.68983  0.75512  1.0000
  H   H4485     1.0  0.83940  0.67549  0.79438  1.0000
  H   H4486     1.0  0.86196  0.53698  0.77721  1.0000
  H   H4487     1.0  0.82724  0.70510  0.73083  1.0000
  H   H4488     1.0  0.80258  0.68392  0.80033  1.0000
  S   S568      1.0  0.85665  0.63745  0.74587  1.0000
  H   H4489     1.0  0.70642  0.65360  0.88587  1.0000
  S   S569      1.0  0.87573  0.51937  0.92108  1.0000
  H   H4490     1.0  0.82118  0.70315  0.77161  1.0000
  C   C2541     1.0  0.70512  0.70671  0.95279  1.0000
  C   C2542     1.0  0.98249  0.56309  0.92226  1.0000
  H   H4491     1.0  0.97258  0.55308  0.88031  1.0000
  H   H4492     1.0  0.77501  0.70005  0.79034  1.0000
  C   C2543     1.0  0.88978  0.48999  0.78872  1.0000
  H   H4493     1.0  0.67652  0.84458  0.80073  1.0000
  H   H4494     1.0  0.66182  0.67184  0.95130  1.0000
  H   H4495     1.0  0.75243  0.71974  0.76631  1.0000
  H   H4496     1.0  0.77182  0.69911  0.74578  1.0000
  H   H4497     1.0  0.78592  0.50894  0.73216  1.0000
  S   S570      1.0  0.80746  0.61519  0.74402  1.0000
  H   H4498     1.0  0.76485  0.74084  0.76497  1.0000
  H   H4499     1.0  0.86738  0.55148  0.74234  1.0000
  H   H4500     1.0  0.81355  0.50299  0.80900  1.0000
  H   H4501     1.0  0.82274  0.68430  0.75754  1.0000
  H   H4502     1.0  0.83803  0.65695  0.78009  1.0000
  H   H4503     1.0  0.66941  0.59663  0.90720  1.0000
  H   H4504     1.0  0.78494  0.72872  0.74033  1.0000
  N   N140      1.0  0.71917  0.62538  0.85936  1.0000
  Fe  Fe287     1.0  0.90545  0.49950  0.85521  1.0000
  H   H4505     1.0  0.76933  0.66165  0.73929  1.0000
  S   S571      1.0  0.66673  0.91022  0.72597  1.0000
  C   C2544     1.0  0.74748  0.73215  0.79266  1.0000
  C   C2545     1.0  0.78314  0.66694  0.73081  1.0000
  H   H4506     1.0  0.71688  0.69387  0.95269  1.0000
  N   N141      1.0  0.84089  0.57465  0.88290  1.0000
  C   C2546     1.0  0.83574  0.55463  0.89351  1.0000
  C   C2547     1.0  0.84303  0.58753  0.89719  1.0000
  C   C2548     1.0  0.82371  0.58514  0.87267  1.0000
  C   C2549     1.0  0.85946  0.57236  0.86775  1.0000
  C   C2550     1.0  0.87855  0.56050  0.87508  1.0000
  C   C2551     1.0  0.83353  0.53956  0.88079  1.0000
  C   C2552     1.0  0.82549  0.60656  0.86133  1.0000
  C   C2553     1.0  0.85042  0.57664  0.91638  1.0000
  C   C2554     1.0  0.85512  0.59145  0.92759  1.0000
  C   C2555     1.0  0.89616  0.55954  0.85833  1.0000
  C   C2556     1.0  0.82821  0.52009  0.89344  1.0000
  C   C2557     1.0  0.80622  0.61651  0.85375  1.0000
  H   H4507     1.0  0.82167  0.55691  0.90417  1.0000
  H   H4508     1.0  0.84727  0.54661  0.90220  1.0000
  H   H4509     1.0  0.85300  0.59864  0.88991  1.0000
  H   H4510     1.0  0.82841  0.59667  0.90213  1.0000
  H   H4511     1.0  0.80948  0.58596  0.88329  1.0000
  H   H4512     1.0  0.82177  0.57654  0.86175  1.0000
  H   H4513     1.0  0.85688  0.56536  0.85581  1.0000
  H   H4514     1.0  0.86319  0.58729  0.86057  1.0000
  H   H4515     1.0  0.87663  0.54492  0.88172  1.0000
  H   H4516     1.0  0.88271  0.56803  0.88572  1.0000
  H   H4517     1.0  0.82158  0.54548  0.87197  1.0000
  H   H4518     1.0  0.84776  0.53573  0.87093  1.0000
  H   H4519     1.0  0.83755  0.60591  0.84845  1.0000
  H   H4520     1.0  0.82873  0.61637  0.87057  1.0000
  H   H4521     1.0  0.83864  0.56872  0.92597  1.0000
  H   H4522     1.0  0.86399  0.56540  0.91383  1.0000
  C   C2558     1.0  0.66448  0.83608  0.80051  1.0000
  H   H4523     1.0  0.86742  0.59922  0.91891  1.0000
  C   C2559     1.0  0.68465  0.59317  0.89879  1.0000
  H   H4524     1.0  0.89289  0.55241  0.84696  1.0000
  H   H4525     1.0  0.89953  0.57475  0.85184  1.0000
  H   H4526     1.0  0.90955  0.55038  0.86364  1.0000
  H   H4527     1.0  0.83972  0.51321  0.90265  1.0000
  H   H4528     1.0  0.81350  0.52294  0.90294  1.0000
  H   H4529     1.0  0.82746  0.50928  0.88398  1.0000
  H   H4530     1.0  0.80803  0.63158  0.84534  1.0000
  H   H4531     1.0  0.80268  0.60747  0.84392  1.0000
  H   H4532     1.0  0.79359  0.61824  0.86600  1.0000
  C   C2560     1.0  0.95201  0.54106  0.90398  1.0000
  H   H4533     1.0  0.72532  0.61068  0.83394  1.0000
  H   H4534     1.0  0.88849  0.53038  0.77658  1.0000
  H   H4535     1.0  0.80478  0.73119  0.75173  1.0000
  H   H4536     1.0  0.87900  0.66878  0.72789  1.0000
  H   H4537     1.0  0.85994  0.58324  0.94137  1.0000
  C   C2561     1.0  0.73327  0.65330  0.89650  1.0000
  H   H4538     1.0  0.67820  0.61654  0.87529  1.0000
  H   H4539     1.0  0.69527  0.83100  0.76513  1.0000
  C   C2562     1.0  0.68486  0.80721  0.81986  1.0000
  H   H4540     1.0  0.66128  0.80425  0.80598  1.0000
  H   H4541     1.0  0.74113  0.50857  0.73632  1.0000
  H   H4542     1.0  0.70785  0.83887  0.73004  1.0000
  H   H4543     1.0  0.95897  0.49352  0.85909  1.0000
  N   N142      1.0  0.79361  0.70322  0.76181  1.0000
  C   C2563     1.0  0.96799  0.56746  0.95706  1.0000
  H   H4544     1.0  0.74241  0.71865  0.80211  1.0000
  H   H4545     1.0  0.95221  0.55989  0.93742  1.0000
  C   C2564     1.0  0.81331  0.71484  0.72734  1.0000
  H   H4546     1.0  0.86068  0.49365  0.95893  1.0000
  H   H4547     1.0  0.68863  0.62026  0.84223  1.0000
  C   C2565     1.0  0.67250  0.64995  0.83541  1.0000
  H   H4548     1.0  0.75539  0.73928  0.80092  1.0000
  C   C2566     1.0  0.89746  0.53612  0.96316  1.0000
  H   H4549     1.0  0.65377  0.83765  0.81435  1.0000
  C   C2567     1.0  0.75246  0.60394  0.84587  1.0000
  C   C2568     1.0  0.98589  0.50592  0.85550  1.0000
  H   H4550     1.0  0.73789  0.66618  0.88561  1.0000
  H   H4551     1.0  0.68363  0.80947  0.78956  1.0000
  H   H4552     1.0  0.70977  0.59638  0.86314  1.0000
  H   H4553     1.0  0.69057  0.79088  0.82143  1.0000
  H   H4554     1.0  0.66532  0.69555  0.95566  1.0000
  C   C2569     1.0  0.76106  0.72663  0.77404  1.0000
  H   H4555     1.0  0.73763  0.63150  0.83121  1.0000
  H   H4556     1.0  0.90423  0.49030  0.77853  1.0000
  H   H4557     1.0  0.77268  0.68216  0.76765  1.0000
  H   H4558     1.0  0.79921  0.65944  0.75491  1.0000
  H   H4559     1.0  0.72141  0.59952  0.88203  1.0000
  H   H4560     1.0  0.76302  0.61218  0.84964  1.0000
  H   H4561     1.0  0.92213  0.53882  0.90066  1.0000
  H   H4562     1.0  0.85920  0.48074  0.75948  1.0000
  S   S572      1.0  0.91922  0.50641  0.87862  1.0000
  C   C2570     1.0  0.73111  0.63439  0.87002  1.0000
  N   N143      1.0  0.87273  0.49422  0.77747  1.0000
  Fe  Fe288     1.0  0.66901  0.72838  0.84914  1.0000
  H   H4563     1.0  0.79231  0.65471  0.72333  1.0000
  S   S573      1.0  0.66060  0.66130  0.89326  1.0000
  H   H4564     1.0  0.69201  0.64691  0.86401  1.0000
  H   H4565     1.0  0.86466  0.51452  0.75193  1.0000
  H   H4566     1.0  0.85517  0.50923  0.80095  1.0000
  H   H4567     1.0  0.67784  0.82754  0.75069  1.0000
  C   C2571     1.0  0.82217  0.51508  0.74778  1.0000
  H   H4568     1.0  0.82761  0.65401  0.80562  1.0000
  H   H4569     1.0  0.76698  0.60689  0.81554  1.0000
  H   H4570     1.0  0.67662  0.86378  0.77068  1.0000
  C   C2572     1.0  0.78024  0.71214  0.77868  1.0000
  C   C2573     1.0  0.91708  0.52596  0.96109  1.0000
  H   H4571     1.0  0.75376  0.58577  0.82353  1.0000
  H   H4572     1.0  0.74921  0.59153  0.85792  1.0000
  H   H4573     1.0  0.80066  0.66584  0.78589  1.0000
  H   H4574     1.0  0.93662  0.55083  0.87917  1.0000
  H   H4575     1.0  0.78870  0.72034  0.78545  1.0000
  H   H4576     1.0  0.77275  0.51652  0.78463  1.0000
  H   H4577     1.0  0.98265  0.51662  0.84278  1.0000
  C   C2574     1.0  0.80989  0.67660  0.78754  1.0000
  H   H4578     1.0  0.66377  0.75326  0.95271  1.0000
  C   C2575     1.0  0.93308  0.54926  0.89528  1.0000
  H   H4579     1.0  0.94153  0.67091  0.73961  1.0000
  H   H4580     1.0  0.73806  0.64665  0.85996  1.0000
  C   C2576     1.0  0.78674  0.51603  0.77461  1.0000
  C   C2577     1.0  0.68446  0.83874  0.75549  1.0000
  H   H4581     1.0  0.92612  0.56401  0.89959  1.0000
  C   C2578     1.0  0.69614  0.84973  0.73730  1.0000
  H   H4582     1.0  0.73408  0.74283  0.78896  1.0000
  H   H4583     1.0  0.70976  0.65508  0.84430  1.0000
  S   S574      1.0  0.67538  0.74529  0.91325  1.0000
  C   C2579     1.0  0.73309  0.61841  0.84182  1.0000
  S   S575      1.0  0.81922  0.55598  0.73895  1.0000
  C   C2580     1.0  0.81259  0.69223  0.76879  1.0000
  H   H4584     1.0  0.75534  0.50240  0.75605  1.0000
  H   H4585     1.0  0.66260  0.65037  0.84977  1.0000
  H   H4586     1.0  0.86966  0.54213  0.95227  1.0000
  H   H4587     1.0  0.65999  0.86354  0.75504  1.0000
  C   C2581     1.0  0.96794  0.55495  0.89593  1.0000
  H   H4588     1.0  0.94785  0.53927  0.91996  1.0000
  C   C2582     1.0  0.82396  0.49105  0.81645  1.0000
  C   C2583     1.0  0.97236  0.49300  0.86486  1.0000
  C   C2584     1.0  0.92941  0.68061  0.73249  1.0000
  H   H4589     1.0  0.97664  0.57906  0.91735  1.0000
  H   H4590     1.0  0.84173  0.60270  0.93122  1.0000
  H   H4591     1.0  0.75304  0.52721  0.74208  1.0000
  H   H4592     1.0  0.91643  0.68430  0.74392  1.0000
  H   H4593     1.0  0.88886  0.50215  0.79723  1.0000
  C   C2585     1.0  0.85306  0.50025  0.79031  1.0000
  H   H4594     1.0  0.68607  0.85741  0.72683  1.0000
  C   C2586     1.0  0.75453  0.51105  0.74124  1.0000
  H   H4595     1.0  0.70343  0.86106  0.74117  1.0000
  H   H4596     1.0  0.91765  0.65621  0.72670  1.0000
  C   C2587     1.0  0.65978  0.68812  0.94575  1.0000
  H   H4597     1.0  0.96398  0.58387  0.95262  1.0000
  H   H4598     1.0  0.66461  0.64482  0.82563  1.0000
  H   H4599     1.0  0.76224  0.47871  0.72463  1.0000
  C   C2588     1.0  0.85455  0.65539  0.72475  1.0000
  C   C2589     1.0  0.77677  0.48201  0.72641  1.0000
  H   H4600     1.0  0.93458  0.69479  0.72472  1.0000
  H   H4601     1.0  0.82701  0.74184  0.72133  1.0000
  H   H4602     1.0  0.97112  0.54008  0.94612  1.0000
  H   H4603     1.0  0.89328  0.48039  0.74066  1.0000
  C   C2590     1.0  0.97648  0.47901  0.88120  1.0000
  H   H4604     1.0  0.65430  0.88714  0.78389  1.0000
  S   S576      1.0  0.65399  0.72088  0.87998  1.0000
  H   H4605     1.0  0.65315  0.87309  0.80816  1.0000
  C   C2591     1.0  0.69629  0.71342  0.97044  1.0000
  C   C2592     1.0  0.68122  0.73018  0.97041  1.0000
  N   N144      1.0  0.98606  0.55129  0.90575  1.0000
  H   H4606     1.0  0.98597  0.58311  0.87276  1.0000
  H   H4607     1.0  0.88458  0.47926  0.95123  1.0000
  H   H4608     1.0  0.95696  0.56260  0.96988  1.0000
