data_image0
_chemical_formula_structural       FeS2HCH4FeS2FeS2FeSFeS3HSH2C7H4C2HCHCHC2H3C2HCHC6H5CH4CNSHCHSHCHCH5CHCSFeH10CH10CHC4H2C2H2CH4NH2CH5C3HSHC2H2FeCH4NCHC2H3C2H6C2HCHCH6CH2C6H13NHC4H3CH3CHCH2SH4C2HCH4C3H2CH4CH2FeS2FeS2FeSFeS4CHS2FeS2FeS2FeCFeS3FeS2FeS2FeSFeCS2FeS2HCFeS2HCHFeS2HCH2C2HC4H4C6H4C6H5C6H4C6H4CHC6H4C6H6C4H4C3H2CH4CHC2NCH4CH3FeCNCHCH2CH2CH7SNCH3CHCH6CH4CHC3HCH2CH2CSCHCH4CNC9H23CH9CHCH4C3HNC8HC2H19CH6CH2CHCH2NC2HC3HC3H4FeH7FeH4CH7CH6CH10SC2HC3HCH4CH6C2H9C2HCH5CH2CH5CH2NH2C2H4CHCH2CH5C2HNC3H2CH5CH2CH2CHC3H2CH3CHCH2CHNH2C3SHSNHSH2CH3C2HC2HCH4CH2CH2SH2NFeSCFeS2FeS2FeSFeS3FeS2H3CH2CHC6H4CH2CH2C3HC7H5SCH6CH2CHC3HSFeHCHCHCHC2HCH4CHCHCH9CH3NH3C2HCNHCH5C2NH3CHCNHC8H2C2H9CH3CH2C2H4CH6C3H2CH4C2H4CHSCH6CHCH2CH5CH3CH2C2HCSC2H4CH3FeHCH3CH3FeSHSFeS2FeS2FeSFeS3CHSC6H5CHC3HC6H8CHC3H3C2SNCHC2HFeH5SH2C3NH2S2C2H7C2H6CH3CHC2HCH3C3H3FeCH5CH3C2H3CSH4CH2CH7CHCHCNH4CHCH2CHCH2CH5FeCHCHCH4CHSH3CH5NC3HSH4CH5CH2C2HFeCH2CHFeS2FeS2FeSFeS5FeHSFeSFeSH3SH3FeSCFeS2FeS2FeHFeS3FeS2FeS2FeHFeS3FeS2FeS2FeS2H2CHS2C2H2FeH2NC6H4C6H4C6H3CH2C6H4C6H4CHCH2CHSCH2CH3C3HC7H4C6H4FeC3HCH2CH2C2H3NHCH5CHC2HCHC2H12NC2HC8H26CHCH2NC6HC4FeH12CH18NC12H26CHC4HC2H6SHC2H5CSC2SH4C4H2CHFeH3SC2HCH8C2H3CH2CNCH7CH10CH4C3HCH3CH3CH2CNH2CHNC2H4SH2CHNH2SC3H4C2H2CH2C4HC2HNC2H2C2NH2CHC2H3C2H7SH2CHCH3C3H3CH3CH2SHC3HC2H3CH7FeCH5CH2CHCH5CH4CH3C3H2CH2CHCH2CHC3HFeCH3FeSHSHFeS2FeS2FeSFeS3FeHSFeH2CH2C6H9CH2CHC6H11NSH2CHCHCH2CH2CH6CH4C3NFeHC3H2C3HSH3SHCH4CH3CHCH3C2HCH3CHCHCH2NC11H29CH3SHCH6C3HCHC4H2CH4CHC2HCH3CNCH2CHFeS2H3FeCHSFeHSC2H2CSHFeS2FeS2FeSFeS3FeS2FeS2FeSFeS3HSHSFeSFeSHC6H4CH2CHC6H5C2H5C6H8SHC6H7CHC3HCNHC3HCHCH8SH2CH4CNH2CHCH2CH6CH2NH3C2HC2H5FeH4CHCHCH5C2H4FeH2C3H6CH2CH2NC12H28CH3NC8H19CHC3H3C2H3C2H2CHCSHCH3CH2C4H2NH5NCH4C2HCH3CHC2H2C2HC2H2SH2C3H2C2SH4CHSFeSCNS2FeH3CH2C4HCH3C5H3C7H6SCSH2CHCHCH6CH2SH4C2H2C2HCH3C3SHC2HNH3C2H4CHSH4CH3SCH2SH4CH4C3H8CH2CH4C2HCHCH3CH3C3H3FeCHCHNFeC2HC2H3CH4C2H3CH10CH3CH3CH2Fe2SFeCH2S2HSFeS2FeS2FeSFeS3FeS2FeS2FeSFeS3FeSHNSHFeSFeSHSH4C6H4SHNH2C2HC7H8SC2NHC6H4CHC6H4CH3CHCH3SH5CH2CH3FeH2C6HCH4C2H5CH4CHCH5CH3C3H2FeH2C2H3CH2SH6CH2SH3CHCH7CH2NC9H7CH11CHNC8HC3H18C2H2NCHCH6CHC2H3C4H3C4H5NC3H4CH5C4H9CH2C2HC4HCH4CHCH2CH9FeC3H2CSHCHFeH2CH7NCH2CHCHCH2CHCHCHCH3CHCH2C2SCHSH2FeSCFeS2FeS2FeSFeS3FeS2FeS2FeSFeS5C2FeSH2C3HC6H5CSH2C6H4C2H3C2HC6H7C10H9NH3NHFeSHC2FeHCH8FeHCH7CNC8H19CH2C3H6CH2CHCHCH2CHC2NC10H26NCHC2H2C2HC3H7CH2SCH2CHCH3CH4CH10CHCH9CH3C2NC5HC3HC2H10CH8NHC3H3C2H4C2H5CHCH6C3H3CH3CH3CH2CH4CH2CH4SCH2SHSC2H3C2H2CFeH2CH4S3CH2SC2HCH2C4HC2H4C3H2NCH2C5HCH7C5H3C3H4CH3C2H6CNHCHCH5C3HC3H2CH3CHSHC2H4C2H2CFeH2CH2CHC2HCH2CH4CH3SH4FeH2C3FeH5NCH2SH2CH2CH2SHCH2CH3C2HNSHC2FeH2C2H2SH2SC2SH5CH3C2H2SCHCHC2H2CHSFeSHSFeS2FeS2FeSFeS3FeS2FeS2FeSFeS3HSH2SHFeSFeSH3C4H2C6H5SC6H4CHNH2CHCH2C6H7CH2C7H4CNC9HC2H20CH8C3HCHNC2HCH6CH15C2H4CNC12H28CHC3H3C2H2C5H13C2SCH2C2H5C2HCH6CH4C2H5CH3NHC3H5SC2H3C5H4SH3SHCHCH4C2HNHC2H4CHCHFeH3CHC2H2CH2C2H2CHC2FeCH6NC2HCH4CH7CH5CFeH2CH2CSHFeC2FeS2CHSHCFeHSFeS2HFeS2FeS2FeSFeS3CSHSHFeSCHCFeS2FeS2FeSFeCS2C3H9C6H4C6H4C3H2C6H5C2HCH5C6H5CH4C5H6CH4CH3C4H11NH2CNCNH3FeHNC5SC7H10SH7CH8NC6HC3H13CH4CHCH3CH4CH2C3H4CH4CHCH4CH4CHCH3CHCHSH3SH9C2H2CH2CHCHCH2FeH6CHNCHCH2CH2CNH6C5HCH5C5H9CH2C2H2CSH2CH8C2H2FeNSC2HCHCH2CH2CHC3HCSH2C2H2CH4FeHSHS2HCHFeCSHCS3HCHCH3CSCHC3HC2H4C6H3C3HCSH4C2H2SHFeH10C2H3CH2C4H2C3H4CNC5HC6H4NH5C2H10FeCH3CH5CHCH2C2HS2H4NFeCHCHCH3CHFeSH4CHC2HCHCH5C2H3CH2SHNHCFeCSCFeSH2SFeS2FeS2FeSFeS3FeSHCSHFeSFeSHSFeS2FeS2FeSFeS4H3NFeH2CHC9H4C6H4C2H6C6H4C6H7C4H6CHC2H2CHCHCH3C2H3CHCH6CH2CH7C2HC2HCH2SCH6NH2CHC4H3CH3CHNH8C2H2CH4NC10H22NC5HC2HCHCH5C2H5CHSCH5NC4HC3H2C2H8FeCH7C2H2CH6CNC3HSCH5SHC2HCHCH3CHCHCH2CHFeH3CH5FeH3CHCHCH2CNH3CHCH5C2H3FeC2H4SH4CH6CH2C3H2CHSH2SHSHFeSHSFeSCFeSFeSHFeS2FeS2FeSFeS3FeS2FeS2FeSFeHS2H2C3HCH3CH3C6H4C3H2NHC6H4C3H3C6H4FeH3C8H4CH2CH3CH5CNC2H2CH2CH2CH5C6H7C2H3NH4CH4CHSC2H2C2NHCH5C2HCSC3H5C2H6CHC2H6SCH2C3HCH3CH4C2H5SH7CHCHC2FeHCH3C2H2NHCH2CH4SCH5CH3C2H4CHC2H2CH2CH4FeHCHC5HSH2C4H3CHCH3CH2CH2CH6C3HCHCH2NH5SHCHCHCH3CH2CH6CH9FeH2CH3CH4FeHSFeSHCS2HFeS2FeS2FeSHC2SCH2CH2CHC6HCH2C3H2C5H3C2HC4H3CH12CH2CH2CHCH7CHC2H2CH5CSH2CH2CHNC5HCNH3C3H7CH6CSCH4C2H6CHC3HC3H6CNH2CH6CH2CH2CH2CH2NHCHCH5CH2C2H2CH3NH2C3H2CHC2HNSCHC3H2SHC2H2SHFeSHFeSFeHSHFeS2FeS2FeSFeS3FeSHFeS2FeSFeS3HC6H4CH3CHCHC6H4C2H2SC6H7CHCH4C6H4CH4CH8CH2C2H2NC3HCS2C2HCH5C2HC2H3CH7CHFeC2NC10H24C2H2CHC3H3C2HCH3C3HCH6CH4CH5NH2NCH2CH5C2H2CHCHCH3CHC4H2CH2CFeH5CH2SH7CHCH5CH2CH5C2NH5NH2CSH2CSCH4SCHC2H7SCH2C3H3CH4CHC2H5C2H5CH4CHCH3CH4FeH2CH2C2HFeS2HCSFeS2FeS2FeSFeS3C4H2SHC2H3C6H4C8H5CNCH9CH5NHFeH3CHC2SH2C2H7CHCHCH3CNC9HCH10CH9CHCH5C2HCH2C2HC3FeH6CH7CHC2HC3HCHCH3CH16CHFeS2FeS2FeSFeS3H4SH3CFeS2H6FeS2FeS2FeSFeS3FeS2FeS2FeSFeHS2FeS2FeSFeHSHC2HC6H4C9H4C5HS2HCNH2C6H7C6H8C6H4C6H6CH2C4H7C2H4CH3CH2CHC3HCHN2C3SC4H2C2H2CH3C2HCH4NSH7CH3CH7C2H2C2H3CH2C5H17CH2CH2CHCH4CH3SH2C3H6SH5FeNC10HCH23CH4C2H3CHC7H6CHC3FeCH2CH2C2NCH3CH2C2HCH2CH3CH7CHSCHCH2CH3C3HC2HNCH2NCHCHCH3CHCH4C3H2C2HSH3CH2CH4SH8C2H2CH7CH4CH4CH2C2HSH4C2HCH9CH3FeSHSFeS2FeS2FeS2FeSFeS3HC4H3C4H4C7H5C2HC6H4CH5NC4HC3HC3H9CH4CH5CH3CH3NC11H30CH3CH3CNH2C2H5CHCH2CH2CH6C2HCSH7CH3CHSHCH4CH2SH2C2H5C2H2CHNHCH5C2HCHCHC2H2CHCHC2H3CHCFeHCHNH3CH4CHC4H8CSHCFeS2FeS2FeSFeS4C4H2C6H4NCHC7H7CHC3NC11H20CHCH4CHCH3C2H4CNH4CH2CH4NH2C3H2C2HCH9C2H2CH3CHC4H5CHCHC2H4CH2C3H9FeHC2H5NCHC2SH4CH8CH3CHCH4CH4CH7CH5CH2FeS2FeS2FeSFeS3FeS2H3S5HFeSFe2S2FeS2FeS2FeS2FeSFeS3FeS2FeS2FeSFeS3FeS2C2HCFeSHSHC9H4C6H4C6H5C2H3C7H4CHC6H6CHCHCH2C6H4C6H7C2H4CNHCH4NC12H31C2HC7H2CH6C2H3CH5C3SHC3H2CH2C2H6C2H2CFeH2CHCH3CH8CHCH5CH7C2HCHNCFeH2CHC2H2CHC2H3NH4NCH2CH4C3H3CH3FeCH2C2H2CHCH2C4H6SHC2H3CH6NCHCSCH7C2FeH4SHCHCHCFeH2CFeH4C2H6CH2NCFeHCH5CHCHS2H6C2HCH8C2HSH2C3H10CNHC2H6CH6C3NHCHCH2C2H3CHCH2CSC2HC2H5CH4CHCH4CH2CHCHSFeS2FeS2FeSFeS3H2CNSHC3HC6H5C7H4C6H6FeCHC2H3C2H4CH3NH2CHFeH8C2H3CHCH8CH5S2HCHCH2CH11CHC2H4S
_chemical_formula_sum              "Fe288 S576 H4608 C2592 N144"
_cell_length_a       71.7553
_cell_length_b       71.7043
_cell_length_c       71.6845
_cell_angle_alpha    84.661
_cell_angle_beta     85.8419
_cell_angle_gamma    85.2231

_space_group_name_H-M_alt    "P 1"
_space_group_IT_number       1

loop_
  _space_group_symop_operation_xyz
  'x, y, z'

loop_
  _atom_site_type_symbol
  _atom_site_label
  _atom_site_symmetry_multiplicity
  _atom_site_fract_x
  _atom_site_fract_y
  _atom_site_fract_z
  _atom_site_occupancy
  Fe  Fe1       1.0  0.02698  0.39083  0.09161  1.0000
  S   S1        1.0  0.02157  0.40465  0.06277  1.0000
  S   S2        1.0  0.05653  0.37816  0.09695  1.0000
  H   H1        1.0  0.04848  0.43387  0.06171  1.0000
  C   C1        1.0  0.17014  0.48473  0.21038  1.0000
  H   H2        1.0  0.12417  0.43739  0.12621  1.0000
  H   H3        1.0  0.06095  0.41368  0.07362  1.0000
  H   H4        1.0  0.07017  0.42381  0.05128  1.0000
  H   H5        1.0  0.12368  0.42520  0.10519  1.0000
  Fe  Fe2       1.0  0.13189  0.39307  0.17142  1.0000
  S   S3        1.0  0.13712  0.40978  0.19530  1.0000
  S   S4        1.0  0.10052  0.39507  0.16700  1.0000
  Fe  Fe3       1.0  0.17432  0.38089  0.16528  1.0000
  S   S5        1.0  0.18175  0.39640  0.18930  1.0000
  S   S6        1.0  0.19464  0.36707  0.14319  1.0000
  Fe  Fe4       1.0  0.15600  0.38459  0.20510  1.0000
  S   S7        1.0  0.15314  0.37553  0.23682  1.0000
  Fe  Fe5       1.0  0.16192  0.42010  0.17783  1.0000
  S   S8        1.0  0.16808  0.45039  0.16810  1.0000
  S   S9        1.0  0.14985  0.36745  0.18184  1.0000
  S   S10       1.0  0.15543  0.40509  0.15317  1.0000
  H   H6        1.0  0.03413  0.46117  0.15278  1.0000
  S   S11       1.0  0.11321  0.30753  0.28429  1.0000
  H   H7        1.0  0.12292  0.44810  0.16882  1.0000
  H   H8        1.0  0.06002  0.43120  0.13372  1.0000
  C   C2        1.0  0.10833  0.45447  0.16773  1.0000
  C   C3        1.0  0.14198  0.35648  0.24974  1.0000
  C   C4        1.0  0.13641  0.35773  0.26889  1.0000
  C   C5        1.0  0.12765  0.34297  0.27970  1.0000
  C   C6        1.0  0.12443  0.32663  0.27154  1.0000
  C   C7        1.0  0.13015  0.32533  0.25244  1.0000
  C   C8        1.0  0.13891  0.34007  0.24164  1.0000
  H   H9        1.0  0.13886  0.37024  0.27540  1.0000
  H   H10       1.0  0.12342  0.34421  0.29435  1.0000
  H   H11       1.0  0.12801  0.31268  0.24600  1.0000
  H   H12       1.0  0.14369  0.33856  0.22717  1.0000
  C   C9        1.0  0.21944  0.36282  0.13849  1.0000
  C   C10       1.0  0.22631  0.35767  0.12060  1.0000
  H   H13       1.0  0.09071  0.40287  0.24378  1.0000
  C   C11       1.0  0.23239  0.36418  0.15192  1.0000
  H   H14       1.0  0.12054  0.31629  0.17262  1.0000
  C   C12       1.0  0.07440  0.22714  0.32115  1.0000
  H   H15       1.0  0.22743  0.36770  0.16585  1.0000
  C   C13       1.0  0.17081  0.46970  0.18121  1.0000
  C   C14       1.0  0.17525  0.48681  0.17137  1.0000
  H   H16       1.0  0.04339  0.31452  0.05948  1.0000
  H   H17       1.0  0.13434  0.33063  0.18458  1.0000
  H   H18       1.0  0.04752  0.27986  0.06126  1.0000
  C   C15       1.0  0.16829  0.46869  0.20080  1.0000
  C   C16       1.0  0.24575  0.35418  0.11608  1.0000
  H   H19       1.0  0.07762  0.32510  0.21989  1.0000
  C   C17       1.0  0.01821  0.48985  0.07701  1.0000
  H   H20       1.0  0.16486  0.45562  0.20857  1.0000
  C   C18       1.0  0.06863  0.38282  0.11653  1.0000
  C   C19       1.0  0.08792  0.37749  0.11703  1.0000
  C   C20       1.0  0.09797  0.38101  0.13238  1.0000
  C   C21       1.0  0.08874  0.38982  0.14744  1.0000
  C   C22       1.0  0.06942  0.39489  0.14705  1.0000
  C   C23       1.0  0.05943  0.39154  0.13165  1.0000
  H   H21       1.0  0.09515  0.37062  0.10546  1.0000
  H   H22       1.0  0.11282  0.37690  0.13256  1.0000
  H   H23       1.0  0.06216  0.40169  0.15864  1.0000
  H   H24       1.0  0.04456  0.39556  0.13155  1.0000
  H   H25       1.0  0.11946  0.41308  0.12803  1.0000
  C   C24       1.0  0.10640  0.47419  0.17453  1.0000
  H   H26       1.0  0.02964  0.47945  0.00774  1.0000
  H   H27       1.0  0.10895  0.31878  0.20594  1.0000
  H   H28       1.0  0.21355  0.42729  0.10507  1.0000
  H   H29       1.0  0.01649  0.39537  0.02327  1.0000
  C   C25       1.0  0.00891  0.39028  0.01254  1.0000
  N   N1        1.0  0.02418  0.33339  0.04345  1.0000
  S   S12       1.0  0.01293  0.41475  0.10649  1.0000
  H   H30       1.0  0.00414  0.34933  0.06080  1.0000
  C   C26       1.0  0.03467  0.35080  0.03861  1.0000
  H   H31       1.0  0.23807  0.40650  0.11414  1.0000
  S   S13       1.0  0.09676  0.27111  0.32519  1.0000
  H   H32       1.0  0.02385  0.29113  0.30299  1.0000
  C   C27       1.0  0.04784  0.35565  0.05342  1.0000
  H   H33       1.0  0.24344  0.40832  0.16578  1.0000
  C   C28       1.0  0.01211  0.47859  0.11522  1.0000
  H   H34       1.0  0.23169  0.44145  0.16624  1.0000
  H   H35       1.0  0.09163  0.47984  0.17329  1.0000
  H   H36       1.0  0.21441  0.41636  0.19823  1.0000
  H   H37       1.0  0.01802  0.29432  0.04783  1.0000
  H   H38       1.0  0.02216  0.34897  0.00340  1.0000
  C   C29       1.0  0.04595  0.28116  0.04588  1.0000
  H   H39       1.0  0.07044  0.36515  0.03369  1.0000
  C   C30       1.0  0.01075  0.33251  0.02832  1.0000
  S   S14       1.0  0.00847  0.45704  0.06569  1.0000
  Fe  Fe6       1.0  0.00541  0.42734  0.07793  1.0000
  H   H40       1.0  0.23968  0.05511  0.28817  1.0000
  H   H41       1.0  0.18526  0.14831  0.32069  1.0000
  H   H42       1.0  0.00966  0.47424  0.12999  1.0000
  H   H43       1.0  0.11245  0.40937  0.23176  1.0000
  H   H44       1.0  0.14185  0.36188  0.32736  1.0000
  H   H45       1.0  0.05667  0.34312  0.05873  1.0000
  H   H46       1.0  0.03945  0.36144  0.06549  1.0000
  H   H47       1.0  0.04113  0.26779  0.04200  1.0000
  H   H48       1.0  0.17712  0.48778  0.15624  1.0000
  H   H49       1.0  0.05789  0.48058  0.08780  1.0000
  C   C31       1.0  0.06085  0.37060  0.04515  1.0000
  H   H50       1.0  0.11693  0.34956  0.21095  1.0000
  H   H51       1.0  0.09483  0.32840  0.23548  1.0000
  H   H52       1.0  0.02430  0.43943  0.00258  1.0000
  H   H53       1.0  0.03864  0.44197  0.12493  1.0000
  H   H54       1.0  0.09880  0.44528  0.17654  1.0000
  H   H55       1.0  0.08180  0.47569  0.08011  1.0000
  H   H56       1.0  0.19411  0.18027  0.32551  1.0000
  H   H57       1.0  0.05260  0.38343  0.03954  1.0000
  H   H58       1.0  0.11263  0.38995  0.24953  1.0000
  H   H59       1.0  0.06852  0.22123  0.30925  1.0000
  C   C32       1.0  0.22860  0.41195  0.19216  1.0000
  H   H60       1.0  0.00363  0.43670  0.01811  1.0000
  C   C33       1.0  0.11715  0.42672  0.11955  1.0000
  C   C34       1.0  0.00831  0.46674  0.10173  1.0000
  C   C35       1.0  0.08207  0.33535  0.22901  1.0000
  C   C36       1.0  0.06333  0.44450  0.09387  1.0000
  H   H61       1.0  0.01678  0.28261  0.28195  1.0000
  H   H62       1.0  0.08989  0.42101  0.11219  1.0000
  C   C37       1.0  0.05085  0.44431  0.13289  1.0000
  C   C38       1.0  0.06116  0.46108  0.12307  1.0000
  H   H63       1.0  0.05095  0.31882  0.03555  1.0000
  H   H64       1.0  0.10410  0.36105  0.19247  1.0000
  C   C39       1.0  0.10462  0.39733  0.23796  1.0000
  H   H65       1.0  0.08762  0.43327  0.07660  1.0000
  H   H66       1.0  0.06216  0.43066  0.10202  1.0000
  H   H67       1.0  0.09191  0.32730  0.18955  1.0000
  H   H68       1.0  0.10200  0.35878  0.24169  1.0000
  N   N2        1.0  0.08699  0.35337  0.21777  1.0000
  H   H69       1.0  0.07456  0.45312  0.06500  1.0000
  H   H70       1.0  0.09867  0.46167  0.11638  1.0000
  C   C40       1.0  0.09250  0.45167  0.10809  1.0000
  H   H71       1.0  0.05979  0.28335  0.03835  1.0000
  H   H72       1.0  0.06945  0.37449  0.05625  1.0000
  H   H73       1.0  0.21968  0.40119  0.16764  1.0000
  H   H74       1.0  0.04860  0.44990  0.09138  1.0000
  H   H75       1.0  0.00323  0.31952  0.03044  1.0000
  C   C41       1.0  0.07215  0.47669  0.09288  1.0000
  C   C42       1.0  0.07340  0.44022  0.07466  1.0000
  C   C43       1.0  0.22192  0.43168  0.16186  1.0000
  H   H76       1.0  0.00371  0.49298  0.03008  1.0000
  S   S15       1.0  0.07596  0.31341  0.32807  1.0000
  H   H77       1.0  0.11770  0.34150  0.16816  1.0000
  C   C44       1.0  0.10358  0.34951  0.20399  1.0000
  C   C45       1.0  0.07786  0.49370  0.10253  1.0000
  H   H78       1.0  0.01957  0.30743  0.28282  1.0000
  H   H79       1.0  0.11794  0.48589  0.14790  1.0000
  Fe  Fe7       1.0  0.10334  0.30098  0.31538  1.0000
  C   C46       1.0  0.06254  0.42707  0.06477  1.0000
  H   H80       1.0  0.09218  0.49110  0.10751  1.0000
  H   H81       1.0  0.10119  0.45188  0.09458  1.0000
  H   H82       1.0  0.07438  0.37656  0.20027  1.0000
  H   H83       1.0  0.10457  0.45497  0.15295  1.0000
  N   N3        1.0  0.22082  0.43373  0.14079  1.0000
  C   C47       1.0  0.20694  0.42071  0.13553  1.0000
  H   H84       1.0  0.21304  0.45626  0.11981  1.0000
  C   C48       1.0  0.21316  0.45365  0.13535  1.0000
  C   C49       1.0  0.20138  0.42386  0.11486  1.0000
  H   H85       1.0  0.02226  0.44932  0.02510  1.0000
  H   H86       1.0  0.02459  0.36327  0.03615  1.0000
  H   H87       1.0  0.04347  0.34968  0.02527  1.0000
  C   C50       1.0  0.19326  0.40663  0.10856  1.0000
  C   C51       1.0  0.12037  0.32976  0.17915  1.0000
  H   H88       1.0  0.19372  0.42223  0.14463  1.0000
  H   H89       1.0  0.21203  0.40575  0.13842  1.0000
  H   H90       1.0  0.11659  0.37984  0.21683  1.0000
  H   H91       1.0  0.20792  0.43570  0.16882  1.0000
  H   H92       1.0  0.19825  0.45585  0.14073  1.0000
  H   H93       1.0  0.19053  0.43583  0.11349  1.0000
  C   C52       1.0  0.03822  0.31647  0.04509  1.0000
  C   C53       1.0  0.00516  0.46469  0.00385  1.0000
  H   H94       1.0  0.04981  0.47246  0.12095  1.0000
  C   C54       1.0  0.10238  0.38405  0.22290  1.0000
  H   H95       1.0  0.21650  0.35636  0.11012  1.0000
  C   C55       1.0  0.04353  0.44804  0.15285  1.0000
  H   H96       1.0  0.18870  0.40971  0.09405  1.0000
  H   H97       1.0  0.20400  0.39454  0.10867  1.0000
  H   H98       1.0  0.18096  0.40269  0.11797  1.0000
  H   H99       1.0  0.09031  0.43242  0.13362  1.0000
  H   H100      1.0  0.02254  0.33699  0.07329  1.0000
  H   H101      1.0  0.03547  0.43617  0.15913  1.0000
  C   C56       1.0  0.12009  0.48710  0.16288  1.0000
  H   H102      1.0  0.09452  0.39213  0.21169  1.0000
  H   H103      1.0  0.07016  0.46612  0.13330  1.0000
  C   C57       1.0  0.09611  0.43215  0.11888  1.0000
  C   C58       1.0  0.07054  0.36302  0.20779  1.0000
  C   C59       1.0  0.06270  0.35228  0.19273  1.0000
  C   C60       1.0  0.06653  0.33716  0.24510  1.0000
  C   C61       1.0  0.04452  0.36233  0.18580  1.0000
  C   C62       1.0  0.06302  0.31792  0.25524  1.0000
  H   H104      1.0  0.05538  0.44925  0.16171  1.0000
  H   H105      1.0  0.07989  0.37180  0.23999  1.0000
  H   H106      1.0  0.05886  0.36698  0.21807  1.0000
  H   H107      1.0  0.05961  0.33783  0.19819  1.0000
  H   H108      1.0  0.07291  0.35179  0.18033  1.0000
  H   H109      1.0  0.07067  0.34594  0.25584  1.0000
  H   H110      1.0  0.05313  0.34336  0.23957  1.0000
  H   H111      1.0  0.03968  0.35485  0.17436  1.0000
  H   H112      1.0  0.03337  0.36255  0.19738  1.0000
  H   H113      1.0  0.04679  0.37697  0.18014  1.0000
  H   H114      1.0  0.07602  0.31133  0.26142  1.0000
  H   H115      1.0  0.05204  0.31957  0.26684  1.0000
  H   H116      1.0  0.05823  0.30848  0.24543  1.0000
  N   N4        1.0  0.07237  0.45806  0.10471  1.0000
  H   H117      1.0  0.08980  0.22368  0.32043  1.0000
  C   C63       1.0  0.09246  0.36648  0.23147  1.0000
  C   C64       1.0  0.01167  0.47224  0.08264  1.0000
  C   C65       1.0  0.00031  0.32010  0.06947  1.0000
  C   C66       1.0  0.10514  0.33038  0.19516  1.0000
  H   H118      1.0  0.10950  0.47262  0.18956  1.0000
  H   H119      1.0  0.00276  0.45340  0.10612  1.0000
  H   H120      1.0  0.16812  0.48386  0.22553  1.0000
  C   C67       1.0  0.03164  0.29741  0.04047  1.0000
  H   H121      1.0  0.10995  0.36886  0.31730  1.0000
  H   H122      1.0  0.00446  0.31271  0.99691  1.0000
  H   H123      1.0  0.03307  0.32552  0.00653  1.0000
  C   C68       1.0  0.22376  0.46948  0.14221  1.0000
  H   H124      1.0  0.03002  0.29752  0.02518  1.0000
  C   C69       1.0  0.01953  0.33411  0.00785  1.0000
  H   H125      1.0  0.02086  0.49411  0.06224  1.0000
  H   H126      1.0  0.22005  0.47074  0.15741  1.0000
  S   S16       1.0  0.00115  0.37467  0.09324  1.0000
  H   H127      1.0  0.24041  0.20526  0.32729  1.0000
  H   H128      1.0  0.07138  0.24261  0.31954  1.0000
  H   H129      1.0  0.20303  0.49197  0.13328  1.0000
  H   H130      1.0  0.13456  0.48068  0.16504  1.0000
  C   C70       1.0  0.01450  0.44646  0.01293  1.0000
  C   C71       1.0  0.01487  0.29452  0.29095  1.0000
  H   H131      1.0  0.20551  0.21007  0.32514  1.0000
  C   C72       1.0  0.01307  0.33585  0.06190  1.0000
  H   H132      1.0  0.18457  0.24087  0.32258  1.0000
  H   H133      1.0  0.23872  0.42158  0.19612  1.0000
  H   H134      1.0  0.22298  0.48854  0.11666  1.0000
  H   H135      1.0  0.00902  0.30720  0.07403  1.0000
  C   C73       1.0  0.21841  0.48855  0.13180  1.0000
  C   C74       1.0  0.22876  0.41209  0.17080  1.0000
  C   C75       1.0  0.01907  0.49601  0.10958  1.0000
  H   H136      1.0  0.23267  0.39752  0.19834  1.0000
  H   H137      1.0  0.24390  0.39960  0.13762  1.0000
  C   C76       1.0  0.24007  0.43047  0.13092  1.0000
  H   H138      1.0  0.24130  0.43954  0.11747  1.0000
  H   H139      1.0  0.24313  0.03064  0.28394  1.0000
  H   H140      1.0  0.23917  0.46657  0.14012  1.0000
  H   H141      1.0  0.99940  0.34402  0.02918  1.0000
  C   C77       1.0  0.24617  0.41019  0.12569  1.0000
  H   H142      1.0  0.22704  0.17573  0.32916  1.0000
  H   H143      1.0  0.06797  0.49684  0.11465  1.0000
  Fe  Fe8       1.0  0.09422  0.37093  0.47282  1.0000
  S   S17       1.0  0.06993  0.36416  0.49282  1.0000
  S   S18       1.0  0.10396  0.34747  0.45414  1.0000
  Fe  Fe9       1.0  0.09780  0.40780  0.49063  1.0000
  S   S19       1.0  0.07394  0.40306  0.51219  1.0000
  S   S20       1.0  0.11261  0.43494  0.48564  1.0000
  Fe  Fe10      1.0  0.08614  0.37294  0.51571  1.0000
  S   S21       1.0  0.08153  0.35058  0.54011  1.0000
  Fe  Fe11      1.0  0.05979  0.39433  0.48794  1.0000
  S   S22       1.0  0.03024  0.40587  0.48349  1.0000
  S   S23       1.0  0.11145  0.37816  0.49589  1.0000
  S   S24       1.0  0.08272  0.40070  0.46600  1.0000
  S   S25       1.0  0.09951  0.02763  0.39981  1.0000
  C   C78       1.0  0.20570  0.07746  0.53059  1.0000
  H   H144      1.0  0.03439  0.31459  0.54211  1.0000
  S   S26       1.0  0.10923  0.03901  0.60496  1.0000
  S   S27       1.0  0.09126  0.01691  0.56325  1.0000
  Fe  Fe12      1.0  0.17720  0.10143  0.40846  1.0000
  S   S28       1.0  0.20153  0.10693  0.42491  1.0000
  S   S29       1.0  0.17236  0.07016  0.41037  1.0000
  Fe  Fe13      1.0  0.16955  0.14394  0.39606  1.0000
  S   S30       1.0  0.19285  0.15166  0.41246  1.0000
  S   S31       1.0  0.15193  0.16499  0.37670  1.0000
  Fe  Fe14      1.0  0.20992  0.12703  0.40016  1.0000
  C   C79       1.0  0.13531  0.36401  0.35773  1.0000
  Fe  Fe15      1.0  0.18255  0.13068  0.43567  1.0000
  S   S32       1.0  0.17371  0.13206  0.46697  1.0000
  S   S33       1.0  0.18690  0.11992  0.38303  1.0000
  S   S34       1.0  0.15792  0.12451  0.41994  1.0000
  Fe  Fe16      1.0  0.18980  0.11113  0.59609  1.0000
  S   S35       1.0  0.21919  0.11706  0.58517  1.0000
  S   S36       1.0  0.18480  0.08058  0.59280  1.0000
  Fe  Fe17      1.0  0.17923  0.15305  0.60275  1.0000
  S   S37       1.0  0.20807  0.16089  0.59224  1.0000
  S   S38       1.0  0.15384  0.17467  0.60789  1.0000
  Fe  Fe18      1.0  0.20557  0.14224  0.56905  1.0000
  S   S39       1.0  0.21421  0.15131  0.53847  1.0000
  Fe  Fe19      1.0  0.21920  0.13472  0.60946  1.0000
  C   C80       1.0  0.04331  0.38219  0.55283  1.0000
  S   S40       1.0  0.17642  0.13541  0.57855  1.0000
  S   S41       1.0  0.19028  0.12771  0.62147  1.0000
  Fe  Fe20      1.0  0.09771  0.31512  0.64632  1.0000
  S   S42       1.0  0.08919  0.28726  0.63924  1.0000
  S   S43       1.0  0.10164  0.34086  0.62573  1.0000
  H   H145      1.0  0.04664  0.41244  0.54908  1.0000
  C   C81       1.0  0.18200  0.23950  0.33810  1.0000
  Fe  Fe21      1.0  0.11079  0.27450  0.35158  1.0000
  S   S44       1.0  0.11929  0.30350  0.34085  1.0000
  S   S45       1.0  0.13154  0.25430  0.36833  1.0000
  H   H146      1.0  0.08484  0.01214  0.44829  1.0000
  C   C82       1.0  0.03307  0.22588  0.37660  1.0000
  H   H147      1.0  0.04528  0.47954  0.52039  1.0000
  Fe  Fe22      1.0  0.09155  0.31417  0.35423  1.0000
  S   S46       1.0  0.08739  0.34111  0.36907  1.0000
  S   S47       1.0  0.08401  0.28568  0.36665  1.0000
  H   H148      1.0  0.18473  0.13057  0.34020  1.0000
  C   C83       1.0  0.16940  0.19307  0.54367  1.0000
  H   H149      1.0  0.05007  0.22337  0.33972  1.0000
  H   H150      1.0  0.00921  0.34209  0.49061  1.0000
  C   C84       1.0  0.09496  0.49180  0.50949  1.0000
  C   C85       1.0  0.14229  0.23210  0.63364  1.0000
  H   H151      1.0  0.07765  0.26349  0.40331  1.0000
  C   C86       1.0  0.16458  0.20631  0.62363  1.0000
  C   C87       1.0  0.15001  0.19692  0.61770  1.0000
  C   C88       1.0  0.13162  0.20550  0.61947  1.0000
  C   C89       1.0  0.12775  0.22289  0.62741  1.0000
  H   H152      1.0  0.16794  0.15068  0.34019  1.0000
  H   H153      1.0  0.17881  0.20003  0.62236  1.0000
  H   H154      1.0  0.12018  0.19845  0.61498  1.0000
  H   H155      1.0  0.11348  0.22901  0.62895  1.0000
  C   C90       1.0  0.14600  0.18981  0.37504  1.0000
  C   C91       1.0  0.15134  0.20144  0.38802  1.0000
  C   C92       1.0  0.14664  0.22105  0.38581  1.0000
  C   C93       1.0  0.13638  0.22934  0.37072  1.0000
  C   C94       1.0  0.13090  0.21768  0.35782  1.0000
  C   C95       1.0  0.13570  0.19810  0.35997  1.0000
  H   H156      1.0  0.15914  0.19535  0.39975  1.0000
  H   H157      1.0  0.15102  0.22987  0.39587  1.0000
  H   H158      1.0  0.12334  0.22380  0.34595  1.0000
  H   H159      1.0  0.13154  0.18930  0.34977  1.0000
  C   C96       1.0  0.18592  0.13669  0.48651  1.0000
  C   C97       1.0  0.20295  0.14505  0.48452  1.0000
  C   C98       1.0  0.21148  0.14938  0.50057  1.0000
  C   C99       1.0  0.20325  0.14513  0.51873  1.0000
  C   C100      1.0  0.18639  0.13646  0.52070  1.0000
  C   C101      1.0  0.17771  0.13244  0.50467  1.0000
  H   H160      1.0  0.20938  0.14850  0.47065  1.0000
  H   H161      1.0  0.22452  0.15610  0.49889  1.0000
  H   H162      1.0  0.18000  0.13297  0.53457  1.0000
  H   H163      1.0  0.16446  0.12611  0.50634  1.0000
  H   H164      1.0  0.04297  0.34360  0.55401  1.0000
  C   C102      1.0  0.13028  0.05049  0.60136  1.0000
  C   C103      1.0  0.14721  0.04091  0.59572  1.0000
  C   C104      1.0  0.16384  0.05025  0.59371  1.0000
  C   C105      1.0  0.16364  0.06935  0.59683  1.0000
  C   C106      1.0  0.14670  0.07896  0.60242  1.0000
  C   C107      1.0  0.13013  0.06948  0.60486  1.0000
  H   H165      1.0  0.14752  0.02622  0.59335  1.0000
  H   H166      1.0  0.17695  0.04266  0.58965  1.0000
  H   H167      1.0  0.14637  0.09362  0.60495  1.0000
  H   H168      1.0  0.11710  0.07692  0.60942  1.0000
  C   C108      1.0  0.11997  0.03922  0.40254  1.0000
  C   C109      1.0  0.11916  0.05898  0.40019  1.0000
  C   C110      1.0  0.13503  0.06873  0.40250  1.0000
  C   C111      1.0  0.15191  0.05877  0.40714  1.0000
  C   C112      1.0  0.15267  0.03902  0.40956  1.0000
  C   C113      1.0  0.13683  0.02929  0.40724  1.0000
  H   H169      1.0  0.10620  0.06679  0.39650  1.0000
  H   H170      1.0  0.13423  0.08391  0.40057  1.0000
  H   H171      1.0  0.16566  0.03119  0.41312  1.0000
  H   H172      1.0  0.13770  0.01410  0.40894  1.0000
  C   C114      1.0  0.22690  0.18175  0.34298  1.0000
  H   H173      1.0  0.12929  0.29793  0.38625  1.0000
  C   C115      1.0  0.09792  0.34581  0.43089  1.0000
  C   C116      1.0  0.10097  0.32837  0.42324  1.0000
  C   C117      1.0  0.09739  0.32661  0.40445  1.0000
  C   C118      1.0  0.09109  0.34240  0.39303  1.0000
  C   C119      1.0  0.08792  0.35983  0.40069  1.0000
  C   C120      1.0  0.09113  0.36151  0.41961  1.0000
  H   H174      1.0  0.10626  0.31617  0.43188  1.0000
  H   H175      1.0  0.09971  0.31310  0.39877  1.0000
  H   H176      1.0  0.08311  0.37212  0.39191  1.0000
  H   H177      1.0  0.08894  0.37503  0.42531  1.0000
  C   C121      1.0  0.08721  0.34848  0.56387  1.0000
  C   C122      1.0  0.07948  0.33429  0.57618  1.0000
  C   C123      1.0  0.08361  0.33190  0.59519  1.0000
  C   C124      1.0  0.09575  0.34353  0.60202  1.0000
  C   C125      1.0  0.10341  0.35779  0.58973  1.0000
  C   C126      1.0  0.09921  0.36025  0.57071  1.0000
  H   H178      1.0  0.07022  0.32508  0.57099  1.0000
  H   H179      1.0  0.07734  0.32113  0.60459  1.0000
  H   H180      1.0  0.11273  0.36693  0.59494  1.0000
  H   H181      1.0  0.10535  0.37113  0.56136  1.0000
  H   H182      1.0  0.01882  0.33936  0.56047  1.0000
  H   H183      1.0  0.14016  0.47990  0.59968  1.0000
  C   C127      1.0  0.11059  0.47353  0.48512  1.0000
  C   C128      1.0  0.10438  0.45676  0.49439  1.0000
  C   C129      1.0  0.09291  0.45771  0.51098  1.0000
  C   C130      1.0  0.08846  0.47510  0.51860  1.0000
  H   H184      1.0  0.11950  0.47295  0.47232  1.0000
  H   H185      1.0  0.08820  0.44493  0.51835  1.0000
  H   H186      1.0  0.08026  0.47556  0.53184  1.0000
  H   H187      1.0  0.05419  0.31648  0.38447  1.0000
  C   C131      1.0  0.01365  0.38923  0.48407  1.0000
  C   C132      1.0  0.01865  0.37006  0.48783  1.0000
  C   C133      1.0  0.00480  0.26821  0.34311  1.0000
  H   H188      1.0  0.03279  0.36527  0.49062  1.0000
  H   H189      1.0  0.15593  0.03535  0.52538  1.0000
  C   C134      1.0  0.00708  0.29830  0.59151  1.0000
  H   H190      1.0  0.00081  0.03522  0.42888  1.0000
  H   H191      1.0  0.19282  0.06991  0.47219  1.0000
  H   H192      1.0  0.01409  0.48349  0.47965  1.0000
  H   H193      1.0  0.19857  0.33614  0.33233  1.0000
  C   C135      1.0  0.07385  0.22595  0.35685  1.0000
  H   H194      1.0  0.16014  0.48819  0.58565  1.0000
  C   C136      1.0  0.06972  0.22972  0.39076  1.0000
  C   C137      1.0  0.17475  0.06625  0.50833  1.0000
  N   N5        1.0  0.06869  0.21619  0.37594  1.0000
  C   C138      1.0  0.03680  0.37545  0.41878  1.0000
  H   H195      1.0  0.09694  0.20377  0.37980  1.0000
  H   H196      1.0  0.21211  0.21558  0.37566  1.0000
  H   H197      1.0  0.07552  0.02079  0.47011  1.0000
  H   H198      1.0  0.06015  0.24255  0.38782  1.0000
  C   C139      1.0  0.16073  0.22374  0.63147  1.0000
  H   H199      1.0  0.99968  0.00685  0.39802  1.0000
  H   H200      1.0  0.01580  0.21356  0.35791  1.0000
  H   H201      1.0  0.18199  0.32287  0.36151  1.0000
  Fe  Fe23      1.0  0.07037  0.28404  0.33961  1.0000
  C   C140      1.0  0.04725  0.40090  0.56053  1.0000
  N   N6        1.0  0.15012  0.35069  0.36694  1.0000
  C   C141      1.0  0.06677  0.39980  0.56796  1.0000
  H   H202      1.0  0.04961  0.37045  0.56206  1.0000
  C   C142      1.0  0.24250  0.19570  0.34023  1.0000
  H   H203      1.0  0.18649  0.09269  0.49637  1.0000
  H   H204      1.0  0.13966  0.37868  0.35636  1.0000
  C   C143      1.0  0.01540  0.39679  0.53825  1.0000
  H   H205      1.0  0.00339  0.23050  0.37222  1.0000
  H   H206      1.0  0.14142  0.34107  0.60850  1.0000
  C   C144      1.0  0.02019  0.00044  0.50673  1.0000
  H   H207      1.0  0.01337  0.01000  0.51697  1.0000
  H   H208      1.0  0.06944  0.41358  0.57272  1.0000
  H   H209      1.0  0.06795  0.38897  0.58004  1.0000
  H   H210      1.0  0.07764  0.39627  0.55672  1.0000
  H   H211      1.0  0.20959  0.06390  0.53864  1.0000
  H   H212      1.0  0.09458  0.24360  0.37892  1.0000
  H   H213      1.0  0.03169  0.00763  0.49855  1.0000
  S   S48       1.0  0.24545  0.13730  0.62557  1.0000
  N   N7        1.0  0.17115  0.07009  0.52870  1.0000
  C   C145      1.0  0.17388  0.05169  0.54063  1.0000
  H   H214      1.0  0.18063  0.21835  0.36114  1.0000
  H   H215      1.0  0.01873  0.45760  0.50007  1.0000
  H   H216      1.0  0.13353  0.49494  0.52333  1.0000
  C   C146      1.0  0.02572  0.34488  0.41395  1.0000
  H   H217      1.0  0.00014  0.38568  0.41455  1.0000
  C   C147      1.0  0.08809  0.25164  0.40698  1.0000
  H   H218      1.0  0.06951  0.17847  0.36565  1.0000
  H   H219      1.0  0.10574  0.29118  0.57526  1.0000
  H   H220      1.0  0.08872  0.16028  0.38928  1.0000
  H   H221      1.0  0.14130  0.07035  0.52589  1.0000
  H   H222      1.0  0.01457  0.35880  0.61519  1.0000
  H   H223      1.0  0.16344  0.33874  0.61938  1.0000
  C   C148      1.0  0.16449  0.01855  0.54997  1.0000
  H   H224      1.0  0.02822  0.35442  0.58339  1.0000
  H   H225      1.0  0.00029  0.37930  0.60673  1.0000
  H   H226      1.0  0.21578  0.20955  0.40888  1.0000
  H   H227      1.0  0.10201  0.25734  0.40717  1.0000
  C   C149      1.0  0.18269  0.14590  0.33616  1.0000
  H   H228      1.0  0.02099  0.47911  0.52616  1.0000
  C   C150      1.0  0.04904  0.20985  0.37757  1.0000
  C   C151      1.0  0.09068  0.27139  0.59307  1.0000
  C   C152      1.0  0.10586  0.28535  0.59013  1.0000
  H   H229      1.0  0.02458  0.39908  0.52512  1.0000
  C   C153      1.0  0.08236  0.19947  0.38054  1.0000
  H   H230      1.0  0.15290  0.00917  0.55025  1.0000
  H   H231      1.0  0.14522  0.04291  0.54713  1.0000
  C   C154      1.0  0.15466  0.35876  0.38465  1.0000
  H   H232      1.0  0.05075  0.01850  0.44860  1.0000
  H   H233      1.0  0.04704  0.20035  0.36667  1.0000
  C   C155      1.0  0.21481  0.20064  0.38088  1.0000
  S   S49       1.0  0.12362  0.30261  0.66014  1.0000
  C   C156      1.0  0.20420  0.18750  0.37015  1.0000
  H   H234      1.0  0.21328  0.18491  0.40836  1.0000
  C   C157      1.0  0.13369  0.32208  0.54691  1.0000
  H   H235      1.0  0.16378  0.05771  0.50410  1.0000
  H   H236      1.0  0.09062  0.26403  0.60741  1.0000
  H   H237      1.0  0.12196  0.36425  0.36671  1.0000
  H   H238      1.0  0.99953  0.00874  0.48680  1.0000
  C   C158      1.0  0.03004  0.32846  0.53484  1.0000
  N   N8        1.0  0.14938  0.18799  0.54393  1.0000
  C   C159      1.0  0.14828  0.16821  0.55285  1.0000
  C   C160      1.0  0.13630  0.20086  0.55525  1.0000
  C   C161      1.0  0.14357  0.18978  0.52398  1.0000
  C   C162      1.0  0.15363  0.17540  0.51098  1.0000
  C   C163      1.0  0.12916  0.15963  0.55241  1.0000
  C   C164      1.0  0.13732  0.22219  0.54972  1.0000
  C   C165      1.0  0.14693  0.17881  0.49111  1.0000
  C   C166      1.0  0.13014  0.13931  0.56111  1.0000
  C   C167      1.0  0.12327  0.23364  0.56199  1.0000
  H   H239      1.0  0.15119  0.16760  0.56793  1.0000
  H   H240      1.0  0.15943  0.15863  0.54644  1.0000
  H   H241      1.0  0.13850  0.19805  0.57054  1.0000
  H   H242      1.0  0.12151  0.19786  0.55397  1.0000
  H   H243      1.0  0.12819  0.18886  0.52368  1.0000
  H   H244      1.0  0.14626  0.20392  0.51704  1.0000
  H   H245      1.0  0.15076  0.16084  0.51626  1.0000
  H   H246      1.0  0.16902  0.17643  0.50991  1.0000
  H   H247      1.0  0.11802  0.16760  0.56061  1.0000
  H   H248      1.0  0.12486  0.15958  0.53788  1.0000
  H   H249      1.0  0.13389  0.22584  0.53492  1.0000
  H   H250      1.0  0.15145  0.22672  0.55145  1.0000
  H   H251      1.0  0.13165  0.17726  0.49123  1.0000
  H   H252      1.0  0.15001  0.19305  0.48480  1.0000
  H   H253      1.0  0.15437  0.16832  0.48216  1.0000
  H   H254      1.0  0.14099  0.13052  0.55334  1.0000
  H   H255      1.0  0.13346  0.13865  0.57608  1.0000
  H   H256      1.0  0.11638  0.13343  0.56053  1.0000
  H   H257      1.0  0.10876  0.22989  0.56052  1.0000
  H   H258      1.0  0.12651  0.23102  0.57699  1.0000
  H   H259      1.0  0.12397  0.24881  0.55750  1.0000
  H   H260      1.0  0.21390  0.33110  0.35128  1.0000
  H   H261      1.0  0.10201  0.29667  0.59946  1.0000
  C   C168      1.0  0.08346  0.18324  0.36760  1.0000
  H   H262      1.0  0.11909  0.31749  0.57380  1.0000
  H   H263      1.0  0.00412  0.29505  0.60685  1.0000
  H   H264      1.0  0.02517  0.44386  0.53235  1.0000
  H   H265      1.0  0.17502  0.05417  0.55558  1.0000
  H   H266      1.0  0.04062  0.33163  0.52310  1.0000
  H   H267      1.0  0.12071  0.10158  0.54405  1.0000
  H   H268      1.0  0.14092  0.32742  0.57427  1.0000
  H   H269      1.0  0.14691  0.06982  0.56177  1.0000
  H   H270      1.0  0.18159  0.09768  0.52735  1.0000
  C   C169      1.0  0.10567  0.49099  0.49246  1.0000
  H   H271      1.0  0.17702  0.01188  0.54245  1.0000
  C   C170      1.0  0.15067  0.33153  0.61757  1.0000
  H   H272      1.0  0.07672  0.27902  0.59126  1.0000
  H   H273      1.0  0.14910  0.28954  0.39956  1.0000
  H   H274      1.0  0.20551  0.35505  0.34478  1.0000
  H   H275      1.0  0.01620  0.03525  0.61424  1.0000
  C   C171      1.0  0.03632  0.44375  0.52077  1.0000
  C   C172      1.0  0.04834  0.40778  0.42054  1.0000
  C   C173      1.0  0.19704  0.20085  0.56087  1.0000
  H   H276      1.0  0.12651  0.31201  0.60404  1.0000
  N   N9        1.0  0.10933  0.03829  0.46259  1.0000
  C   C174      1.0  0.12156  0.05401  0.45576  1.0000
  C   C175      1.0  0.11957  0.01987  0.45794  1.0000
  C   C176      1.0  0.09193  0.04087  0.45161  1.0000
  C   C177      1.0  0.10330  0.03796  0.48328  1.0000
  C   C178      1.0  0.11706  0.04466  0.49652  1.0000
  C   C179      1.0  0.11185  0.07416  0.45545  1.0000
  C   C180      1.0  0.04073  0.32158  0.39163  1.0000
  C   C181      1.0  0.13907  0.01489  0.46583  1.0000
  H   H277      1.0  0.02263  0.39865  0.43397  1.0000
  C   C182      1.0  0.10897  0.04272  0.51689  1.0000
  C   C183      1.0  0.12625  0.08893  0.45298  1.0000
  H   H278      1.0  0.20660  0.19041  0.55363  1.0000
  H   H279      1.0  0.12743  0.05212  0.44118  1.0000
  H   H280      1.0  0.13399  0.05362  0.46413  1.0000
  H   H281      1.0  0.16445  0.34455  0.34026  1.0000
  H   H282      1.0  0.12126  0.01943  0.44242  1.0000
  H   H283      1.0  0.09581  0.04275  0.43626  1.0000
  H   H284      1.0  0.08341  0.05396  0.45497  1.0000
  H   H285      1.0  0.08998  0.04688  0.48549  1.0000
  H   H286      1.0  0.09989  0.02351  0.48887  1.0000
  H   H287      1.0  0.11944  0.05970  0.49297  1.0000
  H   H288      1.0  0.13081  0.03647  0.49574  1.0000
  H   H289      1.0  0.10280  0.07676  0.44338  1.0000
  H   H290      1.0  0.10299  0.07615  0.46856  1.0000
  H   H291      1.0  0.21471  0.09396  0.55191  1.0000
  H   H292      1.0  0.17216  0.23064  0.63619  1.0000
  H   H293      1.0  0.14843  0.02647  0.46301  1.0000
  H   H294      1.0  0.16787  0.06901  0.47029  1.0000
  H   H295      1.0  0.02080  0.33010  0.45854  1.0000
  H   H296      1.0  0.09035  0.18778  0.35374  1.0000
  C   C184      1.0  0.01993  0.27941  0.34371  1.0000
  H   H297      1.0  0.10594  0.02796  0.52124  1.0000
  H   H298      1.0  0.11912  0.04684  0.52639  1.0000
  H   H299      1.0  0.09580  0.05187  0.51862  1.0000
  H   H300      1.0  0.13498  0.08781  0.46527  1.0000
  H   H301      1.0  0.13554  0.08714  0.44005  1.0000
  H   H302      1.0  0.11896  0.10322  0.45166  1.0000
  C   C185      1.0  0.02109  0.36830  0.58600  1.0000
  H   H303      1.0  0.16768  0.02001  0.56466  1.0000
  H   H304      1.0  0.03678  0.40473  0.57196  1.0000
  C   C186      1.0  0.15861  0.03767  0.53999  1.0000
  H   H305      1.0  0.04653  0.20120  0.39114  1.0000
  C   C187      1.0  0.20168  0.34025  0.34628  1.0000
  H   H306      1.0  0.23711  0.10020  0.36503  1.0000
  H   H307      1.0  0.02765  0.30688  0.34833  1.0000
  N   N10       1.0  0.02777  0.35850  0.42834  1.0000
  C   C188      1.0  0.01618  0.29807  0.34788  1.0000
  C   C189      1.0  0.01455  0.21878  0.37210  1.0000
  H   H308      1.0  0.06484  0.22325  0.40483  1.0000
  C   C190      1.0  0.04006  0.34983  0.44361  1.0000
  C   C191      1.0  0.03548  0.33007  0.45256  1.0000
  C   C192      1.0  0.04425  0.33695  0.40409  1.0000
  H   H309      1.0  0.21519  0.10576  0.52845  1.0000
  C   C193      1.0  0.00401  0.00837  0.44546  1.0000
  C   C194      1.0  0.18456  0.08336  0.53431  1.0000
  C   C195      1.0  0.04829  0.32344  0.46840  1.0000
  H   H310      1.0  0.16762  0.24574  0.34165  1.0000
  H   H311      1.0  0.00752  0.36132  0.53577  1.0000
  H   H312      1.0  0.03660  0.23737  0.36584  1.0000
  H   H313      1.0  0.23006  0.19657  0.37965  1.0000
  Fe  Fe24      1.0  0.11410  0.27448  0.65470  1.0000
  H   H314      1.0  0.13116  0.37104  0.42692  1.0000
  H   H315      1.0  0.06678  0.20350  0.33969  1.0000
  H   H316      1.0  0.05162  0.37149  0.41425  1.0000
  H   H317      1.0  0.05510  0.34890  0.43845  1.0000
  H   H318      1.0  0.03937  0.35907  0.45530  1.0000
  H   H319      1.0  0.03762  0.31953  0.44207  1.0000
  H   H320      1.0  0.01035  0.20734  0.38271  1.0000
  Fe  Fe25      1.0  0.10425  0.01283  0.59102  1.0000
  H   H321      1.0  0.05449  0.33087  0.41428  1.0000
  H   H322      1.0  0.23167  0.16973  0.35302  1.0000
  H   H323      1.0  0.01728  0.35175  0.40244  1.0000
  H   H324      1.0  0.00198  0.35143  0.44409  1.0000
  C   C196      1.0  0.02210  0.36292  0.53916  1.0000
  H   H325      1.0  0.19743  0.21477  0.55272  1.0000
  H   H326      1.0  0.03676  0.43018  0.51443  1.0000
  H   H327      1.0  0.13743  0.01107  0.48118  1.0000
  H   H328      1.0  0.04603  0.33295  0.47987  1.0000
  H   H329      1.0  0.04516  0.30908  0.47428  1.0000
  H   H330      1.0  0.06326  0.32309  0.46308  1.0000
  H   H331      1.0  0.08936  0.22520  0.35420  1.0000
  C   C197      1.0  0.20887  0.19908  0.40183  1.0000
  H   H332      1.0  0.06221  0.03383  0.43077  1.0000
  H   H333      1.0  0.03015  0.38054  0.40552  1.0000
  H   H334      1.0  0.05073  0.34831  0.39491  1.0000
  H   H335      1.0  0.15244  0.09381  0.55696  1.0000
  H   H336      1.0  0.10081  0.37053  0.34117  1.0000
  H   H337      1.0  0.18483  0.23559  0.58041  1.0000
  C   C198      1.0  0.17891  0.07783  0.47384  1.0000
  H   H338      1.0  0.15223  0.00145  0.44159  1.0000
  H   H339      1.0  0.17137  0.20648  0.53488  1.0000
  H   H340      1.0  0.17892  0.18194  0.34617  1.0000
  H   H341      1.0  0.14576  0.32361  0.35777  1.0000
  H   H342      1.0  0.16100  0.26112  0.57031  1.0000
  H   H343      1.0  0.00971  0.37309  0.44868  1.0000
  H   H344      1.0  0.03100  0.32713  0.38070  1.0000
  H   H345      1.0  0.19329  0.25845  0.58127  1.0000
  H   H346      1.0  0.17905  0.18235  0.53684  1.0000
  H   H347      1.0  0.03031  0.30506  0.64829  1.0000
  S   S50       1.0  0.13843  0.25387  0.64433  1.0000
  C   C199      1.0  0.18481  0.33793  0.36037  1.0000
  C   C200      1.0  0.15905  0.27522  0.59663  1.0000
  H   H348      1.0  0.01765  0.33298  0.42025  1.0000
  C   C201      1.0  0.08919  0.23702  0.39263  1.0000
  C   C202      1.0  0.03163  0.47913  0.51406  1.0000
  C   C203      1.0  0.01162  0.02240  0.62259  1.0000
  H   H349      1.0  0.18538  0.24511  0.60269  1.0000
  C   C204      1.0  0.00102  0.30052  0.64641  1.0000
  H   H350      1.0  0.19345  0.20183  0.40419  1.0000
  H   H351      1.0  0.09687  0.15508  0.36581  1.0000
  H   H352      1.0  0.12560  0.31236  0.54009  1.0000
  H   H353      1.0  0.01622  0.32760  0.52904  1.0000
  C   C205      1.0  0.18285  0.24871  0.58762  1.0000
  H   H354      1.0  0.16843  0.20485  0.57135  1.0000
  H   H355      1.0  0.18753  0.04419  0.53644  1.0000
  H   H356      1.0  0.18899  0.18947  0.37445  1.0000
  H   H357      1.0  0.03032  0.36509  0.52542  1.0000
  H   H358      1.0  0.04349  0.45861  0.49434  1.0000
  H   H359      1.0  0.03185  0.37711  0.59011  1.0000
  C   C206      1.0  0.14475  0.08257  0.55204  1.0000
  C   C207      1.0  0.17708  0.19459  0.56310  1.0000
  H   H360      1.0  0.17749  0.18076  0.57139  1.0000
  H   H361      1.0  0.20936  0.07605  0.51547  1.0000
  H   H362      1.0  0.06958  0.24128  0.35646  1.0000
  H   H363      1.0  0.03475  0.30951  0.40017  1.0000
  H   H364      1.0  0.20849  0.17293  0.37588  1.0000
  H   H365      1.0  0.08416  0.24514  0.42124  1.0000
  H   H366      1.0  0.14821  0.32192  0.54038  1.0000
  H   H367      1.0  0.11966  0.09207  0.56827  1.0000
  H   H368      1.0  0.05172  0.38137  0.53923  1.0000
  C   C208      1.0  0.16740  0.35021  0.35358  1.0000
  C   C209      1.0  0.02890  0.34356  0.54868  1.0000
  H   H369      1.0  0.24254  0.20448  0.35209  1.0000
  C   C210      1.0  0.16292  0.25759  0.58549  1.0000
  H   H370      1.0  0.15329  0.24671  0.59103  1.0000
  H   H371      1.0  0.02124  0.01030  0.61849  1.0000
  H   H372      1.0  0.04818  0.41967  0.42947  1.0000
  H   H373      1.0  0.05014  0.44487  0.52650  1.0000
  H   H374      1.0  0.07933  0.19352  0.39528  1.0000
  C   C211      1.0  0.00712  0.36556  0.60296  1.0000
  H   H375      1.0  0.15855  0.27017  0.61183  1.0000
  H   H376      1.0  0.17170  0.28332  0.59413  1.0000
  C   C212      1.0  0.14279  0.33140  0.37050  1.0000
  H   H377      1.0  0.16186  0.37195  0.38109  1.0000
  H   H378      1.0  0.12725  0.33248  0.37275  1.0000
  H   H379      1.0  0.18892  0.34172  0.37405  1.0000
  H   H380      1.0  0.15176  0.29209  0.37430  1.0000
  H   H381      1.0  0.14328  0.32875  0.63157  1.0000
  C   C213      1.0  0.15145  0.07894  0.53153  1.0000
  H   H382      1.0  0.09301  0.26076  0.58265  1.0000
  H   H383      1.0  0.10963  0.17003  0.37821  1.0000
  N   N11       1.0  0.02301  0.37973  0.55019  1.0000
  H   H384      1.0  0.01558  0.40966  0.54575  1.0000
  H   H385      1.0  0.19340  0.15318  0.36148  1.0000
  C   C214      1.0  0.14994  0.31847  0.38755  1.0000
  C   C215      1.0  0.14468  0.29832  0.38683  1.0000
  H   H386      1.0  0.16478  0.34920  0.39262  1.0000
  H   H387      1.0  0.16531  0.31801  0.38824  1.0000
  H   H388      1.0  0.12978  0.37684  0.39299  1.0000
  H   H389      1.0  0.16615  0.30461  0.61758  1.0000
  C   C216      1.0  0.03228  0.45983  0.50575  1.0000
  H   H390      1.0  0.11546  0.07737  0.55023  1.0000
  C   C217      1.0  0.13760  0.36363  0.39836  1.0000
  H   H391      1.0  0.18815  0.05748  0.50619  1.0000
  H   H392      1.0  0.12788  0.35234  0.39986  1.0000
  C   C218      1.0  0.01907  0.29626  0.65307  1.0000
  H   H393      1.0  0.16169  0.09237  0.49431  1.0000
  H   H394      1.0  0.12746  0.26429  0.58474  1.0000
  H   H395      1.0  0.12419  0.26840  0.60882  1.0000
  H   H396      1.0  0.15911  0.29849  0.56814  1.0000
  H   H397      1.0  0.14348  0.32351  0.40089  1.0000
  C   C219      1.0  0.05986  0.03040  0.44617  1.0000
  C   C220      1.0  0.00859  0.36399  0.43716  1.0000
  H   H398      1.0  0.02119  0.30375  0.58919  1.0000
  N   N12       1.0  0.14161  0.28776  0.59219  1.0000
  C   C221      1.0  0.12527  0.27558  0.59435  1.0000
  C   C222      1.0  0.14404  0.29678  0.57229  1.0000
  C   C223      1.0  0.15610  0.31321  0.60856  1.0000
  H   H399      1.0  0.13966  0.28730  0.56223  1.0000
  H   H400      1.0  0.16356  0.31669  0.59474  1.0000
  C   C224      1.0  0.14363  0.36653  0.41784  1.0000
  H   H401      1.0  0.15012  0.35320  0.42454  1.0000
  H   H402      1.0  0.20218  0.20198  0.57494  1.0000
  H   H403      1.0  0.17263  0.21190  0.33954  1.0000
  H   H404      1.0  0.04351  0.38806  0.44430  1.0000
  H   H405      1.0  0.15370  0.37759  0.41694  1.0000
  C   C225      1.0  0.13379  0.31658  0.56802  1.0000
  H   H406      1.0  0.12686  0.33650  0.54440  1.0000
  H   H407      1.0  0.11113  0.00795  0.46316  1.0000
  C   C226      1.0  0.13884  0.30195  0.60664  1.0000
  H   H408      1.0  0.13532  0.29478  0.62078  1.0000
  H   H409      1.0  0.18246  0.08504  0.54964  1.0000
  C   C227      1.0  0.07853  0.02476  0.45492  1.0000
  H   H410      1.0  0.17158  0.36478  0.34968  1.0000
  C   C228      1.0  0.19626  0.15626  0.34620  1.0000
  C   C229      1.0  0.01124  0.37789  0.56855  1.0000
  C   C230      1.0  0.09539  0.16616  0.37578  1.0000
  H   H411      1.0  0.14997  0.09287  0.52334  1.0000
  H   H412      1.0  0.06316  0.40241  0.41769  1.0000
  C   C231      1.0  0.12386  0.08880  0.55363  1.0000
  H   H413      1.0  0.04218  0.41305  0.40710  1.0000
  H   H414      1.0  0.09951  0.22558  0.39757  1.0000
  H   H415      1.0  0.99869  0.37022  0.56685  1.0000
  C   C232      1.0  0.17523  0.08372  0.49383  1.0000
  H   H416      1.0  0.17884  0.09050  0.46367  1.0000
  C   C233      1.0  0.03705  0.39235  0.43082  1.0000
  H   H417      1.0  0.03076  0.23196  0.39037  1.0000
  H   H418      1.0  0.01358  0.00263  0.43417  1.0000
  C   C234      1.0  0.00527  0.35693  0.48781  1.0000
  H   H419      1.0  0.05253  0.04271  0.45262  1.0000
  N   N13       1.0  0.02816  0.49624  0.50046  1.0000
  H   H420      1.0  0.00753  0.25378  0.33982  1.0000
  H   H421      1.0  0.00552  0.39200  0.57258  1.0000
  C   C235      1.0  0.06527  0.21895  0.33969  1.0000
  C   C236      1.0  0.21779  0.09205  0.53676  1.0000
  C   C237      1.0  0.11336  0.37240  0.33136  1.0000
  S   S51       1.0  0.04318  0.26958  0.33884  1.0000
  H   H422      1.0  0.04699  0.48563  0.47824  1.0000
  S   S52       1.0  0.24006  0.13188  0.38805  1.0000
  N   N14       1.0  0.20726  0.18940  0.34901  1.0000
  H   H423      1.0  0.01259  0.01411  0.45550  1.0000
  S   S53       1.0  0.04228  0.99953  0.56506  1.0000
  H   H424      1.0  0.00726  0.28512  0.58446  1.0000
  H   H425      1.0  0.23285  0.08731  0.53453  1.0000
  C   C238      1.0  0.19357  0.17776  0.34112  1.0000
  H   H426      1.0  0.19971  0.00484  0.63539  1.0000
  H   H427      1.0  0.21367  0.21870  0.34506  1.0000
  H   H428      1.0  0.00481  0.00314  0.55340  1.0000
  C   C239      1.0  0.18366  0.21885  0.34573  1.0000
  C   C240      1.0  0.14730  0.49266  0.59423  1.0000
  H   H429      1.0  0.01276  0.02379  0.63776  1.0000
  C   C241      1.0  0.13010  0.35955  0.33804  1.0000
  C   C242      1.0  0.20346  0.20941  0.34076  1.0000
  H   H430      1.0  0.11664  0.38734  0.33028  1.0000
  C   C243      1.0  0.14918  0.99796  0.45689  1.0000
  H   H431      1.0  0.19211  0.24751  0.34450  1.0000
  H   H432      1.0  0.24515  0.09660  0.63686  1.0000
  H   H433      1.0  0.12643  0.34480  0.33828  1.0000
  H   H434      1.0  0.21065  0.15039  0.34231  1.0000
  C   C244      1.0  0.01127  0.49470  0.48947  1.0000
  H   H435      1.0  0.99855  0.31264  0.63650  1.0000
  H   H436      1.0  0.16531  0.29125  0.66280  1.0000
  C   C245      1.0  0.99753  0.30541  0.35140  1.0000
  H   H437      1.0  0.19551  0.99719  0.66003  1.0000
  H   H438      1.0  0.14466  0.19694  0.66783  1.0000
  S   S54       1.0  0.01745  0.40602  0.90894  1.0000
  H   H439      1.0  0.03493  0.42822  0.84579  1.0000
  H   H440      1.0  0.13136  0.48951  0.79795  1.0000
  N   N15       1.0  0.08675  0.34714  0.80302  1.0000
  Fe  Fe26      1.0  0.01157  0.38702  0.88749  1.0000
  S   S55       1.0  0.03081  0.38682  0.86074  1.0000
  C   C246      1.0  0.02479  0.46802  0.92119  1.0000
  Fe  Fe27      1.0  0.18079  0.38605  0.81903  1.0000
  S   S56       1.0  0.17306  0.40130  0.79101  1.0000
  S   S57       1.0  0.21138  0.38427  0.82778  1.0000
  Fe  Fe28      1.0  0.13932  0.38471  0.83266  1.0000
  S   S58       1.0  0.12930  0.39966  0.80616  1.0000
  S   S59       1.0  0.11977  0.37674  0.85806  1.0000
  Fe  Fe29      1.0  0.15071  0.38059  0.79107  1.0000
  S   S60       1.0  0.14009  0.37099  0.76388  1.0000
  Fe  Fe30      1.0  0.15205  0.41908  0.80797  1.0000
  S   S61       1.0  0.14170  0.45024  0.80435  1.0000
  S   S62       1.0  0.15980  0.36425  0.81798  1.0000
  S   S63       1.0  0.16074  0.40514  0.83563  1.0000
  Fe  Fe31      1.0  0.10580  0.30149  0.68728  1.0000
  S   S64       1.0  0.09776  0.27240  0.68279  1.0000
  S   S65       1.0  0.11722  0.30513  0.71617  1.0000
  H   H441      1.0  0.12392  0.46901  0.83928  1.0000
  H   H442      1.0  0.18712  0.27909  0.66993  1.0000
  H   H443      1.0  0.05814  0.47350  0.88833  1.0000
  C   C247      1.0  0.12062  0.46853  0.85472  1.0000
  H   H444      1.0  0.16117  0.20978  0.69233  1.0000
  H   H445      1.0  0.18602  0.36530  0.89754  1.0000
  C   C248      1.0  0.00608  0.49480  0.90761  1.0000
  H   H446      1.0  0.01020  0.25717  0.68173  1.0000
  C   C249      1.0  0.13423  0.35235  0.75073  1.0000
  C   C250      1.0  0.13705  0.33331  0.75713  1.0000
  C   C251      1.0  0.13191  0.31920  0.74631  1.0000
  C   C252      1.0  0.12387  0.32375  0.72890  1.0000
  C   C253      1.0  0.12108  0.34278  0.72250  1.0000
  C   C254      1.0  0.12621  0.35689  0.73332  1.0000
  H   H447      1.0  0.14327  0.32946  0.77037  1.0000
  H   H448      1.0  0.13418  0.30461  0.75150  1.0000
  H   H449      1.0  0.11493  0.34666  0.70922  1.0000
  H   H450      1.0  0.12393  0.37150  0.72813  1.0000
  C   C255      1.0  0.22726  0.36913  0.84150  1.0000
  H   H451      1.0  0.09658  0.45723  0.82607  1.0000
  H   H452      1.0  0.01312  0.44137  0.92132  1.0000
  C   C256      1.0  0.22468  0.35010  0.84638  1.0000
  H   H453      1.0  0.22789  0.36915  0.88684  1.0000
  H   H454      1.0  0.21239  0.34423  0.84218  1.0000
  C   C257      1.0  0.17471  0.46822  0.80437  1.0000
  C   C258      1.0  0.15533  0.46997  0.80266  1.0000
  C   C259      1.0  0.22442  0.34563  0.95737  1.0000
  H   H455      1.0  0.18194  0.45439  0.80641  1.0000
  C   C260      1.0  0.99728  0.43641  0.84896  1.0000
  C   C261      1.0  0.05551  0.38596  0.86092  1.0000
  C   C262      1.0  0.06485  0.37864  0.87675  1.0000
  C   C263      1.0  0.08458  0.37635  0.87578  1.0000
  C   C264      1.0  0.09514  0.38175  0.85916  1.0000
  C   C265      1.0  0.08580  0.39019  0.84371  1.0000
  C   C266      1.0  0.06606  0.39191  0.84447  1.0000
  H   H456      1.0  0.05689  0.37402  0.88950  1.0000
  H   H457      1.0  0.09168  0.36996  0.88786  1.0000
  H   H458      1.0  0.09376  0.39475  0.83098  1.0000
  H   H459      1.0  0.05893  0.39766  0.83218  1.0000
  H   H460      1.0  0.22814  0.32667  0.92449  1.0000
  S   S66       1.0  0.08022  0.31581  0.67386  1.0000
  C   C267      1.0  0.09328  0.36608  0.79563  1.0000
  H   H461      1.0  0.07398  0.44575  0.88873  1.0000
  H   H462      1.0  0.10150  0.46527  0.88850  1.0000
  H   H463      1.0  0.20762  0.35404  0.92395  1.0000
  H   H464      1.0  0.23464  0.37208  0.94668  1.0000
  H   H465      1.0  0.10549  0.33796  0.83774  1.0000
  H   H466      1.0  0.07730  0.44901  0.85579  1.0000
  C   C268      1.0  0.06679  0.33151  0.83095  1.0000
  H   H467      1.0  0.10520  0.46772  0.85665  1.0000
  H   H468      1.0  0.09889  0.37293  0.80708  1.0000
  C   C269      1.0  0.11443  0.33883  0.82445  1.0000
  H   H469      1.0  0.18454  0.22868  0.68953  1.0000
  C   C270      1.0  0.14622  0.48805  0.79985  1.0000
  C   C271      1.0  0.06508  0.44542  0.84870  1.0000
  C   C272      1.0  0.03138  0.44269  0.85020  1.0000
  H   H470      1.0  0.06941  0.31608  0.76071  1.0000
  S   S67       1.0  0.01920  0.38082  0.95756  1.0000
  Fe  Fe32      1.0  0.00420  0.38537  0.93040  1.0000
  H   H471      1.0  0.02939  0.45204  0.83713  1.0000
  C   C273      1.0  0.07493  0.32973  0.75538  1.0000
  H   H472      1.0  0.07857  0.32113  0.83461  1.0000
  C   C274      1.0  0.05573  0.33589  0.84929  1.0000
  H   H473      1.0  0.10002  0.31932  0.81018  1.0000
  C   C275      1.0  0.13162  0.32507  0.82732  1.0000
  H   H474      1.0  0.02989  0.47081  0.87364  1.0000
  C   C276      1.0  0.04273  0.46907  0.86410  1.0000
  C   C277      1.0  0.08633  0.39931  0.78093  1.0000
  H   H475      1.0  0.07234  0.32456  0.79407  1.0000
  C   C278      1.0  0.06612  0.45623  0.82892  1.0000
  H   H476      1.0  0.08328  0.32778  0.74193  1.0000
  H   H477      1.0  0.12261  0.43321  0.84071  1.0000
  H   H478      1.0  0.01249  0.33064  0.97951  1.0000
  H   H479      1.0  0.12571  0.21482  0.67015  1.0000
  C   C279      1.0  0.13040  0.44962  0.86276  1.0000
  H   H480      1.0  0.15318  0.28968  0.69670  1.0000
  C   C280      1.0  0.01136  0.45616  0.91702  1.0000
  H   H481      1.0  0.22628  0.33043  0.95536  1.0000
  C   C281      1.0  0.07374  0.34969  0.82025  1.0000
  H   H482      1.0  0.99727  0.46083  0.99222  1.0000
  H   H483      1.0  0.01208  0.43325  0.87405  1.0000
  H   H484      1.0  0.19239  0.24953  0.69704  1.0000
  H   H485      1.0  0.06306  0.34034  0.75253  1.0000
  H   H486      1.0  0.16530  0.25407  0.67717  1.0000
  H   H487      1.0  0.05553  0.45184  0.82004  1.0000
  H   H488      1.0  0.12741  0.31049  0.83045  1.0000
  H   H489      1.0  0.19668  0.37155  0.87451  1.0000
  H   H490      1.0  0.02104  0.27409  0.73640  1.0000
  C   C282      1.0  0.07831  0.38038  0.78670  1.0000
  H   H491      1.0  0.11417  0.33420  0.79528  1.0000
  H   H492      1.0  0.12947  0.44806  0.87830  1.0000
  H   H493      1.0  0.13905  0.32883  0.83935  1.0000
  N   N16       1.0  0.23774  0.35469  0.92337  1.0000
  H   H494      1.0  0.03931  0.47750  0.85078  1.0000
  H   H495      1.0  0.13538  0.47475  0.88959  1.0000
  H   H496      1.0  0.17442  0.27655  0.70324  1.0000
  C   C283      1.0  0.19796  0.37216  0.88980  1.0000
  C   C284      1.0  0.07636  0.33882  0.78866  1.0000
  H   H497      1.0  0.05734  0.32489  0.82237  1.0000
  C   C285      1.0  0.04790  0.43637  0.87904  1.0000
  N   N17       1.0  0.04711  0.44865  0.86069  1.0000
  H   H498      1.0  0.14146  0.32574  0.81460  1.0000
  C   C286      1.0  0.12156  0.43285  0.85628  1.0000
  H   H499      1.0  0.06094  0.35871  0.81659  1.0000
  H   H500      1.0  0.10970  0.27008  0.74376  1.0000
  H   H501      1.0  0.07182  0.47643  0.86614  1.0000
  H   H502      1.0  0.04355  0.34616  0.84649  1.0000
  H   H503      1.0  0.06286  0.34722  0.78619  1.0000
  C   C287      1.0  0.01996  0.47875  0.99639  1.0000
  C   C288      1.0  0.08526  0.45214  0.81861  1.0000
  N   N18       1.0  0.12624  0.48606  0.86231  1.0000
  H   H504      1.0  0.17978  0.30194  0.67769  1.0000
  H   H505      1.0  0.08548  0.45944  0.80424  1.0000
  H   H506      1.0  0.20967  0.35067  0.95499  1.0000
  C   C289      1.0  0.12419  0.48467  0.88349  1.0000
  H   H507      1.0  0.14544  0.44855  0.85777  1.0000
  C   C290      1.0  0.00741  0.38346  0.97987  1.0000
  N   N19       1.0  0.15105  0.24775  0.70457  1.0000
  H   H508      1.0  0.19721  0.38717  0.89267  1.0000
  C   C291      1.0  0.14000  0.23262  0.69841  1.0000
  C   C292      1.0  0.13834  0.25876  0.71807  1.0000
  C   C293      1.0  0.16810  0.23934  0.71446  1.0000
  C   C294      1.0  0.18657  0.23597  0.70207  1.0000
  C   C295      1.0  0.15584  0.26113  0.68772  1.0000
  C   C296      1.0  0.13007  0.24740  0.73581  1.0000
  C   C297      1.0  0.15041  0.21905  0.68487  1.0000
  C   C298      1.0  0.13691  0.20631  0.67775  1.0000
  H   H509      1.0  0.02312  0.26765  0.71247  1.0000
  H   H510      1.0  0.00330  0.47515  0.96307  1.0000
  C   C299      1.0  0.12096  0.26048  0.75012  1.0000
  C   C300      1.0  0.02223  0.27960  0.72139  1.0000
  H   H511      1.0  0.13040  0.19746  0.68959  1.0000
  H   H512      1.0  0.13499  0.22329  0.71066  1.0000
  H   H513      1.0  0.12718  0.23917  0.69173  1.0000
  H   H514      1.0  0.12628  0.26609  0.71074  1.0000
  H   H515      1.0  0.14586  0.27007  0.72318  1.0000
  H   H516      1.0  0.17155  0.24846  0.72531  1.0000
  H   H517      1.0  0.16497  0.22574  0.72243  1.0000
  H   H518      1.0  0.12901  0.41957  0.86198  1.0000
  H   H519      1.0  0.24249  0.33292  0.90423  1.0000
  C   C301      1.0  0.18480  0.48441  0.80327  1.0000
  H   H520      1.0  0.19982  0.48291  0.80436  1.0000
  H   H521      1.0  0.14105  0.23798  0.74275  1.0000
  H   H522      1.0  0.11895  0.23882  0.73203  1.0000
  C   C302      1.0  0.14649  0.48837  0.85599  1.0000
  H   H523      1.0  0.15722  0.22665  0.67243  1.0000
  H   H524      1.0  0.15554  0.47633  0.86211  1.0000
  C   C303      1.0  0.21890  0.36234  0.91676  1.0000
  C   C304      1.0  0.10488  0.47909  0.89254  1.0000
  H   H525      1.0  0.08820  0.43682  0.81736  1.0000
  H   H526      1.0  0.14882  0.48782  0.84050  1.0000
  H   H527      1.0  0.23870  0.39210  0.90328  1.0000
  H   H528      1.0  0.22546  0.36267  0.98094  1.0000
  C   C305      1.0  0.16451  0.27930  0.69196  1.0000
  H   H529      1.0  0.21691  0.34745  0.89155  1.0000
  H   H530      1.0  0.11466  0.25206  0.76241  1.0000
  H   H531      1.0  0.13154  0.26899  0.75509  1.0000
  H   H532      1.0  0.21465  0.22247  0.70415  1.0000
  H   H533      1.0  0.06394  0.47161  0.82991  1.0000
  H   H534      1.0  0.06601  0.38292  0.79666  1.0000
  C   C306      1.0  0.06719  0.43264  0.88778  1.0000
  C   C307      1.0  0.06525  0.42259  0.90749  1.0000
  C   C308      1.0  0.08736  0.33635  0.76949  1.0000
  H   H535      1.0  0.03758  0.44213  0.88979  1.0000
  H   H536      1.0  0.04360  0.42208  0.87724  1.0000
  C   C309      1.0  0.23810  0.35712  0.94403  1.0000
  H   H537      1.0  0.05972  0.40863  0.90698  1.0000
  H   H538      1.0  0.07920  0.42034  0.91346  1.0000
  H   H539      1.0  0.05570  0.43107  0.91691  1.0000
  H   H540      1.0  0.19288  0.48758  0.73391  1.0000
  C   C310      1.0  0.10376  0.33414  0.80760  1.0000
  C   C311      1.0  0.01182  0.44282  0.86099  1.0000
  H   H541      1.0  0.07343  0.37530  0.77388  1.0000
  H   H542      1.0  0.06771  0.43017  0.84676  1.0000
  H   H543      1.0  0.03542  0.28679  0.71868  1.0000
  H   H544      1.0  0.10667  0.43267  0.86151  1.0000
  C   C312      1.0  0.24075  0.33427  0.91962  1.0000
  H   H545      1.0  0.09298  0.34961  0.76319  1.0000
  S   S68       1.0  0.04489  0.27457  0.67499  1.0000
  C   C313      1.0  0.05776  0.47875  0.87328  1.0000
  H   H546      1.0  0.09925  0.32556  0.77128  1.0000
  H   H547      1.0  0.00109  0.42174  0.84544  1.0000
  H   H548      1.0  0.10533  0.36452  0.78507  1.0000
  H   H549      1.0  0.19676  0.21007  0.71780  1.0000
  H   H550      1.0  0.05043  0.32283  0.85655  1.0000
  H   H551      1.0  0.03698  0.46227  0.92843  1.0000
  C   C314      1.0  0.00640  0.32794  0.99412  1.0000
  H   H552      1.0  0.06483  0.34181  0.85880  1.0000
  C   C315      1.0  0.21662  0.36211  0.89540  1.0000
  H   H553      1.0  0.09909  0.39753  0.77128  1.0000
  H   H554      1.0  0.11520  0.46675  0.91919  1.0000
  C   C316      1.0  0.17481  0.28841  0.67448  1.0000
  H   H555      1.0  0.11930  0.35319  0.82206  1.0000
  H   H556      1.0  0.11369  0.49567  0.82573  1.0000
  H   H557      1.0  0.07670  0.42336  0.87910  1.0000
  H   H558      1.0  0.08044  0.35740  0.83036  1.0000
  H   H559      1.0  0.07577  0.40893  0.77356  1.0000
  C   C317      1.0  0.22763  0.34770  0.97790  1.0000
  H   H560      1.0  0.00678  0.45711  0.86474  1.0000
  H   H561      1.0  0.14297  0.26584  0.68026  1.0000
  H   H562      1.0  0.21543  0.37691  0.92080  1.0000
  C   C318      1.0  0.02252  0.28061  0.66586  1.0000
  H   H563      1.0  0.08994  0.40587  0.79350  1.0000
  H   H564      1.0  0.09359  0.48978  0.88826  1.0000
  C   C319      1.0  0.02212  0.48736  0.91648  1.0000
  C   C320      1.0  0.23837  0.33849  0.85615  1.0000
  H   H565      1.0  0.20450  0.23129  0.72566  1.0000
  C   C321      1.0  0.24348  0.37638  0.84704  1.0000
  S   S69       1.0  0.00032  0.36482  0.90904  1.0000
  C   C322      1.0  0.20148  0.22423  0.71318  1.0000
  C   C323      1.0  0.10454  0.47776  0.91395  1.0000
  H   H566      1.0  0.00511  0.30481  0.72619  1.0000
  H   H567      1.0  0.24589  0.35205  0.80402  1.0000
  H   H568      1.0  0.21760  0.33954  0.98721  1.0000
  H   H569      1.0  0.09049  0.47401  0.91998  1.0000
  C   C324      1.0  0.00550  0.29344  0.71669  1.0000
  H   H570      1.0  0.00830  0.29965  0.70207  1.0000
  H   H571      1.0  0.23641  0.32371  0.85935  1.0000
  H   H572      1.0  0.24566  0.39106  0.84339  1.0000
  Fe  Fe33      1.0  0.07324  0.28698  0.66764  1.0000
  H   H573      1.0  0.02865  0.47179  0.98509  1.0000
  C   C325      1.0  0.00765  0.26940  0.67197  1.0000
  H   H574      1.0  0.05181  0.49663  0.99014  1.0000
  H   H575      1.0  0.18330  0.49337  0.86157  1.0000
  H   H576      1.0  0.24210  0.34222  0.98116  1.0000
  C   C326      1.0  0.01694  0.39020  0.99402  1.0000
  H   H577      1.0  0.03076  0.39508  0.99068  1.0000
  H   H578      1.0  0.10727  0.49147  0.91886  1.0000
  H   H579      1.0  0.24678  0.29582  0.92881  1.0000
  Fe  Fe34      1.0  0.03810  0.57777  0.11515  1.0000
  S   S70       1.0  0.05637  0.59408  0.13123  1.0000
  H   H580      1.0  0.20359  0.64473  0.32538  1.0000
  S   S71       1.0  0.04841  0.55282  0.09976  1.0000
  Fe  Fe35      1.0  0.20016  0.58205  0.17711  1.0000
  S   S72       1.0  0.19260  0.57465  0.20795  1.0000
  S   S73       1.0  0.23124  0.58741  0.16991  1.0000
  Fe  Fe36      1.0  0.15970  0.57697  0.16716  1.0000
  S   S74       1.0  0.14960  0.57023  0.19719  1.0000
  S   S75       1.0  0.14254  0.57165  0.14294  1.0000
  Fe  Fe37      1.0  0.16637  0.59374  0.20402  1.0000
  S   S76       1.0  0.15565  0.61850  0.22142  1.0000
  Fe  Fe38      1.0  0.17653  0.55172  0.19865  1.0000
  S   S77       1.0  0.17600  0.52194  0.21298  1.0000
  S   S78       1.0  0.17454  0.60206  0.17336  1.0000
  S   S79       1.0  0.18606  0.55755  0.16844  1.0000
  C   C327      1.0  0.06274  0.60268  0.05713  1.0000
  H   H581      1.0  0.02430  0.51263  0.01076  1.0000
  S   S80       1.0  0.14260  0.63267  0.30892  1.0000
  C   C328      1.0  0.14581  0.62895  0.28450  1.0000
  C   C329      1.0  0.15281  0.61112  0.27919  1.0000
  C   C330      1.0  0.15584  0.60758  0.26006  1.0000
  C   C331      1.0  0.15212  0.62193  0.24589  1.0000
  C   C332      1.0  0.14521  0.63979  0.25122  1.0000
  C   C333      1.0  0.14202  0.64327  0.27034  1.0000
  H   H582      1.0  0.15591  0.59992  0.28995  1.0000
  H   H583      1.0  0.16115  0.59377  0.25629  1.0000
  H   H584      1.0  0.14233  0.65106  0.24045  1.0000
  H   H585      1.0  0.13696  0.65712  0.27414  1.0000
  H   H586      1.0  0.24082  0.61876  0.19362  1.0000
  C   C334      1.0  0.08895  0.59060  0.07674  1.0000
  H   H587      1.0  0.21061  0.60507  0.25420  1.0000
  C   C335      1.0  0.23519  0.61196  0.13735  1.0000
  C   C336      1.0  0.08867  0.65260  0.26185  1.0000
  C   C337      1.0  0.08949  0.60858  0.29696  1.0000
  H   H588      1.0  0.22007  0.61295  0.13720  1.0000
  C   C338      1.0  0.07975  0.58635  0.13605  1.0000
  C   C339      1.0  0.08931  0.57138  0.12736  1.0000
  C   C340      1.0  0.10847  0.56686  0.12987  1.0000
  C   C341      1.0  0.11810  0.57682  0.14163  1.0000
  C   C342      1.0  0.10834  0.59127  0.15099  1.0000
  C   C343      1.0  0.08929  0.59617  0.14800  1.0000
  H   H589      1.0  0.08204  0.56360  0.11834  1.0000
  H   H590      1.0  0.11592  0.55575  0.12249  1.0000
  H   H591      1.0  0.11564  0.59912  0.15997  1.0000
  H   H592      1.0  0.08200  0.60781  0.15475  1.0000
  H   H593      1.0  0.08570  0.63323  0.04996  1.0000
  H   H594      1.0  0.08156  0.58669  0.09060  1.0000
  H   H595      1.0  0.09715  0.63206  0.08918  1.0000
  H   H596      1.0  0.08540  0.66809  0.28723  1.0000
  C   C344      1.0  0.10412  0.55731  0.07537  1.0000
  H   H597      1.0  0.12327  0.62890  0.03089  1.0000
  C   C345      1.0  0.09476  0.60554  0.31734  1.0000
  C   C346      1.0  0.05921  0.64017  0.27413  1.0000
  C   C347      1.0  0.24594  0.62279  0.12373  1.0000
  H   H598      1.0  0.05338  0.64562  0.26050  1.0000
  H   H599      1.0  0.19608  0.86422  0.31835  1.0000
  H   H600      1.0  0.08577  0.64098  0.12077  1.0000
  C   C348      1.0  0.09029  0.57232  0.06648  1.0000
  C   C349      1.0  0.02193  0.50174  0.09048  1.0000
  S   S81       1.0  0.10798  0.68087  0.31418  1.0000
  N   N20       1.0  0.11873  0.50741  0.16726  1.0000
  C   C350      1.0  0.08414  0.67086  0.27190  1.0000
  H   H601      1.0  0.06485  0.63400  0.07616  1.0000
  C   C351      1.0  0.05032  0.61914  0.04772  1.0000
  C   C352      1.0  0.02627  0.63049  0.28238  1.0000
  H   H602      1.0  0.12787  0.51094  0.12716  1.0000
  Fe  Fe39      1.0  0.02303  0.54007  0.11358  1.0000
  H   H603      1.0  0.16798  0.65522  0.15638  1.0000
  H   H604      1.0  0.18593  0.63736  0.15015  1.0000
  H   H605      1.0  0.19549  0.60070  0.23635  1.0000
  H   H606      1.0  0.00289  0.57162  0.04072  1.0000
  H   H607      1.0  0.02604  0.60303  0.04619  1.0000
  S   S82       1.0  0.04228  0.56136  0.04759  1.0000
  H   H608      1.0  0.06221  0.51681  0.15417  1.0000
  H   H609      1.0  0.18690  0.66381  0.18145  1.0000
  C   C353      1.0  0.10077  0.61001  0.03657  1.0000
  C   C354      1.0  0.07572  0.63859  0.11030  1.0000
  C   C355      1.0  0.09242  0.61911  0.05438  1.0000
  N   N21       1.0  0.07898  0.60800  0.06727  1.0000
  H   H610      1.0  0.10383  0.58550  0.25180  1.0000
  H   H611      1.0  0.02758  0.51507  0.08605  1.0000
  S   S83       1.0  0.01385  0.56406  0.13083  1.0000
  S   S84       1.0  0.02094  0.59106  0.09157  1.0000
  C   C356      1.0  0.02950  0.56293  0.02713  1.0000
  C   C357      1.0  0.11176  0.62391  0.02354  1.0000
  H   H612      1.0  0.09554  0.59030  0.32199  1.0000
  H   H613      1.0  0.10334  0.59353  0.07997  1.0000
  H   H614      1.0  0.07130  0.65232  0.10280  1.0000
  H   H615      1.0  0.02232  0.63205  0.26758  1.0000
  H   H616      1.0  0.04985  0.61127  0.27637  1.0000
  H   H617      1.0  0.07800  0.60678  0.26380  1.0000
  H   H618      1.0  0.12188  0.59523  0.23598  1.0000
  C   C358      1.0  0.04717  0.62446  0.28334  1.0000
  C   C359      1.0  0.07170  0.52539  0.14462  1.0000
  H   H619      1.0  0.22303  0.70700  0.19555  1.0000
  H   H620      1.0  0.18057  0.51583  0.17314  1.0000
  H   H621      1.0  0.06327  0.63262  0.11797  1.0000
  H   H622      1.0  0.06747  0.59322  0.04605  1.0000
  H   H623      1.0  0.11191  0.68142  0.26730  1.0000
  H   H624      1.0  0.08981  0.60532  0.02835  1.0000
  C   C360      1.0  0.21577  0.65932  0.20505  1.0000
  H   H625      1.0  0.08897  0.51105  0.17509  1.0000
  H   H626      1.0  0.19081  0.66184  0.14721  1.0000
  H   H627      1.0  0.09798  0.59770  0.22940  1.0000
  C   C361      1.0  0.20338  0.61151  0.24172  1.0000
  H   H628      1.0  0.19331  0.62313  0.24619  1.0000
  C   C362      1.0  0.24401  0.60018  0.15129  1.0000
  C   C363      1.0  0.08511  0.62513  0.09649  1.0000
  H   H629      1.0  0.08404  0.61288  0.32662  1.0000
  C   C364      1.0  0.12236  0.50754  0.18778  1.0000
  H   H630      1.0  0.10838  0.62729  0.23971  1.0000
  H   H631      1.0  0.18070  0.63986  0.18505  1.0000
  H   H632      1.0  0.10469  0.62195  0.06198  1.0000
  C   C365      1.0  0.18959  0.64966  0.17630  1.0000
  C   C366      1.0  0.01033  0.56842  0.02759  1.0000
  C   C367      1.0  0.09718  0.68603  0.26439  1.0000
  H   H633      1.0  0.06959  0.67670  0.26949  1.0000
  H   H634      1.0  0.09194  0.50221  0.14070  1.0000
  H   H635      1.0  0.22027  0.67861  0.17940  1.0000
  Fe  Fe40      1.0  0.02931  0.56462  0.07722  1.0000
  C   C368      1.0  0.19015  0.63793  0.32728  1.0000
  H   H636      1.0  0.09617  0.68930  0.24902  1.0000
  H   H637      1.0  0.05635  0.65170  0.28358  1.0000
  H   H638      1.0  0.10234  0.63618  0.01855  1.0000
  H   H639      1.0  0.11361  0.61535  0.26206  1.0000
  H   H640      1.0  0.05934  0.61356  0.09092  1.0000
  C   C369      1.0  0.07104  0.62032  0.08244  1.0000
  H   H641      1.0  0.09974  0.55374  0.09035  1.0000
  H   H642      1.0  0.11844  0.56229  0.07434  1.0000
  H   H643      1.0  0.23893  0.63199  0.11315  1.0000
  C   C370      1.0  0.03537  0.61186  0.03671  1.0000
  C   C371      1.0  0.09191  0.51670  0.14484  1.0000
  H   H644      1.0  0.05380  0.55473  0.00939  1.0000
  H   H645      1.0  0.15899  0.51859  0.11189  1.0000
  H   H646      1.0  0.04998  0.62170  0.29842  1.0000
  C   C372      1.0  0.08876  0.62973  0.28968  1.0000
  S   S85       1.0  0.02463  0.51038  0.12643  1.0000
  H   H647      1.0  0.21822  0.65250  0.16650  1.0000
  H   H648      1.0  0.06679  0.52601  0.13024  1.0000
  H   H649      1.0  0.20056  0.66275  0.20849  1.0000
  H   H650      1.0  0.19388  0.63214  0.21200  1.0000
  C   C373      1.0  0.20848  0.62658  0.20817  1.0000
  H   H651      1.0  0.08144  0.63793  0.30085  1.0000
  H   H652      1.0  0.14725  0.49720  0.13738  1.0000
  C   C374      1.0  0.17443  0.50190  0.20049  1.0000
  H   H653      1.0  0.10451  0.54437  0.06790  1.0000
  H   H654      1.0  0.09463  0.57465  0.05141  1.0000
  H   H655      1.0  0.20692  0.61405  0.20044  1.0000
  H   H656      1.0  0.11801  0.61693  0.01111  1.0000
  H   H657      1.0  0.09312  0.69905  0.27145  1.0000
  H   H658      1.0  0.05883  0.62828  0.03775  1.0000
  H   H659      1.0  0.08425  0.65572  0.24722  1.0000
  C   C375      1.0  0.23931  0.63436  0.19398  1.0000
  H   H660      1.0  0.17895  0.64802  0.32148  1.0000
  C   C376      1.0  0.21065  0.64280  0.17674  1.0000
  H   H661      1.0  0.04281  0.62775  0.05841  1.0000
  C   C377      1.0  0.18326  0.65109  0.15627  1.0000
  N   N22       1.0  0.21876  0.64116  0.19574  1.0000
  H   H662      1.0  0.11081  0.59793  0.04056  1.0000
  H   H663      1.0  0.07066  0.53994  0.14896  1.0000
  H   H664      1.0  0.20452  0.84111  0.32777  1.0000
  H   H665      1.0  0.07636  0.56646  0.06753  1.0000
  C   C378      1.0  0.13359  0.51803  0.15561  1.0000
  H   H666      1.0  0.14677  0.51695  0.16297  1.0000
  C   C379      1.0  0.09946  0.51698  0.16446  1.0000
  H   H667      1.0  0.19151  0.62531  0.31925  1.0000
  H   H668      1.0  0.21265  0.62892  0.17070  1.0000
  C   C380      1.0  0.12544  0.52694  0.19463  1.0000
  H   H669      1.0  0.02274  0.64407  0.28861  1.0000
  C   C381      1.0  0.15366  0.52441  0.12525  1.0000
  H   H670      1.0  0.08183  0.52331  0.09606  1.0000
  H   H671      1.0  0.11054  0.50184  0.19686  1.0000
  C   C382      1.0  0.12518  0.52574  0.21606  1.0000
  H   H672      1.0  0.09062  0.61230  0.10481  1.0000
  H   H673      1.0  0.04195  0.60339  0.02542  1.0000
  H   H674      1.0  0.12930  0.53336  0.15400  1.0000
  H   H675      1.0  0.02432  0.64043  0.32277  1.0000
  H   H676      1.0  0.14667  0.53857  0.12185  1.0000
  Fe  Fe41      1.0  0.12559  0.65538  0.32526  1.0000
  C   C383      1.0  0.21656  0.69473  0.20323  1.0000
  H   H677      1.0  0.09915  0.53209  0.16696  1.0000
  C   C384      1.0  0.22394  0.67681  0.19424  1.0000
  H   H678      1.0  0.10352  0.63366  0.28904  1.0000
  C   C385      1.0  0.21772  0.61904  0.22669  1.0000
  H   H679      1.0  0.10021  0.60037  0.28849  1.0000
  H   H680      1.0  0.11453  0.53797  0.19018  1.0000
  H   H681      1.0  0.13927  0.53164  0.18901  1.0000
  H   H682      1.0  0.22483  0.62991  0.23284  1.0000
  C   C386      1.0  0.13987  0.51146  0.13590  1.0000
  H   H683      1.0  0.07525  0.62416  0.24499  1.0000
  S   S86       1.0  0.00459  0.54980  0.09010  1.0000
  H   H684      1.0  0.16579  0.52573  0.13373  1.0000
  H   H685      1.0  0.05347  0.59422  0.06706  1.0000
  H   H686      1.0  0.07597  0.60246  0.29622  1.0000
  C   C387      1.0  0.03896  0.55894  0.00989  1.0000
  H   H687      1.0  0.23940  0.67566  0.19487  1.0000
  H   H688      1.0  0.10421  0.65015  0.26053  1.0000
  H   H689      1.0  0.13571  0.51462  0.22134  1.0000
  H   H690      1.0  0.12868  0.53934  0.22062  1.0000
  H   H691      1.0  0.11108  0.52262  0.22241  1.0000
  N   N23       1.0  0.08004  0.63526  0.27116  1.0000
  C   C388      1.0  0.08336  0.62019  0.25764  1.0000
  C   C389      1.0  0.10410  0.61600  0.25048  1.0000
  C   C390      1.0  0.10702  0.59745  0.24138  1.0000
  H   H692      1.0  0.02663  0.62386  0.03013  1.0000
  S   S87       1.0  0.05696  0.66060  0.32458  1.0000
  H   H693      1.0  0.22846  0.60740  0.22378  1.0000
  H   H694      1.0  0.10039  0.52520  0.13424  1.0000
  H   H695      1.0  0.00877  0.52485  0.03977  1.0000
  H   H696      1.0  0.20110  0.69703  0.20256  1.0000
  C   C391      1.0  0.01061  0.51140  0.00486  1.0000
  H   H697      1.0  0.08786  0.50931  0.07660  1.0000
  H   H698      1.0  0.22013  0.69388  0.21813  1.0000
  H   H699      1.0  0.01786  0.61970  0.29035  1.0000
  H   H700      1.0  0.22199  0.65780  0.21890  1.0000
  H   H701      1.0  0.06351  0.51503  0.08380  1.0000
  C   C392      1.0  0.17713  0.50278  0.18093  1.0000
  H   H702      1.0  0.10867  0.61083  0.31871  1.0000
  H   H703      1.0  0.00581  0.52589  0.99912  1.0000
  C   C393      1.0  0.07775  0.51137  0.08885  1.0000
  C   C394      1.0  0.00080  0.57011  0.01093  1.0000
  H   H704      1.0  0.13501  0.49806  0.19121  1.0000
  Fe  Fe42      1.0  0.99739  0.57517  0.10622  1.0000
  C   C395      1.0  0.01974  0.65329  0.32907  1.0000
  H   H705      1.0  0.24707  0.63553  0.16375  1.0000
  H   H706      1.0  0.24638  0.63733  0.20659  1.0000
  C   C396      1.0  0.99746  0.50574  0.02215  1.0000
  H   H707      1.0  0.22539  0.49968  0.13779  1.0000
  Fe  Fe43      1.0  0.09798  0.57229  0.47368  1.0000
  S   S88       1.0  0.11728  0.55824  0.49527  1.0000
  S   S89       1.0  0.10298  0.57458  0.44195  1.0000
  Fe  Fe44      1.0  0.06613  0.57911  0.50261  1.0000
  S   S90       1.0  0.08222  0.56563  0.52650  1.0000
  S   S91       1.0  0.03699  0.59205  0.50806  1.0000
  Fe  Fe45      1.0  0.10574  0.58169  0.51296  1.0000
  S   S92       1.0  0.12358  0.59835  0.52929  1.0000
  Fe  Fe46      1.0  0.09218  0.54310  0.50729  1.0000
  S   S93       1.0  0.09040  0.51299  0.52062  1.0000
  S   S94       1.0  0.08880  0.59686  0.49023  1.0000
  S   S95       1.0  0.07383  0.55543  0.48459  1.0000
  S   S96       1.0  0.12432  0.72584  0.33879  1.0000
  S   S97       1.0  0.08411  0.94590  0.42755  1.0000
  Fe  Fe47      1.0  0.11129  0.99287  0.55563  1.0000
  H   H708      1.0  0.13548  0.95281  0.63343  1.0000
  S   S98       1.0  0.11010  0.98069  0.43167  1.0000
  Fe  Fe48      1.0  0.11141  0.95567  0.41461  1.0000
  S   S99       1.0  0.13887  0.93737  0.41641  1.0000
  Fe  Fe49      1.0  0.08165  0.97214  0.44231  1.0000
  S   S100      1.0  0.06833  0.97297  0.47159  1.0000
  H   H709      1.0  0.20172  0.97144  0.62774  1.0000
  H   H710      1.0  0.00978  0.92819  0.36121  1.0000
  H   H711      1.0  0.17025  0.61200  0.41048  1.0000
  S   S101      1.0  0.09133  0.97113  0.56516  1.0000
  H   H712      1.0  0.10334  0.99378  0.64598  1.0000
  H   H713      1.0  0.01828  0.65655  0.61664  1.0000
  H   H714      1.0  0.18308  0.94285  0.35562  1.0000
  Fe  Fe50      1.0  0.10431  0.97016  0.59265  1.0000
  S   S102      1.0  0.11069  0.94167  0.60847  1.0000
  C   C397      1.0  0.06366  0.51596  0.46086  1.0000
  Fe  Fe51      1.0  0.18071  0.85112  0.58318  1.0000
  S   S103      1.0  0.21136  0.84565  0.57444  1.0000
  S   S104      1.0  0.17041  0.88138  0.57391  1.0000
  Fe  Fe52      1.0  0.17672  0.80917  0.59599  1.0000
  S   S105      1.0  0.20702  0.80143  0.58765  1.0000
  S   S106      1.0  0.15476  0.78932  0.60974  1.0000
  Fe  Fe53      1.0  0.21366  0.82716  0.60128  1.0000
  H   H715      1.0  0.02550  0.97425  0.44442  1.0000
  Fe  Fe54      1.0  0.20249  0.82077  0.56141  1.0000
  S   S107      1.0  0.21696  0.81518  0.53279  1.0000
  S   S108      1.0  0.18341  0.83406  0.61116  1.0000
  S   S109      1.0  0.17179  0.82703  0.56869  1.0000
  Fe  Fe55      1.0  0.18901  0.79587  0.38931  1.0000
  S   S110      1.0  0.21108  0.79799  0.41005  1.0000
  S   S111      1.0  0.18366  0.76594  0.38222  1.0000
  Fe  Fe56      1.0  0.17819  0.83835  0.38883  1.0000
  S   S112      1.0  0.19865  0.84301  0.40967  1.0000
  S   S113      1.0  0.15790  0.86160  0.37696  1.0000
  Fe  Fe57      1.0  0.21889  0.82449  0.39247  1.0000
  H   H716      1.0  0.00309  0.69925  0.35154  1.0000
  Fe  Fe58      1.0  0.18946  0.81644  0.42549  1.0000
  S   S114      1.0  0.17730  0.81377  0.45596  1.0000
  S   S115      1.0  0.19858  0.82103  0.37064  1.0000
  S   S116      1.0  0.16726  0.81320  0.40567  1.0000
  Fe  Fe59      1.0  0.10639  0.64405  0.62939  1.0000
  S   S117      1.0  0.09858  0.67471  0.62179  1.0000
  S   S118      1.0  0.10048  0.61994  0.61250  1.0000
  Fe  Fe60      1.0  0.12192  0.68041  0.63961  1.0000
  S   S119      1.0  0.14487  0.70079  0.62960  1.0000
  S   S120      1.0  0.13100  0.64923  0.64566  1.0000
  Fe  Fe61      1.0  0.11065  0.66101  0.36608  1.0000
  S   S121      1.0  0.09165  0.68619  0.35726  1.0000
  S   S122      1.0  0.11123  0.65439  0.39749  1.0000
  H   H717      1.0  0.00386  0.65966  0.57672  1.0000
  H   H718      1.0  0.01032  0.63711  0.60663  1.0000
  C   C398      1.0  0.22005  0.76859  0.62937  1.0000
  H   H719      1.0  0.03189  0.99147  0.39514  1.0000
  S   S123      1.0  0.10204  0.64389  0.34421  1.0000
  S   S124      1.0  0.13607  0.67031  0.34861  1.0000
  C   C399      1.0  0.00384  0.66376  0.59127  1.0000
  C   C400      1.0  0.19429  0.97526  0.64105  1.0000
  H   H720      1.0  0.16043  0.54643  0.54901  1.0000
  H   H721      1.0  0.16450  0.92918  0.61277  1.0000
  Fe  Fe62      1.0  0.08452  0.66973  0.33388  1.0000
  H   H722      1.0  0.11056  0.87149  0.57885  1.0000
  H   H723      1.0  0.22741  0.86861  0.37624  1.0000
  N   N24       1.0  0.16205  0.61417  0.37080  1.0000
  C   C401      1.0  0.16657  0.75525  0.37045  1.0000
  C   C402      1.0  0.15286  0.76568  0.36006  1.0000
  C   C403      1.0  0.14003  0.75646  0.35068  1.0000
  C   C404      1.0  0.14053  0.73668  0.35158  1.0000
  C   C405      1.0  0.15410  0.72626  0.36216  1.0000
  C   C406      1.0  0.16702  0.73547  0.37142  1.0000
  H   H724      1.0  0.15235  0.78085  0.35889  1.0000
  H   H725      1.0  0.13800  0.60124  0.38509  1.0000
  H   H726      1.0  0.15486  0.71109  0.36296  1.0000
  H   H727      1.0  0.17759  0.72718  0.37926  1.0000
  C   C407      1.0  0.15203  0.76453  0.61398  1.0000
  C   C408      1.0  0.16664  0.75084  0.61046  1.0000
  C   C409      1.0  0.16413  0.73155  0.61529  1.0000
  C   C410      1.0  0.14691  0.72547  0.62341  1.0000
  C   C411      1.0  0.13220  0.73916  0.62664  1.0000
  C   C412      1.0  0.13479  0.75847  0.62203  1.0000
  H   H728      1.0  0.17990  0.75509  0.60411  1.0000
  H   H729      1.0  0.17562  0.72119  0.61260  1.0000
  H   H730      1.0  0.11887  0.73487  0.63284  1.0000
  H   H731      1.0  0.12331  0.76881  0.62481  1.0000
  C   C413      1.0  0.20568  0.81534  0.51148  1.0000
  C   C414      1.0  0.18615  0.81692  0.51103  1.0000
  C   C415      1.0  0.17775  0.81642  0.49391  1.0000
  C   C416      1.0  0.18873  0.81460  0.47701  1.0000
  C   C417      1.0  0.20825  0.81324  0.47739  1.0000
  C   C418      1.0  0.21666  0.81352  0.49456  1.0000
  H   H732      1.0  0.17754  0.81814  0.52395  1.0000
  H   H733      1.0  0.16264  0.81727  0.49382  1.0000
  H   H734      1.0  0.21689  0.81170  0.46453  1.0000
  C   C419      1.0  0.14219  0.60859  0.37133  1.0000
  H   H735      1.0  0.03898  0.57236  0.47463  1.0000
  H   H736      1.0  0.15540  0.63400  0.43265  1.0000
  C   C420      1.0  0.12693  0.92477  0.59862  1.0000
  C   C421      1.0  0.13879  0.92969  0.58294  1.0000
  C   C422      1.0  0.15230  0.91627  0.57596  1.0000
  C   C423      1.0  0.15374  0.89768  0.58418  1.0000
  C   C424      1.0  0.14175  0.89268  0.59978  1.0000
  C   C425      1.0  0.12848  0.90624  0.60704  1.0000
  H   H737      1.0  0.13776  0.94391  0.57638  1.0000
  H   H738      1.0  0.16171  0.92031  0.56406  1.0000
  H   H739      1.0  0.14272  0.87841  0.60624  1.0000
  H   H740      1.0  0.11938  0.90234  0.61923  1.0000
  C   C426      1.0  0.15236  0.88227  0.38852  1.0000
  C   C427      1.0  0.16452  0.88816  0.40077  1.0000
  C   C428      1.0  0.16035  0.90529  0.40884  1.0000
  C   C429      1.0  0.14359  0.91625  0.40545  1.0000
  C   C430      1.0  0.13125  0.91022  0.39346  1.0000
  C   C431      1.0  0.13577  0.89342  0.38482  1.0000
  H   H741      1.0  0.17738  0.87982  0.40362  1.0000
  H   H742      1.0  0.17020  0.91012  0.41768  1.0000
  H   H743      1.0  0.11836  0.91863  0.39062  1.0000
  H   H744      1.0  0.12632  0.88900  0.37528  1.0000
  C   C432      1.0  0.08457  0.97769  0.48722  1.0000
  H   H745      1.0  0.20254  0.80801  0.63900  1.0000
  C   C433      1.0  0.01402  0.96573  0.45086  1.0000
  H   H746      1.0  0.17073  0.79700  0.64615  1.0000
  H   H747      1.0  0.15231  0.95852  0.60482  1.0000
  C   C434      1.0  0.10376  0.97426  0.48283  1.0000
  H   H748      1.0  0.04341  0.52858  0.48025  1.0000
  S   S125      1.0  0.05033  0.68684  0.64950  1.0000
  C   C435      1.0  0.22110  0.88315  0.37743  1.0000
  H   H749      1.0  0.21533  0.76068  0.43792  1.0000
  H   H750      1.0  0.18887  0.60255  0.38029  1.0000
  C   C436      1.0  0.02090  0.98044  0.59349  1.0000
  H   H751      1.0  0.03369  0.97717  0.60064  1.0000
  H   H752      1.0  0.06352  0.52896  0.45114  1.0000
  H   H753      1.0  0.18137  0.59136  0.36155  1.0000
  C   C437      1.0  0.01298  0.64620  0.65532  1.0000
  C   C438      1.0  0.15894  0.62241  0.40559  1.0000
  C   C439      1.0  0.07831  0.98505  0.50415  1.0000
  H   H754      1.0  0.17711  0.90556  0.64830  1.0000
  C   C440      1.0  0.02952  0.67477  0.65091  1.0000
  C   C441      1.0  0.10386  0.59712  0.42993  1.0000
  C   C442      1.0  0.10738  0.61261  0.43924  1.0000
  C   C443      1.0  0.10921  0.63018  0.42913  1.0000
  C   C444      1.0  0.10745  0.63241  0.40968  1.0000
  C   C445      1.0  0.10326  0.61711  0.40045  1.0000
  C   C446      1.0  0.10165  0.59945  0.41052  1.0000
  H   H755      1.0  0.10925  0.61095  0.45415  1.0000
  H   H756      1.0  0.11239  0.64199  0.43639  1.0000
  H   H757      1.0  0.10155  0.61882  0.38554  1.0000
  H   H758      1.0  0.09880  0.58752  0.40328  1.0000
  C   C447      1.0  0.11595  0.60580  0.55171  1.0000
  C   C448      1.0  0.10084  0.59810  0.56224  1.0000
  C   C449      1.0  0.09641  0.60261  0.58080  1.0000
  C   C450      1.0  0.10637  0.61560  0.58878  1.0000
  C   C451      1.0  0.12104  0.62390  0.57803  1.0000
  C   C452      1.0  0.12597  0.61878  0.55967  1.0000
  H   H759      1.0  0.09285  0.58832  0.55625  1.0000
  H   H760      1.0  0.08515  0.59599  0.58903  1.0000
  H   H761      1.0  0.12893  0.63380  0.58405  1.0000
  H   H762      1.0  0.13772  0.62480  0.55165  1.0000
  Fe  Fe63      1.0  0.07063  0.96418  0.40418  1.0000
  C   C453      1.0  0.01359  0.55816  0.47602  1.0000
  C   C454      1.0  0.02590  0.56988  0.48252  1.0000
  C   C455      1.0  0.02108  0.57870  0.49899  1.0000
  H   H763      1.0  0.01325  0.51105  0.52266  1.0000
  C   C456      1.0  0.03309  0.66574  0.33234  1.0000
  H   H764      1.0  0.01730  0.55140  0.46325  1.0000
  H   H765      1.0  0.23422  0.86676  0.41121  1.0000
  C   C457      1.0  0.02463  0.51328  0.51147  1.0000
  H   H766      1.0  0.07565  0.51584  0.46987  1.0000
  H   H767      1.0  0.22545  0.78184  0.62264  1.0000
  C   C458      1.0  0.18516  0.93684  0.37024  1.0000
  C   C459      1.0  0.17659  0.90869  0.63287  1.0000
  H   H768      1.0  0.11077  0.50370  0.48527  1.0000
  H   H769      1.0  0.12273  0.53700  0.53304  1.0000
  H   H770      1.0  0.12973  0.76476  0.34247  1.0000
  N   N25       1.0  0.13356  0.53698  0.56035  1.0000
  H   H771      1.0  0.24671  0.80106  0.56030  1.0000
  C   C460      1.0  0.17617  0.59765  0.37478  1.0000
  H   H772      1.0  0.09401  0.85686  0.57091  1.0000
  H   H773      1.0  0.13157  0.97615  0.49163  1.0000
  H   H774      1.0  0.06813  0.53743  0.57838  1.0000
  H   H775      1.0  0.17849  0.86913  0.44129  1.0000
  H   H776      1.0  0.19515  0.94503  0.37660  1.0000
  C   C461      1.0  0.11673  0.97871  0.49510  1.0000
  H   H777      1.0  0.00923  0.93758  0.39956  1.0000
  C   C462      1.0  0.11171  0.98003  0.64761  1.0000
  C   C463      1.0  0.13007  0.52699  0.54345  1.0000
  H   H778      1.0  0.19370  0.91086  0.38548  1.0000
  C   C464      1.0  0.14393  0.87276  0.45010  1.0000
  H   H779      1.0  0.22675  0.86433  0.33244  1.0000
  C   C465      1.0  0.14437  0.85232  0.44438  1.0000
  C   C466      1.0  0.12909  0.85043  0.43103  1.0000
  H   H780      1.0  0.17868  0.85286  0.46154  1.0000
  H   H781      1.0  0.10862  0.96806  0.47005  1.0000
  H   H782      1.0  0.14578  0.88201  0.43687  1.0000
  H   H783      1.0  0.12939  0.87641  0.45585  1.0000
  H   H784      1.0  0.13728  0.87217  0.48694  1.0000
  H   H785      1.0  0.22930  0.90682  0.39200  1.0000
  H   H786      1.0  0.12966  0.90777  0.45662  1.0000
  H   H787      1.0  0.14213  0.84213  0.45678  1.0000
  H   H788      1.0  0.15793  0.84812  0.43690  1.0000
  H   H789      1.0  0.12989  0.83578  0.42700  1.0000
  H   H790      1.0  0.11499  0.85379  0.43787  1.0000
  H   H791      1.0  0.13107  0.85997  0.41802  1.0000
  N   N26       1.0  0.03689  0.64615  0.59411  1.0000
  C   C467      1.0  0.04835  0.63460  0.60852  1.0000
  C   C468      1.0  0.04533  0.66476  0.58936  1.0000
  H   H792      1.0  0.01166  0.70035  0.64707  1.0000
  C   C469      1.0  0.03526  0.63621  0.57662  1.0000
  C   C470      1.0  0.05200  0.62242  0.57056  1.0000
  C   C471      1.0  0.03954  0.61676  0.61800  1.0000
  C   C472      1.0  0.13410  0.50585  0.58232  1.0000
  C   C473      1.0  0.06587  0.66409  0.58103  1.0000
  C   C474      1.0  0.07294  0.68377  0.57849  1.0000
  C   C475      1.0  0.04977  0.61605  0.55111  1.0000
  C   C476      1.0  0.05383  0.60390  0.62888  1.0000
  H   H793      1.0  0.15542  0.63424  0.34727  1.0000
  H   H794      1.0  0.05109  0.64333  0.61998  1.0000
  H   H795      1.0  0.06247  0.63018  0.60242  1.0000
  H   H796      1.0  0.00187  0.91081  0.37922  1.0000
  H   H797      1.0  0.04456  0.67263  0.60218  1.0000
  H   H798      1.0  0.24304  0.84057  0.50889  1.0000
  H   H799      1.0  0.07795  0.55977  0.57309  1.0000
  H   H800      1.0  0.02282  0.62772  0.57823  1.0000
  H   H801      1.0  0.03258  0.64670  0.56446  1.0000
  H   H802      1.0  0.05281  0.60963  0.58052  1.0000
  H   H803      1.0  0.06560  0.62867  0.57014  1.0000
  H   H804      1.0  0.01343  0.93699  0.46528  1.0000
  H   H805      1.0  0.03383  0.60870  0.60754  1.0000
  H   H806      1.0  0.02397  0.93260  0.43254  1.0000
  H   H807      1.0  0.18140  0.90867  0.36478  1.0000
  H   H808      1.0  0.07547  0.65521  0.59023  1.0000
  H   H809      1.0  0.06684  0.65882  0.56692  1.0000
  H   H810      1.0  0.08786  0.68288  0.57308  1.0000
  H   H811      1.0  0.06465  0.69300  0.56830  1.0000
  H   H812      1.0  0.07195  0.69016  0.59210  1.0000
  H   H813      1.0  0.03654  0.60906  0.55091  1.0000
  H   H814      1.0  0.04977  0.62820  0.54030  1.0000
  H   H815      1.0  0.06164  0.60586  0.54731  1.0000
  H   H816      1.0  0.15637  0.98209  0.60719  1.0000
  H   H817      1.0  0.04687  0.59185  0.63640  1.0000
  H   H818      1.0  0.06526  0.59835  0.61915  1.0000
  C   C477      1.0  0.15868  0.63891  0.41770  1.0000
  H   H819      1.0  0.20994  0.92049  0.34484  1.0000
  C   C478      1.0  0.19230  0.91614  0.37057  1.0000
  H   H820      1.0  0.18964  0.97735  0.60069  1.0000
  H   H821      1.0  0.14445  0.95047  0.53893  1.0000
  N   N27       1.0  0.04039  0.65940  0.39890  1.0000
  C   C479      1.0  0.05687  0.67135  0.39577  1.0000
  C   C480      1.0  0.04179  0.64548  0.38417  1.0000
  C   C481      1.0  0.02287  0.67227  0.39578  1.0000
  C   C482      1.0  0.03875  0.64957  0.41853  1.0000
  C   C483      1.0  0.05727  0.64387  0.42840  1.0000
  C   C484      1.0  0.05567  0.68864  0.40749  1.0000
  H   H822      1.0  0.12143  0.50923  0.59154  1.0000
  C   C485      1.0  0.05964  0.63186  0.38322  1.0000
  C   C486      1.0  0.05964  0.61961  0.36686  1.0000
  C   C487      1.0  0.05361  0.63266  0.44735  1.0000
  C   C488      1.0  0.07491  0.69596  0.40877  1.0000
  Fe  Fe64      1.0  0.08042  0.67342  0.64876  1.0000
  H   H823      1.0  0.05848  0.67679  0.38071  1.0000
  H   H824      1.0  0.07020  0.66289  0.39847  1.0000
  H   H825      1.0  0.02988  0.63636  0.38622  1.0000
  H   H826      1.0  0.04069  0.65316  0.36998  1.0000
  H   H827      1.0  0.02455  0.68119  0.38224  1.0000
  H   H828      1.0  0.02053  0.68226  0.40686  1.0000
  H   H829      1.0  0.03005  0.65858  0.42822  1.0000
  H   H830      1.0  0.03104  0.63675  0.41856  1.0000
  H   H831      1.0  0.06425  0.65645  0.43124  1.0000
  H   H832      1.0  0.06744  0.63532  0.41983  1.0000
  H   H833      1.0  0.04651  0.70023  0.40075  1.0000
  H   H834      1.0  0.04961  0.68527  0.42197  1.0000
  C   C489      1.0  0.04166  0.51896  0.52121  1.0000
  H   H835      1.0  0.21526  0.83696  0.65253  1.0000
  H   H836      1.0  0.07250  0.63954  0.38109  1.0000
  H   H837      1.0  0.06021  0.62214  0.39612  1.0000
  H   H838      1.0  0.05949  0.62844  0.35330  1.0000
  H   H839      1.0  0.07250  0.60986  0.36658  1.0000
  H   H840      1.0  0.04723  0.61116  0.36840  1.0000
  H   H841      1.0  0.04440  0.64119  0.45700  1.0000
  H   H842      1.0  0.04700  0.61956  0.44561  1.0000
  H   H843      1.0  0.10443  0.96957  0.64091  1.0000
  H   H844      1.0  0.07346  0.70842  0.41702  1.0000
  H   H845      1.0  0.08450  0.68501  0.41586  1.0000
  H   H846      1.0  0.08120  0.70020  0.39457  1.0000
  H   H847      1.0  0.11462  0.86223  0.55614  1.0000
  H   H848      1.0  0.20015  0.77515  0.45276  1.0000
  H   H849      1.0  0.13634  0.60517  0.34227  1.0000
  H   H850      1.0  0.15132  0.49966  0.60637  1.0000
  H   H851      1.0  0.15300  0.64121  0.38084  1.0000
  H   H852      1.0  0.03715  0.67372  0.57887  1.0000
  N   N28       1.0  0.09788  0.91795  0.53921  1.0000
  C   C490      1.0  0.11194  0.93266  0.53768  1.0000
  C   C491      1.0  0.07983  0.92556  0.54899  1.0000
  C   C492      1.0  0.10579  0.90139  0.55169  1.0000
  C   C493      1.0  0.09440  0.91144  0.52037  1.0000
  C   C494      1.0  0.09531  0.92634  0.50311  1.0000
  C   C495      1.0  0.13220  0.92585  0.53074  1.0000
  C   C496      1.0  0.09276  0.88532  0.55738  1.0000
  C   C497      1.0  0.06861  0.94213  0.53838  1.0000
  C   C498      1.0  0.05159  0.94942  0.55048  1.0000
  C   C499      1.0  0.08769  0.91931  0.48591  1.0000
  C   C500      1.0  0.14467  0.94215  0.52658  1.0000
  C   C501      1.0  0.10370  0.86794  0.56634  1.0000
  H   H853      1.0  0.11300  0.93794  0.55167  1.0000
  H   H854      1.0  0.10731  0.94530  0.52854  1.0000
  H   H855      1.0  0.06975  0.91453  0.55168  1.0000
  H   H856      1.0  0.08264  0.92981  0.56305  1.0000
  H   H857      1.0  0.11024  0.90620  0.56496  1.0000
  H   H858      1.0  0.11864  0.89467  0.54469  1.0000
  H   H859      1.0  0.10475  0.89965  0.51676  1.0000
  H   H860      1.0  0.08050  0.90545  0.52112  1.0000
  H   H861      1.0  0.10996  0.92962  0.49928  1.0000
  H   H862      1.0  0.08741  0.93980  0.50576  1.0000
  H   H863      1.0  0.13882  0.91615  0.54170  1.0000
  H   H864      1.0  0.13241  0.91815  0.51802  1.0000
  H   H865      1.0  0.08610  0.88121  0.54504  1.0000
  H   H866      1.0  0.08164  0.88973  0.56803  1.0000
  H   H867      1.0  0.07734  0.95401  0.53415  1.0000
  H   H868      1.0  0.06304  0.93739  0.52572  1.0000
  H   H869      1.0  0.12029  0.51583  0.54716  1.0000
  H   H870      1.0  0.04158  0.93839  0.55382  1.0000
  H   H871      1.0  0.05583  0.95400  0.56383  1.0000
  H   H872      1.0  0.09548  0.90597  0.48224  1.0000
  H   H873      1.0  0.07255  0.91712  0.48855  1.0000
  H   H874      1.0  0.08926  0.92999  0.47373  1.0000
  H   H875      1.0  0.15934  0.93665  0.52320  1.0000
  H   H876      1.0  0.13987  0.95141  0.51437  1.0000
  H   H877      1.0  0.19210  0.78116  0.62530  1.0000
  H   H878      1.0  0.20688  0.88129  0.38428  1.0000
  C   C502      1.0  0.01989  0.89999  0.35698  1.0000
  H   H879      1.0  0.14460  0.53160  0.58781  1.0000
  C   C503      1.0  0.01211  0.68519  0.64930  1.0000
  C   C504      1.0  0.20656  0.79950  0.65211  1.0000
  C   C505      1.0  0.00433  0.91409  0.36386  1.0000
  C   C506      1.0  0.16229  0.96742  0.61035  1.0000
  H   H880      1.0  0.15379  0.69934  0.42197  1.0000
  C   C507      1.0  0.14340  0.96290  0.63992  1.0000
  C   C508      1.0  0.21148  0.91359  0.35930  1.0000
  H   H881      1.0  0.02520  0.53140  0.54440  1.0000
  H   H882      1.0  0.13838  0.78753  0.64993  1.0000
  H   H883      1.0  0.03373  0.51590  0.46325  1.0000
  H   H884      1.0  0.00010  0.58276  0.52160  1.0000
  H   H885      1.0  0.02143  0.96975  0.48724  1.0000
  H   H886      1.0  0.16464  0.86270  0.52935  1.0000
  S   S126      1.0  0.06674  0.98983  0.41991  1.0000
  H   H887      1.0  0.19253  0.75892  0.63781  1.0000
  C   C509      1.0  0.14764  0.51773  0.53301  1.0000
  C   C510      1.0  0.14218  0.70850  0.41571  1.0000
  H   H888      1.0  0.14665  0.71353  0.40110  1.0000
  H   H889      1.0  0.12999  0.70001  0.41524  1.0000
  H   H890      1.0  0.05999  0.61167  0.63935  1.0000
  H   H891      1.0  0.02624  0.98760  0.51473  1.0000
  H   H892      1.0  0.04425  0.96173  0.54276  1.0000
  C   C511      1.0  0.01743  0.65031  0.60311  1.0000
  S   S127      1.0  0.12673  0.99131  0.52747  1.0000
  C   C512      1.0  0.14931  0.56649  0.56827  1.0000
  C   C513      1.0  0.16291  0.62879  0.38455  1.0000
  S   S128      1.0  0.08699  0.64278  0.65543  1.0000
  H   H893      1.0  0.02321  0.90285  0.34165  1.0000
  H   H894      1.0  0.03702  0.69193  0.34334  1.0000
  H   H895      1.0  0.19627  0.89066  0.45343  1.0000
  H   H896      1.0  0.22096  0.92219  0.36578  1.0000
  C   C514      1.0  0.16475  0.92704  0.62826  1.0000
  C   C515      1.0  0.04518  0.51559  0.47289  1.0000
  C   C516      1.0  0.03614  0.53525  0.53327  1.0000
  C   C517      1.0  0.14626  0.55244  0.55368  1.0000
  H   H897      1.0  0.00808  0.61112  0.43414  1.0000
  H   H898      1.0  0.13229  0.62141  0.37003  1.0000
  C   C518      1.0  0.17572  0.78737  0.65822  1.0000
  H   H899      1.0  0.09338  0.53508  0.55365  1.0000
  Fe  Fe65      1.0  0.07193  0.99491  0.57506  1.0000
  H   H900      1.0  0.15877  0.58825  0.54715  1.0000
  H   H901      1.0  0.04863  0.53890  0.54006  1.0000
  H   H902      1.0  0.16674  0.88420  0.50048  1.0000
  S   S129      1.0  0.09842  0.97211  0.38970  1.0000
  C   C519      1.0  0.16665  0.62329  0.35131  1.0000
  C   C520      1.0  0.20216  0.99307  0.64638  1.0000
  H   H903      1.0  0.01719  0.56875  0.42969  1.0000
  C   C521      1.0  0.16340  0.58054  0.56037  1.0000
  H   H904      1.0  0.22195  0.79606  0.65011  1.0000
  H   H905      1.0  0.14960  0.58535  0.35316  1.0000
  H   H906      1.0  0.17146  0.93818  0.37850  1.0000
  H   H907      1.0  0.18904  0.95209  0.60126  1.0000
  H   H908      1.0  0.13399  0.51583  0.50711  1.0000
  H   H909      1.0  0.12960  0.98703  0.62334  1.0000
  H   H910      1.0  0.21393  0.75946  0.60243  1.0000
  H   H911      1.0  0.14173  0.87000  0.52131  1.0000
  C   C522      1.0  0.18590  0.56725  0.39407  1.0000
  C   C523      1.0  0.02282  0.96347  0.39713  1.0000
  H   H912      1.0  0.17031  0.89694  0.62716  1.0000
  H   H913      1.0  0.15033  0.92505  0.63435  1.0000
  H   H914      1.0  0.02788  0.62077  0.62821  1.0000
  C   C524      1.0  0.01499  0.98228  0.47906  1.0000
  H   H915      1.0  0.19310  0.88173  0.35609  1.0000
  H   H916      1.0  0.14778  0.65010  0.41345  1.0000
  C   C525      1.0  0.09128  0.98934  0.51650  1.0000
  N   N29       1.0  0.16326  0.96301  0.63127  1.0000
  C   C526      1.0  0.13135  0.98197  0.63823  1.0000
  H   H917      1.0  0.19107  0.90948  0.62637  1.0000
  H   H918      1.0  0.23706  0.75198  0.60975  1.0000
  H   H919      1.0  0.17707  0.63409  0.38375  1.0000
  H   H920      1.0  0.21360  0.74231  0.66058  1.0000
  H   H921      1.0  0.13774  0.99297  0.64499  1.0000
  H   H922      1.0  0.18476  0.64572  0.35527  1.0000
  H   H923      1.0  0.00350  0.96639  0.61541  1.0000
  C   C527      1.0  0.13662  0.72515  0.42734  1.0000
  H   H924      1.0  0.16084  0.73930  0.41482  1.0000
  H   H925      1.0  0.12482  0.73354  0.42076  1.0000
  H   H926      1.0  0.18063  0.55529  0.40339  1.0000
  H   H927      1.0  0.18874  0.74480  0.42907  1.0000
  H   H928      1.0  0.16196  0.58563  0.40140  1.0000
  H   H929      1.0  0.11190  0.55978  0.56018  1.0000
  H   H930      1.0  0.08379  0.54516  0.59418  1.0000
  H   H931      1.0  0.16973  0.95597  0.57378  1.0000
  H   H932      1.0  0.16346  0.72732  0.43742  1.0000
  H   H933      1.0  0.22913  0.76342  0.64092  1.0000
  C   C528      1.0  0.16944  0.58100  0.38840  1.0000
  H   H934      1.0  0.12175  0.80088  0.40764  1.0000
  H   H935      1.0  0.13144  0.71934  0.44151  1.0000
  H   H936      1.0  0.19576  0.57427  0.40186  1.0000
  H   H937      1.0  0.16706  0.97946  0.65451  1.0000
  C   C529      1.0  0.19929  0.77235  0.63670  1.0000
  C   C530      1.0  0.17294  0.94383  0.63620  1.0000
  C   C531      1.0  0.00380  0.57608  0.50877  1.0000
  H   H938      1.0  0.00836  0.50785  0.48029  1.0000
  C   C532      1.0  0.15356  0.73695  0.42905  1.0000
  H   H939      1.0  0.17253  0.64492  0.41646  1.0000
  H   H940      1.0  0.10777  0.59713  0.36158  1.0000
  H   H941      1.0  0.09929  0.52066  0.57425  1.0000
  C   C533      1.0  0.18555  0.63254  0.34815  1.0000
  H   H942      1.0  0.04713  0.57876  0.41554  1.0000
  H   H943      1.0  0.03981  0.60299  0.41834  1.0000
  H   H944      1.0  0.04199  0.92357  0.44801  1.0000
  C   C534      1.0  0.03814  0.58836  0.42433  1.0000
  H   H945      1.0  0.15784  0.77209  0.41242  1.0000
  H   H946      1.0  0.18798  0.94322  0.63130  1.0000
  C   C535      1.0  0.00377  0.97435  0.60182  1.0000
  N   N30       1.0  0.15804  0.87648  0.46376  1.0000
  H   H947      1.0  0.20285  0.89237  0.33453  1.0000
  H   H948      1.0  0.03412  0.94865  0.46843  1.0000
  C   C536      1.0  0.15514  0.86172  0.51795  1.0000
  H   H949      1.0  0.14071  0.56089  0.54112  1.0000
  N   N31       1.0  0.00218  0.97633  0.46527  1.0000
  C   C537      1.0  0.17271  0.97807  0.63974  1.0000
  C   C538      1.0  0.18569  0.75843  0.43523  1.0000
  H   H950      1.0  0.13097  0.75899  0.40230  1.0000
  H   H951      1.0  0.18539  0.76972  0.42362  1.0000
  H   H952      1.0  0.13736  0.79133  0.38931  1.0000
  H   H953      1.0  0.01569  0.88539  0.35999  1.0000
  S   S130      1.0  0.04553  0.95229  0.39303  1.0000
  H   H954      1.0  0.21694  0.85413  0.35439  1.0000
  H   H955      1.0  0.13220  0.90306  0.48157  1.0000
  C   C539      1.0  0.17712  0.86814  0.45695  1.0000
  H   H956      1.0  0.16455  0.59097  0.57068  1.0000
  N   N32       1.0  0.14963  0.75544  0.43784  1.0000
  H   H957      1.0  0.13701  0.74222  0.46339  1.0000
  H   H958      1.0  0.19350  0.56161  0.38148  1.0000
  S   S131      1.0  0.23916  0.82321  0.61965  1.0000
  C   C540      1.0  0.16687  0.75925  0.44741  1.0000
  C   C541      1.0  0.14586  0.77140  0.42305  1.0000
  C   C542      1.0  0.08085  0.54507  0.57918  1.0000
  H   H959      1.0  0.12062  0.75093  0.44680  1.0000
  H   H960      1.0  0.16870  0.74915  0.46007  1.0000
  H   H961      1.0  0.13602  0.57465  0.57220  1.0000
  H   H962      1.0  0.15166  0.85184  0.48209  1.0000
  C   C543      1.0  0.00716  0.95270  0.39948  1.0000
  C   C544      1.0  0.13911  0.90857  0.46808  1.0000
  H   H963      1.0  0.16391  0.90354  0.44996  1.0000
  H   H964      1.0  0.04309  0.58642  0.43878  1.0000
  C   C545      1.0  0.01770  0.58380  0.42446  1.0000
  H   H965      1.0  0.23177  0.81213  0.49474  1.0000
  H   H966      1.0  0.19354  0.88074  0.47721  1.0000
  C   C546      1.0  0.11989  0.58654  0.36038  1.0000
  C   C547      1.0  0.13368  0.75418  0.45276  1.0000
  C   C548      1.0  0.12849  0.77056  0.41167  1.0000
  C   C549      1.0  0.15195  0.86724  0.48277  1.0000
  H   H967      1.0  0.15489  0.50035  0.50988  1.0000
  C   C550      1.0  0.02366  0.94656  0.45830  1.0000
  C   C551      1.0  0.00170  0.99169  0.39884  1.0000
  H   H968      1.0  0.06346  0.98758  0.50768  1.0000
  N   N33       1.0  0.19636  0.78170  0.65481  1.0000
  C   C552      1.0  0.02135  0.99095  0.57603  1.0000
  C   C553      1.0  0.15825  0.89753  0.46389  1.0000
  H   H969      1.0  0.16533  0.77354  0.45250  1.0000
  H   H970      1.0  0.14501  0.78513  0.42922  1.0000
  C   C554      1.0  0.18101  0.96579  0.59826  1.0000
  C   C555      1.0  0.02985  0.65517  0.65380  1.0000
  N   N34       1.0  0.21972  0.89358  0.35825  1.0000
  H   H971      1.0  0.14949  0.93535  0.45654  1.0000
  H   H972      1.0  0.01356  0.58546  0.40980  1.0000
  C   C556      1.0  0.02698  0.68213  0.34086  1.0000
  H   H973      1.0  0.08630  0.99525  0.52944  1.0000
  C   C557      1.0  0.16431  0.86934  0.49917  1.0000
  C   C558      1.0  0.14163  0.92939  0.46933  1.0000
  H   H974      1.0  0.14923  0.93135  0.48188  1.0000
  H   H975      1.0  0.11282  0.78754  0.39055  1.0000
  H   H976      1.0  0.15487  0.55918  0.58124  1.0000
  C   C559      1.0  0.20657  0.88366  0.34764  1.0000
  C   C560      1.0  0.12855  0.77194  0.46351  1.0000
  H   H977      1.0  0.14034  0.77518  0.47155  1.0000
  H   H978      1.0  0.11514  0.75699  0.48814  1.0000
  H   H979      1.0  0.15675  0.52857  0.52629  1.0000
  H   H980      1.0  0.21531  0.88427  0.41641  1.0000
  H   H981      1.0  0.24523  0.83955  0.55075  1.0000
  H   H982      1.0  0.21224  0.85198  0.46988  1.0000
  H   H983      1.0  0.21381  0.85973  0.44515  1.0000
  S   S132      1.0  0.08335  0.99251  0.60370  1.0000
  H   H984      1.0  0.16266  0.99400  0.46345  1.0000
  H   H985      1.0  0.15244  0.84672  0.51762  1.0000
  C   C561      1.0  0.11184  0.76903  0.47767  1.0000
  H   H986      1.0  0.09927  0.76639  0.47042  1.0000
  C   C562      1.0  0.19459  0.87734  0.46243  1.0000
  H   H987      1.0  0.16792  0.90131  0.47404  1.0000
  H   H988      1.0  0.12771  0.93736  0.47036  1.0000
  H   H989      1.0  0.20332  0.75001  0.45864  1.0000
  C   C563      1.0  0.00770  0.68627  0.34544  1.0000
  C   C564      1.0  0.14335  0.52413  0.57510  1.0000
  C   C565      1.0  0.19916  0.85537  0.33148  1.0000
  H   H990      1.0  0.21751  0.99050  0.64773  1.0000
  H   H991      1.0  0.11564  0.76854  0.42090  1.0000
  H   H992      1.0  0.12465  0.78433  0.45374  1.0000
  C   C566      1.0  0.21245  0.86448  0.45952  1.0000
  H   H993      1.0  0.15807  0.52025  0.57001  1.0000
  H   H994      1.0  0.19723  0.62290  0.35355  1.0000
  H   H995      1.0  0.10854  0.78183  0.48527  1.0000
  C   C567      1.0  0.13802  0.59624  0.35565  1.0000
  H   H996      1.0  0.17797  0.86105  0.49710  1.0000
  H   H997      1.0  0.22490  0.87209  0.46160  1.0000
  S   S133      1.0  0.12598  0.99029  0.58234  1.0000
  H   H998      1.0  0.14527  0.61622  0.40829  1.0000
  C   C568      1.0  0.17760  0.96771  0.57733  1.0000
  C   C569      1.0  0.12492  0.78872  0.39907  1.0000
  C   C570      1.0  0.09741  0.53537  0.56826  1.0000
  H   H999      1.0  0.05272  0.52361  0.51062  1.0000
  C   C571      1.0  0.02000  0.98299  0.39719  1.0000
  C   C572      1.0  0.03402  0.93654  0.44230  1.0000
  H   H1000     1.0  0.01929  0.52570  0.50240  1.0000
  H   H1001     1.0  0.12071  0.57742  0.37375  1.0000
  H   H1002     1.0  0.16417  0.76160  0.65063  1.0000
  C   C573      1.0  0.11533  0.54611  0.56838  1.0000
  H   H1003     1.0  0.00957  0.59210  0.45174  1.0000
  H   H1004     1.0  0.15964  0.57304  0.38154  1.0000
  H   H1005     1.0  0.17745  0.57323  0.55757  1.0000
  H   H1006     1.0  0.16696  0.61282  0.34072  1.0000
  H   H1007     1.0  0.06711  0.62872  0.45392  1.0000
  H   H1008     1.0  0.04402  0.94580  0.43440  1.0000
  H   H1009     1.0  0.17280  0.94091  0.65176  1.0000
  Fe  Fe66      1.0  0.11686  0.69512  0.33895  1.0000
  C   C574      1.0  0.20207  0.76123  0.44693  1.0000
  H   H1010     1.0  0.19124  0.96727  0.56893  1.0000
  H   H1011     1.0  0.11681  0.54959  0.58301  1.0000
  H   H1012     1.0  0.23370  0.85891  0.52339  1.0000
  H   H1013     1.0  0.03083  0.54782  0.52446  1.0000
  H   H1014     1.0  0.19775  0.96382  0.65211  1.0000
  C   C575      1.0  0.11050  0.98624  0.51194  1.0000
  H   H1015     1.0  0.21713  0.74060  0.62081  1.0000
  H   H1016     1.0  0.11759  0.57764  0.34901  1.0000
  C   C576      1.0  0.21383  0.86384  0.34190  1.0000
  H   H1017     1.0  0.18597  0.85409  0.34049  1.0000
  C   C577      1.0  0.22210  0.75426  0.61471  1.0000
  H   H1018     1.0  0.16959  0.98125  0.57339  1.0000
  H   H1019     1.0  0.16933  0.99208  0.63210  1.0000
  H   H1020     1.0  0.03277  0.90127  0.36434  1.0000
  H   H1021     1.0  0.14343  0.95791  0.65512  1.0000
  H   H1022     1.0  0.00792  0.67842  0.59072  1.0000
  C   C578      1.0  0.00469  0.59625  0.43742  1.0000
  H   H1023     1.0  0.04773  0.50712  0.53047  1.0000
  H   H1024     1.0  0.24547  0.92246  0.34170  1.0000
  H   H1025     1.0  0.05818  0.49693  0.49470  1.0000
  H   H1026     1.0  0.00570  0.96348  0.43886  1.0000
  C   C579      1.0  0.23018  0.88207  0.41105  1.0000
  H   H1027     1.0  0.02712  0.98913  0.47156  1.0000
  H   H1028     1.0  0.14056  0.98569  0.45889  1.0000
  H   H1029     1.0  0.06572  0.50362  0.45244  1.0000
  C   C580      1.0  0.00459  0.99507  0.56692  1.0000
  C   C581      1.0  0.23300  0.89161  0.39119  1.0000
  C   C582      1.0  0.00438  0.66252  0.39543  1.0000
  H   H1030     1.0  0.23697  0.89364  0.33206  1.0000
  H   H1031     1.0  0.04308  0.64690  0.65484  1.0000
  C   C583      1.0  0.04520  0.49778  0.48694  1.0000
  H   H1032     1.0  0.00411  0.65579  0.38210  1.0000
  H   H1033     1.0  0.24108  0.86451  0.61672  1.0000
  C   C584      1.0  0.00046  0.65737  0.33375  1.0000
  H   H1034     1.0  0.13034  0.49796  0.57075  1.0000
  C   C585      1.0  0.14213  0.50655  0.51740  1.0000
  H   H1035     1.0  0.15587  0.50791  0.54272  1.0000
  H   H1036     1.0  0.23913  0.88812  0.42058  1.0000
  C   C586      1.0  0.16245  0.77128  0.66188  1.0000
  H   H1037     1.0  0.01339  0.63106  0.65779  1.0000
  C   C587      1.0  0.14194  0.77904  0.66314  1.0000
  C   C588      1.0  0.00575  0.99542  0.49370  1.0000
  C   C589      1.0  0.23868  0.89314  0.34744  1.0000
  H   H1038     1.0  0.00285  0.65163  0.40738  1.0000
  Fe  Fe67      1.0  0.09557  0.99655  0.40785  1.0000
  C   C590      1.0  0.24626  0.85357  0.51490  1.0000
  H   H1039     1.0  0.24691  0.87958  0.35110  1.0000
  H   H1040     1.0  0.11242  0.97563  0.66283  1.0000
  H   H1041     1.0  0.05392  0.65647  0.68294  1.0000
  Fe  Fe68      1.0  0.02573  0.57129  0.90389  1.0000
  S   S134      1.0  0.04415  0.59035  0.88485  1.0000
  H   H1042     1.0  0.02927  0.49686  0.96290  1.0000
  S   S135      1.0  0.03597  0.55584  0.93047  1.0000
  H   H1043     1.0  0.14921  0.58246  0.72702  1.0000
  Fe  Fe69      1.0  0.18643  0.58288  0.83267  1.0000
  S   S136      1.0  0.19177  0.57745  0.80216  1.0000
  S   S137      1.0  0.20592  0.58844  0.85565  1.0000
  Fe  Fe70      1.0  0.14592  0.56989  0.83327  1.0000
  S   S138      1.0  0.14844  0.56419  0.80280  1.0000
  S   S139      1.0  0.12438  0.55708  0.85451  1.0000
  Fe  Fe71      1.0  0.17697  0.55084  0.80878  1.0000
  S   S140      1.0  0.18879  0.52252  0.79930  1.0000
  Fe  Fe72      1.0  0.16260  0.59132  0.79791  1.0000
  S   S141      1.0  0.16028  0.61302  0.77217  1.0000
  S   S142      1.0  0.17387  0.55511  0.83927  1.0000
  S   S143      1.0  0.15797  0.59819  0.82835  1.0000
  Fe  Fe73      1.0  0.02392  0.53143  0.91964  1.0000
  H   H1044     1.0  0.03767  0.67480  0.78017  1.0000
  S   S144      1.0  0.11124  0.63252  0.70024  1.0000
  Fe  Fe74      1.0  0.00680  0.56249  0.94307  1.0000
  H   H1045     1.0  0.06301  0.50660  0.88051  1.0000
  H   H1046     1.0  0.05301  0.69225  0.77009  1.0000
  C   C591      1.0  0.19717  0.57246  0.74421  1.0000
  H   H1047     1.0  0.04944  0.64870  0.72574  1.0000
  H   H1048     1.0  0.12927  0.51336  0.82927  1.0000
  C   C592      1.0  0.12561  0.62668  0.71966  1.0000
  C   C593      1.0  0.14303  0.63388  0.72054  1.0000
  C   C594      1.0  0.15341  0.62942  0.73662  1.0000
  C   C595      1.0  0.14668  0.61759  0.75202  1.0000
  C   C596      1.0  0.12928  0.61032  0.75109  1.0000
  C   C597      1.0  0.11888  0.61481  0.73503  1.0000
  H   H1049     1.0  0.14841  0.64310  0.70894  1.0000
  H   H1050     1.0  0.16675  0.63530  0.73718  1.0000
  H   H1051     1.0  0.12360  0.60164  0.76294  1.0000
  H   H1052     1.0  0.10537  0.60926  0.73463  1.0000
  H   H1053     1.0  0.03408  0.66365  0.71137  1.0000
  H   H1054     1.0  0.05720  0.69742  0.73577  1.0000
  H   H1055     1.0  0.05173  0.62257  0.68369  1.0000
  H   H1056     1.0  0.08982  0.69551  0.72775  1.0000
  H   H1057     1.0  0.14892  0.51802  0.79743  1.0000
  C   C598      1.0  0.22617  0.60101  0.85784  1.0000
  H   H1058     1.0  0.07130  0.73394  0.68126  1.0000
  H   H1059     1.0  0.15314  0.50757  0.87657  1.0000
  C   C599      1.0  0.20382  0.76948  0.67140  1.0000
  H   H1060     1.0  0.19005  0.53188  0.75926  1.0000
  C   C600      1.0  0.06587  0.58053  0.87548  1.0000
  C   C601      1.0  0.07615  0.59087  0.86123  1.0000
  C   C602      1.0  0.09389  0.58367  0.85416  1.0000
  C   C603      1.0  0.10161  0.56626  0.86163  1.0000
  C   C604      1.0  0.09123  0.55585  0.87570  1.0000
  C   C605      1.0  0.07340  0.56287  0.88252  1.0000
  H   H1061     1.0  0.07036  0.60449  0.85566  1.0000
  H   H1062     1.0  0.10162  0.59166  0.84312  1.0000
  H   H1063     1.0  0.09707  0.54235  0.88153  1.0000
  H   H1064     1.0  0.06560  0.55480  0.89348  1.0000
  H   H1065     1.0  0.17913  0.55221  0.71351  1.0000
  H   H1066     1.0  0.11838  0.68198  0.74189  1.0000
  H   H1067     1.0  0.19000  0.60267  0.74062  1.0000
  H   H1068     1.0  0.17865  0.56286  0.76762  1.0000
  H   H1069     1.0  0.18936  0.81989  0.66851  1.0000
  H   H1070     1.0  0.11799  0.67367  0.71896  1.0000
  H   H1071     1.0  0.08384  0.70498  0.69896  1.0000
  N   N35       1.0  0.17047  0.55055  0.74331  1.0000
  S   S145      1.0  0.01568  0.54618  0.89219  1.0000
  H   H1072     1.0  0.19913  0.57134  0.72886  1.0000
  H   H1073     1.0  0.13953  0.57099  0.69770  1.0000
  C   C606      1.0  0.17759  0.56660  0.75227  1.0000
  H   H1074     1.0  0.11207  0.64490  0.84350  1.0000
  C   C607      1.0  0.18546  0.53442  0.74464  1.0000
  H   H1075     1.0  0.02853  0.69431  0.76489  1.0000
  C   C608      1.0  0.07982  0.66885  0.72017  1.0000
  H   H1076     1.0  0.15577  0.54661  0.71879  1.0000
  H   H1077     1.0  0.17007  0.50895  0.74978  1.0000
  C   C609      1.0  0.04961  0.68550  0.73225  1.0000
  H   H1078     1.0  0.08422  0.67929  0.74737  1.0000
  H   H1079     1.0  0.22900  0.59007  0.88664  1.0000
  C   C610      1.0  0.05645  0.64795  0.69631  1.0000
  H   H1080     1.0  0.14799  0.53195  0.74857  1.0000
  H   H1081     1.0  0.07101  0.71375  0.66819  1.0000
  H   H1082     1.0  0.18929  0.74385  0.66774  1.0000
  H   H1083     1.0  0.03683  0.55762  0.98002  1.0000
  H   H1084     1.0  0.09872  0.50010  0.85866  1.0000
  H   H1085     1.0  0.08050  0.65424  0.72709  1.0000
  C   C611      1.0  0.04914  0.65911  0.71322  1.0000
  H   H1086     1.0  0.13095  0.56269  0.74165  1.0000
  H   H1087     1.0  0.19822  0.53799  0.73570  1.0000
  H   H1088     1.0  0.17210  0.58536  0.71650  1.0000
  H   H1089     1.0  0.03575  0.69203  0.72792  1.0000
  C   C612      1.0  0.15225  0.57884  0.69768  1.0000
  C   C613      1.0  0.16009  0.57649  0.71709  1.0000
  C   C614      1.0  0.11099  0.67318  0.73333  1.0000
  N   N36       1.0  0.05983  0.67577  0.71629  1.0000
  Fe  Fe75      1.0  0.11093  0.65005  0.67141  1.0000
  H   H1090     1.0  0.07431  0.51515  0.96970  1.0000
  C   C615      1.0  0.11543  0.50793  0.83355  1.0000
  C   C616      1.0  0.15321  0.54411  0.75459  1.0000
  C   C617      1.0  0.16648  0.55557  0.72292  1.0000
  H   H1091     1.0  0.00374  0.50972  0.90414  1.0000
  H   H1092     1.0  0.13273  0.76721  0.66531  1.0000
  C   C618      1.0  0.11965  0.55014  0.76760  1.0000
  C   C619      1.0  0.09038  0.68043  0.73271  1.0000
  C   C620      1.0  0.06842  0.70772  0.69866  1.0000
  H   H1093     1.0  0.04900  0.62046  0.70895  1.0000
  S   S146      1.0  0.99745  0.56879  0.97318  1.0000
  H   H1094     1.0  0.17314  0.79537  0.67080  1.0000
  H   H1095     1.0  0.18145  0.51858  0.86043  1.0000
  H   H1096     1.0  0.10241  0.52705  0.81216  1.0000
  S   S147      1.0  0.03836  0.50241  0.92226  1.0000
  H   H1097     1.0  0.11817  0.62103  0.83814  1.0000
  C   C621      1.0  0.05303  0.50002  0.87248  1.0000
  H   H1098     1.0  0.19634  0.77379  0.68467  1.0000
  H   H1099     1.0  0.12630  0.49844  0.88870  1.0000
  H   H1100     1.0  0.13948  0.57115  0.76226  1.0000
  H   H1101     1.0  0.14753  0.51919  0.85411  1.0000
  C   C622      1.0  0.05920  0.68896  0.69859  1.0000
  H   H1102     1.0  0.04949  0.72363  0.67935  1.0000
  H   H1103     1.0  0.02113  0.52011  0.96788  1.0000
  H   H1104     1.0  0.12380  0.54479  0.78186  1.0000
  C   C623      1.0  0.23388  0.61278  0.84311  1.0000
  H   H1105     1.0  0.07165  0.64391  0.69672  1.0000
  C   C624      1.0  0.17557  0.50250  0.80098  1.0000
  H   H1106     1.0  0.13623  0.63569  0.84314  1.0000
  H   H1107     1.0  0.05578  0.52468  0.95510  1.0000
  H   H1108     1.0  0.06295  0.71566  0.71067  1.0000
  C   C625      1.0  0.04640  0.50905  0.98116  1.0000
  C   C626      1.0  0.10032  0.52314  0.82748  1.0000
  H   H1109     1.0  0.23213  0.82175  0.66551  1.0000
  C   C627      1.0  0.12155  0.63217  0.84685  1.0000
  H   H1110     1.0  0.21461  0.59598  0.74234  1.0000
  H   H1111     1.0  0.08614  0.51797  0.83047  1.0000
  H   H1112     1.0  0.20828  0.56299  0.75099  1.0000
  C   C628      1.0  0.20755  0.73765  0.69022  1.0000
  H   H1113     1.0  0.19894  0.59433  0.76309  1.0000
  C   C629      1.0  0.04637  0.63001  0.69614  1.0000
  H   H1114     1.0  0.11600  0.51547  0.86199  1.0000
  C   C630      1.0  0.06478  0.72049  0.68078  1.0000
  H   H1115     1.0  0.20561  0.80461  0.68212  1.0000
  H   H1116     1.0  0.10108  0.53592  0.83490  1.0000
  N   N37       1.0  0.13106  0.60029  0.89335  1.0000
  C   C631      1.0  0.14119  0.58094  0.89463  1.0000
  C   C632      1.0  0.11071  0.59920  0.90039  1.0000
  C   C633      1.0  0.13168  0.60763  0.87285  1.0000
  C   C634      1.0  0.14050  0.61384  0.90376  1.0000
  C   C635      1.0  0.14263  0.60850  0.92494  1.0000
  C   C636      1.0  0.16181  0.57950  0.88639  1.0000
  C   C637      1.0  0.11887  0.62572  0.86774  1.0000
  C   C638      1.0  0.10612  0.58401  0.91662  1.0000
  C   C639      1.0  0.08588  0.58710  0.92464  1.0000
  C   C640      1.0  0.15442  0.62220  0.93308  1.0000
  C   C641      1.0  0.17067  0.55942  0.88954  1.0000
  H   H1117     1.0  0.22752  0.61453  0.82977  1.0000
  H   H1118     1.0  0.13344  0.57130  0.88730  1.0000
  H   H1119     1.0  0.14126  0.57462  0.90932  1.0000
  H   H1120     1.0  0.10460  0.61314  0.90450  1.0000
  H   H1121     1.0  0.10223  0.59583  0.88890  1.0000
  H   H1122     1.0  0.12787  0.59663  0.86413  1.0000
  H   H1123     1.0  0.14619  0.61083  0.86773  1.0000
  H   H1124     1.0  0.15461  0.61636  0.89693  1.0000
  H   H1125     1.0  0.13260  0.62785  0.90282  1.0000
  H   H1126     1.0  0.14964  0.59425  0.92766  1.0000
  H   H1127     1.0  0.12866  0.60934  0.93267  1.0000
  H   H1128     1.0  0.16261  0.58332  0.87102  1.0000
  H   H1129     1.0  0.17046  0.58880  0.89307  1.0000
  H   H1130     1.0  0.12208  0.63748  0.87566  1.0000
  H   H1131     1.0  0.10383  0.62328  0.87073  1.0000
  H   H1132     1.0  0.10776  0.56988  0.91121  1.0000
  H   H1133     1.0  0.11540  0.58378  0.92829  1.0000
  H   H1134     1.0  0.07594  0.58728  0.91343  1.0000
  H   H1135     1.0  0.08263  0.57551  0.93548  1.0000
  H   H1136     1.0  0.08369  0.60060  0.93122  1.0000
  H   H1137     1.0  0.15547  0.61832  0.94836  1.0000
  H   H1138     1.0  0.16882  0.62165  0.92620  1.0000
  H   H1139     1.0  0.14789  0.63679  0.93112  1.0000
  H   H1140     1.0  0.18524  0.55868  0.88308  1.0000
  H   H1141     1.0  0.17115  0.55502  0.90477  1.0000
  H   H1142     1.0  0.16262  0.54955  0.88285  1.0000
  H   H1143     1.0  0.16292  0.57380  0.68691  1.0000
  H   H1144     1.0  0.15680  0.53910  0.76919  1.0000
  H   H1145     1.0  0.03105  0.63343  0.69527  1.0000
  C   C642      1.0  0.04578  0.67274  0.75063  1.0000
  H   H1146     1.0  0.21881  0.77173  0.67289  1.0000
  H   H1147     1.0  0.03365  0.66442  0.74917  1.0000
  H   H1148     1.0  0.05804  0.66274  0.75377  1.0000
  S   S148      1.0  0.10311  0.68128  0.66633  1.0000
  H   H1149     1.0  0.20739  0.72225  0.68952  1.0000
  C   C643      1.0  0.20364  0.81262  0.66832  1.0000
  H   H1150     1.0  0.16751  0.57917  0.75150  1.0000
  H   H1151     1.0  0.22166  0.74067  0.69403  1.0000
  H   H1152     1.0  0.11466  0.53839  0.76072  1.0000
  H   H1153     1.0  0.10787  0.56110  0.76905  1.0000
  H   H1154     1.0  0.14822  0.59396  0.69387  1.0000
  H   H1155     1.0  0.04439  0.69227  0.69481  1.0000
  C   C644      1.0  0.13603  0.55856  0.75579  1.0000
  C   C645      1.0  0.15464  0.50642  0.86122  1.0000
  C   C646      1.0  0.04095  0.68431  0.76743  1.0000
  H   H1156     1.0  0.08842  0.66772  0.70668  1.0000
  C   C647      1.0  0.23479  0.59905  0.87508  1.0000
  H   H1157     1.0  0.06646  0.68212  0.68653  1.0000
  C   C648      1.0  0.06068  0.51236  0.96454  1.0000
  C   C649      1.0  0.20309  0.74786  0.67121  1.0000
  C   C650      1.0  0.17557  0.50627  0.85539  1.0000
  C   C651      1.0  0.20031  0.59259  0.74782  1.0000
  H   H1158     1.0  0.11220  0.65849  0.73983  1.0000
  H   H1159     1.0  0.03867  0.50331  0.87884  1.0000
  C   C652      1.0  0.15619  0.50423  0.79937  1.0000
  H   H1160     1.0  0.17360  0.51708  0.72521  1.0000
  H   H1161     1.0  0.17786  0.50701  0.83987  1.0000
  H   H1162     1.0  0.21512  0.83702  0.67765  1.0000
  H   H1163     1.0  0.06284  0.49981  0.95642  1.0000
  C   C653      1.0  0.02939  0.56055  0.99323  1.0000
  H   H1164     1.0  0.04568  0.52159  0.98925  1.0000
  C   C654      1.0  0.21741  0.82798  0.66581  1.0000
  C   C655      1.0  0.18007  0.51532  0.73894  1.0000
  H   H1165     1.0  0.05393  0.50636  0.85774  1.0000
  C   C656      1.0  0.02678  0.50626  0.97448  1.0000
  H   H1166     1.0  0.13911  0.78793  0.67507  1.0000
  H   H1167     1.0  0.16508  0.76323  0.67554  1.0000
  H   H1168     1.0  0.19689  0.74201  0.70132  1.0000
  C   C657      1.0  0.11366  0.50268  0.85502  1.0000
  N   N38       1.0  0.01273  0.49839  0.98929  1.0000
  C   C658      1.0  0.01026  0.56627  0.99366  1.0000
  H   H1169     1.0  0.00126  0.49771  0.95019  1.0000
  H   H1170     1.0  0.20765  0.50639  0.72640  1.0000
  C   C659      1.0  0.19722  0.50126  0.73750  1.0000
  H   H1171     1.0  0.20385  0.49893  0.75117  1.0000
  Fe  Fe76      1.0  0.41832  0.46093  0.08886  1.0000
  S   S149      1.0  0.40933  0.47351  0.06086  1.0000
  S   S150      1.0  0.40333  0.43686  0.10479  1.0000
  H   H1172     1.0  0.42468  0.49487  0.02637  1.0000
  H   H1173     1.0  0.32165  0.36302  0.02753  1.0000
  H   H1174     1.0  0.32849  0.01464  0.27226  1.0000
  Fe  Fe77      1.0  0.44015  0.47409  0.05309  1.0000
  C   C660      1.0  0.49263  0.17906  0.15969  1.0000
  H   H1175     1.0  0.40408  0.12630  0.30681  1.0000
  S   S151      1.0  0.44926  0.45931  0.08017  1.0000
  Fe  Fe78      1.0  0.41342  0.07421  0.01915  1.0000
  H   H1176     1.0  0.46297  0.06260  0.32902  1.0000
  S   S152      1.0  0.40589  0.07843  0.05006  1.0000
  C   C661      1.0  0.30410  0.04005  0.31691  1.0000
  C   C662      1.0  0.31346  0.39205  0.03024  1.0000
  H   H1177     1.0  0.26147  0.31477  0.14290  1.0000
  H   H1178     1.0  0.46818  0.11652  0.02363  1.0000
  C   C663      1.0  0.28858  0.31075  0.18585  1.0000
  S   S153      1.0  0.43204  0.04918  0.00994  1.0000
  H   H1179     1.0  0.36535  0.32578  0.99722  1.0000
  Fe  Fe79      1.0  0.34074  0.35582  0.07930  1.0000
  S   S154      1.0  0.31086  0.35519  0.07155  1.0000
  S   S155      1.0  0.35746  0.38003  0.06584  1.0000
  Fe  Fe80      1.0  0.34138  0.31524  0.09941  1.0000
  S   S156      1.0  0.31161  0.31214  0.09300  1.0000
  S   S157      1.0  0.36070  0.29456  0.11727  1.0000
  Fe  Fe81      1.0  0.31977  0.32576  0.06403  1.0000
  S   S158      1.0  0.31727  0.31144  0.03727  1.0000
  Fe  Fe82      1.0  0.30494  0.34193  0.10113  1.0000
  S   S159      1.0  0.28349  0.35174  0.12463  1.0000
  S   S160      1.0  0.34984  0.32712  0.07021  1.0000
  S   S161      1.0  0.33455  0.34431  0.10910  1.0000
  Fe  Fe83      1.0  0.42704  0.15166  0.12386  1.0000
  S   S162      1.0  0.43099  0.18246  0.12350  1.0000
  S   S163      1.0  0.43648  0.14060  0.09546  1.0000
  Fe  Fe84      1.0  0.41286  0.14959  0.16593  1.0000
  S   S164      1.0  0.41533  0.18055  0.16765  1.0000
  S   S165      1.0  0.40368  0.12726  0.18940  1.0000
  Fe  Fe85      1.0  0.40290  0.18528  0.13925  1.0000
  S   S166      1.0  0.37896  0.20499  0.12686  1.0000
  Fe  Fe86      1.0  0.44332  0.17533  0.15139  1.0000
  S   S167      1.0  0.46964  0.18949  0.15637  1.0000
  S   S168      1.0  0.39842  0.15450  0.13865  1.0000
  S   S169      1.0  0.44145  0.14435  0.15077  1.0000
  H   H1180     1.0  0.26995  0.41843  0.10684  1.0000
  S   S170      1.0  0.38320  0.06994  0.30667  1.0000
  H   H1181     1.0  0.44861  0.17680  0.19607  1.0000
  S   S171      1.0  0.34021  0.08037  0.29424  1.0000
  Fe  Fe87      1.0  0.35753  0.05442  0.30514  1.0000
  S   S172      1.0  0.36068  0.02746  0.29013  1.0000
  Fe  Fe88      1.0  0.36545  0.09616  0.29778  1.0000
  S   S173      1.0  0.37755  0.11985  0.27754  1.0000
  H   H1182     1.0  0.24987  0.04859  0.26576  1.0000
  C   C664      1.0  0.39623  0.12575  0.21388  1.0000
  C   C665      1.0  0.39430  0.14135  0.22446  1.0000
  C   C666      1.0  0.38859  0.13926  0.24383  1.0000
  C   C667      1.0  0.38448  0.12162  0.25293  1.0000
  C   C668      1.0  0.38639  0.10605  0.24234  1.0000
  C   C669      1.0  0.39227  0.10811  0.22303  1.0000
  H   H1183     1.0  0.39705  0.15505  0.21768  1.0000
  H   H1184     1.0  0.38699  0.15147  0.25175  1.0000
  H   H1185     1.0  0.38335  0.09238  0.24901  1.0000
  H   H1186     1.0  0.39365  0.09592  0.21506  1.0000
  C   C670      1.0  0.31312  0.01306  0.27280  1.0000
  H   H1187     1.0  0.33353  0.06993  0.25323  1.0000
  H   H1188     1.0  0.26685  0.04011  0.30406  1.0000
  C   C671      1.0  0.38731  0.37456  0.01519  1.0000
  H   H1189     1.0  0.48057  0.08979  0.31920  1.0000
  C   C672      1.0  0.36633  0.26969  0.11853  1.0000
  C   C673      1.0  0.35617  0.25756  0.10972  1.0000
  C   C674      1.0  0.36043  0.23788  0.11222  1.0000
  C   C675      1.0  0.37502  0.23002  0.12336  1.0000
  C   C676      1.0  0.38539  0.24217  0.13187  1.0000
  C   C677      1.0  0.38098  0.26182  0.12956  1.0000
  H   H1190     1.0  0.34483  0.26330  0.10125  1.0000
  H   H1191     1.0  0.35224  0.22869  0.10560  1.0000
  H   H1192     1.0  0.39660  0.23644  0.14051  1.0000
  H   H1193     1.0  0.38894  0.27100  0.13648  1.0000
  H   H1194     1.0  0.45226  0.09285  0.08544  1.0000
  C   C678      1.0  0.31310  0.32131  0.01417  1.0000
  C   C679      1.0  0.29999  0.33658  0.01076  1.0000
  H   H1195     1.0  0.47158  0.04463  0.01108  1.0000
  H   H1196     1.0  0.29276  0.34325  0.02245  1.0000
  H   H1197     1.0  0.27612  0.30752  0.17877  1.0000
  H   H1198     1.0  0.27062  0.39381  0.11469  1.0000
  H   H1199     1.0  0.35838  0.30882  0.02864  1.0000
  C   C680      1.0  0.41361  0.09658  0.06215  1.0000
  C   C681      1.0  0.42619  0.10914  0.05357  1.0000
  C   C682      1.0  0.43279  0.12272  0.06392  1.0000
  C   C683      1.0  0.42668  0.12409  0.08287  1.0000
  C   C684      1.0  0.41374  0.11188  0.09134  1.0000
  C   C685      1.0  0.40732  0.09814  0.08104  1.0000
  H   H1200     1.0  0.43103  0.10820  0.03903  1.0000
  H   H1201     1.0  0.44278  0.13213  0.05723  1.0000
  H   H1202     1.0  0.40915  0.11261  0.10597  1.0000
  H   H1203     1.0  0.39761  0.08847  0.08781  1.0000
  H   H1204     1.0  0.25852  0.29432  0.13091  1.0000
  H   H1205     1.0  0.45739  0.13566  0.22926  1.0000
  H   H1206     1.0  0.38515  0.33514  0.00615  1.0000
  H   H1207     1.0  0.31135  0.08284  0.25881  1.0000
  S   S174      1.0  0.45475  0.46583  0.02598  1.0000
  H   H1208     1.0  0.46582  0.07837  0.29195  1.0000
  C   C686      1.0  0.39070  0.42108  0.09377  1.0000
  C   C687      1.0  0.39050  0.42164  0.07422  1.0000
  C   C688      1.0  0.38031  0.40893  0.06595  1.0000
  C   C689      1.0  0.37023  0.39548  0.07710  1.0000
  C   C690      1.0  0.37049  0.39483  0.09665  1.0000
  C   C691      1.0  0.38069  0.40757  0.10491  1.0000
  H   H1209     1.0  0.39832  0.43180  0.06552  1.0000
  H   H1210     1.0  0.38029  0.40949  0.05084  1.0000
  H   H1211     1.0  0.36285  0.38455  0.10540  1.0000
  H   H1212     1.0  0.38082  0.40696  0.12004  1.0000
  H   H1213     1.0  0.43288  0.20395  0.22533  1.0000
  H   H1214     1.0  0.35442  0.45508  0.01012  1.0000
  H   H1215     1.0  0.41843  0.21013  0.19487  1.0000
  C   C692      1.0  0.25869  0.35570  0.12945  1.0000
  H   H1216     1.0  0.38156  0.30245  0.01880  1.0000
  C   C693      1.0  0.44436  0.47995  0.00783  1.0000
  C   C694      1.0  0.45658  0.09303  0.11465  1.0000
  C   C695      1.0  0.28542  0.29391  0.14309  1.0000
  H   H1217     1.0  0.48578  0.10157  0.09074  1.0000
  C   C696      1.0  0.34442  0.37981  0.01478  1.0000
  N   N39       1.0  0.44845  0.16532  0.22536  1.0000
  H   H1218     1.0  0.49693  0.45449  0.02435  1.0000
  C   C697      1.0  0.44752  0.14522  0.22083  1.0000
  C   C698      1.0  0.43587  0.16822  0.24291  1.0000
  C   C699      1.0  0.46814  0.16895  0.22935  1.0000
  H   H1219     1.0  0.31714  0.07607  0.23537  1.0000
  C   C700      1.0  0.43892  0.15347  0.25995  1.0000
  H   H1220     1.0  0.26164  0.36180  0.15793  1.0000
  C   C701      1.0  0.42581  0.15829  0.27688  1.0000
  H   H1221     1.0  0.43753  0.11929  0.31144  1.0000
  H   H1222     1.0  0.29851  0.38923  0.03338  1.0000
  H   H1223     1.0  0.43332  0.14036  0.22497  1.0000
  H   H1224     1.0  0.42085  0.16835  0.23974  1.0000
  H   H1225     1.0  0.43755  0.18213  0.24800  1.0000
  H   H1226     1.0  0.37853  0.31805  0.03727  1.0000
  H   H1227     1.0  0.31607  0.37657  0.00592  1.0000
  H   H1228     1.0  0.45597  0.20376  0.21351  1.0000
  S   S175      1.0  0.42741  0.09567  0.99930  1.0000
  H   H1229     1.0  0.45348  0.15285  0.26430  1.0000
  H   H1230     1.0  0.43593  0.13926  0.25662  1.0000
  C   C702      1.0  0.49608  0.15988  0.16496  1.0000
  H   H1231     1.0  0.46327  0.14750  0.19294  1.0000
  H   H1232     1.0  0.42852  0.14775  0.28891  1.0000
  H   H1233     1.0  0.42815  0.17238  0.28112  1.0000
  H   H1234     1.0  0.41093  0.15803  0.27362  1.0000
  C   C703      1.0  0.26863  0.04368  0.28867  1.0000
  N   N40       1.0  0.35598  0.36502  0.00439  1.0000
  H   H1235     1.0  0.49048  0.07845  0.03218  1.0000
  H   H1236     1.0  0.46492  0.08517  0.12570  1.0000
  C   C704      1.0  0.42800  0.04847  0.32491  1.0000
  H   H1237     1.0  0.29521  0.31272  0.21479  1.0000
  C   C705      1.0  0.37645  0.45466  0.02928  1.0000
  H   H1238     1.0  0.36689  0.43301  0.01408  1.0000
  H   H1239     1.0  0.33212  0.30061  0.00134  1.0000
  C   C706      1.0  0.36134  0.45540  0.04541  1.0000
  H   H1240     1.0  0.36173  0.34986  0.03129  1.0000
  H   H1241     1.0  0.27372  0.05790  0.28581  1.0000
  H   H1242     1.0  0.49543  0.48290  0.00844  1.0000
  H   H1243     1.0  0.30405  0.05839  0.28452  1.0000
  H   H1244     1.0  0.35019  0.38089  0.02854  1.0000
  H   H1245     1.0  0.49032  0.46220  0.09859  1.0000
  C   C707      1.0  0.48683  0.09326  0.03498  1.0000
  H   H1246     1.0  0.40470  0.39446  0.99860  1.0000
  H   H1247     1.0  0.29541  0.01309  0.31038  1.0000
  N   N41       1.0  0.30249  0.02827  0.28353  1.0000
  H   H1248     1.0  0.47942  0.15421  0.12826  1.0000
  H   H1249     1.0  0.38803  0.44448  0.03408  1.0000
  H   H1250     1.0  0.38207  0.46869  0.02662  1.0000
  C   C708      1.0  0.26691  0.40820  0.11906  1.0000
  C   C709      1.0  0.49716  0.49092  0.09757  1.0000
  H   H1251     1.0  0.46655  0.11374  0.20498  1.0000
  C   C710      1.0  0.49215  0.43650  0.05835  1.0000
  C   C711      1.0  0.40640  0.38113  0.00774  1.0000
  H   H1252     1.0  0.35550  0.44150  0.04864  1.0000
  H   H1253     1.0  0.36756  0.45910  0.05821  1.0000
  H   H1254     1.0  0.34988  0.46623  0.04183  1.0000
  H   H1255     1.0  0.47814  0.13710  0.11137  1.0000
  H   H1256     1.0  0.32571  0.04575  0.27977  1.0000
  Fe  Fe89      1.0  0.44914  0.48847  0.08918  1.0000
  H   H1257     1.0  0.27090  0.31828  0.21028  1.0000
  H   H1258     1.0  0.25098  0.43491  0.13951  1.0000
  H   H1259     1.0  0.43853  0.44131  0.99741  1.0000
  H   H1260     1.0  0.29454  0.05531  0.25193  1.0000
  C   C712      1.0  0.48243  0.08685  0.08941  1.0000
  H   H1261     1.0  0.48471  0.15079  0.16601  1.0000
  C   C713      1.0  0.46192  0.03666  0.06508  1.0000
  H   H1262     1.0  0.35565  0.24478  0.17005  1.0000
  C   C714      1.0  0.30528  0.02355  0.30421  1.0000
  H   H1263     1.0  0.31412  0.40596  0.02211  1.0000
  H   H1264     1.0  0.43612  0.08045  0.27333  1.0000
  H   H1265     1.0  0.44139  0.11272  0.20486  1.0000
  H   H1266     1.0  0.49550  0.46593  0.05827  1.0000
  H   H1267     1.0  0.44913  0.05253  0.30212  1.0000
  C   C715      1.0  0.35854  0.00421  0.30051  1.0000
  C   C716      1.0  0.25183  0.36066  0.14741  1.0000
  H   H1268     1.0  0.33064  0.24308  0.17100  1.0000
  H   H1269     1.0  0.49612  0.05446  0.05844  1.0000
  H   H1270     1.0  0.45839  0.07015  0.09735  1.0000
  H   H1271     1.0  0.47346  0.02727  0.05911  1.0000
  Fe  Fe90      1.0  0.33156  0.08441  0.32475  1.0000
  H   H1272     1.0  0.46004  0.03296  0.08046  1.0000
  H   H1273     1.0  0.43089  0.10404  0.27994  1.0000
  C   C717      1.0  0.40034  0.44316  0.99692  1.0000
  C   C718      1.0  0.32209  0.31255  0.99882  1.0000
  C   C719      1.0  0.46604  0.05726  0.06104  1.0000
  H   H1274     1.0  0.34932  0.01201  0.32812  1.0000
  H   H1275     1.0  0.46156  0.11294  0.26424  1.0000
  H   H1276     1.0  0.29168  0.28331  0.13361  1.0000
  H   H1277     1.0  0.46608  0.06081  0.04563  1.0000
  H   H1278     1.0  0.29307  0.32076  0.15065  1.0000
  H   H1279     1.0  0.49006  0.07785  0.10028  1.0000
  C   C720      1.0  0.43340  0.21249  0.19601  1.0000
  H   H1280     1.0  0.40341  0.00530  0.01321  1.0000
  H   H1281     1.0  0.41274  0.03226  0.30758  1.0000
  C   C721      1.0  0.26870  0.30442  0.13368  1.0000
  H   H1282     1.0  0.44147  0.09173  0.11872  1.0000
  H   H1283     1.0  0.43434  0.22752  0.19814  1.0000
  N   N42       1.0  0.37588  0.16666  0.07616  1.0000
  C   C722      1.0  0.38547  0.18455  0.07667  1.0000
  C   C723      1.0  0.35598  0.17189  0.07103  1.0000
  C   C724      1.0  0.37650  0.15581  0.09521  1.0000
  C   C725      1.0  0.38556  0.15444  0.06178  1.0000
  C   C726      1.0  0.38804  0.16381  0.04147  1.0000
  C   C727      1.0  0.40686  0.18216  0.07890  1.0000
  C   C728      1.0  0.36518  0.13808  0.09804  1.0000
  C   C729      1.0  0.34312  0.18223  0.08581  1.0000
  C   C730      1.0  0.32338  0.18678  0.07912  1.0000
  C   C731      1.0  0.39926  0.15044  0.02866  1.0000
  C   C732      1.0  0.41487  0.20124  0.07905  1.0000
  C   C733      1.0  0.36545  0.12916  0.11823  1.0000
  H   H1284     1.0  0.37935  0.19239  0.08864  1.0000
  H   H1285     1.0  0.38289  0.19428  0.06394  1.0000
  H   H1286     1.0  0.35585  0.18132  0.05779  1.0000
  H   H1287     1.0  0.34916  0.15928  0.06782  1.0000
  H   H1288     1.0  0.37180  0.16512  0.10653  1.0000
  H   H1289     1.0  0.39121  0.15080  0.09805  1.0000
  H   H1290     1.0  0.39955  0.14867  0.06626  1.0000
  H   H1291     1.0  0.37769  0.14187  0.06084  1.0000
  H   H1292     1.0  0.39561  0.17673  0.04091  1.0000
  H   H1293     1.0  0.37420  0.16752  0.03557  1.0000
  H   H1294     1.0  0.40985  0.17396  0.09235  1.0000
  H   H1295     1.0  0.41449  0.17490  0.06730  1.0000
  H   H1296     1.0  0.37129  0.12728  0.08875  1.0000
  H   H1297     1.0  0.35029  0.14145  0.09504  1.0000
  H   H1298     1.0  0.34182  0.17357  0.09941  1.0000
  H   H1299     1.0  0.34864  0.19571  0.08835  1.0000
  H   H1300     1.0  0.31690  0.17368  0.07688  1.0000
  H   H1301     1.0  0.31449  0.19418  0.08991  1.0000
  H   H1302     1.0  0.32375  0.19610  0.06583  1.0000
  H   H1303     1.0  0.39238  0.13710  0.02872  1.0000
  H   H1304     1.0  0.40025  0.15708  0.01403  1.0000
  H   H1305     1.0  0.41370  0.14719  0.03332  1.0000
  H   H1306     1.0  0.43019  0.19917  0.08073  1.0000
  H   H1307     1.0  0.41252  0.20998  0.06569  1.0000
  H   H1308     1.0  0.40823  0.20882  0.09098  1.0000
  H   H1309     1.0  0.35931  0.13930  0.12823  1.0000
  H   H1310     1.0  0.35707  0.11669  0.11988  1.0000
  H   H1311     1.0  0.37999  0.12444  0.12177  1.0000
  C   C734      1.0  0.48526  0.06101  0.06822  1.0000
  H   H1312     1.0  0.41434  0.37025  0.99963  1.0000
  H   H1313     1.0  0.46633  0.08922  0.25745  1.0000
  H   H1314     1.0  0.43854  0.14660  0.19226  1.0000
  N   N43       1.0  0.31443  0.29970  0.16063  1.0000
  C   C735      1.0  0.30040  0.30739  0.14663  1.0000
  C   C736      1.0  0.33024  0.31252  0.15933  1.0000
  C   C737      1.0  0.32264  0.28081  0.15486  1.0000
  C   C738      1.0  0.30580  0.29716  0.18053  1.0000
  C   C739      1.0  0.33942  0.27163  0.16586  1.0000
  C   C740      1.0  0.32502  0.33301  0.16404  1.0000
  C   C741      1.0  0.34221  0.34448  0.16149  1.0000
  C   C742      1.0  0.24916  0.04448  0.28112  1.0000
  H   H1315     1.0  0.30776  0.31129  0.13280  1.0000
  H   H1316     1.0  0.34124  0.30693  0.16896  1.0000
  H   H1317     1.0  0.33726  0.31308  0.14492  1.0000
  H   H1318     1.0  0.32742  0.28189  0.13966  1.0000
  H   H1319     1.0  0.31171  0.27053  0.15639  1.0000
  H   H1320     1.0  0.30098  0.28276  0.18370  1.0000
  H   H1321     1.0  0.31662  0.29813  0.19071  1.0000
  H   H1322     1.0  0.29095  0.32565  0.18170  1.0000
  H   H1323     1.0  0.47359  0.15838  0.24036  1.0000
  H   H1324     1.0  0.33728  0.27354  0.18106  1.0000
  H   H1325     1.0  0.35247  0.27812  0.16029  1.0000
  H   H1326     1.0  0.31435  0.34014  0.15482  1.0000
  H   H1327     1.0  0.31980  0.33329  0.17894  1.0000
  H   H1328     1.0  0.33803  0.35925  0.16439  1.0000
  H   H1329     1.0  0.35294  0.33862  0.17131  1.0000
  H   H1330     1.0  0.34855  0.34450  0.14689  1.0000
  H   H1331     1.0  0.48039  0.10961  0.05876  1.0000
  H   H1332     1.0  0.48857  0.43498  0.07373  1.0000
  H   H1333     1.0  0.46821  0.18268  0.23543  1.0000
  C   C743      1.0  0.31065  0.04663  0.27674  1.0000
  H   H1334     1.0  0.34544  0.39400  0.00726  1.0000
  C   C744      1.0  0.45340  0.08811  0.29551  1.0000
  C   C745      1.0  0.46151  0.08514  0.09566  1.0000
  C   C746      1.0  0.35750  0.34709  0.01721  1.0000
  H   H1335     1.0  0.48702  0.05256  0.08191  1.0000
  H   H1336     1.0  0.31685  0.04263  0.24666  1.0000
  H   H1337     1.0  0.27336  0.31190  0.12008  1.0000
  C   C747      1.0  0.44090  0.17891  0.20979  1.0000
  C   C748      1.0  0.28351  0.30878  0.20698  1.0000
  H   H1338     1.0  0.45410  0.06571  0.06749  1.0000
  H   H1339     1.0  0.41462  0.38356  0.01972  1.0000
  H   H1340     1.0  0.46387  0.09348  0.05644  1.0000
  C   C749      1.0  0.48000  0.15205  0.11308  1.0000
  C   C750      1.0  0.45095  0.14099  0.20000  1.0000
  H   H1341     1.0  0.32000  0.39239  0.04379  1.0000
  H   H1342     1.0  0.38989  0.36123  0.02410  1.0000
  C   C751      1.0  0.37237  0.31405  0.02458  1.0000
  H   H1343     1.0  0.27581  0.41036  0.13060  1.0000
  C   C752      1.0  0.32338  0.37657  0.01904  1.0000
  S   S176      1.0  0.41887  0.48901  0.10083  1.0000
  H   H1344     1.0  0.39968  0.42830  0.00290  1.0000
  C   C753      1.0  0.31840  0.07161  0.25051  1.0000
  H   H1345     1.0  0.31659  0.04821  0.31365  1.0000
  H   H1346     1.0  0.47904  0.10134  0.00652  1.0000
  H   H1347     1.0  0.38050  0.38526  0.02423  1.0000
  C   C754      1.0  0.45371  0.11984  0.19823  1.0000
  H   H1348     1.0  0.45919  0.10814  0.11385  1.0000
  H   H1349     1.0  0.25069  0.35030  0.10225  1.0000
  C   C755      1.0  0.44232  0.09291  0.27761  1.0000
  C   C756      1.0  0.30937  0.05307  0.25558  1.0000
  C   C757      1.0  0.36879  0.44833  0.01134  1.0000
  C   C758      1.0  0.34244  0.25055  0.16376  1.0000
  H   H1350     1.0  0.28018  0.28630  0.15637  1.0000
  H   H1351     1.0  0.36289  0.48799  0.00713  1.0000
  N   N44       1.0  0.48875  0.08128  0.07001  1.0000
  H   H1352     1.0  0.46023  0.09333  0.02240  1.0000
  H   H1353     1.0  0.44673  0.10383  0.24851  1.0000
  H   H1354     1.0  0.34356  0.24782  0.14873  1.0000
  H   H1355     1.0  0.44877  0.03430  0.05866  1.0000
  H   H1356     1.0  0.45929  0.10135  0.29818  1.0000
  N   N45       1.0  0.44252  0.07983  0.31272  1.0000
  C   C759      1.0  0.42492  0.09196  0.31743  1.0000
  H   H1357     1.0  0.45522  0.11714  0.18318  1.0000
  H   H1358     1.0  0.42629  0.06278  0.29743  1.0000
  H   H1359     1.0  0.34355  0.34140  0.02010  1.0000
  H   H1360     1.0  0.41513  0.09254  0.30601  1.0000
  C   C760      1.0  0.45509  0.10018  0.26098  1.0000
  C   C761      1.0  0.43681  0.06097  0.30823  1.0000
  H   H1361     1.0  0.46820  0.16086  0.10677  1.0000
  C   C762      1.0  0.28207  0.02853  0.27966  1.0000
  H   H1362     1.0  0.42614  0.17617  0.20775  1.0000
  H   H1363     1.0  0.28034  0.29412  0.21175  1.0000
  H   H1364     1.0  0.28042  0.02990  0.26426  1.0000
  C   C763      1.0  0.47266  0.10172  0.02108  1.0000
  H   H1365     1.0  0.30933  0.01444  0.25793  1.0000
  C   C764      1.0  0.42938  0.49296  0.01198  1.0000
  C   C765      1.0  0.48579  0.04859  0.00886  1.0000
  H   H1366     1.0  0.26276  0.17665  0.32575  1.0000
  H   H1367     1.0  0.44147  0.20952  0.18266  1.0000
  C   C766      1.0  0.42752  0.11230  0.32171  1.0000
  C   C767      1.0  0.47916  0.09483  0.05565  1.0000
  H   H1368     1.0  0.47887  0.43850  0.05109  1.0000
  C   C768      1.0  0.44137  0.20011  0.21253  1.0000
  C   C769      1.0  0.48302  0.16849  0.21260  1.0000
  H   H1369     1.0  0.31958  0.01668  0.30605  1.0000
  H   H1370     1.0  0.48304  0.48865  0.04051  1.0000
  S   S177      1.0  0.39105  0.07015  0.99951  1.0000
  H   H1371     1.0  0.27644  0.01488  0.28476  1.0000
  H   H1372     1.0  0.29160  0.04993  0.31492  1.0000
  C   C770      1.0  0.37500  0.37204  0.99879  1.0000
  C   C771      1.0  0.35220  0.00054  0.31929  1.0000
  C   C772      1.0  0.42301  0.02981  0.31862  1.0000
  H   H1373     1.0  0.49519  0.03207  0.03360  1.0000
  H   H1374     1.0  0.40674  0.45053  0.00761  1.0000
  C   C773      1.0  0.40894  0.12439  0.32128  1.0000
  C   C774      1.0  0.37079  0.33081  0.00981  1.0000
  S   S178      1.0  0.35576  0.10204  0.32783  1.0000
  H   H1375     1.0  0.43576  0.02168  0.31312  1.0000
  H   H1376     1.0  0.48628  0.15385  0.20891  1.0000
  H   H1377     1.0  0.47835  0.17744  0.20011  1.0000
  H   H1378     1.0  0.41079  0.13844  0.32590  1.0000
  C   C775      1.0  0.45473  0.07648  0.32931  1.0000
  H   H1379     1.0  0.47536  0.49521  0.15856  1.0000
  S   S179      1.0  0.47653  0.06756  0.43886  1.0000
  Fe  Fe91      1.0  0.47849  0.08312  0.41012  1.0000
  S   S180      1.0  0.45486  0.10187  0.39692  1.0000
  C   C776      1.0  0.46061  0.09460  0.48845  1.0000
  N   N46       1.0  0.46815  0.10424  0.54042  1.0000
  S   S181      1.0  0.47317  0.10325  0.61516  1.0000
  S   S182      1.0  0.39008  0.06448  0.36062  1.0000
  Fe  Fe92      1.0  0.49370  0.07823  0.61026  1.0000
  H   H1380     1.0  0.29036  0.05941  0.37328  1.0000
  H   H1381     1.0  0.36050  0.08917  0.38606  1.0000
  H   H1382     1.0  0.48598  0.01525  0.35265  1.0000
  C   C777      1.0  0.34244  0.13229  0.63590  1.0000
  H   H1383     1.0  0.25598  0.04514  0.39681  1.0000
  H   H1384     1.0  0.28231  0.03869  0.46083  1.0000
  C   C778      1.0  0.28322  0.10049  0.34809  1.0000
  C   C779      1.0  0.28792  0.11595  0.35687  1.0000
  C   C780      1.0  0.27438  0.12564  0.36855  1.0000
  C   C781      1.0  0.25601  0.11993  0.37191  1.0000
  H   H1385     1.0  0.26090  0.12756  0.43767  1.0000
  C   C782      1.0  0.26465  0.09521  0.35090  1.0000
  H   H1386     1.0  0.30203  0.12037  0.35477  1.0000
  H   H1387     1.0  0.27830  0.13747  0.37533  1.0000
  H   H1388     1.0  0.27826  0.14202  0.64481  1.0000
  C   C783      1.0  0.44950  0.10127  0.62348  1.0000
  C   C784      1.0  0.43689  0.11693  0.61995  1.0000
  C   C785      1.0  0.41805  0.11662  0.62646  1.0000
  C   C786      1.0  0.41149  0.10082  0.63703  1.0000
  C   C787      1.0  0.26018  0.12089  0.63933  1.0000
  H   H1389     1.0  0.43262  0.11217  0.33598  1.0000
  H   H1390     1.0  0.44172  0.12940  0.61202  1.0000
  H   H1391     1.0  0.40850  0.12882  0.62335  1.0000
  C   C788      1.0  0.33020  0.07828  0.57982  1.0000
  C   C789      1.0  0.43716  0.09138  0.38642  1.0000
  C   C790      1.0  0.43646  0.07186  0.38758  1.0000
  C   C791      1.0  0.42208  0.06390  0.37940  1.0000
  C   C792      1.0  0.40835  0.07531  0.36980  1.0000
  C   C793      1.0  0.40909  0.09482  0.36848  1.0000
  C   C794      1.0  0.42345  0.10281  0.37674  1.0000
  H   H1392     1.0  0.44678  0.06289  0.39514  1.0000
  H   H1393     1.0  0.42150  0.04881  0.38072  1.0000
  H   H1394     1.0  0.39828  0.10376  0.36166  1.0000
  H   H1395     1.0  0.42380  0.11792  0.37590  1.0000
  H   H1396     1.0  0.32973  0.10258  0.39746  1.0000
  H   H1397     1.0  0.26491  0.17595  0.35082  1.0000
  S   S183      1.0  0.38729  0.10180  0.64412  1.0000
  C   C795      1.0  0.28270  0.05634  0.38711  1.0000
  S   S184      1.0  0.29993  0.08678  0.33415  1.0000
  H   H1398     1.0  0.34204  0.06690  0.55414  1.0000
  H   H1399     1.0  0.34342  0.10235  0.63699  1.0000
  C   C796      1.0  0.30973  0.06320  0.62198  1.0000
  H   H1400     1.0  0.31812  0.08470  0.63734  1.0000
  C   C797      1.0  0.45425  0.08801  0.57165  1.0000
  H   H1401     1.0  0.30437  0.04483  0.34627  1.0000
  C   C798      1.0  0.27574  0.12729  0.64707  1.0000
  H   H1402     1.0  0.28091  0.04597  0.42684  1.0000
  H   H1403     1.0  0.29915  0.05580  0.46186  1.0000
  H   H1404     1.0  0.35828  0.07882  0.56595  1.0000
  H   H1405     1.0  0.35080  0.06780  0.38157  1.0000
  H   H1406     1.0  0.45735  0.12590  0.55837  1.0000
  H   H1407     1.0  0.29243  0.12942  0.59744  1.0000
  C   C799      1.0  0.42639  0.14279  0.54441  1.0000
  H   H1408     1.0  0.41179  0.14410  0.53999  1.0000
  H   H1409     1.0  0.48479  0.10777  0.56384  1.0000
  S   S185      1.0  0.47636  0.01546  0.42841  1.0000
  H   H1410     1.0  0.43356  0.15520  0.53799  1.0000
  H   H1411     1.0  0.44509  0.08605  0.54407  1.0000
  H   H1412     1.0  0.27788  0.09624  0.43937  1.0000
  H   H1413     1.0  0.44581  0.07566  0.34275  1.0000
  C   C800      1.0  0.48683  0.10448  0.54890  1.0000
  C   C801      1.0  0.45715  0.12270  0.54347  1.0000
  H   H1414     1.0  0.30993  0.05869  0.60764  1.0000
  H   H1415     1.0  0.30218  0.11778  0.57722  1.0000
  C   C802      1.0  0.31322  0.07955  0.39149  1.0000
  C   C803      1.0  0.44250  0.07187  0.57946  1.0000
  H   H1416     1.0  0.32192  0.12681  0.60640  1.0000
  C   C804      1.0  0.47976  0.08604  0.34910  1.0000
  H   H1417     1.0  0.28589  0.12933  0.43461  1.0000
  H   H1418     1.0  0.33666  0.07505  0.62268  1.0000
  H   H1419     1.0  0.25531  0.06053  0.37533  1.0000
  C   C805      1.0  0.33158  0.08711  0.39687  1.0000
  C   C806      1.0  0.26935  0.08939  0.65335  1.0000
  C   C807      1.0  0.28672  0.05639  0.43489  1.0000
  S   S186      1.0  0.35194  0.06391  0.66111  1.0000
  H   H1420     1.0  0.42852  0.07353  0.57354  1.0000
  C   C808      1.0  0.48158  0.00002  0.60723  1.0000
  C   C809      1.0  0.33222  0.09494  0.59156  1.0000
  H   H1421     1.0  0.44276  0.09717  0.51350  1.0000
  N   N47       1.0  0.31862  0.09683  0.60844  1.0000
  H   H1422     1.0  0.30893  0.08792  0.37839  1.0000
  H   H1423     1.0  0.49441  0.09026  0.54920  1.0000
  H   H1424     1.0  0.28902  0.09956  0.61627  1.0000
  C   C810      1.0  0.32238  0.11449  0.61706  1.0000
  C   C811      1.0  0.47190  0.10190  0.51964  1.0000
  H   H1425     1.0  0.35331  0.11351  0.61546  1.0000
  H   H1426     1.0  0.31638  0.02291  0.34039  1.0000
  H   H1427     1.0  0.34685  0.09316  0.59599  1.0000
  H   H1428     1.0  0.26317  0.10014  0.41961  1.0000
  C   C812      1.0  0.49674  0.05005  0.51179  1.0000
  H   H1429     1.0  0.31556  0.04977  0.64973  1.0000
  S   S187      1.0  0.48955  0.05802  0.39555  1.0000
  H   H1430     1.0  0.29266  0.10948  0.39930  1.0000
  H   H1431     1.0  0.42859  0.11288  0.54465  1.0000
  H   H1432     1.0  0.47199  0.00734  0.54434  1.0000
  H   H1433     1.0  0.34081  0.14488  0.62572  1.0000
  C   C813      1.0  0.45737  0.09196  0.50983  1.0000
  H   H1434     1.0  0.34402  0.08965  0.36818  1.0000
  H   H1435     1.0  0.30537  0.03509  0.44936  1.0000
  H   H1436     1.0  0.27158  0.13321  0.41458  1.0000
  S   S188      1.0  0.34753  0.05740  0.33507  1.0000
  C   C814      1.0  0.34350  0.07918  0.56216  1.0000
  H   H1437     1.0  0.42686  0.01236  0.64451  1.0000
  H   H1438     1.0  0.27524  0.08600  0.38736  1.0000
  S   S189      1.0  0.48348  0.05248  0.60059  1.0000
  H   H1439     1.0  0.26072  0.08339  0.34412  1.0000
  H   H1440     1.0  0.33163  0.10811  0.58204  1.0000
  H   H1441     1.0  0.45804  0.10963  0.48332  1.0000
  H   H1442     1.0  0.26834  0.12865  0.57541  1.0000
  C   C815      1.0  0.43656  0.12463  0.53806  1.0000
  H   H1443     1.0  0.27234  0.10352  0.57498  1.0000
  H   H1444     1.0  0.33583  0.08050  0.41069  1.0000
  H   H1445     1.0  0.26267  0.11354  0.59615  1.0000
  H   H1446     1.0  0.29468  0.08649  0.59673  1.0000
  C   C816      1.0  0.29846  0.09894  0.60326  1.0000
  C   C817      1.0  0.32159  0.08026  0.62294  1.0000
  C   C818      1.0  0.34140  0.11433  0.62620  1.0000
  H   H1447     1.0  0.41911  0.07274  0.64900  1.0000
  H   H1448     1.0  0.33135  0.13328  0.64749  1.0000
  H   H1449     1.0  0.31261  0.05437  0.41816  1.0000
  H   H1450     1.0  0.43611  0.12533  0.52258  1.0000
  H   H1451     1.0  0.44044  0.07189  0.59498  1.0000
  H   H1452     1.0  0.40210  0.00918  0.64945  1.0000
  H   H1453     1.0  0.33143  0.04166  0.63083  1.0000
  H   H1454     1.0  0.46396  0.13447  0.53522  1.0000
  C   C819      1.0  0.28803  0.11488  0.65779  1.0000
  H   H1455     1.0  0.48878  0.01578  0.48437  1.0000
  H   H1456     1.0  0.31112  0.11778  0.62796  1.0000
  C   C820      1.0  0.29259  0.11647  0.59002  1.0000
  H   H1457     1.0  0.34011  0.09220  0.55298  1.0000
  H   H1458     1.0  0.33401  0.06483  0.58810  1.0000
  H   H1459     1.0  0.31579  0.07824  0.57521  1.0000
  H   H1460     1.0  0.47399  0.11575  0.51166  1.0000
  C   C821      1.0  0.45855  0.08769  0.55015  1.0000
  C   C822      1.0  0.28006  0.07441  0.39764  1.0000
  H   H1461     1.0  0.44971  0.05815  0.57609  1.0000
  C   C823      1.0  0.27358  0.12476  0.42819  1.0000
  H   H1462     1.0  0.47705  0.01467  0.60472  1.0000
  C   C824      1.0  0.27280  0.11541  0.58377  1.0000
  H   H1463     1.0  0.46744  0.08641  0.57898  1.0000
  H   H1464     1.0  0.27501  0.06650  0.43902  1.0000
  H   H1465     1.0  0.31075  0.07321  0.43253  1.0000
  C   C825      1.0  0.27620  0.10381  0.42534  1.0000
  H   H1466     1.0  0.44632  0.10126  0.57528  1.0000
  H   H1467     1.0  0.45089  0.08633  0.48182  1.0000
  H   H1468     1.0  0.46727  0.07442  0.54772  1.0000
  C   C826      1.0  0.25707  0.10179  0.64258  1.0000
  C   C827      1.0  0.25117  0.10476  0.36277  1.0000
  C   C828      1.0  0.29374  0.09946  0.41209  1.0000
  H   H1469     1.0  0.42588  0.14266  0.55996  1.0000
  H   H1470     1.0  0.38520  0.00300  0.36928  1.0000
  H   H1471     1.0  0.46964  0.08648  0.36152  1.0000
  Fe  Fe93      1.0  0.48958  0.04294  0.42423  1.0000
  C   C829      1.0  0.42407  0.08508  0.64095  1.0000
  H   H1472     1.0  0.26798  0.07302  0.40810  1.0000
  C   C830      1.0  0.31665  0.04627  0.63490  1.0000
  H   H1473     1.0  0.26626  0.03699  0.37503  1.0000
  N   N48       1.0  0.29718  0.07961  0.40642  1.0000
  Fe  Fe94      1.0  0.37218  0.07466  0.33615  1.0000
  C   C831      1.0  0.44307  0.08523  0.63397  1.0000
  C   C832      1.0  0.30272  0.06607  0.42292  1.0000
  H   H1474     1.0  0.43759  0.04519  0.33644  1.0000
  C   C833      1.0  0.34765  0.08316  0.38225  1.0000
  C   C834      1.0  0.28504  0.09578  0.66088  1.0000
  H   H1475     1.0  0.45880  0.07662  0.51411  1.0000
  H   H1476     1.0  0.44365  0.12453  0.65909  1.0000
  H   H1477     1.0  0.45276  0.07309  0.63687  1.0000
  C   C835      1.0  0.29391  0.04587  0.45281  1.0000
  H   H1478     1.0  0.35626  0.13213  0.64197  1.0000
  H   H1479     1.0  0.30582  0.10343  0.41934  1.0000
  H   H1480     1.0  0.31705  0.06505  0.38740  1.0000
  H   H1481     1.0  0.30786  0.03441  0.63392  1.0000
  C   C836      1.0  0.30393  0.03282  0.33766  1.0000
  C   C837      1.0  0.41651  0.00390  0.65307  1.0000
  H   H1482     1.0  0.47519  0.08970  0.48394  1.0000
  H   H1483     1.0  0.29489  0.06700  0.62664  1.0000
  H   H1484     1.0  0.29087  0.04489  0.39514  1.0000
  C   C838      1.0  0.26388  0.04936  0.38338  1.0000
  H   H1485     1.0  0.48529  0.09323  0.51712  1.0000
  H   H1486     1.0  0.48364  0.01514  0.37803  1.0000
  H   H1487     1.0  0.26669  0.07471  0.65584  1.0000
  H   H1488     1.0  0.48267  0.03703  0.36347  1.0000
  H   H1489     1.0  0.47067  0.09950  0.65824  1.0000
  H   H1490     1.0  0.27277  0.19554  0.33552  1.0000
  H   H1491     1.0  0.48673  0.03947  0.51429  1.0000
  H   H1492     1.0  0.48737  0.07188  0.34935  1.0000
  H   H1493     1.0  0.49390  0.05346  0.48177  1.0000
  H   H1494     1.0  0.29097  0.02566  0.34199  1.0000
  C   C839      1.0  0.26189  0.18527  0.33794  1.0000
  H   H1495     1.0  0.47737  0.12309  0.65245  1.0000
  H   H1496     1.0  0.49010  0.09653  0.35020  1.0000
  H   H1497     1.0  0.49394  0.13331  0.53889  1.0000
  C   C840      1.0  0.48946  0.02252  0.36482  1.0000
  H   H1498     1.0  0.41490  0.05552  0.33070  1.0000
  H   H1499     1.0  0.46342  0.10525  0.33084  1.0000
  H   H1500     1.0  0.41705  0.08561  0.33001  1.0000
  C   C841      1.0  0.46967  0.09062  0.33098  1.0000
  H   H1501     1.0  0.41650  0.02135  0.33077  1.0000
  H   H1502     1.0  0.39794  0.11778  0.33073  1.0000
  Fe  Fe95      1.0  0.40482  0.45951  0.91846  1.0000
  Fe  Fe96      1.0  0.37158  0.08488  0.66754  1.0000
  S   S190      1.0  0.39450  0.43083  0.92895  1.0000
  Fe  Fe97      1.0  0.44107  0.47814  0.90484  1.0000
  C   C842      1.0  0.25068  0.38684  0.91177  1.0000
  H   H1503     1.0  0.30999  0.28677  0.84508  1.0000
  H   H1504     1.0  0.33229  0.43801  0.95610  1.0000
  S   S191      1.0  0.42993  0.46599  0.93305  1.0000
  S   S192      1.0  0.41650  0.47036  0.88986  1.0000
  H   H1505     1.0  0.39674  0.14440  0.70278  1.0000
  S   S193      1.0  0.39065  0.11305  0.96128  1.0000
  Fe  Fe98      1.0  0.33705  0.31121  0.89764  1.0000
  S   S194      1.0  0.30699  0.31031  0.90924  1.0000
  S   S195      1.0  0.35917  0.28601  0.89579  1.0000
  Fe  Fe99      1.0  0.33410  0.35424  0.89311  1.0000
  S   S196      1.0  0.30391  0.35639  0.90369  1.0000
  S   S197      1.0  0.34799  0.38099  0.88233  1.0000
  Fe  Fe100     1.0  0.31242  0.33397  0.92622  1.0000
  S   S198      1.0  0.29690  0.34068  0.95403  1.0000
  Fe  Fe101     1.0  0.29974  0.33300  0.88625  1.0000
  S   S199      1.0  0.27210  0.33008  0.87255  1.0000
  S   S200      1.0  0.34307  0.33339  0.91668  1.0000
  S   S201      1.0  0.32960  0.33230  0.87345  1.0000
  Fe  Fe102     1.0  0.41238  0.14963  0.85397  1.0000
  S   S202      1.0  0.42194  0.17812  0.85783  1.0000
  S   S203      1.0  0.41708  0.12441  0.87518  1.0000
  Fe  Fe103     1.0  0.40269  0.15964  0.81288  1.0000
  S   S204      1.0  0.41211  0.18883  0.81391  1.0000
  S   S205      1.0  0.39072  0.15407  0.78488  1.0000
  Fe  Fe104     1.0  0.43680  0.17541  0.82933  1.0000
  S   S206      1.0  0.46624  0.18438  0.82037  1.0000
  Fe  Fe105     1.0  0.39656  0.18954  0.84228  1.0000
  S   S207      1.0  0.37494  0.21441  0.84772  1.0000
  S   S208      1.0  0.42866  0.14636  0.82615  1.0000
  S   S209      1.0  0.38575  0.16096  0.84065  1.0000
  Fe  Fe106     1.0  0.33112  0.07834  0.68121  1.0000
  S   S210      1.0  0.34069  0.05951  0.70649  1.0000
  H   H1506     1.0  0.26921  0.37072  0.86133  1.0000
  N   N49       1.0  0.34401  0.99873  0.74286  1.0000
  S   S211      1.0  0.38369  0.06644  0.69122  1.0000
  H   H1507     1.0  0.34680  0.06351  0.95466  1.0000
  Fe  Fe107     1.0  0.36232  0.04637  0.68638  1.0000
  S   S212      1.0  0.37354  0.01551  0.68631  1.0000
  Fe  Fe108     1.0  0.36143  0.08099  0.70977  1.0000
  S   S213      1.0  0.37097  0.08581  0.73895  1.0000
  H   H1508     1.0  0.42573  0.11719  0.73937  1.0000
  S   S214      1.0  0.35016  0.10078  0.68606  1.0000
  H   H1509     1.0  0.44476  0.14465  0.74108  1.0000
  H   H1510     1.0  0.26671  0.36105  0.92004  1.0000
  H   H1511     1.0  0.34090  0.17968  0.85580  1.0000
  H   H1512     1.0  0.45874  0.06230  0.90791  1.0000
  C   C843      1.0  0.38519  0.13478  0.77253  1.0000
  C   C844      1.0  0.38924  0.11597  0.77909  1.0000
  C   C845      1.0  0.38473  0.10131  0.76866  1.0000
  C   C846      1.0  0.37619  0.10511  0.75145  1.0000
  C   C847      1.0  0.37211  0.12392  0.74490  1.0000
  C   C848      1.0  0.37659  0.13858  0.75535  1.0000
  H   H1513     1.0  0.39583  0.11271  0.79222  1.0000
  H   H1514     1.0  0.38789  0.08688  0.77401  1.0000
  H   H1515     1.0  0.36530  0.12720  0.73189  1.0000
  H   H1516     1.0  0.37329  0.15303  0.75010  1.0000
  S   S215      1.0  0.42486  0.06678  0.96695  1.0000
  H   H1517     1.0  0.47779  0.46563  0.94632  1.0000
  N   N50       1.0  0.42659  0.11463  0.69796  1.0000
  H   H1518     1.0  0.37621  0.10736  0.87715  1.0000
  H   H1519     1.0  0.47157  0.17054  0.85953  1.0000
  C   C849      1.0  0.49009  0.45551  0.94905  1.0000
  C   C850      1.0  0.38058  0.14137  0.67964  1.0000
  H   H1520     1.0  0.46548  0.01950  0.95728  1.0000
  C   C851      1.0  0.25960  0.30279  0.92342  1.0000
  C   C852      1.0  0.36375  0.26689  0.88134  1.0000
  C   C853      1.0  0.38054  0.25532  0.88303  1.0000
  C   C854      1.0  0.38448  0.23952  0.87256  1.0000
  C   C855      1.0  0.37155  0.23493  0.86032  1.0000
  C   C856      1.0  0.35486  0.24660  0.85850  1.0000
  C   C857      1.0  0.35098  0.26248  0.86886  1.0000
  H   H1521     1.0  0.39051  0.25855  0.89265  1.0000
  H   H1522     1.0  0.39735  0.23075  0.87417  1.0000
  H   H1523     1.0  0.34472  0.24321  0.84912  1.0000
  H   H1524     1.0  0.33798  0.27110  0.86744  1.0000
  H   H1525     1.0  0.35455  0.20466  0.88085  1.0000
  H   H1526     1.0  0.30303  0.40268  0.85064  1.0000
  H   H1527     1.0  0.45413  0.10000  0.69460  1.0000
  H   H1528     1.0  0.33885  0.22829  0.89381  1.0000
  S   S216      1.0  0.30013  0.07942  0.67430  1.0000
  C   C858      1.0  0.33317  0.01360  0.73064  1.0000
  C   C859      1.0  0.26804  0.39569  0.90240  1.0000
  N   N51       1.0  0.30291  0.34910  0.81613  1.0000
  H   H1529     1.0  0.33405  0.00935  0.68258  1.0000
  C   C860      1.0  0.39918  0.11813  0.93780  1.0000
  C   C861      1.0  0.38794  0.12953  0.92537  1.0000
  C   C862      1.0  0.39381  0.13263  0.90623  1.0000
  C   C863      1.0  0.41089  0.12414  0.89944  1.0000
  C   C864      1.0  0.42233  0.11317  0.91198  1.0000
  C   C865      1.0  0.41662  0.11037  0.93113  1.0000
  H   H1530     1.0  0.37443  0.13543  0.93050  1.0000
  H   H1531     1.0  0.38477  0.14076  0.89655  1.0000
  H   H1532     1.0  0.43559  0.10662  0.90679  1.0000
  H   H1533     1.0  0.42556  0.10191  0.94066  1.0000
  C   C866      1.0  0.44292  0.10681  0.68575  1.0000
  H   H1534     1.0  0.40628  0.10294  0.71893  1.0000
  C   C867      1.0  0.38146  0.41725  0.91582  1.0000
  C   C868      1.0  0.37511  0.40021  0.92426  1.0000
  C   C869      1.0  0.36474  0.38900  0.91430  1.0000
  C   C870      1.0  0.36069  0.39469  0.89571  1.0000
  C   C871      1.0  0.36707  0.41172  0.88731  1.0000
  C   C872      1.0  0.37734  0.42298  0.89729  1.0000
  H   H1535     1.0  0.37831  0.39561  0.93854  1.0000
  H   H1536     1.0  0.36006  0.37586  0.92088  1.0000
  H   H1537     1.0  0.36406  0.41624  0.87294  1.0000
  H   H1538     1.0  0.38215  0.43602  0.89059  1.0000
  C   C873      1.0  0.48503  0.17376  0.85278  1.0000
  H   H1539     1.0  0.37347  0.38601  0.99066  1.0000
  H   H1540     1.0  0.35833  0.07634  0.97035  1.0000
  H   H1541     1.0  0.45926  0.40864  0.95596  1.0000
  C   C874      1.0  0.34730  0.43465  0.95877  1.0000
  H   H1542     1.0  0.44564  0.48609  0.96015  1.0000
  C   C875      1.0  0.48504  0.43530  0.94840  1.0000
  H   H1543     1.0  0.38698  0.15287  0.67057  1.0000
  H   H1544     1.0  0.44543  0.02026  0.97411  1.0000
  H   H1545     1.0  0.48750  0.18072  0.93118  1.0000
  S   S217      1.0  0.40388  0.02162  0.97418  1.0000
  H   H1546     1.0  0.47558  0.41932  0.89721  1.0000
  H   H1547     1.0  0.44168  0.38875  0.92592  1.0000
  H   H1548     1.0  0.46231  0.99727  0.99604  1.0000
  H   H1549     1.0  0.48973  0.39692  0.94546  1.0000
  H   H1550     1.0  0.30168  0.37342  0.79579  1.0000
  C   C876      1.0  0.47590  0.23253  0.83625  1.0000
  H   H1551     1.0  0.27112  0.32959  0.92246  1.0000
  H   H1552     1.0  0.39355  0.47828  0.99450  1.0000
  C   C877      1.0  0.25810  0.32324  0.92814  1.0000
  H   H1553     1.0  0.26166  0.30202  0.90799  1.0000
  H   H1554     1.0  0.44851  0.12434  0.71325  1.0000
  H   H1555     1.0  0.43309  0.28925  0.85689  1.0000
  Fe  Fe109     1.0  0.44441  0.07056  0.98878  1.0000
  H   H1556     1.0  0.38651  0.12202  0.70339  1.0000
  H   H1557     1.0  0.25255  0.35377  0.94883  1.0000
  C   C878      1.0  0.43178  0.08436  0.72021  1.0000
  C   C879      1.0  0.48116  0.23966  0.81558  1.0000
  C   C880      1.0  0.30188  0.37983  0.83296  1.0000
  C   C881      1.0  0.25693  0.36487  0.85718  1.0000
  C   C882      1.0  0.44580  0.39034  0.94026  1.0000
  C   C883      1.0  0.25321  0.33782  0.80323  1.0000
  H   H1558     1.0  0.28023  0.39213  0.91113  1.0000
  C   C884      1.0  0.29543  0.34253  0.99222  1.0000
  H   H1559     1.0  0.30432  0.00471  0.73784  1.0000
  H   H1560     1.0  0.32338  0.38622  0.85080  1.0000
  H   H1561     1.0  0.36558  0.05193  0.96814  1.0000
  H   H1562     1.0  0.33559  0.39045  0.97928  1.0000
  C   C885      1.0  0.36436  0.48595  0.99192  1.0000
  C   C886      1.0  0.25343  0.36505  0.91309  1.0000
  H   H1563     1.0  0.30869  0.38784  0.82074  1.0000
  H   H1564     1.0  0.46644  0.22954  0.88139  1.0000
  H   H1565     1.0  0.44846  0.04894  0.92808  1.0000
  H   H1566     1.0  0.41625  0.45804  0.97367  1.0000
  H   H1567     1.0  0.29978  0.12014  0.66376  1.0000
  C   C887      1.0  0.43390  0.43471  0.98530  1.0000
  H   H1568     1.0  0.48010  0.21721  0.83688  1.0000
  H   H1569     1.0  0.35568  0.43709  0.94524  1.0000
  H   H1570     1.0  0.31685  0.29017  0.82038  1.0000
  H   H1571     1.0  0.30979  0.01020  0.76615  1.0000
  C   C888      1.0  0.41797  0.09821  0.70905  1.0000
  H   H1572     1.0  0.42236  0.37514  0.95266  1.0000
  C   C889      1.0  0.40318  0.99830  0.98470  1.0000
  H   H1573     1.0  0.46416  0.39854  0.90375  1.0000
  H   H1574     1.0  0.36799  0.02624  0.75325  1.0000
  H   H1575     1.0  0.36157  0.18056  0.88274  1.0000
  H   H1576     1.0  0.46716  0.27402  0.83280  1.0000
  H   H1577     1.0  0.41850  0.13631  0.67623  1.0000
  C   C890      1.0  0.47641  0.43276  0.92963  1.0000
  H   H1578     1.0  0.30029  0.35176  0.84605  1.0000
  H   H1579     1.0  0.34317  0.44544  0.98570  1.0000
  H   H1580     1.0  0.46422  0.44326  0.92843  1.0000
  C   C891      1.0  0.30419  0.33354  0.97690  1.0000
  C   C892      1.0  0.41243  0.12441  0.68500  1.0000
  C   C893      1.0  0.44224  0.42388  0.88214  1.0000
  H   H1581     1.0  0.34108  0.01638  0.71683  1.0000
  H   H1582     1.0  0.24971  0.32904  0.81642  1.0000
  Fe  Fe110     1.0  0.41532  0.49451  0.93577  1.0000
  H   H1583     1.0  0.41744  0.40022  0.94980  1.0000
  H   H1584     1.0  0.34370  0.14494  0.94801  1.0000
  C   C894      1.0  0.30786  0.38757  0.85057  1.0000
  C   C895      1.0  0.41473  0.44340  0.97972  1.0000
  H   H1585     1.0  0.37706  0.13050  0.67071  1.0000
  H   H1586     1.0  0.38962  0.17768  0.89183  1.0000
  H   H1587     1.0  0.45424  0.13443  0.67758  1.0000
  C   C896      1.0  0.39393  0.13285  0.69438  1.0000
  H   H1588     1.0  0.44203  0.09187  0.72695  1.0000
  H   H1589     1.0  0.32932  0.25559  0.91152  1.0000
  S   S218      1.0  0.47091  0.46856  0.89460  1.0000
  H   H1590     1.0  0.36275  0.11147  0.89896  1.0000
  H   H1591     1.0  0.36390  0.04506  0.89514  1.0000
  H   H1592     1.0  0.31597  0.18467  0.86000  1.0000
  H   H1593     1.0  0.47522  0.23072  0.80596  1.0000
  H   H1594     1.0  0.43026  0.04923  0.89959  1.0000
  H   H1595     1.0  0.40008  0.01182  0.74525  1.0000
  C   C897      1.0  0.42944  0.14647  0.73937  1.0000
  H   H1596     1.0  0.33126  0.20360  0.85762  1.0000
  H   H1597     1.0  0.31136  0.03107  0.70206  1.0000
  S   S219      1.0  0.38908  0.48706  0.92417  1.0000
  H   H1598     1.0  0.33181  0.02723  0.73713  1.0000
  H   H1599     1.0  0.39628  0.01691  0.72049  1.0000
  H   H1600     1.0  0.32747  0.32978  0.81950  1.0000
  C   C898      1.0  0.46711  0.99799  0.98097  1.0000
  H   H1601     1.0  0.44568  0.43896  0.90594  1.0000
  C   C899      1.0  0.49150  0.49311  0.91110  1.0000
  H   H1602     1.0  0.33070  0.29867  0.83754  1.0000
  H   H1603     1.0  0.41060  0.06481  0.72915  1.0000
  H   H1604     1.0  0.33509  0.37041  0.80845  1.0000
  H   H1605     1.0  0.47506  0.43221  0.96057  1.0000
  H   H1606     1.0  0.32851  0.38888  0.77816  1.0000
  H   H1607     1.0  0.37658  0.20208  0.92467  1.0000
  H   H1608     1.0  0.31378  0.23720  0.91783  1.0000
  C   C900      1.0  0.42140  0.07206  0.73539  1.0000
  H   H1609     1.0  0.34213  0.01580  0.76637  1.0000
  H   H1610     1.0  0.33796  0.36117  0.95032  1.0000
  N   N52       1.0  0.45565  0.23589  0.84356  1.0000
  C   C901      1.0  0.44264  0.23511  0.82805  1.0000
  C   C902      1.0  0.45138  0.22015  0.85840  1.0000
  C   C903      1.0  0.45262  0.25417  0.85267  1.0000
  C   C904      1.0  0.45287  0.27247  0.83942  1.0000
  C   C905      1.0  0.42135  0.23734  0.83380  1.0000
  C   C906      1.0  0.46508  0.21660  0.87444  1.0000
  C   C907      1.0  0.44759  0.28969  0.85033  1.0000
  C   C908      1.0  0.40982  0.24140  0.81656  1.0000
  C   C909      1.0  0.45827  0.20185  0.88961  1.0000
  H   H1611     1.0  0.44539  0.22145  0.82168  1.0000
  H   H1612     1.0  0.44546  0.24589  0.81630  1.0000
  H   H1613     1.0  0.45139  0.20667  0.85179  1.0000
  H   H1614     1.0  0.43702  0.22266  0.86514  1.0000
  H   H1615     1.0  0.43921  0.25472  0.86152  1.0000
  H   H1616     1.0  0.46358  0.25512  0.86266  1.0000
  H   H1617     1.0  0.44275  0.27282  0.82840  1.0000
  C   C910      1.0  0.33112  0.36297  0.79662  1.0000
  H   H1618     1.0  0.41685  0.22417  0.84159  1.0000
  H   H1619     1.0  0.41774  0.24904  0.84280  1.0000
  H   H1620     1.0  0.48657  0.43733  0.91798  1.0000
  H   H1621     1.0  0.35151  0.10397  0.87957  1.0000
  H   H1622     1.0  0.40775  0.13239  0.72893  1.0000
  H   H1623     1.0  0.45748  0.29039  0.86143  1.0000
  H   H1624     1.0  0.44820  0.30266  0.84061  1.0000
  H   H1625     1.0  0.41289  0.23020  0.80684  1.0000
  H   H1626     1.0  0.39464  0.24202  0.82100  1.0000
  H   H1627     1.0  0.41292  0.25513  0.80899  1.0000
  H   H1628     1.0  0.42751  0.07445  0.89820  1.0000
  C   C911      1.0  0.35305  0.44719  0.97317  1.0000
  H   H1629     1.0  0.46910  0.19834  0.89994  1.0000
  N   N53       1.0  0.39234  0.06017  0.91395  1.0000
  C   C912      1.0  0.37812  0.05617  0.93014  1.0000
  C   C913      1.0  0.39399  0.04452  0.90099  1.0000
  C   C914      1.0  0.41109  0.06066  0.92217  1.0000
  C   C915      1.0  0.38790  0.07901  0.90333  1.0000
  C   C916      1.0  0.36882  0.08190  0.89435  1.0000
  C   C917      1.0  0.37484  0.07116  0.94456  1.0000
  C   C918      1.0  0.42853  0.06155  0.90799  1.0000
  C   C919      1.0  0.37591  0.03485  0.89827  1.0000
  H   H1630     1.0  0.46236  0.46796  0.98594  1.0000
  C   C920      1.0  0.36463  0.10245  0.88708  1.0000
  C   C921      1.0  0.36047  0.06530  0.96034  1.0000
  C   C922      1.0  0.44646  0.06178  0.91826  1.0000
  H   H1631     1.0  0.38231  0.04245  0.93801  1.0000
  H   H1632     1.0  0.36415  0.05448  0.92518  1.0000
  H   H1633     1.0  0.40014  0.04962  0.88689  1.0000
  H   H1634     1.0  0.40394  0.03278  0.90637  1.0000
  H   H1635     1.0  0.41369  0.04814  0.93239  1.0000
  H   H1636     1.0  0.41110  0.07313  0.93021  1.0000
  H   H1637     1.0  0.38886  0.09052  0.91250  1.0000
  H   H1638     1.0  0.39862  0.08171  0.89160  1.0000
  H   H1639     1.0  0.35710  0.07801  0.90449  1.0000
  H   H1640     1.0  0.36922  0.07344  0.88211  1.0000
  H   H1641     1.0  0.38786  0.07308  0.95125  1.0000
  H   H1642     1.0  0.36947  0.08491  0.93776  1.0000
  H   H1643     1.0  0.41109  0.20239  0.89463  1.0000
  H   H1644     1.0  0.42095  0.17942  0.90295  1.0000
  H   H1645     1.0  0.39050  0.17056  0.91649  1.0000
  H   H1646     1.0  0.31720  0.37151  0.96251  1.0000
  H   H1647     1.0  0.47925  0.21142  0.86895  1.0000
  H   H1648     1.0  0.49472  0.45740  0.96313  1.0000
  C   C923      1.0  0.34695  0.36123  0.98690  1.0000
  C   C924      1.0  0.40975  0.19066  0.90579  1.0000
  H   H1649     1.0  0.36440  0.03120  0.72868  1.0000
  H   H1650     1.0  0.33146  0.24145  0.93347  1.0000
  N   N54       1.0  0.47056  0.41344  0.92726  1.0000
  C   C925      1.0  0.45457  0.40923  0.94147  1.0000
  H   H1651     1.0  0.44325  0.42087  0.94067  1.0000
  C   C926      1.0  0.38208  0.47268  0.98755  1.0000
  H   H1652     1.0  0.42209  0.14704  0.75352  1.0000
  H   H1653     1.0  0.41175  0.19572  0.91964  1.0000
  H   H1654     1.0  0.41053  0.43506  0.96865  1.0000
  H   H1655     1.0  0.43849  0.09552  0.67768  1.0000
  H   H1656     1.0  0.43387  0.41787  0.91115  1.0000
  H   H1657     1.0  0.27717  0.34711  0.78646  1.0000
  C   C927      1.0  0.42830  0.38881  0.95364  1.0000
  H   H1658     1.0  0.37708  0.21045  0.90048  1.0000
  C   C928      1.0  0.39063  0.18278  0.90582  1.0000
  C   C929      1.0  0.31787  0.31879  0.98025  1.0000
  H   H1659     1.0  0.45560  0.18878  0.88341  1.0000
  H   H1660     1.0  0.40871  0.11450  0.67498  1.0000
  H   H1661     1.0  0.37193  0.02600  0.91129  1.0000
  C   C930      1.0  0.46479  0.41321  0.90743  1.0000
  C   C931      1.0  0.37119  0.02106  0.73919  1.0000
  C   C932      1.0  0.44582  0.42412  0.90287  1.0000
  C   C933      1.0  0.48657  0.39873  0.93039  1.0000
  H   H1662     1.0  0.43179  0.38969  0.96836  1.0000
  H   H1663     1.0  0.35641  0.23271  0.90931  1.0000
  H   H1664     1.0  0.38623  0.47485  0.97225  1.0000
  C   C934      1.0  0.37453  0.19790  0.91040  1.0000
  C   C935      1.0  0.35153  0.19124  0.88901  1.0000
  C   C936      1.0  0.34236  0.22753  0.90868  1.0000
  C   C937      1.0  0.32993  0.18873  0.86316  1.0000
  H   H1665     1.0  0.32466  0.31170  0.96861  1.0000
  H   H1666     1.0  0.28096  0.32454  0.79948  1.0000
  H   H1667     1.0  0.38230  0.03029  0.86874  1.0000
  H   H1668     1.0  0.32059  0.19553  0.89092  1.0000
  H   H1669     1.0  0.43974  0.07489  0.71051  1.0000
  N   N55       1.0  0.35476  0.19234  0.90942  1.0000
  C   C938      1.0  0.33192  0.18636  0.88437  1.0000
  C   C939      1.0  0.32833  0.24118  0.91855  1.0000
  C   C940      1.0  0.34160  0.20719  0.91811  1.0000
  H   H1670     1.0  0.34444  0.20752  0.93316  1.0000
  H   H1671     1.0  0.35851  0.16197  0.91157  1.0000
  H   H1672     1.0  0.30759  0.35189  0.78591  1.0000
  H   H1673     1.0  0.35680  0.38321  0.96596  1.0000
  C   C941      1.0  0.35312  0.17344  0.92048  1.0000
  H   H1674     1.0  0.33682  0.13888  0.92565  1.0000
  H   H1675     1.0  0.32680  0.20380  0.91822  1.0000
  H   H1676     1.0  0.36216  0.17208  0.93264  1.0000
  H   H1677     1.0  0.32998  0.17142  0.88910  1.0000
  H   H1678     1.0  0.48157  0.11135  0.67529  1.0000
  C   C942      1.0  0.33966  0.00129  0.76341  1.0000
  C   C943      1.0  0.30994  0.35965  0.79817  1.0000
  C   C944      1.0  0.30330  0.02658  0.71532  1.0000
  C   C945      1.0  0.33346  0.16888  0.92940  1.0000
  H   H1679     1.0  0.32240  0.17174  0.91934  1.0000
  H   H1680     1.0  0.39060  0.01109  0.88508  1.0000
  H   H1681     1.0  0.32956  0.17758  0.94135  1.0000
  H   H1682     1.0  0.45289  0.43160  0.87319  1.0000
  H   H1683     1.0  0.27624  0.34222  0.82979  1.0000
  H   H1684     1.0  0.48251  0.38478  0.92721  1.0000
  H   H1685     1.0  0.28481  0.35394  0.98978  1.0000
  H   H1686     1.0  0.42817  0.43087  0.87946  1.0000
  H   H1687     1.0  0.44261  0.40923  0.87820  1.0000
  C   C946      1.0  0.42304  0.13010  0.72987  1.0000
  H   H1688     1.0  0.31925  0.14545  0.94362  1.0000
  H   H1689     1.0  0.30398  0.32086  0.84674  1.0000
  C   C947      1.0  0.31625  0.29662  0.83393  1.0000
  C   C948      1.0  0.45056  0.47779  0.98915  1.0000
  H   H1690     1.0  0.33325  0.36773  0.76604  1.0000
  C   C949      1.0  0.33337  0.14827  0.93711  1.0000
  C   C950      1.0  0.34331  0.37854  0.97258  1.0000
  C   C951      1.0  0.44103  0.48792  0.97459  1.0000
  C   C952      1.0  0.48640  0.17973  0.83363  1.0000
  H   H1691     1.0  0.44430  0.43701  0.97328  1.0000
  C   C953      1.0  0.30746  0.35840  0.83313  1.0000
  H   H1692     1.0  0.48546  0.23827  0.84548  1.0000
  H   H1693     1.0  0.44590  0.07435  0.92631  1.0000
  H   H1694     1.0  0.28652  0.38284  0.83251  1.0000
  H   H1695     1.0  0.33098  0.38582  0.94582  1.0000
  C   C954      1.0  0.43358  0.12823  0.71032  1.0000
  H   H1696     1.0  0.26537  0.41122  0.90081  1.0000
  C   C955      1.0  0.49093  0.06093  0.99343  1.0000
  H   H1697     1.0  0.35131  0.48036  0.98841  1.0000
  H   H1698     1.0  0.30177  0.37994  0.86348  1.0000
  C   C956      1.0  0.30430  0.31531  0.83284  1.0000
  H   H1699     1.0  0.28927  0.02312  0.71171  1.0000
  H   H1700     1.0  0.45593  0.37834  0.94430  1.0000
  H   H1701     1.0  0.41133  0.08981  0.69945  1.0000
  H   H1702     1.0  0.27180  0.29506  0.93010  1.0000
  H   H1703     1.0  0.37554  0.42659  0.98127  1.0000
  H   H1704     1.0  0.31208  0.32317  0.80355  1.0000
  H   H1705     1.0  0.35588  0.35076  0.97907  1.0000
  H   H1706     1.0  0.32268  0.35608  0.83549  1.0000
  H   H1707     1.0  0.24808  0.39204  0.92588  1.0000
  Fe  Fe111     1.0  0.41094  0.04698  0.98863  1.0000
  C   C957      1.0  0.33635  0.37484  0.77846  1.0000
  C   C958      1.0  0.33169  0.37389  0.95687  1.0000
  C   C959      1.0  0.27441  0.33903  0.80022  1.0000
  H   H1708     1.0  0.42596  0.16001  0.73105  1.0000
  H   H1709     1.0  0.41449  0.08076  0.74633  1.0000
  C   C960      1.0  0.31234  0.32942  0.81717  1.0000
  S   S220      1.0  0.47451  0.07133  0.97797  1.0000
  H   H1710     1.0  0.44522  0.20741  0.89713  1.0000
  C   C961      1.0  0.28191  0.34887  0.81620  1.0000
  H   H1711     1.0  0.33977  0.34940  0.79651  1.0000
  Fe  Fe112     1.0  0.40658  0.08999  0.97902  1.0000
  H   H1712     1.0  0.27514  0.36342  0.81521  1.0000
  H   H1713     1.0  0.36738  0.14720  0.68673  1.0000
  C   C962      1.0  0.37365  0.44212  0.97796  1.0000
  H   H1714     1.0  0.35159  0.37687  0.77760  1.0000
  H   H1715     1.0  0.34935  0.41960  0.96390  1.0000
  H   H1716     1.0  0.43355  0.14254  0.70277  1.0000
  H   H1717     1.0  0.28983  0.31232  0.83022  1.0000
  H   H1718     1.0  0.43143  0.06135  0.74216  1.0000
  H   H1719     1.0  0.39651  0.03577  0.73534  1.0000
  H   H1720     1.0  0.38194  0.44528  0.96449  1.0000
  N   N56       1.0  0.38087  0.45198  0.99343  1.0000
  C   C963      1.0  0.39233  0.02129  0.73481  1.0000
  H   H1721     1.0  0.30139  0.03844  0.72438  1.0000
  H   H1722     1.0  0.35144  0.46180  0.96661  1.0000
  C   C964      1.0  0.31337  0.00935  0.72546  1.0000
  H   H1723     1.0  0.27150  0.39073  0.88824  1.0000
  C   C965      1.0  0.31792  0.99764  0.79278  1.0000
  H   H1724     1.0  0.25627  0.36073  0.89857  1.0000
  C   C966      1.0  0.37897  0.02200  0.88228  1.0000
  H   H1725     1.0  0.25738  0.32310  0.94365  1.0000
  H   H1726     1.0  0.47577  0.25435  0.81208  1.0000
  C   C967      1.0  0.45239  0.12119  0.67132  1.0000
  H   H1727     1.0  0.41779  0.00580  0.66812  1.0000
  C   C968      1.0  0.31942  0.99824  0.77135  1.0000
  H   H1728     1.0  0.38309  0.36273  0.98898  1.0000
  C   C969      1.0  0.46091  0.01767  0.97243  1.0000
  H   H1729     1.0  0.36602  0.01487  0.88103  1.0000
  C   C970      1.0  0.36470  0.00098  0.73851  1.0000
  H   H1730     1.0  0.33359  0.35452  0.99061  1.0000
  H   H1731     1.0  0.31456  0.99800  0.71583  1.0000
  H   H1732     1.0  0.46721  0.02837  0.97972  1.0000
  C   C971      1.0  0.25464  0.34574  0.86154  1.0000
  H   H1733     1.0  0.32229  0.01088  0.79746  1.0000
  C   C972      1.0  0.49177  0.47696  0.90151  1.0000
  H   H1734     1.0  0.43343  0.41939  0.98911  1.0000
  H   H1735     1.0  0.24797  0.33132  0.79135  1.0000
  C   C973      1.0  0.47167  0.11325  0.66393  1.0000
  C   C974      1.0  0.40087  0.94980  0.31841  1.0000
  S   S221      1.0  0.38779  0.52392  0.06508  1.0000
  C   C975      1.0  0.49235  0.49858  0.03260  1.0000
  H   H1736     1.0  0.35352  0.83909  0.27183  1.0000
  S   S222      1.0  0.42824  0.89102  0.01011  1.0000
  H   H1737     1.0  0.45139  0.85445  0.21411  1.0000
  H   H1738     1.0  0.31415  0.56295  0.16683  1.0000
  Fe  Fe113     1.0  0.40945  0.86846  0.00600  1.0000
  S   S223      1.0  0.40188  0.84411  0.02705  1.0000
  C   C976      1.0  0.45983  0.77272  0.20634  1.0000
  Fe  Fe114     1.0  0.30949  0.63950  0.09721  1.0000
  S   S224      1.0  0.33382  0.64278  0.11477  1.0000
  S   S225      1.0  0.27838  0.63656  0.10658  1.0000
  Fe  Fe115     1.0  0.33371  0.64328  0.05993  1.0000
  S   S226      1.0  0.35943  0.64630  0.07512  1.0000
  S   S227      1.0  0.34154  0.64358  0.02844  1.0000
  Fe  Fe116     1.0  0.34970  0.62296  0.09533  1.0000
  S   S228      1.0  0.37102  0.59970  0.10530  1.0000
  Fe  Fe117     1.0  0.34200  0.66619  0.09299  1.0000
  S   S229      1.0  0.35501  0.69471  0.09273  1.0000
  S   S230      1.0  0.32516  0.61841  0.07911  1.0000
  S   S231      1.0  0.31649  0.66439  0.07664  1.0000
  Fe  Fe118     1.0  0.40900  0.80410  0.17759  1.0000
  S   S232      1.0  0.41982  0.77424  0.17323  1.0000
  S   S233      1.0  0.40318  0.80998  0.20875  1.0000
  Fe  Fe119     1.0  0.41290  0.81462  0.13512  1.0000
  S   S234      1.0  0.42377  0.78562  0.12805  1.0000
  S   S235      1.0  0.41299  0.84064  0.11440  1.0000
  Fe  Fe120     1.0  0.40112  0.77543  0.14909  1.0000
  S   S236      1.0  0.38488  0.74885  0.14913  1.0000
  Fe  Fe121     1.0  0.44165  0.78616  0.15253  1.0000
  S   S237      1.0  0.47156  0.77241  0.15103  1.0000
  S   S238      1.0  0.38877  0.80474  0.15474  1.0000
  S   S239      1.0  0.43229  0.81573  0.15837  1.0000
  S   S240      1.0  0.33916  0.89917  0.29625  1.0000
  S   S241      1.0  0.38291  0.90103  0.30570  1.0000
  C   C977      1.0  0.34169  0.82992  0.27242  1.0000
  C   C978      1.0  0.33275  0.84506  0.24215  1.0000
  Fe  Fe122     1.0  0.36691  0.88354  0.28838  1.0000
  S   S242      1.0  0.37404  0.87918  0.25705  1.0000
  H   H1739     1.0  0.44512  0.83483  0.26997  1.0000
  H   H1740     1.0  0.44094  0.93351  0.00120  1.0000
  C   C979      1.0  0.35951  0.97050  0.29661  1.0000
  C   C980      1.0  0.33637  0.57118  0.13444  1.0000
  C   C981      1.0  0.35273  0.51499  0.11727  1.0000
  H   H1741     1.0  0.36238  0.95901  0.28779  1.0000
  C   C982      1.0  0.39534  0.82958  0.22178  1.0000
  C   C983      1.0  0.39101  0.84761  0.21319  1.0000
  C   C984      1.0  0.38473  0.86256  0.22422  1.0000
  C   C985      1.0  0.38292  0.85985  0.24399  1.0000
  C   C986      1.0  0.38772  0.84192  0.25258  1.0000
  C   C987      1.0  0.39361  0.82689  0.24155  1.0000
  H   H1742     1.0  0.39224  0.84999  0.19804  1.0000
  H   H1743     1.0  0.38114  0.87634  0.21736  1.0000
  H   H1744     1.0  0.38680  0.83958  0.26773  1.0000
  H   H1745     1.0  0.39697  0.81305  0.24840  1.0000
  H   H1746     1.0  0.31933  0.74906  0.06820  1.0000
  C   C988      1.0  0.49450  0.90361  0.01163  1.0000
  S   S243      1.0  0.39918  0.93756  0.01082  1.0000
  H   H1747     1.0  0.34742  0.94223  0.01866  1.0000
  H   H1748     1.0  0.47735  0.81061  0.15941  1.0000
  C   C989      1.0  0.36303  0.70963  0.10875  1.0000
  C   C990      1.0  0.36020  0.70629  0.12826  1.0000
  C   C991      1.0  0.36676  0.71857  0.14026  1.0000
  C   C992      1.0  0.37628  0.73439  0.13304  1.0000
  C   C993      1.0  0.37910  0.73776  0.11352  1.0000
  C   C994      1.0  0.37253  0.72548  0.10152  1.0000
  H   H1749     1.0  0.35291  0.69426  0.13413  1.0000
  H   H1750     1.0  0.36446  0.71575  0.15530  1.0000
  H   H1751     1.0  0.38635  0.74981  0.10765  1.0000
  H   H1752     1.0  0.37491  0.72828  0.08650  1.0000
  C   C995      1.0  0.30848  0.64402  0.01024  1.0000
  C   C996      1.0  0.32773  0.64615  0.00872  1.0000
  H   H1753     1.0  0.33476  0.54750  0.01131  1.0000
  H   H1754     1.0  0.30147  0.64077  0.02389  1.0000
  H   H1755     1.0  0.44268  0.80638  0.21010  1.0000
  C   C997      1.0  0.27446  0.61000  0.13753  1.0000
  C   C998      1.0  0.49416  0.82745  0.11109  1.0000
  H   H1756     1.0  0.28949  0.60954  0.13797  1.0000
  C   C999      1.0  0.40732  0.84206  0.05089  1.0000
  C   C1000     1.0  0.41678  0.85566  0.05830  1.0000
  C   C1001     1.0  0.41889  0.85474  0.07775  1.0000
  C   C1002     1.0  0.41207  0.83993  0.08988  1.0000
  C   C1003     1.0  0.40353  0.82576  0.08233  1.0000
  C   C1004     1.0  0.40108  0.82689  0.06292  1.0000
  H   H1757     1.0  0.42217  0.86706  0.04911  1.0000
  H   H1758     1.0  0.42572  0.86562  0.08348  1.0000
  H   H1759     1.0  0.39818  0.81432  0.09153  1.0000
  H   H1760     1.0  0.39387  0.81622  0.05728  1.0000
  H   H1761     1.0  0.44630  0.92492  0.03433  1.0000
  H   H1762     1.0  0.29911  0.54389  0.13464  1.0000
  H   H1763     1.0  0.48798  0.50673  0.13876  1.0000
  C   C1005     1.0  0.47968  0.51448  0.02336  1.0000
  C   C1006     1.0  0.35506  0.81281  0.30162  1.0000
  C   C1007     1.0  0.49086  0.80282  0.15811  1.0000
  C   C1008     1.0  0.35279  0.52752  0.02710  1.0000
  C   C1009     1.0  0.38341  0.54483  0.07656  1.0000
  C   C1010     1.0  0.36823  0.55749  0.07147  1.0000
  C   C1011     1.0  0.36456  0.57455  0.07979  1.0000
  C   C1012     1.0  0.37576  0.57887  0.09373  1.0000
  C   C1013     1.0  0.39064  0.56600  0.09919  1.0000
  C   C1014     1.0  0.39457  0.54911  0.09055  1.0000
  H   H1764     1.0  0.35924  0.55403  0.06109  1.0000
  H   H1765     1.0  0.35299  0.58425  0.07555  1.0000
  H   H1766     1.0  0.39930  0.56916  0.11006  1.0000
  H   H1767     1.0  0.40622  0.53942  0.09470  1.0000
  H   H1768     1.0  0.32076  0.53743  0.10964  1.0000
  H   H1769     1.0  0.36729  0.99177  0.27473  1.0000
  H   H1770     1.0  0.44917  0.76205  0.08781  1.0000
  H   H1771     1.0  0.27999  0.64110  0.16477  1.0000
  H   H1772     1.0  0.48780  0.68256  0.14150  1.0000
  N   N57       1.0  0.36141  0.57826  0.00566  1.0000
  H   H1773     1.0  0.35939  0.79979  0.29465  1.0000
  H   H1774     1.0  0.43370  0.94773  0.03161  1.0000
  H   H1775     1.0  0.43452  0.81071  0.23957  1.0000
  N   N58       1.0  0.46351  0.82564  0.21395  1.0000
  H   H1776     1.0  0.35715  0.54173  0.99950  1.0000
  Fe  Fe123     1.0  0.41146  0.50156  0.07213  1.0000
  S   S244      1.0  0.36307  0.86039  0.31134  1.0000
  H   H1777     1.0  0.43780  0.74177  0.08272  1.0000
  C   C1015     1.0  0.31032  0.99241  0.28058  1.0000
  C   C1016     1.0  0.48362  0.82906  0.20760  1.0000
  Fe  Fe124     1.0  0.35478  0.91453  0.31542  1.0000
  H   H1778     1.0  0.29521  0.70208  0.04406  1.0000
  C   C1017     1.0  0.31059  0.55043  0.16021  1.0000
  H   H1779     1.0  0.32261  0.53980  0.16136  1.0000
  H   H1780     1.0  0.28149  0.55309  0.17155  1.0000
  H   H1781     1.0  0.33161  0.58639  0.00516  1.0000
  H   H1782     1.0  0.28503  0.89520  0.26490  1.0000
  H   H1783     1.0  0.42497  0.82134  0.27078  1.0000
  H   H1784     1.0  0.49074  0.90649  0.02603  1.0000
  H   H1785     1.0  0.36363  0.52172  0.10774  1.0000
  H   H1786     1.0  0.47081  0.52158  0.03435  1.0000
  Fe  Fe125     1.0  0.33593  0.87658  0.32014  1.0000
  H   H1787     1.0  0.45902  0.80933  0.19093  1.0000
  C   C1018     1.0  0.29508  0.88568  0.27305  1.0000
  H   H1788     1.0  0.40105  0.97238  0.02703  1.0000
  H   H1789     1.0  0.48816  0.52507  0.01518  1.0000
  H   H1790     1.0  0.48544  0.84506  0.31710  1.0000
  H   H1791     1.0  0.27478  0.62113  0.18092  1.0000
  H   H1792     1.0  0.34205  0.56239  0.14657  1.0000
  H   H1793     1.0  0.33302  0.86630  0.27170  1.0000
  H   H1794     1.0  0.48639  0.82954  0.09811  1.0000
  C   C1019     1.0  0.34326  0.83412  0.20999  1.0000
  N   N59       1.0  0.36790  0.89963  0.05632  1.0000
  C   C1020     1.0  0.36709  0.91154  0.03787  1.0000
  C   C1021     1.0  0.38798  0.89728  0.06171  1.0000
  C   C1022     1.0  0.36233  0.88032  0.05322  1.0000
  C   C1023     1.0  0.35501  0.90755  0.07177  1.0000
  C   C1024     1.0  0.36322  0.86539  0.07035  1.0000
  C   C1025     1.0  0.39727  0.91531  0.06501  1.0000
  C   C1026     1.0  0.41812  0.91093  0.06795  1.0000
  C   C1027     1.0  0.35484  0.84740  0.06624  1.0000
  H   H1795     1.0  0.37834  0.90632  0.02771  1.0000
  H   H1796     1.0  0.38934  0.88806  0.07496  1.0000
  H   H1797     1.0  0.39683  0.89018  0.05064  1.0000
  H   H1798     1.0  0.37122  0.87447  0.04136  1.0000
  H   H1799     1.0  0.34764  0.88115  0.04903  1.0000
  H   H1800     1.0  0.34084  0.90222  0.07186  1.0000
  H   H1801     1.0  0.36025  0.90234  0.08573  1.0000
  H   H1802     1.0  0.34752  0.89912  0.02136  1.0000
  H   H1803     1.0  0.35542  0.87065  0.08298  1.0000
  H   H1804     1.0  0.37789  0.86139  0.07375  1.0000
  H   H1805     1.0  0.39619  0.92609  0.05295  1.0000
  H   H1806     1.0  0.39078  0.92121  0.07793  1.0000
  H   H1807     1.0  0.42461  0.92408  0.06993  1.0000
  H   H1808     1.0  0.42010  0.90098  0.08062  1.0000
  H   H1809     1.0  0.42541  0.90468  0.05553  1.0000
  H   H1810     1.0  0.35658  0.83664  0.07831  1.0000
  H   H1811     1.0  0.33966  0.85014  0.06404  1.0000
  H   H1812     1.0  0.36216  0.84169  0.05355  1.0000
  H   H1813     1.0  0.42509  0.75958  0.09600  1.0000
  C   C1028     1.0  0.43973  0.82216  0.26509  1.0000
  H   H1814     1.0  0.27015  0.81539  0.29166  1.0000
  H   H1815     1.0  0.39002  0.93958  0.32102  1.0000
  C   C1029     1.0  0.29948  0.56721  0.09825  1.0000
  C   C1030     1.0  0.45208  0.94033  0.00742  1.0000
  C   C1031     1.0  0.44736  0.93973  0.02857  1.0000
  H   H1816     1.0  0.33925  0.61172  0.15759  1.0000
  H   H1817     1.0  0.31495  0.85594  0.28560  1.0000
  H   H1818     1.0  0.34383  0.85518  0.24159  1.0000
  H   H1819     1.0  0.32898  0.73055  0.08451  1.0000
  H   H1820     1.0  0.41866  0.93125  0.30099  1.0000
  H   H1821     1.0  0.36913  0.69795  0.00709  1.0000
  C   C1032     1.0  0.28906  0.58286  0.08620  1.0000
  H   H1822     1.0  0.34688  0.56746  0.03139  1.0000
  H   H1823     1.0  0.37010  0.55760  0.02812  1.0000
  C   C1033     1.0  0.27205  0.63658  0.17810  1.0000
  H   H1824     1.0  0.38194  0.58091  0.03797  1.0000
  C   C1034     1.0  0.38174  0.61045  0.03937  1.0000
  H   H1825     1.0  0.47030  0.50885  0.01393  1.0000
  C   C1035     1.0  0.33115  0.54486  0.11634  1.0000
  H   H1826     1.0  0.34326  0.50830  0.10875  1.0000
  H   H1827     1.0  0.34204  0.75055  0.07695  1.0000
  C   C1036     1.0  0.49194  0.78410  0.15386  1.0000
  H   H1828     1.0  0.34636  0.53031  0.04124  1.0000
  C   C1037     1.0  0.30591  0.87212  0.26019  1.0000
  C   C1038     1.0  0.35155  0.92928  0.07113  1.0000
  N   N60       1.0  0.43679  0.71477  0.13729  1.0000
  C   C1039     1.0  0.42045  0.70336  0.14401  1.0000
  C   C1040     1.0  0.44063  0.72682  0.15258  1.0000
  C   C1041     1.0  0.43085  0.72794  0.12068  1.0000
  C   C1042     1.0  0.45417  0.70278  0.13134  1.0000
  C   C1043     1.0  0.45734  0.68295  0.14191  1.0000
  C   C1044     1.0  0.41255  0.69252  0.12893  1.0000
  C   C1045     1.0  0.44558  0.74136  0.11165  1.0000
  C   C1046     1.0  0.44738  0.71639  0.17105  1.0000
  C   C1047     1.0  0.44861  0.73004  0.18598  1.0000
  C   C1048     1.0  0.40091  0.67671  0.13784  1.0000
  H   H1829     1.0  0.49320  0.84081  0.11792  1.0000
  H   H1830     1.0  0.40857  0.71263  0.14974  1.0000
  H   H1831     1.0  0.42399  0.69314  0.15603  1.0000
  H   H1832     1.0  0.45176  0.73635  0.14773  1.0000
  H   H1833     1.0  0.42785  0.73614  0.15611  1.0000
  H   H1834     1.0  0.41793  0.73679  0.12469  1.0000
  H   H1835     1.0  0.42713  0.71988  0.10915  1.0000
  H   H1836     1.0  0.45417  0.70033  0.11621  1.0000
  H   H1837     1.0  0.46686  0.71050  0.13242  1.0000
  H   H1838     1.0  0.44715  0.67345  0.13790  1.0000
  H   H1839     1.0  0.45563  0.68321  0.15733  1.0000
  H   H1840     1.0  0.40326  0.70228  0.12014  1.0000
  H   H1841     1.0  0.42384  0.68641  0.11943  1.0000
  H   H1842     1.0  0.45925  0.73361  0.10827  1.0000
  H   H1843     1.0  0.44792  0.75215  0.12115  1.0000
  H   H1844     1.0  0.43780  0.70572  0.17705  1.0000
  H   H1845     1.0  0.46169  0.70960  0.16849  1.0000
  H   H1846     1.0  0.43447  0.73653  0.19001  1.0000
  H   H1847     1.0  0.45444  0.72240  0.19871  1.0000
  H   H1848     1.0  0.45794  0.74124  0.18067  1.0000
  H   H1849     1.0  0.40995  0.66560  0.14540  1.0000
  H   H1850     1.0  0.38969  0.68223  0.14783  1.0000
  H   H1851     1.0  0.39419  0.67035  0.12672  1.0000
  H   H1852     1.0  0.29738  0.53927  0.18666  1.0000
  H   H1853     1.0  0.29899  0.71490  0.02151  1.0000
  H   H1854     1.0  0.29336  0.68578  0.00607  1.0000
  N   N61       1.0  0.32564  0.84020  0.26226  1.0000
  C   C1049     1.0  0.43895  0.75178  0.09343  1.0000
  H   H1855     1.0  0.38221  0.62370  0.03005  1.0000
  C   C1050     1.0  0.30938  0.82800  0.26251  1.0000
  C   C1051     1.0  0.29414  0.82955  0.27905  1.0000
  H   H1856     1.0  0.32686  0.81237  0.29447  1.0000
  H   H1857     1.0  0.27377  0.69374  0.02126  1.0000
  C   C1052     1.0  0.45506  0.84882  0.18501  1.0000
  C   C1053     1.0  0.28114  0.81360  0.28008  1.0000
  H   H1858     1.0  0.43595  0.83838  0.20759  1.0000
  C   C1054     1.0  0.30584  0.55585  0.13952  1.0000
  C   C1055     1.0  0.35265  0.96692  0.31524  1.0000
  C   C1056     1.0  0.44049  0.82340  0.24364  1.0000
  H   H1859     1.0  0.46942  0.81291  0.24187  1.0000
  H   H1860     1.0  0.30174  0.83114  0.24946  1.0000
  H   H1861     1.0  0.31472  0.81297  0.26229  1.0000
  H   H1862     1.0  0.28530  0.84294  0.27711  1.0000
  H   H1863     1.0  0.40817  0.51296  0.00074  1.0000
  H   H1864     1.0  0.29559  0.86444  0.25375  1.0000
  H   H1865     1.0  0.33181  0.81643  0.23313  1.0000
  C   C1057     1.0  0.36233  0.98908  0.28927  1.0000
  H   H1866     1.0  0.27719  0.64367  0.18964  1.0000
  H   H1867     1.0  0.39412  0.60895  0.04800  1.0000
  S   S245      1.0  0.30719  0.86383  0.32248  1.0000
  C   C1058     1.0  0.43870  0.86160  0.17736  1.0000
  H   H1868     1.0  0.46763  0.85702  0.18335  1.0000
  H   H1869     1.0  0.36686  0.82202  0.29997  1.0000
  C   C1059     1.0  0.34715  0.92851  0.01267  1.0000
  H   H1870     1.0  0.39517  0.59307  0.01887  1.0000
  C   C1060     1.0  0.35002  0.54488  0.01321  1.0000
  H   H1871     1.0  0.35806  0.59749  0.14665  1.0000
  H   H1872     1.0  0.34444  0.58778  0.16699  1.0000
  H   H1873     1.0  0.45783  0.83702  0.17607  1.0000
  C   C1061     1.0  0.31370  0.57511  0.11026  1.0000
  H   H1874     1.0  0.35986  0.50384  0.12664  1.0000
  H   H1875     1.0  0.35907  0.92698  0.00197  1.0000
  H   H1876     1.0  0.32509  0.68650  0.01557  1.0000
  H   H1877     1.0  0.45900  0.77416  0.19087  1.0000
  C   C1062     1.0  0.48126  0.89710  0.00084  1.0000
  H   H1878     1.0  0.34608  0.51562  0.02221  1.0000
  H   H1879     1.0  0.28913  0.79981  0.28300  1.0000
  H   H1880     1.0  0.31835  0.96393  0.27350  1.0000
  H   H1881     1.0  0.31687  0.98900  0.29418  1.0000
  H   H1882     1.0  0.34875  0.57293  0.12436  1.0000
  H   H1883     1.0  0.48999  0.51368  0.16214  1.0000
  H   H1884     1.0  0.34133  0.54978  0.10477  1.0000
  H   H1885     1.0  0.32521  0.58055  0.10050  1.0000
  H   H1886     1.0  0.30625  0.58764  0.11628  1.0000
  H   H1887     1.0  0.36893  0.61132  0.04905  1.0000
  C   C1063     1.0  0.45328  0.96071  0.99841  1.0000
  H   H1888     1.0  0.40201  0.94701  0.28851  1.0000
  C   C1064     1.0  0.32033  0.85849  0.27084  1.0000
  H   H1889     1.0  0.32924  0.60140  0.12862  1.0000
  H   H1890     1.0  0.48732  0.81672  0.12080  1.0000
  H   H1891     1.0  0.28881  0.55962  0.10724  1.0000
  H   H1892     1.0  0.48692  0.82463  0.19318  1.0000
  H   H1893     1.0  0.39927  0.56354  0.01187  1.0000
  H   H1894     1.0  0.42260  0.95598  0.29632  1.0000
  H   H1895     1.0  0.28158  0.59339  0.09508  1.0000
  H   H1896     1.0  0.39378  0.96413  0.31639  1.0000
  H   H1897     1.0  0.31342  0.88057  0.24866  1.0000
  C   C1065     1.0  0.47697  0.67404  0.13698  1.0000
  H   H1898     1.0  0.34710  0.81717  0.26546  1.0000
  H   H1899     1.0  0.29447  0.56744  0.14013  1.0000
  H   H1900     1.0  0.27854  0.57682  0.07839  1.0000
  C   C1066     1.0  0.26373  0.59919  0.15117  1.0000
  C   C1067     1.0  0.33751  0.82283  0.29323  1.0000
  N   N62       1.0  0.33544  0.70717  0.03185  1.0000
  C   C1068     1.0  0.32162  0.69311  0.02888  1.0000
  C   C1069     1.0  0.35430  0.69673  0.03490  1.0000
  C   C1070     1.0  0.32907  0.71609  0.04980  1.0000
  C   C1071     1.0  0.33674  0.72242  0.01585  1.0000
  C   C1072     1.0  0.29381  0.54260  0.17184  1.0000
  H   H1901     1.0  0.49098  0.94880  0.00704  1.0000
  C   C1073     1.0  0.34181  0.73062  0.05595  1.0000
  C   C1074     1.0  0.36417  0.68712  0.01800  1.0000
  C   C1075     1.0  0.38133  0.67445  0.02389  1.0000
  H   H1902     1.0  0.44217  0.86650  0.16245  1.0000
  C   C1076     1.0  0.36498  0.59537  0.01534  1.0000
  C   C1077     1.0  0.33238  0.74080  0.07238  1.0000
  H   H1903     1.0  0.32264  0.68106  0.03979  1.0000
  H   H1904     1.0  0.39156  0.68269  0.02985  1.0000
  H   H1905     1.0  0.36453  0.70630  0.03867  1.0000
  H   H1906     1.0  0.35301  0.68591  0.04710  1.0000
  H   H1907     1.0  0.32743  0.70504  0.06172  1.0000
  H   H1908     1.0  0.31504  0.72375  0.04853  1.0000
  H   H1909     1.0  0.32618  0.73438  0.01836  1.0000
  H   H1910     1.0  0.35059  0.72849  0.01533  1.0000
  H   H1911     1.0  0.30481  0.89435  0.27910  1.0000
  H   H1912     1.0  0.30687  0.55743  0.08854  1.0000
  C   C1078     1.0  0.31946  0.97854  0.26706  1.0000
  H   H1913     1.0  0.47870  0.65972  0.14432  1.0000
  H   H1914     1.0  0.34508  0.74139  0.04430  1.0000
  H   H1915     1.0  0.35516  0.72361  0.06079  1.0000
  H   H1916     1.0  0.35483  0.67833  0.01168  1.0000
  H   H1917     1.0  0.29897  0.58997  0.07584  1.0000
  H   H1918     1.0  0.46737  0.89490  0.00697  1.0000
  H   H1919     1.0  0.37710  0.66305  0.03455  1.0000
  H   H1920     1.0  0.38825  0.66787  0.01150  1.0000
  N   N63       1.0  0.32171  0.56156  0.12564  1.0000
  H   H1921     1.0  0.27419  0.81369  0.26672  1.0000
  C   C1079     1.0  0.46893  0.78942  0.21260  1.0000
  C   C1080     1.0  0.41181  0.94576  0.29996  1.0000
  C   C1081     1.0  0.40294  0.99411  0.00415  1.0000
  H   H1922     1.0  0.34989  0.93102  0.10143  1.0000
  H   H1923     1.0  0.29004  0.52952  0.16636  1.0000
  H   H1924     1.0  0.42585  0.85384  0.17802  1.0000
  C   C1082     1.0  0.34382  0.59728  0.15387  1.0000
  C   C1083     1.0  0.34840  0.91233  0.02811  1.0000
  H   H1925     1.0  0.37025  0.92617  0.03936  1.0000
  H   H1926     1.0  0.33857  0.95085  0.08823  1.0000
  H   H1927     1.0  0.33261  0.83458  0.30182  1.0000
  H   H1928     1.0  0.36469  0.93645  0.06900  1.0000
  C   C1084     1.0  0.45085  0.84197  0.20602  1.0000
  C   C1085     1.0  0.46085  0.82487  0.23510  1.0000
  H   H1929     1.0  0.27181  0.84775  0.32228  1.0000
  H   H1930     1.0  0.35058  0.82233  0.20265  1.0000
  H   H1931     1.0  0.33613  0.91401  0.03831  1.0000
  H   H1932     1.0  0.43142  0.83602  0.23900  1.0000
  H   H1933     1.0  0.35195  0.53529  0.13731  1.0000
  C   C1086     1.0  0.40084  0.96077  0.00036  1.0000
  H   H1934     1.0  0.46835  0.75949  0.21030  1.0000
  C   C1087     1.0  0.34126  0.93531  0.08927  1.0000
  H   H1935     1.0  0.32760  0.92895  0.09170  1.0000
  H   H1936     1.0  0.44546  0.77180  0.21313  1.0000
  H   H1937     1.0  0.34274  0.93466  0.05940  1.0000
  H   H1938     1.0  0.33455  0.98079  0.26402  1.0000
  H   H1939     1.0  0.36797  0.52335  0.02821  1.0000
  H   H1940     1.0  0.47914  0.67286  0.12162  1.0000
  C   C1088     1.0  0.34171  0.52946  0.12904  1.0000
  C   C1089     1.0  0.34093  0.82830  0.23105  1.0000
  C   C1090     1.0  0.35746  0.56242  0.02044  1.0000
  H   H1941     1.0  0.35220  0.59988  0.02415  1.0000
  H   H1942     1.0  0.43583  0.87405  0.18556  1.0000
  H   H1943     1.0  0.30011  0.82928  0.29288  1.0000
  C   C1091     1.0  0.40152  0.97545  0.01194  1.0000
  H   H1944     1.0  0.44807  0.80940  0.27071  1.0000
  H   H1945     1.0  0.32132  0.85241  0.23394  1.0000
  H   H1946     1.0  0.35505  0.82323  0.23563  1.0000
  C   C1092     1.0  0.26565  0.62196  0.12373  1.0000
  H   H1947     1.0  0.31236  0.98017  0.25368  1.0000
  H   H1948     1.0  0.33155  0.52182  0.13865  1.0000
  H   H1949     1.0  0.27073  0.59030  0.16199  1.0000
  C   C1093     1.0  0.33000  0.59087  0.14099  1.0000
  H   H1950     1.0  0.33388  0.92847  0.00562  1.0000
  H   H1951     1.0  0.31600  0.59092  0.14860  1.0000
  C   C1094     1.0  0.30072  0.70082  0.02929  1.0000
  H   H1952     1.0  0.46599  0.83772  0.24001  1.0000
  H   H1953     1.0  0.28712  0.87784  0.28468  1.0000
  H   H1954     1.0  0.35179  0.84644  0.20727  1.0000
  H   H1955     1.0  0.32938  0.83768  0.20412  1.0000
  C   C1095     1.0  0.45778  0.80809  0.20651  1.0000
  H   H1956     1.0  0.35204  0.80892  0.31684  1.0000
  H   H1957     1.0  0.48333  0.78924  0.20576  1.0000
  C   C1096     1.0  0.38190  0.59353  0.02784  1.0000
  H   H1958     1.0  0.28899  0.67383  0.02923  1.0000
  H   H1959     1.0  0.46957  0.78719  0.22804  1.0000
  H   H1960     1.0  0.45851  0.94567  0.03563  1.0000
  H   H1961     1.0  0.48565  0.84437  0.20661  1.0000
  S   S246      1.0  0.44156  0.50320  0.06141  1.0000
  C   C1097     1.0  0.39362  0.55916  0.99915  1.0000
  H   H1962     1.0  0.43872  0.96735  0.99845  1.0000
  H   H1963     1.0  0.46031  0.96856  0.00811  1.0000
  S   S247      1.0  0.34820  0.94403  0.32527  1.0000
  H   H1964     1.0  0.45167  0.84339  0.30838  1.0000
  S   S248      1.0  0.47372  0.50041  0.10130  1.0000
  C   C1098     1.0  0.28854  0.68770  0.02090  1.0000
  C   C1099     1.0  0.48868  0.50159  0.15383  1.0000
  H   H1965     1.0  0.36758  0.60751  0.00495  1.0000
  H   H1966     1.0  0.46549  0.93197  0.00492  1.0000
  H   H1967     1.0  0.29530  0.98978  0.28282  1.0000
  C   C1100     1.0  0.34901  0.98204  0.32650  1.0000
  C   C1101     1.0  0.42007  0.50328  0.99745  1.0000
  H   H1968     1.0  0.49081  0.97346  0.00042  1.0000
  H   H1969     1.0  0.27117  0.90138  0.32635  1.0000
  C   C1102     1.0  0.25115  0.64184  0.17625  1.0000
  Fe  Fe126     1.0  0.37732  0.87876  0.32914  1.0000
  H   H1970     1.0  0.38862  0.54496  0.00276  1.0000
  H   H1971     1.0  0.41994  0.89619  0.32888  1.0000
  C   C1103     1.0  0.44688  0.84483  0.32329  1.0000
  H   H1972     1.0  0.24918  0.65722  0.17325  1.0000
  H   H1973     1.0  0.43299  0.85296  0.32371  1.0000
  H   H1974     1.0  0.46129  0.86941  0.32567  1.0000
  H   H1975     1.0  0.49717  0.80517  0.22528  1.0000
  S   S249      1.0  0.48489  0.90017  0.57259  1.0000
  S   S250      1.0  0.39874  0.86737  0.35024  1.0000
  S   S251      1.0  0.47077  0.86332  0.61554  1.0000
  C   C1104     1.0  0.41965  0.94690  0.36809  1.0000
  H   H1976     1.0  0.39832  0.94082  0.61784  1.0000
  H   H1977     1.0  0.38154  0.96872  0.34536  1.0000
  S   S252      1.0  0.46912  0.90976  0.36853  1.0000
  C   C1105     1.0  0.25900  0.83503  0.54372  1.0000
  C   C1106     1.0  0.27457  0.84834  0.33683  1.0000
  H   H1978     1.0  0.45751  0.97016  0.38030  1.0000
  C   C1107     1.0  0.39184  0.93321  0.35749  1.0000
  H   H1979     1.0  0.44357  0.96031  0.35304  1.0000
  H   H1980     1.0  0.42178  0.97702  0.55807  1.0000
  C   C1108     1.0  0.28112  0.86146  0.64091  1.0000
  C   C1109     1.0  0.28320  0.84186  0.64436  1.0000
  C   C1110     1.0  0.27014  0.83052  0.63794  1.0000
  C   C1111     1.0  0.48318  0.93540  0.52986  1.0000
  H   H1981     1.0  0.46898  0.82236  0.40032  1.0000
  C   C1112     1.0  0.26570  0.86941  0.63094  1.0000
  C   C1113     1.0  0.25787  0.78392  0.58358  1.0000
  H   H1982     1.0  0.40212  0.91606  0.38219  1.0000
  H   H1983     1.0  0.44512  0.83070  0.33067  1.0000
  H   H1984     1.0  0.38486  0.96793  0.64799  1.0000
  H   H1985     1.0  0.27952  0.91733  0.34133  1.0000
  C   C1114     1.0  0.26144  0.84174  0.35111  1.0000
  C   C1115     1.0  0.28148  0.84955  0.37440  1.0000
  C   C1116     1.0  0.29466  0.85604  0.36013  1.0000
  H   H1986     1.0  0.48120  0.98288  0.49167  1.0000
  H   H1987     1.0  0.49617  0.95529  0.40400  1.0000
  N   N64       1.0  0.49477  0.85223  0.34335  1.0000
  C   C1117     1.0  0.48394  0.95071  0.46827  1.0000
  H   H1988     1.0  0.28889  0.81372  0.53825  1.0000
  H   H1989     1.0  0.48476  0.88149  0.33872  1.0000
  C   C1118     1.0  0.47649  0.98720  0.59528  1.0000
  C   C1119     1.0  0.44987  0.89734  0.36383  1.0000
  C   C1120     1.0  0.44212  0.88391  0.37686  1.0000
  C   C1121     1.0  0.42641  0.87490  0.37254  1.0000
  C   C1122     1.0  0.41811  0.87946  0.35534  1.0000
  H   H1990     1.0  0.48840  0.96186  0.51505  1.0000
  C   C1123     1.0  0.44184  0.90155  0.34648  1.0000
  H   H1991     1.0  0.44812  0.88056  0.39029  1.0000
  H   H1992     1.0  0.42055  0.86446  0.38266  1.0000
  H   H1993     1.0  0.41879  0.91217  0.61059  1.0000
  H   H1994     1.0  0.42348  0.94692  0.65192  1.0000
  H   H1995     1.0  0.30064  0.83717  0.58210  1.0000
  H   H1996     1.0  0.36776  0.99551  0.38714  1.0000
  H   H1997     1.0  0.49131  0.88598  0.52885  1.0000
  C   C1124     1.0  0.44764  0.87297  0.62047  1.0000
  C   C1125     1.0  0.43497  0.86260  0.63226  1.0000
  C   C1126     1.0  0.41668  0.87041  0.63679  1.0000
  C   C1127     1.0  0.41091  0.88849  0.62931  1.0000
  C   C1128     1.0  0.44176  0.89097  0.61289  1.0000
  H   H1998     1.0  0.24887  0.83597  0.34748  1.0000
  H   H1999     1.0  0.25224  0.91219  0.36421  1.0000
  H   H2000     1.0  0.31691  0.82040  0.51744  1.0000
  C   C1129     1.0  0.42338  0.89851  0.61702  1.0000
  C   C1130     1.0  0.26033  0.79865  0.56693  1.0000
  C   C1131     1.0  0.26479  0.84233  0.37005  1.0000
  H   H2001     1.0  0.43147  0.98647  0.62140  1.0000
  H   H2002     1.0  0.46824  0.99215  0.58353  1.0000
  H   H2003     1.0  0.30740  0.86147  0.36380  1.0000
  H   H2004     1.0  0.27970  0.84089  0.59674  1.0000
  C   C1132     1.0  0.27583  0.84913  0.56697  1.0000
  H   H2005     1.0  0.34366  0.97939  0.34093  1.0000
  H   H2006     1.0  0.27150  0.77978  0.58980  1.0000
  H   H2007     1.0  0.32947  0.81481  0.53854  1.0000
  C   C1133     1.0  0.48468  0.94800  0.51147  1.0000
  C   C1134     1.0  0.49235  0.99383  0.62242  1.0000
  H   H2008     1.0  0.47841  0.92155  0.52734  1.0000
  H   H2009     1.0  0.43938  0.84857  0.63797  1.0000
  H   H2010     1.0  0.43457  0.95541  0.56624  1.0000
  H   H2011     1.0  0.39730  0.92135  0.34911  1.0000
  H   H2012     1.0  0.37215  0.90354  0.39397  1.0000
  H   H2013     1.0  0.42760  0.93296  0.36713  1.0000
  C   C1135     1.0  0.26601  0.81736  0.57337  1.0000
  N   N65       1.0  0.41847  0.95989  0.62389  1.0000
  H   H2014     1.0  0.45566  0.92083  0.65402  1.0000
  C   C1136     1.0  0.42882  0.94575  0.63714  1.0000
  H   H2015     1.0  0.29491  0.83544  0.65195  1.0000
  C   C1137     1.0  0.48102  0.99458  0.54096  1.0000
  H   H2016     1.0  0.37283  0.96293  0.37866  1.0000
  H   H2017     1.0  0.29923  0.81297  0.55996  1.0000
  H   H2018     1.0  0.25674  0.82195  0.53725  1.0000
  H   H2019     1.0  0.27496  0.84404  0.51771  1.0000
  H   H2020     1.0  0.24810  0.88923  0.38674  1.0000
  C   C1138     1.0  0.42767  0.95821  0.60438  1.0000
  C   C1139     1.0  0.49315  0.96193  0.61350  1.0000
  C   C1140     1.0  0.48261  0.96821  0.59816  1.0000
  H   H2021     1.0  0.27645  0.81350  0.58410  1.0000
  C   C1141     1.0  0.25270  0.85807  0.62442  1.0000
  C   C1142     1.0  0.42981  0.96990  0.56974  1.0000
  C   C1143     1.0  0.39849  0.95477  0.62356  1.0000
  H   H2022     1.0  0.28182  0.85986  0.55666  1.0000
  H   H2023     1.0  0.37781  0.89871  0.36995  1.0000
  C   C1144     1.0  0.29179  0.82272  0.54941  1.0000
  H   H2024     1.0  0.27098  0.79271  0.55666  1.0000
  H   H2025     1.0  0.46569  0.84759  0.39674  1.0000
  H   H2026     1.0  0.44227  0.97777  0.57099  1.0000
  C   C1145     1.0  0.45045  0.94652  0.63590  1.0000
  H   H2027     1.0  0.31280  0.84287  0.55220  1.0000
  S   S253      1.0  0.34990  0.89284  0.33978  1.0000
  H   H2028     1.0  0.47732  0.86412  0.36606  1.0000
  C   C1146     1.0  0.38893  0.92401  0.37786  1.0000
  C   C1147     1.0  0.41744  0.96941  0.58804  1.0000
  H   H2029     1.0  0.46717  0.83126  0.36700  1.0000
  H   H2030     1.0  0.45449  0.96121  0.63490  1.0000
  H   H2031     1.0  0.45669  0.93997  0.62318  1.0000
  H   H2032     1.0  0.44206  0.96307  0.60351  1.0000
  C   C1148     1.0  0.28795  0.84685  0.58427  1.0000
  C   C1149     1.0  0.27122  0.90496  0.34110  1.0000
  H   H2033     1.0  0.33285  0.83637  0.52410  1.0000
  H   H2034     1.0  0.45408  0.94547  0.38389  1.0000
  C   C1150     1.0  0.29131  0.85549  0.34121  1.0000
  Fe  Fe127     1.0  0.36585  0.89018  0.65700  1.0000
  H   H2035     1.0  0.47295  0.98164  0.41119  1.0000
  H   H2036     1.0  0.30021  0.84817  0.53161  1.0000
  C   C1151     1.0  0.46078  0.85509  0.33296  1.0000
  H   H2037     1.0  0.28165  0.87571  0.59143  1.0000
  H   H2038     1.0  0.36013  0.91726  0.37544  1.0000
  C   C1152     1.0  0.32235  0.82633  0.52957  1.0000
  H   H2039     1.0  0.39282  0.94336  0.65292  1.0000
  C   C1153     1.0  0.36676  0.94863  0.63973  1.0000
  C   C1154     1.0  0.47587  0.93158  0.46653  1.0000
  H   H2040     1.0  0.47450  0.98208  0.54812  1.0000
  C   C1155     1.0  0.38393  0.97258  0.37422  1.0000
  H   H2041     1.0  0.27205  0.81542  0.64071  1.0000
  H   H2042     1.0  0.26635  0.86324  0.53160  1.0000
  C   C1156     1.0  0.45776  0.93430  0.45629  1.0000
  H   H2043     1.0  0.45510  0.85648  0.34758  1.0000
  H   H2044     1.0  0.25341  0.82390  0.58103  1.0000
  H   H2045     1.0  0.47247  0.95936  0.47529  1.0000
  H   H2046     1.0  0.26182  0.85564  0.57174  1.0000
  C   C1157     1.0  0.42015  0.98311  0.64981  1.0000
  H   H2047     1.0  0.44803  0.91160  0.33618  1.0000
  H   H2048     1.0  0.49053  0.82172  0.37158  1.0000
  H   H2049     1.0  0.42735  0.97635  0.36527  1.0000
  S   S254      1.0  0.49113  0.88107  0.46076  1.0000
  H   H2050     1.0  0.47072  0.94950  0.50559  1.0000
  H   H2051     1.0  0.35884  0.94654  0.65353  1.0000
  H   H2052     1.0  0.35906  0.95993  0.63102  1.0000
  H   H2053     1.0  0.47257  0.92422  0.48054  1.0000
  Fe  Fe128     1.0  0.49064  0.88333  0.59998  1.0000
  H   H2054     1.0  0.38477  0.93456  0.38801  1.0000
  H   H2055     1.0  0.30186  0.86367  0.60188  1.0000
  C   C1158     1.0  0.37462  0.99260  0.37321  1.0000
  C   C1159     1.0  0.47561  0.83519  0.39422  1.0000
  C   C1160     1.0  0.49140  0.88396  0.49885  1.0000
  Fe  Fe129     1.0  0.49268  0.92431  0.58729  1.0000
  H   H2056     1.0  0.45130  0.89899  0.60361  1.0000
  H   H2057     1.0  0.41355  0.94660  0.38275  1.0000
  H   H2058     1.0  0.45266  0.92035  0.45472  1.0000
  H   H2059     1.0  0.44675  0.94261  0.46437  1.0000
  H   H2060     1.0  0.46025  0.94158  0.44206  1.0000
  N   N66       1.0  0.27357  0.83124  0.55808  1.0000
  C   C1161     1.0  0.39319  0.96795  0.35488  1.0000
  H   H2061     1.0  0.47680  0.88109  0.49935  1.0000
  H   H2062     1.0  0.43834  0.96221  0.39581  1.0000
  S   S255      1.0  0.33802  0.90666  0.65401  1.0000
  H   H2063     1.0  0.42951  0.94321  0.60117  1.0000
  H   H2064     1.0  0.40462  0.96260  0.58548  1.0000
  C   C1162     1.0  0.30642  0.83651  0.54091  1.0000
  H   H2065     1.0  0.28432  0.85002  0.38896  1.0000
  H   H2066     1.0  0.43433  0.97839  0.65447  1.0000
  C   C1163     1.0  0.43424  0.96191  0.36593  1.0000
  H   H2067     1.0  0.47285  0.94206  0.54000  1.0000
  H   H2068     1.0  0.26386  0.88451  0.62815  1.0000
  S   S256      1.0  0.29731  0.87667  0.64840  1.0000
  H   H2069     1.0  0.39051  0.96505  0.61397  1.0000
  C   C1164     1.0  0.29406  0.86571  0.58892  1.0000
  H   H2070     1.0  0.42605  0.93122  0.63446  1.0000
  H   H2071     1.0  0.46357  0.88680  0.65317  1.0000
  C   C1165     1.0  0.37380  0.91007  0.37934  1.0000
  H   H2072     1.0  0.24939  0.86428  0.50314  1.0000
  H   H2073     1.0  0.48172  0.99381  0.52554  1.0000
  H   H2074     1.0  0.47474  0.93592  0.65103  1.0000
  C   C1166     1.0  0.44676  0.95975  0.38252  1.0000
  C   C1167     1.0  0.38655  0.95395  0.64243  1.0000
  H   H2075     1.0  0.30339  0.87182  0.57731  1.0000
  N   N67       1.0  0.40452  0.94930  0.35424  1.0000
  S   S257      1.0  0.47728  0.95266  0.58222  1.0000
  H   H2076     1.0  0.48612  0.95777  0.45382  1.0000
  C   C1168     1.0  0.41907  0.97994  0.62876  1.0000
  C   C1169     1.0  0.26313  0.84963  0.52695  1.0000
  Fe  Fe130     1.0  0.48964  0.90330  0.39170  1.0000
  H   H2077     1.0  0.36719  0.93535  0.63285  1.0000
  H   H2078     1.0  0.27824  0.89300  0.34956  1.0000
  C   C1170     1.0  0.42594  0.89283  0.34231  1.0000
  C   C1171     1.0  0.48058  0.84453  0.33221  1.0000
  H   H2079     1.0  0.39429  0.97159  0.38507  1.0000
  H   H2080     1.0  0.40701  0.86244  0.64585  1.0000
  S   S258      1.0  0.38840  0.89940  0.63481  1.0000
  H   H2081     1.0  0.37774  0.93764  0.35229  1.0000
  H   H2082     1.0  0.40997  0.97531  0.65913  1.0000
  S   S259      1.0  0.24883  0.83430  0.38885  1.0000
  C   C1172     1.0  0.25482  0.83848  0.62787  1.0000
  C   C1173     1.0  0.48817  0.85238  0.36383  1.0000
  S   S260      1.0  0.49597  0.90806  0.61515  1.0000
  H   H2083     1.0  0.47924  0.82936  0.33659  1.0000
  H   H2084     1.0  0.48580  0.92231  0.45843  1.0000
  H   H2085     1.0  0.40181  0.97967  0.34923  1.0000
  H   H2086     1.0  0.41341  0.98411  0.59124  1.0000
  H   H2087     1.0  0.46576  0.86275  0.66273  1.0000
  C   C1174     1.0  0.25129  0.90935  0.34943  1.0000
  H   H2088     1.0  0.40674  0.98876  0.62341  1.0000
  H   H2089     1.0  0.48858  0.83618  0.40154  1.0000
  H   H2090     1.0  0.49692  0.93312  0.53630  1.0000
  C   C1175     1.0  0.49263  0.99666  0.42409  1.0000
  C   C1176     1.0  0.45924  0.93568  0.65284  1.0000
  H   H2091     1.0  0.48537  0.98858  0.46690  1.0000
  H   H2092     1.0  0.25242  0.77125  0.57879  1.0000
  S   S261      1.0  0.49082  0.91753  0.41828  1.0000
  C   C1177     1.0  0.48028  0.83399  0.37321  1.0000
  H   H2093     1.0  0.36377  0.99442  0.36275  1.0000
  C   C1178     1.0  0.48718  0.98157  0.41530  1.0000
  H   H2094     1.0  0.42318  0.96047  0.33144  1.0000
  C   C1179     1.0  0.49219  0.98601  0.48045  1.0000
  C   C1180     1.0  0.41406  0.94865  0.33480  1.0000
  H   H2095     1.0  0.42346  0.93557  0.33411  1.0000
  H   H2096     1.0  0.24776  0.78952  0.59454  1.0000
  C   C1181     1.0  0.48609  0.80093  0.84357  1.0000
  H   H2097     1.0  0.42604  0.75687  0.89593  1.0000
  S   S262      1.0  0.38641  0.52080  0.87840  1.0000
  Fe  Fe131     1.0  0.40221  0.88401  0.96565  1.0000
  S   S263      1.0  0.38943  0.88095  0.93807  1.0000
  H   H2098     1.0  0.47222  0.80589  0.84877  1.0000
  S   S264      1.0  0.41985  0.90835  0.96693  1.0000
  Fe  Fe132     1.0  0.29942  0.63626  0.88752  1.0000
  S   S265      1.0  0.33050  0.63025  0.88009  1.0000
  S   S266      1.0  0.27896  0.63270  0.86482  1.0000
  Fe  Fe133     1.0  0.30683  0.64644  0.92700  1.0000
  S   S267      1.0  0.33773  0.64118  0.92200  1.0000
  S   S268      1.0  0.29388  0.65267  0.95598  1.0000
  Fe  Fe134     1.0  0.33473  0.65686  0.89351  1.0000
  S   S269      1.0  0.35994  0.67470  0.88544  1.0000
  Fe  Fe135     1.0  0.33132  0.61540  0.90904  1.0000
  S   S270      1.0  0.34658  0.58854  0.92122  1.0000
  S   S271      1.0  0.30364  0.66394  0.89927  1.0000
  S   S272      1.0  0.30031  0.61966  0.91565  1.0000
  Fe  Fe136     1.0  0.40445  0.81489  0.81912  1.0000
  S   S273      1.0  0.41410  0.78560  0.81198  1.0000
  S   S274      1.0  0.39248  0.83949  0.79932  1.0000
  Fe  Fe137     1.0  0.41188  0.80528  0.86114  1.0000
  S   S275      1.0  0.42214  0.77546  0.85631  1.0000
  S   S276      1.0  0.41169  0.80938  0.89233  1.0000
  Fe  Fe138     1.0  0.43789  0.78818  0.83061  1.0000
  S   S277      1.0  0.46824  0.77796  0.82252  1.0000
  Fe  Fe139     1.0  0.39760  0.77529  0.83862  1.0000
  S   S278      1.0  0.37381  0.75519  0.84131  1.0000
  S   S279      1.0  0.42913  0.81802  0.83641  1.0000
  S   S280      1.0  0.38661  0.80461  0.84465  1.0000
  H   H2099     1.0  0.31459  0.98491  0.76753  1.0000
  S   S281      1.0  0.36801  0.89667  0.68681  1.0000
  H   H2100     1.0  0.33823  0.79354  0.89742  1.0000
  H   H2101     1.0  0.31431  0.60484  0.97816  1.0000
  S   S282      1.0  0.32392  0.88601  0.69435  1.0000
  H   H2102     1.0  0.30936  0.81922  0.74334  1.0000
  Fe  Fe140     1.0  0.33943  0.91170  0.68416  1.0000
  S   S283      1.0  0.32995  0.94106  0.69301  1.0000
  Fe  Fe141     1.0  0.35271  0.87051  0.69474  1.0000
  S   S284      1.0  0.36291  0.84652  0.71631  1.0000
  H   H2103     1.0  0.36433  0.79907  0.95376  1.0000
  H   H2104     1.0  0.47828  0.50081  0.91455  1.0000
  H   H2105     1.0  0.30710  0.53788  0.85574  1.0000
  C   C1182     1.0  0.34259  0.96144  0.68821  1.0000
  C   C1183     1.0  0.33263  0.97914  0.68573  1.0000
  C   C1184     1.0  0.37138  0.97731  0.68767  1.0000
  C   C1185     1.0  0.36210  0.96061  0.68886  1.0000
  H   H2106     1.0  0.31754  0.97994  0.68524  1.0000
  H   H2107     1.0  0.36993  0.94710  0.69091  1.0000
  C   C1186     1.0  0.38502  0.84138  0.77591  1.0000
  C   C1187     1.0  0.38852  0.82679  0.76417  1.0000
  C   C1188     1.0  0.38179  0.82871  0.74599  1.0000
  C   C1189     1.0  0.37173  0.84535  0.73911  1.0000
  C   C1190     1.0  0.36859  0.86012  0.75069  1.0000
  C   C1191     1.0  0.37519  0.85812  0.76894  1.0000
  H   H2108     1.0  0.39644  0.81401  0.76912  1.0000
  H   H2109     1.0  0.38445  0.81722  0.73714  1.0000
  H   H2110     1.0  0.36081  0.87297  0.74571  1.0000
  H   H2111     1.0  0.37248  0.86958  0.77782  1.0000
  H   H2112     1.0  0.40247  0.98674  0.95807  1.0000
  S   S285      1.0  0.46959  0.88612  0.96818  1.0000
  C   C1192     1.0  0.36326  0.69731  0.87338  1.0000
  C   C1193     1.0  0.34852  0.70911  0.86603  1.0000
  C   C1194     1.0  0.35203  0.72675  0.85641  1.0000
  C   C1195     1.0  0.37025  0.73296  0.85407  1.0000
  C   C1196     1.0  0.38495  0.72124  0.86157  1.0000
  C   C1197     1.0  0.38146  0.70361  0.87119  1.0000
  H   H2113     1.0  0.33445  0.70455  0.86754  1.0000
  H   H2114     1.0  0.34052  0.73557  0.85059  1.0000
  H   H2115     1.0  0.39910  0.72557  0.85965  1.0000
  H   H2116     1.0  0.39301  0.69465  0.87672  1.0000
  C   C1198     1.0  0.41106  0.85989  0.69525  1.0000
  H   H2117     1.0  0.41443  0.89570  0.69793  1.0000
  N   N68       1.0  0.30141  0.56440  0.86799  1.0000
  H   H2118     1.0  0.29944  0.59735  0.84078  1.0000
  H   H2119     1.0  0.33136  0.59590  0.82445  1.0000
  C   C1199     1.0  0.30722  0.64984  0.97608  1.0000
  H   H2120     1.0  0.37381  0.78921  0.88669  1.0000
  C   C1200     1.0  0.32649  0.65192  0.97462  1.0000
  H   H2121     1.0  0.44251  0.89564  0.68018  1.0000
  H   H2122     1.0  0.33348  0.65519  0.96099  1.0000
  C   C1201     1.0  0.39574  0.86107  0.92533  1.0000
  C   C1202     1.0  0.40302  0.84412  0.93420  1.0000
  C   C1203     1.0  0.40785  0.82852  0.92381  1.0000
  C   C1204     1.0  0.40550  0.82966  0.90443  1.0000
  C   C1205     1.0  0.39821  0.84659  0.89550  1.0000
  C   C1206     1.0  0.39323  0.86219  0.90596  1.0000
  H   H2123     1.0  0.40463  0.84295  0.94915  1.0000
  H   H2124     1.0  0.41337  0.81545  0.93087  1.0000
  H   H2125     1.0  0.39628  0.84764  0.88060  1.0000
  H   H2126     1.0  0.38748  0.87522  0.89900  1.0000
  H   H2127     1.0  0.31893  0.56626  0.84196  1.0000
  H   H2128     1.0  0.40322  0.88196  0.73908  1.0000
  H   H2129     1.0  0.32492  0.61824  0.83374  1.0000
  C   C1207     1.0  0.31611  0.57361  0.85499  1.0000
  H   H2130     1.0  0.45561  0.93520  0.97200  1.0000
  H   H2131     1.0  0.34953  0.99201  0.77209  1.0000
  C   C1208     1.0  0.32839  0.60304  0.83756  1.0000
  C   C1209     1.0  0.35727  0.57003  0.90868  1.0000
  C   C1210     1.0  0.36532  0.55416  0.91891  1.0000
  C   C1211     1.0  0.37453  0.53924  0.90969  1.0000
  C   C1212     1.0  0.37565  0.53994  0.89010  1.0000
  C   C1213     1.0  0.36779  0.55597  0.87979  1.0000
  C   C1214     1.0  0.35857  0.57099  0.88906  1.0000
  H   H2132     1.0  0.36452  0.55338  0.93409  1.0000
  H   H2133     1.0  0.38074  0.52717  0.91779  1.0000
  H   H2134     1.0  0.36881  0.55670  0.86461  1.0000
  H   H2135     1.0  0.35266  0.58333  0.88108  1.0000
  C   C1215     1.0  0.34256  0.79715  0.86758  1.0000
  N   N69       1.0  0.40048  0.60950  0.91479  1.0000
  C   C1216     1.0  0.38635  0.62175  0.92575  1.0000
  C   C1217     1.0  0.39375  0.60741  0.89561  1.0000
  C   C1218     1.0  0.40195  0.59026  0.92549  1.0000
  C   C1219     1.0  0.41969  0.61686  0.91311  1.0000
  C   C1220     1.0  0.42120  0.63703  0.90367  1.0000
  C   C1221     1.0  0.39108  0.62465  0.94601  1.0000
  C   C1222     1.0  0.41256  0.57416  0.91494  1.0000
  C   C1223     1.0  0.38262  0.62463  0.88579  1.0000
  C   C1224     1.0  0.37994  0.62174  0.86533  1.0000
  H   H2136     1.0  0.36900  0.76852  0.87724  1.0000
  C   C1225     1.0  0.37599  0.63766  0.95536  1.0000
  C   C1226     1.0  0.41582  0.55643  0.92823  1.0000
  H   H2137     1.0  0.37248  0.61570  0.92672  1.0000
  H   H2138     1.0  0.38388  0.63596  0.91841  1.0000
  H   H2139     1.0  0.40571  0.60280  0.88587  1.0000
  H   H2140     1.0  0.38397  0.59608  0.89657  1.0000
  H   H2141     1.0  0.38769  0.58563  0.92986  1.0000
  H   H2142     1.0  0.40907  0.59073  0.93869  1.0000
  H   H2143     1.0  0.42558  0.61601  0.92713  1.0000
  H   H2144     1.0  0.42970  0.60778  0.90472  1.0000
  H   H2145     1.0  0.41064  0.64726  0.90985  1.0000
  H   H2146     1.0  0.41950  0.63718  0.88839  1.0000
  H   H2147     1.0  0.39182  0.61114  0.95492  1.0000
  H   H2148     1.0  0.40459  0.63113  0.94596  1.0000
  H   H2149     1.0  0.42644  0.57800  0.90874  1.0000
  H   H2150     1.0  0.40433  0.57046  0.90345  1.0000
  H   H2151     1.0  0.36851  0.62657  0.89308  1.0000
  H   H2152     1.0  0.38939  0.63788  0.88599  1.0000
  H   H2153     1.0  0.39369  0.62038  0.85721  1.0000
  H   H2154     1.0  0.37240  0.60897  0.86444  1.0000
  H   H2155     1.0  0.37150  0.63407  0.85890  1.0000
  H   H2156     1.0  0.35636  0.70932  0.91183  1.0000
  C   C1227     1.0  0.39804  0.74723  0.89522  1.0000
  H   H2157     1.0  0.32765  0.80185  0.86556  1.0000
  H   H2158     1.0  0.36219  0.63160  0.95615  1.0000
  H   H2159     1.0  0.37961  0.63946  0.96985  1.0000
  H   H2160     1.0  0.37485  0.65171  0.94736  1.0000
  H   H2161     1.0  0.42489  0.55896  0.93951  1.0000
  H   H2162     1.0  0.40233  0.55157  0.93468  1.0000
  H   H2163     1.0  0.42295  0.54507  0.92026  1.0000
  H   H2164     1.0  0.45439  0.85939  0.73396  1.0000
  C   C1228     1.0  0.45954  0.84186  0.90461  1.0000
  C   C1229     1.0  0.45088  0.86987  0.92137  1.0000
  C   C1230     1.0  0.35754  0.74854  0.90853  1.0000
  H   H2165     1.0  0.34549  0.61313  0.98587  1.0000
  C   C1231     1.0  0.45318  0.83124  0.94547  1.0000
  H   H2166     1.0  0.48216  0.88795  0.92527  1.0000
  N   N70       1.0  0.42502  0.86741  0.70686  1.0000
  C   C1232     1.0  0.44836  0.88502  0.90460  1.0000
  C   C1233     1.0  0.43185  0.89922  0.90875  1.0000
  H   H2167     1.0  0.44120  0.83324  0.75538  1.0000
  C   C1234     1.0  0.44051  0.64385  0.90575  1.0000
  H   H2168     1.0  0.47336  0.79911  0.88584  1.0000
  H   H2169     1.0  0.45772  0.84987  0.89075  1.0000
  H   H2170     1.0  0.44533  0.83730  0.90916  1.0000
  H   H2171     1.0  0.43703  0.86401  0.92475  1.0000
  H   H2172     1.0  0.45328  0.87727  0.93386  1.0000
  H   H2173     1.0  0.32683  0.98555  0.79896  1.0000
  C   C1235     1.0  0.40979  0.55718  0.98420  1.0000
  H   H2174     1.0  0.39635  0.77437  0.90572  1.0000
  H   H2175     1.0  0.45876  0.83331  0.97471  1.0000
  H   H2176     1.0  0.45144  0.81970  0.93659  1.0000
  H   H2177     1.0  0.43976  0.83994  0.94663  1.0000
  H   H2178     1.0  0.34810  0.78915  0.85555  1.0000
  H   H2179     1.0  0.34112  0.60153  0.84570  1.0000
  H   H2180     1.0  0.28122  0.54638  0.84102  1.0000
  H   H2181     1.0  0.31702  0.51131  0.89359  1.0000
  H   H2182     1.0  0.46101  0.89299  0.90173  1.0000
  H   H2183     1.0  0.44565  0.87866  0.89165  1.0000
  H   H2184     1.0  0.41848  0.89240  0.90931  1.0000
  H   H2185     1.0  0.43305  0.90514  0.92234  1.0000
  H   H2186     1.0  0.43143  0.91089  0.89742  1.0000
  H   H2187     1.0  0.44998  0.85360  0.69384  1.0000
  H   H2188     1.0  0.44289  0.64458  0.92080  1.0000
  C   C1236     1.0  0.40241  0.98361  0.97313  1.0000
  C   C1237     1.0  0.31188  0.59484  0.84928  1.0000
  H   H2189     1.0  0.32642  0.50843  0.86975  1.0000
  H   H2190     1.0  0.33052  0.94255  0.74422  1.0000
  H   H2191     1.0  0.42919  0.89438  0.71675  1.0000
  H   H2192     1.0  0.47024  0.81279  0.96457  1.0000
  C   C1238     1.0  0.32695  0.60190  0.96868  1.0000
  N   N71       1.0  0.34243  0.79752  0.78770  1.0000
  C   C1239     1.0  0.35910  0.78571  0.77991  1.0000
  C   C1240     1.0  0.33468  0.81142  0.77238  1.0000
  C   C1241     1.0  0.34918  0.80864  0.80248  1.0000
  C   C1242     1.0  0.32742  0.78564  0.79703  1.0000
  C   C1243     1.0  0.31981  0.77159  0.78490  1.0000
  C   C1244     1.0  0.36883  0.77109  0.79408  1.0000
  C   C1245     1.0  0.33440  0.82307  0.81114  1.0000
  C   C1246     1.0  0.33592  0.80525  0.75209  1.0000
  C   C1247     1.0  0.32456  0.81925  0.73911  1.0000
  C   C1248     1.0  0.30670  0.75875  0.79676  1.0000
  C   C1249     1.0  0.38470  0.75933  0.78429  1.0000
  C   C1250     1.0  0.34342  0.83552  0.82354  1.0000
  H   H2193     1.0  0.36990  0.79500  0.77344  1.0000
  H   H2194     1.0  0.35534  0.77783  0.76833  1.0000
  H   H2195     1.0  0.31976  0.81597  0.77612  1.0000
  H   H2196     1.0  0.34229  0.82452  0.77108  1.0000
  H   H2197     1.0  0.36144  0.81630  0.79659  1.0000
  H   H2198     1.0  0.35425  0.79920  0.81457  1.0000
  H   H2199     1.0  0.33242  0.77772  0.81008  1.0000
  H   H2200     1.0  0.31501  0.79472  0.80184  1.0000
  H   H2201     1.0  0.33120  0.76242  0.77845  1.0000
  H   H2202     1.0  0.31155  0.77934  0.77375  1.0000
  H   H2203     1.0  0.37515  0.77816  0.80489  1.0000
  H   H2204     1.0  0.35882  0.76128  0.80110  1.0000
  H   H2205     1.0  0.32355  0.81565  0.82006  1.0000
  H   H2206     1.0  0.32737  0.83254  0.80023  1.0000
  H   H2207     1.0  0.35073  0.80472  0.74628  1.0000
  H   H2208     1.0  0.33077  0.79123  0.75147  1.0000
  H   H2209     1.0  0.32686  0.81535  0.72443  1.0000
  H   H2210     1.0  0.32903  0.83368  0.73946  1.0000
  H   H2211     1.0  0.30111  0.74906  0.78770  1.0000
  H   H2212     1.0  0.31438  0.75017  0.80790  1.0000
  H   H2213     1.0  0.29469  0.76713  0.80337  1.0000
  H   H2214     1.0  0.37917  0.75116  0.77376  1.0000
  H   H2215     1.0  0.39535  0.76847  0.77724  1.0000
  H   H2216     1.0  0.39165  0.74930  0.79488  1.0000
  H   H2217     1.0  0.35349  0.84429  0.81499  1.0000
  H   H2218     1.0  0.33246  0.84504  0.83025  1.0000
  H   H2219     1.0  0.35088  0.82688  0.83474  1.0000
  H   H2220     1.0  0.27988  0.58520  0.91895  1.0000
  C   C1251     1.0  0.45887  0.95188  0.94563  1.0000
  H   H2221     1.0  0.36601  0.96298  0.74741  1.0000
  C   C1252     1.0  0.41798  0.88709  0.71113  1.0000
  C   C1253     1.0  0.25849  0.62043  0.86283  1.0000
  C   C1254     1.0  0.44399  0.86804  0.69640  1.0000
  H   H2222     1.0  0.39008  0.91663  0.71337  1.0000
  H   H2223     1.0  0.33705  0.54078  0.86734  1.0000
  H   H2224     1.0  0.48764  0.72492  0.85838  1.0000
  C   C1255     1.0  0.38874  0.76143  0.90876  1.0000
  C   C1256     1.0  0.46917  0.84337  0.93713  1.0000
  H   H2225     1.0  0.29510  0.53604  0.87812  1.0000
  H   H2226     1.0  0.32975  0.57219  0.86163  1.0000
  C   C1257     1.0  0.43946  0.86069  0.73925  1.0000
  C   C1258     1.0  0.33822  0.73275  0.98086  1.0000
  C   C1259     1.0  0.30636  0.54348  0.86975  1.0000
  C   C1260     1.0  0.36467  0.77727  0.88901  1.0000
  C   C1261     1.0  0.34407  0.78486  0.88605  1.0000
  H   H2227     1.0  0.43267  0.84027  0.72137  1.0000
  H   H2228     1.0  0.27758  0.58345  0.86033  1.0000
  H   H2229     1.0  0.38865  0.88176  0.71980  1.0000
  H   H2230     1.0  0.40621  0.87060  0.68401  1.0000
  H   H2231     1.0  0.49602  0.86869  0.93645  1.0000
  H   H2232     1.0  0.42129  0.73674  0.91225  1.0000
  H   H2233     1.0  0.39183  0.73351  0.89757  1.0000
  H   H2234     1.0  0.38079  0.90981  0.73679  1.0000
  H   H2235     1.0  0.42546  0.73404  0.88748  1.0000
  H   H2236     1.0  0.30923  0.60275  0.86187  1.0000
  H   H2237     1.0  0.35274  0.93203  0.75172  1.0000
  H   H2238     1.0  0.34421  0.97800  0.72294  1.0000
  H   H2239     1.0  0.33509  0.77308  0.88549  1.0000
  C   C1262     1.0  0.49422  0.95945  0.99524  1.0000
  C   C1263     1.0  0.42680  0.85451  0.72464  1.0000
  S   S286      1.0  0.42326  0.86239  0.97777  1.0000
  C   C1264     1.0  0.47288  0.82432  0.90055  1.0000
  H   H2240     1.0  0.27156  0.56112  0.86994  1.0000
  H   H2241     1.0  0.32787  0.61385  0.95771  1.0000
  C   C1265     1.0  0.37751  0.57315  0.99177  1.0000
  C   C1266     1.0  0.34463  0.59972  0.97964  1.0000
  H   H2242     1.0  0.37234  0.56663  0.97977  1.0000
  H   H2243     1.0  0.45591  0.93774  0.92063  1.0000
  H   H2244     1.0  0.36433  0.80616  0.91079  1.0000
  H   H2245     1.0  0.31880  0.71418  0.99477  1.0000
  H   H2246     1.0  0.45695  0.81793  0.87740  1.0000
  C   C1267     1.0  0.36090  0.73420  0.92576  1.0000
  C   C1268     1.0  0.32773  0.51581  0.88249  1.0000
  H   H2247     1.0  0.44538  0.81401  0.97088  1.0000
  C   C1269     1.0  0.39360  0.90919  0.72711  1.0000
  H   H2248     1.0  0.42318  0.84995  0.76425  1.0000
  H   H2249     1.0  0.28332  0.64453  0.99526  1.0000
  H   H2250     1.0  0.29098  0.56742  0.83020  1.0000
  H   H2251     1.0  0.43577  0.87539  0.74251  1.0000
  H   H2252     1.0  0.35545  0.74037  0.93889  1.0000
  H   H2253     1.0  0.41272  0.85223  0.73169  1.0000
  C   C1270     1.0  0.48323  0.95639  0.97804  1.0000
  H   H2254     1.0  0.35330  0.73533  0.98048  1.0000
  H   H2255     1.0  0.45171  0.63430  0.89940  1.0000
  H   H2256     1.0  0.47782  0.81649  0.91354  1.0000
  H   H2257     1.0  0.45412  0.87364  0.70506  1.0000
  C   C1271     1.0  0.28015  0.56194  0.84062  1.0000
  C   C1272     1.0  0.40138  0.96491  0.98089  1.0000
  H   H2258     1.0  0.39641  0.75275  0.88043  1.0000
  H   H2259     1.0  0.34185  0.51172  0.88770  1.0000
  H   H2260     1.0  0.48560  0.94103  0.97632  1.0000
  H   H2261     1.0  0.44138  0.65813  0.89842  1.0000
  H   H2262     1.0  0.30293  0.57492  0.92485  1.0000
  C   C1273     1.0  0.46312  0.81065  0.89015  1.0000
  H   H2263     1.0  0.48240  0.83413  0.93644  1.0000
  H   H2264     1.0  0.33550  0.71991  0.92357  1.0000
  H   H2265     1.0  0.40064  0.95376  0.97185  1.0000
  N   N72       1.0  0.46598  0.85424  0.91841  1.0000
  H   H2266     1.0  0.35309  0.70652  0.93703  1.0000
  C   C1274     1.0  0.45293  0.95030  0.96696  1.0000
  C   C1275     1.0  0.46342  0.87751  0.66646  1.0000
  C   C1276     1.0  0.36086  0.77725  0.92381  1.0000
  H   H2267     1.0  0.36573  0.82122  0.93985  1.0000
  H   H2268     1.0  0.44739  0.85240  0.76771  1.0000
  H   H2269     1.0  0.36488  0.76952  0.93729  1.0000
  H   H2270     1.0  0.35223  0.51396  0.98364  1.0000
  H   H2271     1.0  0.42095  0.54687  0.98968  1.0000
  S   S287      1.0  0.41186  0.51097  0.96103  1.0000
  C   C1277     1.0  0.43767  0.84826  0.75772  1.0000
  C   C1278     1.0  0.44456  0.88057  0.67753  1.0000
  H   H2272     1.0  0.34465  0.80908  0.94063  1.0000
  H   H2273     1.0  0.39815  0.85694  0.70410  1.0000
  H   H2274     1.0  0.35045  0.80981  0.86782  1.0000
  C   C1279     1.0  0.45722  0.82230  0.96510  1.0000
  C   C1280     1.0  0.30087  0.57246  0.88680  1.0000
  C   C1281     1.0  0.29025  0.56140  0.90336  1.0000
  C   C1282     1.0  0.32556  0.53708  0.87790  1.0000
  C   C1283     1.0  0.28880  0.57185  0.92109  1.0000
  H   H2275     1.0  0.27581  0.55921  0.89997  1.0000
  H   H2276     1.0  0.31528  0.57387  0.89106  1.0000
  H   H2277     1.0  0.29418  0.58709  0.88581  1.0000
  H   H2278     1.0  0.29770  0.54747  0.90683  1.0000
  S   S288      1.0  0.38679  0.88850  0.99364  1.0000
  H   H2279     1.0  0.32755  0.54375  0.89088  1.0000
  H   H2280     1.0  0.40456  0.91649  0.73308  1.0000
  H   H2281     1.0  0.38639  0.97650  0.68875  1.0000
  S   S289      1.0  0.42840  0.50730  0.90887  1.0000
  H   H2282     1.0  0.45180  0.80437  0.89945  1.0000
  C   C1284     1.0  0.36018  0.80713  0.94053  1.0000
  H   H2283     1.0  0.39206  0.75607  0.92332  1.0000
  C   C1285     1.0  0.28223  0.56824  0.86045  1.0000
  H   H2284     1.0  0.36074  0.74119  0.89549  1.0000
  H   H2285     1.0  0.28225  0.56309  0.93297  1.0000
  H   H2286     1.0  0.34216  0.75221  0.90895  1.0000
  H   H2287     1.0  0.38369  0.79600  0.92389  1.0000
  C   C1286     1.0  0.41899  0.74354  0.89795  1.0000
  C   C1287     1.0  0.35082  0.71646  0.92443  1.0000
  H   H2288     1.0  0.34527  0.77879  0.92502  1.0000
  N   N73       1.0  0.36794  0.76610  0.90754  1.0000
  H   H2289     1.0  0.37598  0.72982  0.92694  1.0000
  C   C1288     1.0  0.36822  0.79707  0.92351  1.0000
  C   C1289     1.0  0.40032  0.88867  0.72490  1.0000
  H   H2290     1.0  0.43744  0.95333  0.96846  1.0000
  H   H2291     1.0  0.48533  0.82864  0.89157  1.0000
  H   H2292     1.0  0.44374  0.98633  0.96981  1.0000
  H   H2293     1.0  0.37716  0.51255  0.98609  1.0000
  C   C1290     1.0  0.24991  0.62233  0.84559  1.0000
  H   H2294     1.0  0.46537  0.98452  0.95602  1.0000
  C   C1291     1.0  0.42551  0.50030  0.97879  1.0000
  H   H2295     1.0  0.34630  0.96254  0.76458  1.0000
  Fe  Fe142     1.0  0.43998  0.88681  0.98076  1.0000
  H   H2296     1.0  0.47128  0.85316  0.94781  1.0000
  H   H2297     1.0  0.35108  0.94267  0.72809  1.0000
  H   H2298     1.0  0.42496  0.83101  0.69538  1.0000
  C   C1292     1.0  0.48604  0.89356  0.98219  1.0000
  H   H2299     1.0  0.45303  0.96543  0.93879  1.0000
  C   C1293     1.0  0.41775  0.84171  0.68570  1.0000
  C   C1294     1.0  0.34194  0.99585  0.68430  1.0000
  H   H2300     1.0  0.35684  0.59758  0.96945  1.0000
  H   H2301     1.0  0.38383  0.58610  0.98534  1.0000
  C   C1295     1.0  0.48804  0.78760  0.83039  1.0000
  H   H2302     1.0  0.49518  0.74589  0.84527  1.0000
  H   H2303     1.0  0.49041  0.96335  0.96528  1.0000
  C   C1296     1.0  0.29825  0.64605  0.99398  1.0000
  C   C1297     1.0  0.34589  0.94386  0.74295  1.0000
  H   H2304     1.0  0.30316  0.99601  0.79810  1.0000
  H   H2305     1.0  0.32519  0.97700  0.73985  1.0000
  C   C1298     1.0  0.45145  0.93626  0.93582  1.0000
  H   H2306     1.0  0.41590  0.57085  0.98037  1.0000
  C   C1299     1.0  0.45911  0.98268  0.97064  1.0000
  C   C1300     1.0  0.35058  0.96256  0.74940  1.0000
  Fe  Fe143     1.0  0.40660  0.91095  0.99594  1.0000
  C   C1301     1.0  0.34031  0.97935  0.73808  1.0000
  H   H2307     1.0  0.43589  0.93712  0.93731  1.0000
  H   H2308     1.0  0.45706  0.92223  0.94184  1.0000
  H   H2309     1.0  0.40486  0.55193  0.97146  1.0000
  H   H2310     1.0  0.43348  0.87762  0.66855  1.0000
  H   H2311     1.0  0.33509  0.72869  0.96690  1.0000
  H   H2312     1.0  0.26005  0.58454  0.83102  1.0000
  N   N74       1.0  0.46252  0.96257  0.97879  1.0000
  C   C1302     1.0  0.26106  0.56899  0.83346  1.0000
  C   C1303     1.0  0.33664  0.65019  0.99086  1.0000
  H   H2313     1.0  0.48284  0.86859  0.89611  1.0000
  C   C1304     1.0  0.48420  0.86185  0.91063  1.0000
  H   H2314     1.0  0.34036  0.57092  0.98792  1.0000
  H   H2315     1.0  0.36916  0.99650  0.72429  1.0000
  H   H2316     1.0  0.32542  0.58903  0.96159  1.0000
  H   H2317     1.0  0.25568  0.63133  0.83403  1.0000
  C   C1305     1.0  0.40128  0.83270  0.67870  1.0000
  H   H2318     1.0  0.35150  0.65192  0.98958  1.0000
  H   H2319     1.0  0.49527  0.85015  0.90916  1.0000
  H   H2320     1.0  0.39221  0.82703  0.69077  1.0000
  H   H2321     1.0  0.25930  0.56317  0.81993  1.0000
  H   H2322     1.0  0.40659  0.82095  0.67023  1.0000
  H   H2323     1.0  0.47508  0.88081  0.67467  1.0000
  H   H2324     1.0  0.42767  0.84502  0.67345  1.0000
  C   C1306     1.0  0.25077  0.60868  0.87760  1.0000
  H   H2325     1.0  0.39266  0.84308  0.66984  1.0000
  H   H2326     1.0  0.48265  0.99658  0.97952  1.0000
  H   H2327     1.0  0.47435  0.95092  0.94314  1.0000
  H   H2328     1.0  0.25709  0.60703  0.89096  1.0000
  H   H2329     1.0  0.34234  0.70415  0.99226  1.0000
  C   C1307     1.0  0.36133  0.99502  0.68570  1.0000
  Fe  Fe144     1.0  0.40272  0.49868  0.89685  1.0000
  H   H2330     1.0  0.37324  0.99167  0.74845  1.0000
  H   H2331     1.0  0.36798  0.50405  0.96585  1.0000
  C   C1308     1.0  0.49230  0.87580  0.92266  1.0000
  H   H2332     1.0  0.32955  0.74590  0.98366  1.0000
  H   H2333     1.0  0.45426  0.94221  0.66593  1.0000
  C   C1309     1.0  0.36557  0.50529  0.98120  1.0000
  S   S290      1.0  0.35227  0.86300  0.66461  1.0000
  H   H2334     1.0  0.24949  0.56462  0.84368  1.0000
  Fe  Fe145     1.0  0.32420  0.87999  0.66383  1.0000
  C   C1310     1.0  0.33366  0.71694  0.99587  1.0000
  C   C1311     1.0  0.34385  0.58313  0.99515  1.0000
  Fe  Fe146     1.0  0.62721  0.46952  0.08515  1.0000
  S   S291      1.0  0.60900  0.47846  0.11005  1.0000
  S   S292      1.0  0.65166  0.44737  0.08309  1.0000
  C   C1312     1.0  0.69304  0.36146  0.16282  1.0000
  H   H2335     1.0  0.67361  0.11172  0.19488  1.0000
  S   S293      1.0  0.60303  0.46999  0.06707  1.0000
  H   H2336     1.0  0.64739  0.21252  0.06962  1.0000
  C   C1313     1.0  0.59024  0.46474  0.00915  1.0000
  Fe  Fe147     1.0  0.58602  0.08421  0.03584  1.0000
  H   H2337     1.0  0.51231  0.09862  0.06645  1.0000
  S   S294      1.0  0.58482  0.10983  0.05275  1.0000
  Fe  Fe148     1.0  0.55965  0.05511  0.02856  1.0000
  S   S295      1.0  0.53309  0.04098  0.03672  1.0000
  S   S296      1.0  0.58344  0.05411  0.04731  1.0000
  H   H2338     1.0  0.72312  0.38417  0.07153  1.0000
  Fe  Fe149     1.0  0.61449  0.14561  0.14499  1.0000
  S   S297      1.0  0.59310  0.16961  0.13875  1.0000
  S   S298      1.0  0.62318  0.12047  0.12826  1.0000
  Fe  Fe150     1.0  0.62004  0.15717  0.18442  1.0000
  S   S299      1.0  0.59880  0.18213  0.18109  1.0000
  S   S300      1.0  0.63850  0.15077  0.20948  1.0000
  Fe  Fe151     1.0  0.58089  0.16289  0.16817  1.0000
  S   S301      1.0  0.55105  0.15472  0.17661  1.0000
  Fe  Fe152     1.0  0.61257  0.18738  0.15179  1.0000
  S   S302      1.0  0.61663  0.21756  0.13892  1.0000
  S   S303      1.0  0.60138  0.13780  0.17363  1.0000
  S   S304      1.0  0.63483  0.16366  0.15590  1.0000
  C   C1314     1.0  0.64987  0.10702  0.17890  1.0000
  S   S305      1.0  0.64558  0.04865  0.31859  1.0000
  H   H2339     1.0  0.55024  0.43357  0.12597  1.0000
  S   S306      1.0  0.68723  0.06277  0.30365  1.0000
  H   H2340     1.0  0.60907  0.22962  0.19956  1.0000
  Fe  Fe153     1.0  0.65695  0.07411  0.30162  1.0000
  S   S307      1.0  0.64091  0.08346  0.27514  1.0000
  C   C1315     1.0  0.64355  0.22260  0.08039  1.0000
  H   H2341     1.0  0.70021  0.45689  0.12227  1.0000
  C   C1316     1.0  0.67365  0.26752  0.01995  1.0000
  Fe  Fe154     1.0  0.69087  0.29921  0.11561  1.0000
  S   S308      1.0  0.71541  0.30395  0.09442  1.0000
  S   S309      1.0  0.68672  0.26867  0.12742  1.0000
  Fe  Fe155     1.0  0.67849  0.34153  0.11262  1.0000
  S   S310      1.0  0.70162  0.34842  0.09114  1.0000
  S   S311      1.0  0.65657  0.36397  0.12241  1.0000
  Fe  Fe156     1.0  0.69481  0.32288  0.07770  1.0000
  S   S312      1.0  0.68486  0.32480  0.04789  1.0000
  Fe  Fe157     1.0  0.72018  0.32916  0.10998  1.0000
  C   C1317     1.0  0.70849  0.36950  0.14939  1.0000
  S   S313      1.0  0.67034  0.31716  0.09833  1.0000
  S   S314      1.0  0.69706  0.32317  0.13219  1.0000
  C   C1318     1.0  0.66629  0.27453  0.00086  1.0000
  C   C1319     1.0  0.69431  0.31841  0.02559  1.0000
  C   C1320     1.0  0.71193  0.30879  0.02296  1.0000
  H   H2342     1.0  0.57139  0.48404  0.14543  1.0000
  H   H2343     1.0  0.72042  0.30505  0.03481  1.0000
  H   H2344     1.0  0.53964  0.48071  0.00191  1.0000
  H   H2345     1.0  0.64453  0.21490  0.09452  1.0000
  H   H2346     1.0  0.62414  0.21252  0.22276  1.0000
  H   H2347     1.0  0.54071  0.46774  0.04461  1.0000
  H   H2348     1.0  0.71842  0.25905  0.09239  1.0000
  H   H2349     1.0  0.50707  0.16688  0.22987  1.0000
  H   H2350     1.0  0.55170  0.06574  0.08616  1.0000
  C   C1321     1.0  0.63643  0.23134  0.13479  1.0000
  C   C1322     1.0  0.65481  0.22355  0.13653  1.0000
  C   C1323     1.0  0.66996  0.23515  0.13403  1.0000
  C   C1324     1.0  0.66705  0.25468  0.12948  1.0000
  C   C1325     1.0  0.64870  0.26240  0.12722  1.0000
  C   C1326     1.0  0.63354  0.25081  0.12981  1.0000
  H   H2351     1.0  0.65733  0.20857  0.13987  1.0000
  H   H2352     1.0  0.68408  0.22894  0.13566  1.0000
  H   H2353     1.0  0.64617  0.27738  0.12390  1.0000
  H   H2354     1.0  0.61941  0.25704  0.12831  1.0000
  C   C1327     1.0  0.64027  0.10290  0.25762  1.0000
  C   C1328     1.0  0.62518  0.10548  0.24587  1.0000
  C   C1329     1.0  0.62423  0.12023  0.23137  1.0000
  C   C1330     1.0  0.63864  0.13233  0.22804  1.0000
  C   C1331     1.0  0.65369  0.12985  0.23984  1.0000
  C   C1332     1.0  0.65447  0.11531  0.25459  1.0000
  H   H2355     1.0  0.61401  0.09612  0.24816  1.0000
  H   H2356     1.0  0.61219  0.12241  0.22299  1.0000
  H   H2357     1.0  0.66487  0.13919  0.23754  1.0000
  H   H2358     1.0  0.66620  0.11351  0.26343  1.0000
  C   C1333     1.0  0.51416  0.15261  0.16970  1.0000
  C   C1334     1.0  0.52914  0.16425  0.16855  1.0000
  C   C1335     1.0  0.52589  0.18324  0.16238  1.0000
  H   H2359     1.0  0.51652  0.13792  0.17454  1.0000
  H   H2360     1.0  0.53721  0.19240  0.16163  1.0000
  C   C1336     1.0  0.59604  0.11230  0.07354  1.0000
  C   C1337     1.0  0.59408  0.12985  0.08100  1.0000
  C   C1338     1.0  0.60228  0.13250  0.09774  1.0000
  C   C1339     1.0  0.61268  0.11762  0.10713  1.0000
  C   C1340     1.0  0.61483  0.10009  0.09957  1.0000
  C   C1341     1.0  0.60647  0.09739  0.08289  1.0000
  H   H2361     1.0  0.58626  0.14151  0.07373  1.0000
  H   H2362     1.0  0.60073  0.14611  0.10326  1.0000
  H   H2363     1.0  0.62294  0.08853  0.10667  1.0000
  H   H2364     1.0  0.60814  0.08383  0.07724  1.0000
  H   H2365     1.0  0.58907  0.09786  0.17581  1.0000
  C   C1342     1.0  0.72104  0.38705  0.11048  1.0000
  C   C1343     1.0  0.51736  0.04727  0.01926  1.0000
  H   H2366     1.0  0.51901  0.05777  0.08419  1.0000
  C   C1344     1.0  0.64261  0.19062  0.23484  1.0000
  H   H2367     1.0  0.67620  0.25335  0.22299  1.0000
  H   H2368     1.0  0.57804  0.47478  0.20718  1.0000
  H   H2369     1.0  0.64556  0.09028  0.21216  1.0000
  H   H2370     1.0  0.56955  0.45473  0.14070  1.0000
  H   H2371     1.0  0.68744  0.20455  0.18752  1.0000
  C   C1345     1.0  0.65252  0.42434  0.09432  1.0000
  C   C1346     1.0  0.64021  0.41912  0.10958  1.0000
  C   C1347     1.0  0.64158  0.40056  0.11807  1.0000
  C   C1348     1.0  0.65510  0.38709  0.11126  1.0000
  C   C1349     1.0  0.66724  0.39233  0.09589  1.0000
  C   C1350     1.0  0.66608  0.41090  0.08760  1.0000
  H   H2372     1.0  0.62981  0.42942  0.11495  1.0000
  H   H2373     1.0  0.63216  0.39663  0.13000  1.0000
  H   H2374     1.0  0.67752  0.38210  0.09033  1.0000
  H   H2375     1.0  0.67564  0.41484  0.07578  1.0000
  H   H2376     1.0  0.62934  0.25793  0.17188  1.0000
  C   C1351     1.0  0.73386  0.40060  0.13632  1.0000
  H   H2377     1.0  0.62058  0.39789  0.08389  1.0000
  H   H2378     1.0  0.58420  0.41607  0.00880  1.0000
  H   H2379     1.0  0.71674  0.24445  0.07353  1.0000
  H   H2380     1.0  0.70807  0.38466  0.10370  1.0000
  C   C1352     1.0  0.52217  0.07273  0.08179  1.0000
  C   C1353     1.0  0.60392  0.40111  0.04027  1.0000
  C   C1354     1.0  0.58633  0.41510  0.03908  1.0000
  C   C1355     1.0  0.59941  0.42040  0.08229  1.0000
  C   C1356     1.0  0.58913  0.41548  0.10130  1.0000
  H   H2381     1.0  0.73228  0.29663  0.00291  1.0000
  H   H2382     1.0  0.59946  0.39141  0.07569  1.0000
  H   H2383     1.0  0.61092  0.40044  0.02594  1.0000
  H   H2384     1.0  0.59855  0.38703  0.04387  1.0000
  H   H2385     1.0  0.56028  0.44570  0.16372  1.0000
  H   H2386     1.0  0.57673  0.41254  0.05176  1.0000
  C   C1357     1.0  0.71379  0.25890  0.07794  1.0000
  H   H2387     1.0  0.67385  0.05784  0.20102  1.0000
  H   H2388     1.0  0.58910  0.42788  0.07294  1.0000
  H   H2389     1.0  0.58304  0.42861  0.10718  1.0000
  H   H2390     1.0  0.57758  0.40647  0.09973  1.0000
  C   C1358     1.0  0.54249  0.49653  0.03315  1.0000
  H   H2391     1.0  0.52351  0.44916  0.09717  1.0000
  H   H2392     1.0  0.50514  0.20550  0.15420  1.0000
  H   H2393     1.0  0.68701  0.06256  0.23073  1.0000
  C   C1359     1.0  0.65971  0.19409  0.19407  1.0000
  C   C1360     1.0  0.67620  0.19931  0.17999  1.0000
  C   C1361     1.0  0.68475  0.18221  0.17028  1.0000
  C   C1362     1.0  0.62708  0.18304  0.24850  1.0000
  H   H2394     1.0  0.62944  0.21117  0.17988  1.0000
  H   H2395     1.0  0.66627  0.18432  0.20503  1.0000
  H   H2396     1.0  0.65050  0.18549  0.18705  1.0000
  H   H2397     1.0  0.62569  0.19189  0.21062  1.0000
  H   H2398     1.0  0.65217  0.17835  0.23136  1.0000
  H   H2399     1.0  0.67174  0.21014  0.16893  1.0000
  H   H2400     1.0  0.68967  0.17083  0.18079  1.0000
  H   H2401     1.0  0.67429  0.17688  0.16182  1.0000
  H   H2402     1.0  0.69690  0.18624  0.16070  1.0000
  H   H2403     1.0  0.63336  0.17507  0.26085  1.0000
  H   H2404     1.0  0.61900  0.17333  0.24163  1.0000
  N   N75       1.0  0.61784  0.40480  0.05400  1.0000
  H   H2405     1.0  0.55712  0.46252  0.20719  1.0000
  H   H2406     1.0  0.64597  0.41861  0.02609  1.0000
  C   C1363     1.0  0.55777  0.49161  0.14208  1.0000
  N   N76       1.0  0.64657  0.08642  0.18246  1.0000
  C   C1364     1.0  0.62524  0.42393  0.04967  1.0000
  N   N77       1.0  0.64808  0.21014  0.20253  1.0000
  H   H2407     1.0  0.67546  0.23489  0.18607  1.0000
  H   H2408     1.0  0.54590  0.06655  0.06211  1.0000
  H   H2409     1.0  0.67955  0.42102  0.13248  1.0000
  Fe  Fe158     1.0  0.60119  0.04664  0.02148  1.0000
  H   H2410     1.0  0.57826  0.01043  0.32043  1.0000
  N   N78       1.0  0.53459  0.15109  0.10402  1.0000
  C   C1365     1.0  0.53504  0.47612  0.09561  1.0000
  C   C1366     1.0  0.54897  0.13650  0.11198  1.0000
  C   C1367     1.0  0.53763  0.17044  0.10933  1.0000
  C   C1368     1.0  0.53634  0.15133  0.08290  1.0000
  C   C1369     1.0  0.53205  0.13297  0.07475  1.0000
  S   S315      1.0  0.60614  0.07683  0.01123  1.0000
  C   C1370     1.0  0.55727  0.17749  0.10370  1.0000
  C   C1371     1.0  0.55148  0.13631  0.13327  1.0000
  C   C1372     1.0  0.56618  0.12088  0.13974  1.0000
  C   C1373     1.0  0.53402  0.13505  0.05329  1.0000
  C   C1374     1.0  0.61949  0.00029  0.01210  1.0000
  C   C1375     1.0  0.55926  0.19622  0.11170  1.0000
  C   C1376     1.0  0.73160  0.41051  0.15469  1.0000
  H   H2411     1.0  0.65975  0.09522  0.14388  1.0000
  H   H2412     1.0  0.54536  0.12214  0.10965  1.0000
  H   H2413     1.0  0.56290  0.13796  0.10443  1.0000
  H   H2414     1.0  0.53456  0.17134  0.12470  1.0000
  H   H2415     1.0  0.52754  0.18113  0.10260  1.0000
  H   H2416     1.0  0.52736  0.16323  0.07638  1.0000
  H   H2417     1.0  0.55091  0.15398  0.07752  1.0000
  H   H2418     1.0  0.74148  0.38653  0.13915  1.0000
  H   H2419     1.0  0.54210  0.12117  0.07945  1.0000
  H   H2420     1.0  0.72116  0.40412  0.16497  1.0000
  S   S316      1.0  0.55835  0.46592  0.09659  1.0000
  H   H2421     1.0  0.55950  0.17980  0.08820  1.0000
  H   H2422     1.0  0.56860  0.16734  0.10887  1.0000
  H   H2423     1.0  0.55622  0.14984  0.13666  1.0000
  H   H2424     1.0  0.53818  0.13368  0.14157  1.0000
  H   H2425     1.0  0.58015  0.12366  0.13286  1.0000
  H   H2426     1.0  0.56711  0.12066  0.15515  1.0000
  H   H2427     1.0  0.56243  0.10688  0.13647  1.0000
  C   C1377     1.0  0.52034  0.46421  0.09663  1.0000
  H   H2428     1.0  0.71249  0.35915  0.13899  1.0000
  H   H2429     1.0  0.54845  0.13856  0.04826  1.0000
  H   H2430     1.0  0.53547  0.47096  0.18193  1.0000
  H   H2431     1.0  0.69713  0.42934  0.14568  1.0000
  H   H2432     1.0  0.72730  0.37295  0.11531  1.0000
  H   H2433     1.0  0.57346  0.20095  0.10764  1.0000
  H   H2434     1.0  0.54869  0.20715  0.10616  1.0000
  H   H2435     1.0  0.55741  0.19468  0.12728  1.0000
  N   N79       1.0  0.66493  0.26787  0.05590  1.0000
  C   C1378     1.0  0.65579  0.28141  0.06938  1.0000
  C   C1379     1.0  0.68587  0.26557  0.05780  1.0000
  C   C1380     1.0  0.66155  0.27648  0.03620  1.0000
  C   C1381     1.0  0.65645  0.24914  0.05846  1.0000
  C   C1382     1.0  0.65675  0.23844  0.07827  1.0000
  C   C1383     1.0  0.63422  0.28519  0.06898  1.0000
  H   H2436     1.0  0.59066  0.99835  0.02237  1.0000
  C   C1384     1.0  0.69284  0.26481  0.07785  1.0000
  C   C1385     1.0  0.55711  0.44933  0.14887  1.0000
  C   C1386     1.0  0.62667  0.29929  0.08294  1.0000
  H   H2437     1.0  0.54411  0.45786  0.01331  1.0000
  H   H2438     1.0  0.66211  0.29516  0.06658  1.0000
  H   H2439     1.0  0.65864  0.27669  0.08415  1.0000
  H   H2440     1.0  0.69207  0.25283  0.05116  1.0000
  H   H2441     1.0  0.69265  0.27772  0.05001  1.0000
  H   H2442     1.0  0.66417  0.29169  0.03480  1.0000
  H   H2443     1.0  0.64662  0.27595  0.03317  1.0000
  H   H2444     1.0  0.64170  0.25079  0.05435  1.0000
  H   H2445     1.0  0.66373  0.23932  0.04871  1.0000
  H   H2446     1.0  0.65239  0.24768  0.08959  1.0000
  H   H2447     1.0  0.49905  0.17304  0.10497  1.0000
  H   H2448     1.0  0.63014  0.29115  0.05490  1.0000
  H   H2449     1.0  0.62718  0.27204  0.07288  1.0000
  C   C1387     1.0  0.57555  0.41256  0.02197  1.0000
  H   H2450     1.0  0.52375  0.14621  0.04761  1.0000
  H   H2451     1.0  0.69051  0.27896  0.08304  1.0000
  H   H2452     1.0  0.68546  0.25508  0.08808  1.0000
  H   H2453     1.0  0.51191  0.17464  0.20551  1.0000
  C   C1388     1.0  0.55340  0.43098  0.14098  1.0000
  H   H2454     1.0  0.51650  0.45086  0.06154  1.0000
  C   C1389     1.0  0.50520  0.48690  0.15649  1.0000
  H   H2455     1.0  0.62994  0.29388  0.09745  1.0000
  H   H2456     1.0  0.63289  0.31295  0.07935  1.0000
  H   H2457     1.0  0.61121  0.30167  0.08247  1.0000
  C   C1390     1.0  0.61679  0.25102  0.17821  1.0000
  H   H2458     1.0  0.57497  0.03386  0.32820  1.0000
  H   H2459     1.0  0.72195  0.26879  0.06839  1.0000
  H   H2460     1.0  0.61021  0.24444  0.16718  1.0000
  H   H2461     1.0  0.52830  0.45673  0.15629  1.0000
  C   C1391     1.0  0.53974  0.46360  0.14763  1.0000
  H   H2462     1.0  0.50551  0.48223  0.17167  1.0000
  H   H2463     1.0  0.65048  0.19988  0.24244  1.0000
  C   C1392     1.0  0.67271  0.06887  0.22795  1.0000
  C   C1393     1.0  0.73527  0.39501  0.09500  1.0000
  C   C1394     1.0  0.68788  0.44843  0.12275  1.0000
  H   H2464     1.0  0.67186  0.21360  0.21837  1.0000
  H   H2465     1.0  0.66406  0.14249  0.17860  1.0000
  H   H2466     1.0  0.63603  0.42566  0.05956  1.0000
  H   H2467     1.0  0.66458  0.05308  0.13804  1.0000
  C   C1395     1.0  0.62208  0.23626  0.19411  1.0000
  H   H2468     1.0  0.65192  0.22892  0.22372  1.0000
  H   H2469     1.0  0.66507  0.29011  0.99900  1.0000
  H   H2470     1.0  0.60994  0.43033  0.08458  1.0000
  H   H2471     1.0  0.74381  0.40869  0.12679  1.0000
  C   C1396     1.0  0.56347  0.47595  0.20265  1.0000
  H   H2472     1.0  0.51506  0.07870  0.05317  1.0000
  C   C1397     1.0  0.64862  0.35695  0.05772  1.0000
  H   H2473     1.0  0.60653  0.26194  0.18373  1.0000
  H   H2474     1.0  0.66236  0.05936  0.23497  1.0000
  H   H2475     1.0  0.69817  0.34750  0.16936  1.0000
  H   H2476     1.0  0.55540  0.48755  0.20967  1.0000
  C   C1398     1.0  0.65579  0.08065  0.14766  1.0000
  H   H2477     1.0  0.62072  0.36442  0.04949  1.0000
  H   H2478     1.0  0.62931  0.45907  0.02998  1.0000
  H   H2479     1.0  0.64746  0.45133  0.01319  1.0000
  H   H2480     1.0  0.74144  0.34054  0.15523  1.0000
  C   C1399     1.0  0.67052  0.07169  0.20678  1.0000
  H   H2481     1.0  0.64557  0.34218  0.06200  1.0000
  C   C1400     1.0  0.63051  0.36970  0.05870  1.0000
  H   H2482     1.0  0.65176  0.44925  0.03775  1.0000
  H   H2483     1.0  0.51762  0.12918  0.07911  1.0000
  H   H2484     1.0  0.62701  0.24358  0.20557  1.0000
  C   C1401     1.0  0.52393  0.49492  0.14874  1.0000
  H   H2485     1.0  0.68051  0.35964  0.15513  1.0000
  C   C1402     1.0  0.66825  0.06787  0.13521  1.0000
  H   H2486     1.0  0.61740  0.19472  0.25348  1.0000
  S   S317      1.0  0.62298  0.02185  0.02116  1.0000
  H   H2487     1.0  0.67066  0.08256  0.23421  1.0000
  H   H2488     1.0  0.49923  0.19049  0.22080  1.0000
  H   H2489     1.0  0.62451  0.36808  0.07341  1.0000
  S   S318      1.0  0.56059  0.08557  0.01885  1.0000
  H   H2490     1.0  0.57244  0.46838  0.17501  1.0000
  H   H2491     1.0  0.72064  0.37070  0.15779  1.0000
  H   H2492     1.0  0.54142  0.42446  0.14903  1.0000
  H   H2493     1.0  0.62389  0.06926  0.17831  1.0000
  H   H2494     1.0  0.71927  0.42748  0.11486  1.0000
  H   H2495     1.0  0.64130  0.11531  0.18923  1.0000
  H   H2496     1.0  0.68897  0.37087  0.17414  1.0000
  H   H2497     1.0  0.50012  0.42338  0.05432  1.0000
  H   H2498     1.0  0.66993  0.13336  0.15601  1.0000
  C   C1403     1.0  0.65821  0.07468  0.16880  1.0000
  C   C1404     1.0  0.51540  0.14609  0.11197  1.0000
  H   H2499     1.0  0.64025  0.39039  0.03750  1.0000
  H   H2500     1.0  0.70103  0.41668  0.10567  1.0000
  C   C1405     1.0  0.64102  0.44825  0.02753  1.0000
  H   H2501     1.0  0.53711  0.01648  0.99857  1.0000
  H   H2502     1.0  0.62216  0.09200  0.16596  1.0000
  C   C1406     1.0  0.62620  0.08428  0.17948  1.0000
  H   H2503     1.0  0.64113  0.07981  0.14404  1.0000
  C   C1407     1.0  0.61160  0.09125  0.19487  1.0000
  H   H2504     1.0  0.51357  0.13099  0.11081  1.0000
  C   C1408     1.0  0.53265  0.46821  0.00834  1.0000
  H   H2505     1.0  0.53150  0.12160  0.04772  1.0000
  H   H2506     1.0  0.68113  0.08117  0.20060  1.0000
  Fe  Fe159     1.0  0.58499  0.48127  0.09095  1.0000
  H   H2507     1.0  0.62880  0.22838  0.07909  1.0000
  H   H2508     1.0  0.67624  0.45529  0.13136  1.0000
  H   H2509     1.0  0.61320  0.08289  0.20856  1.0000
  H   H2510     1.0  0.64475  0.11286  0.16509  1.0000
  H   H2511     1.0  0.55672  0.49000  0.12690  1.0000
  H   H2512     1.0  0.65871  0.36104  0.06739  1.0000
  C   C1409     1.0  0.60943  0.40265  0.07404  1.0000
  H   H2513     1.0  0.68326  0.06870  0.13764  1.0000
  N   N80       1.0  0.71610  0.39882  0.12679  1.0000
  C   C1410     1.0  0.70174  0.38889  0.13970  1.0000
  H   H2514     1.0  0.54690  0.08809  0.07299  1.0000
  C   C1411     1.0  0.53074  0.47956  0.03948  1.0000
  H   H2515     1.0  0.68794  0.13511  0.17190  1.0000
  H   H2516     1.0  0.62324  0.42844  0.01904  1.0000
  C   C1412     1.0  0.67314  0.13201  0.17104  1.0000
  H   H2517     1.0  0.68931  0.38688  0.13182  1.0000
  H   H2518     1.0  0.69624  0.39748  0.15123  1.0000
  C   C1413     1.0  0.63426  0.20152  0.21714  1.0000
  N   N81       1.0  0.51924  0.47323  0.02471  1.0000
  H   H2519     1.0  0.61422  0.43530  0.05204  1.0000
  H   H2520     1.0  0.57101  0.49296  0.17755  1.0000
  H   H2521     1.0  0.64168  0.06712  0.20718  1.0000
  H   H2522     1.0  0.69481  0.23789  0.21298  1.0000
  H   H2523     1.0  0.65523  0.35762  0.04319  1.0000
  H   H2524     1.0  0.67338  0.07451  0.17080  1.0000
  C   C1414     1.0  0.67030  0.11218  0.17993  1.0000
  C   C1415     1.0  0.63700  0.22093  0.18733  1.0000
  C   C1416     1.0  0.66011  0.22242  0.21185  1.0000
  C   C1417     1.0  0.66844  0.23910  0.19942  1.0000
  C   C1418     1.0  0.50767  0.19063  0.15821  1.0000
  H   H2525     1.0  0.68812  0.26025  0.20071  1.0000
  C   C1419     1.0  0.68345  0.32308  0.01002  1.0000
  H   H2526     1.0  0.59896  0.40809  0.11133  1.0000
  H   H2527     1.0  0.68330  0.44825  0.10830  1.0000
  H   H2528     1.0  0.66614  0.07245  0.12021  1.0000
  H   H2529     1.0  0.58902  0.07480  0.18843  1.0000
  H   H2530     1.0  0.58083  0.45409  0.01403  1.0000
  C   C1420     1.0  0.63387  0.42860  0.02951  1.0000
  C   C1421     1.0  0.68275  0.24815  0.20975  1.0000
  C   C1422     1.0  0.54290  0.07338  0.07536  1.0000
  C   C1423     1.0  0.65022  0.07921  0.20251  1.0000
  C   C1424     1.0  0.69266  0.42844  0.13135  1.0000
  H   H2531     1.0  0.64641  0.22759  0.17616  1.0000
  H   H2532     1.0  0.64593  0.39408  0.06057  1.0000
  H   H2533     1.0  0.72728  0.42562  0.15155  1.0000
  H   H2534     1.0  0.65234  0.26933  0.99949  1.0000
  H   H2535     1.0  0.57156  0.39789  0.02227  1.0000
  H   H2536     1.0  0.65495  0.05970  0.17159  1.0000
  H   H2537     1.0  0.51390  0.14778  0.12730  1.0000
  H   H2538     1.0  0.68059  0.10267  0.17248  1.0000
  H   H2539     1.0  0.61317  0.10606  0.19696  1.0000
  C   C1425     1.0  0.59159  0.08971  0.18947  1.0000
  H   H2540     1.0  0.65724  0.25018  0.19576  1.0000
  H   H2541     1.0  0.58147  0.09547  0.20035  1.0000
  C   C1426     1.0  0.70792  0.41790  0.11892  1.0000
  C   C1427     1.0  0.63438  0.39040  0.05228  1.0000
  H   H2542     1.0  0.68835  0.27139  0.01974  1.0000
  H   H2543     1.0  0.67105  0.23182  0.08048  1.0000
  C   C1428     1.0  0.59286  0.47909  0.02051  1.0000
  S   S319      1.0  0.68775  0.00795  0.32436  1.0000
  H   H2544     1.0  0.53550  0.46468  0.13293  1.0000
  H   H2545     1.0  0.56602  0.42095  0.14200  1.0000
  C   C1429     1.0  0.50962  0.45572  0.03213  1.0000
  H   H2546     1.0  0.69664  0.38313  0.00186  1.0000
  H   H2547     1.0  0.51893  0.44284  0.02958  1.0000
  H   H2548     1.0  0.58534  0.47948  0.03405  1.0000
  H   H2549     1.0  0.73118  0.40980  0.09005  1.0000
  H   H2550     1.0  0.66974  0.33041  0.01192  1.0000
  H   H2551     1.0  0.58990  0.42989  0.03792  1.0000
  H   H2552     1.0  0.74138  0.36861  0.08210  1.0000
  H   H2553     1.0  0.67381  0.25200  0.02137  1.0000
  C   C1430     1.0  0.50138  0.17556  0.21762  1.0000
  C   C1431     1.0  0.54355  0.48235  0.17447  1.0000
  H   H2554     1.0  0.52181  0.48320  0.05215  1.0000
  H   H2555     1.0  0.53685  0.06294  0.00108  1.0000
  Fe  Fe160     1.0  0.67567  0.03857  0.32219  1.0000
  N   N82       1.0  0.54164  0.48301  0.15352  1.0000
  S   S320      1.0  0.57722  0.04583  0.00379  1.0000
  C   C1432     1.0  0.73681  0.38352  0.07796  1.0000
  C   C1433     1.0  0.50957  0.08352  0.06701  1.0000
  H   H2556     1.0  0.66039  0.40648  0.99707  1.0000
  C   C1434     1.0  0.56375  0.47992  0.18132  1.0000
  H   H2557     1.0  0.65870  0.00574  0.29806  1.0000
  C   C1435     1.0  0.52268  0.05883  0.00333  1.0000
  H   H2558     1.0  0.64806  0.99761  0.00079  1.0000
  H   H2559     1.0  0.68960  0.36042  0.99809  1.0000
  C   C1436     1.0  0.71862  0.30405  0.00486  1.0000
  H   H2560     1.0  0.52020  0.07926  0.09531  1.0000
  H   H2561     1.0  0.56259  0.42217  0.02193  1.0000
  C   C1437     1.0  0.50151  0.47156  0.09741  1.0000
  H   H2562     1.0  0.50243  0.47479  0.14875  1.0000
  C   C1438     1.0  0.60463  0.49325  0.01403  1.0000
  C   C1439     1.0  0.50509  0.48857  0.01761  1.0000
  C   C1440     1.0  0.50379  0.45339  0.05343  1.0000
  H   H2563     1.0  0.67457  0.37542  0.01254  1.0000
  C   C1441     1.0  0.53074  0.49552  0.09531  1.0000
  S   S321      1.0  0.65706  0.09066  0.32693  1.0000
  H   H2564     1.0  0.55434  0.49224  0.02330  1.0000
  H   H2565     1.0  0.55865  0.49224  0.05807  1.0000
  C   C1442     1.0  0.68439  0.37521  0.99983  1.0000
  C   C1443     1.0  0.49912  0.04152  0.02163  1.0000
  H   H2566     1.0  0.53702  0.49548  0.18016  1.0000
  H   H2567     1.0  0.49977  0.10087  0.03214  1.0000
  C   C1444     1.0  0.49851  0.15789  0.10332  1.0000
  H   H2568     1.0  0.49809  0.15602  0.08818  1.0000
  H   H2569     1.0  0.51648  0.44750  0.99667  1.0000
  H   H2570     1.0  0.67004  0.12368  0.43683  1.0000
  H   H2571     1.0  0.73817  0.13953  0.39729  1.0000
  Fe  Fe161     1.0  0.51849  0.06560  0.40041  1.0000
  H   H2572     1.0  0.63723  0.01106  0.60550  1.0000
  S   S322      1.0  0.53867  0.06362  0.37431  1.0000
  H   H2573     1.0  0.56443  0.02477  0.54306  1.0000
  S   S323      1.0  0.51776  0.08331  0.46721  1.0000
  S   S324      1.0  0.51949  0.04799  0.42807  1.0000
  H   H2574     1.0  0.56630  0.06348  0.34340  1.0000
  C   C1445     1.0  0.54461  0.00965  0.38580  1.0000
  H   H2575     1.0  0.62526  0.03091  0.59284  1.0000
  Fe  Fe162     1.0  0.53480  0.06322  0.60661  1.0000
  C   C1446     1.0  0.50079  0.05793  0.49334  1.0000
  S   S325      1.0  0.56618  0.06525  0.60833  1.0000
  H   H2576     1.0  0.50637  0.00835  0.53979  1.0000
  C   C1447     1.0  0.68968  0.14355  0.35080  1.0000
  S   S326      1.0  0.51306  0.06273  0.63084  1.0000
  S   S327      1.0  0.52732  0.03633  0.59617  1.0000
  S   S328      1.0  0.62782  0.06411  0.37009  1.0000
  H   H2577     1.0  0.67478  0.10679  0.35738  1.0000
  C   C1448     1.0  0.54920  0.02775  0.54652  1.0000
  H   H2578     1.0  0.62611  0.01382  0.35046  1.0000
  C   C1449     1.0  0.72686  0.09825  0.35354  1.0000
  H   H2579     1.0  0.57697  0.01998  0.36148  1.0000
  H   H2580     1.0  0.52597  0.01458  0.56103  1.0000
  H   H2581     1.0  0.54726  0.03980  0.55534  1.0000
  C   C1450     1.0  0.72841  0.08576  0.36969  1.0000
  S   S329      1.0  0.67715  0.05291  0.34865  1.0000
  C   C1451     1.0  0.50037  0.11871  0.53898  1.0000
  H   H2582     1.0  0.71943  0.07426  0.37200  1.0000
  C   C1452     1.0  0.57636  0.07186  0.62830  1.0000
  C   C1453     1.0  0.59600  0.07125  0.62845  1.0000
  C   C1454     1.0  0.60463  0.07610  0.64419  1.0000
  H   H2583     1.0  0.59903  0.03107  0.61676  1.0000
  C   C1455     1.0  0.74167  0.08808  0.38285  1.0000
  C   C1456     1.0  0.56541  0.07742  0.64404  1.0000
  H   H2584     1.0  0.60458  0.06717  0.61624  1.0000
  H   H2585     1.0  0.61974  0.07577  0.64405  1.0000
  H   H2586     1.0  0.71781  0.12769  0.62603  1.0000
  H   H2587     1.0  0.55029  0.07807  0.64408  1.0000
  C   C1457     1.0  0.56342  0.06402  0.37348  1.0000
  C   C1458     1.0  0.57308  0.06443  0.38967  1.0000
  C   C1459     1.0  0.59279  0.06430  0.38838  1.0000
  C   C1460     1.0  0.60305  0.06387  0.37091  1.0000
  C   C1461     1.0  0.59339  0.06349  0.35471  1.0000
  C   C1462     1.0  0.57367  0.06357  0.35602  1.0000
  H   H2588     1.0  0.56535  0.06487  0.40318  1.0000
  H   H2589     1.0  0.60012  0.06464  0.40099  1.0000
  H   H2590     1.0  0.71986  0.06207  0.64072  1.0000
  C   C1463     1.0  0.51851  0.11800  0.54903  1.0000
  C   C1464     1.0  0.52218  0.07764  0.50517  1.0000
  C   C1465     1.0  0.51829  0.06959  0.52361  1.0000
  H   H2591     1.0  0.51089  0.00842  0.47281  1.0000
  C   C1466     1.0  0.51335  0.07197  0.48997  1.0000
  S   S330      1.0  0.49987  0.01003  0.63658  1.0000
  H   H2592     1.0  0.53200  0.08840  0.50267  1.0000
  H   H2593     1.0  0.52521  0.07400  0.53516  1.0000
  H   H2594     1.0  0.54562  0.02507  0.38321  1.0000
  H   H2595     1.0  0.62404  0.00007  0.63790  1.0000
  C   C1467     1.0  0.72101  0.10686  0.64950  1.0000
  C   C1468     1.0  0.73068  0.13655  0.41123  1.0000
  H   H2596     1.0  0.66339  0.14705  0.42637  1.0000
  H   H2597     1.0  0.72149  0.14831  0.44802  1.0000
  S   S331      1.0  0.51620  0.08114  0.58670  1.0000
  H   H2598     1.0  0.74113  0.09750  0.46125  1.0000
  Fe  Fe163     1.0  0.64763  0.06456  0.34372  1.0000
  H   H2599     1.0  0.53229  0.00805  0.39604  1.0000
  H   H2600     1.0  0.67826  0.05922  0.63437  1.0000
  H   H2601     1.0  0.74204  0.04866  0.65883  1.0000
  H   H2602     1.0  0.49882  0.99810  0.56281  1.0000
  H   H2603     1.0  0.73659  0.03069  0.62970  1.0000
  H   H2604     1.0  0.60947  0.03593  0.65570  1.0000
  H   H2605     1.0  0.62088  0.03368  0.62672  1.0000
  H   H2606     1.0  0.72608  0.12392  0.44668  1.0000
  H   H2607     1.0  0.60517  0.10525  0.36492  1.0000
  H   H2608     1.0  0.64662  0.01315  0.36361  1.0000
  C   C1469     1.0  0.70901  0.12154  0.50343  1.0000
  C   C1470     1.0  0.60971  0.00609  0.63473  1.0000
  H   H2609     1.0  0.60108  0.06328  0.34117  1.0000
  H   H2610     1.0  0.69515  0.13483  0.33930  1.0000
  H   H2611     1.0  0.68733  0.15830  0.34472  1.0000
  C   C1471     1.0  0.69275  0.06289  0.62991  1.0000
  H   H2612     1.0  0.52783  0.12838  0.54175  1.0000
  H   H2613     1.0  0.71726  0.14543  0.41164  1.0000
  C   C1472     1.0  0.70581  0.03702  0.65315  1.0000
  C   C1473     1.0  0.50021  0.00433  0.48413  1.0000
  C   C1474     1.0  0.61257  0.02364  0.62066  1.0000
  C   C1475     1.0  0.73377  0.13605  0.48090  1.0000
  H   H2614     1.0  0.64020  0.10488  0.36264  1.0000
  H   H2615     1.0  0.56770  0.02752  0.40763  1.0000
  C   C1476     1.0  0.67423  0.13505  0.42613  1.0000
  C   C1477     1.0  0.73407  0.09537  0.65981  1.0000
  C   C1478     1.0  0.56455  0.01302  0.41301  1.0000
  H   H2616     1.0  0.51340  0.02979  0.37810  1.0000
  H   H2617     1.0  0.60287  0.12900  0.37193  1.0000
  H   H2618     1.0  0.50664  0.00291  0.49788  1.0000
  H   H2619     1.0  0.69879  0.13389  0.50094  1.0000
  C   C1479     1.0  0.73312  0.13711  0.44652  1.0000
  N   N83       1.0  0.65875  0.11045  0.38371  1.0000
  C   C1480     1.0  0.67384  0.11619  0.36900  1.0000
  C   C1481     1.0  0.66198  0.08959  0.38905  1.0000
  C   C1482     1.0  0.64013  0.11357  0.37477  1.0000
  C   C1483     1.0  0.65789  0.12152  0.40073  1.0000
  C   C1484     1.0  0.67669  0.12782  0.40662  1.0000
  H   H2620     1.0  0.51508  0.00806  0.43658  1.0000
  C   C1485     1.0  0.62231  0.10970  0.38783  1.0000
  C   C1486     1.0  0.67971  0.08292  0.39963  1.0000
  C   C1487     1.0  0.68239  0.06149  0.40211  1.0000
  C   C1488     1.0  0.55108  0.01204  0.35112  1.0000
  C   C1489     1.0  0.57273  0.01127  0.35070  1.0000
  C   C1490     1.0  0.56177  0.00141  0.39674  1.0000
  H   H2621     1.0  0.57548  0.01483  0.63342  1.0000
  H   H2622     1.0  0.68792  0.11408  0.37465  1.0000
  H   H2623     1.0  0.65018  0.08429  0.39832  1.0000
  H   H2624     1.0  0.66241  0.08180  0.37625  1.0000
  N   N84       1.0  0.54146  0.00136  0.36769  1.0000
  H   H2625     1.0  0.63767  0.12839  0.36892  1.0000
  H   H2626     1.0  0.64866  0.13472  0.39849  1.0000
  H   H2627     1.0  0.65106  0.11340  0.41301  1.0000
  H   H2628     1.0  0.68163  0.13942  0.39664  1.0000
  H   H2629     1.0  0.68806  0.11645  0.40688  1.0000
  C   C1491     1.0  0.63929  0.00540  0.35398  1.0000
  C   C1492     1.0  0.72773  0.11873  0.63413  1.0000
  H   H2630     1.0  0.62099  0.11863  0.39976  1.0000
  H   H2631     1.0  0.62236  0.09487  0.39367  1.0000
  H   H2632     1.0  0.69256  0.08799  0.39204  1.0000
  H   H2633     1.0  0.67823  0.08788  0.41391  1.0000
  H   H2634     1.0  0.66983  0.05551  0.40960  1.0000
  H   H2635     1.0  0.68493  0.05567  0.38826  1.0000
  H   H2636     1.0  0.69473  0.05709  0.41042  1.0000
  H   H2637     1.0  0.54200  0.03187  0.53338  1.0000
  H   H2638     1.0  0.52605  0.10384  0.54893  1.0000
  H   H2639     1.0  0.68764  0.13989  0.42991  1.0000
  Fe  Fe164     1.0  0.50707  0.05412  0.57823  1.0000
  C   C1493     1.0  0.54084  0.01060  0.55718  1.0000
  H   H2640     1.0  0.70035  0.14296  0.36137  1.0000
  H   H2641     1.0  0.72403  0.14902  0.48108  1.0000
  H   H2642     1.0  0.71715  0.12356  0.51561  1.0000
  C   C1494     1.0  0.73983  0.03338  0.65982  1.0000
  H   H2643     1.0  0.58015  0.03467  0.64481  1.0000
  H   H2644     1.0  0.72785  0.12146  0.41276  1.0000
  H   H2645     1.0  0.69796  0.05525  0.61755  1.0000
  H   H2646     1.0  0.64847  0.00405  0.34095  1.0000
  H   H2647     1.0  0.74256  0.07836  0.39528  1.0000
  C   C1495     1.0  0.50529  0.05600  0.52702  1.0000
  H   H2648     1.0  0.55178  0.01371  0.42273  1.0000
  C   C1496     1.0  0.72210  0.11887  0.48591  1.0000
  H   H2649     1.0  0.73794  0.12275  0.33842  1.0000
  H   H2650     1.0  0.54633  0.02725  0.35069  1.0000
  C   C1497     1.0  0.60458  0.11390  0.37707  1.0000
  C   C1498     1.0  0.62324  0.01811  0.60252  1.0000
  H   H2651     1.0  0.69233  0.07822  0.62567  1.0000
  S   S332      1.0  0.71018  0.09636  0.33641  1.0000
  S   S333      1.0  0.50744  0.09213  0.41329  1.0000
  H   H2652     1.0  0.73157  0.10613  0.48920  1.0000
  H   H2653     1.0  0.54024  0.99828  0.53068  1.0000
  H   H2654     1.0  0.59210  0.11040  0.38645  1.0000
  H   H2655     1.0  0.54170  0.02581  0.63981  1.0000
  N   N85       1.0  0.59790  0.00953  0.65260  1.0000
  Fe  Fe165     1.0  0.50645  0.07395  0.44092  1.0000
  C   C1499     1.0  0.70570  0.05809  0.64598  1.0000
  H   H2656     1.0  0.66540  0.14657  0.37006  1.0000
  C   C1500     1.0  0.67124  0.13664  0.35977  1.0000
  H   H2657     1.0  0.50430  0.11562  0.52426  1.0000
  C   C1501     1.0  0.57922  0.01920  0.64714  1.0000
  H   H2658     1.0  0.71327  0.11647  0.47445  1.0000
  H   H2659     1.0  0.66133  0.13725  0.34846  1.0000
  H   H2660     1.0  0.70762  0.02899  0.64058  1.0000
  C   C1502     1.0  0.74289  0.14094  0.42663  1.0000
  H   H2661     1.0  0.70108  0.10888  0.50699  1.0000
  Fe  Fe166     1.0  0.50450  0.03702  0.61905  1.0000
  S   S334      1.0  0.69626  0.10681  0.65488  1.0000
  H   H2662     1.0  0.51551  0.12148  0.56379  1.0000
  H   H2663     1.0  0.51555  0.03229  0.35288  1.0000
  H   H2664     1.0  0.55822  0.00078  0.66059  1.0000
  H   H2665     1.0  0.54799  0.00752  0.57045  1.0000
  C   C1503     1.0  0.51069  0.02315  0.36533  1.0000
  H   H2666     1.0  0.59643  0.01969  0.33215  1.0000
  C   C1504     1.0  0.73891  0.11298  0.35082  1.0000
  C   C1505     1.0  0.52062  0.00311  0.36519  1.0000
  H   H2667     1.0  0.54691  0.00738  0.33774  1.0000
  C   C1506     1.0  0.58102  0.01930  0.33168  1.0000
  H   H2668     1.0  0.70050  0.06688  0.65746  1.0000
  C   C1507     1.0  0.56174  0.01559  0.66066  1.0000
  H   H2669     1.0  0.69760  0.00045  0.65557  1.0000
  H   H2670     1.0  0.69143  0.03450  0.65936  1.0000
  H   H2671     1.0  0.72111  0.99836  0.64538  1.0000
  H   H2672     1.0  0.57492  0.00093  0.38769  1.0000
  H   H2673     1.0  0.57648  0.00651  0.42099  1.0000
  C   C1508     1.0  0.57402  0.08247  0.65969  1.0000
  C   C1509     1.0  0.54462  0.02809  0.65442  1.0000
  H   H2674     1.0  0.61519  0.00855  0.59543  1.0000
  H   H2675     1.0  0.74212  0.16880  0.62725  1.0000
  H   H2676     1.0  0.51758  0.99819  0.35158  1.0000
  C   C1510     1.0  0.59364  0.08189  0.65983  1.0000
  H   H2677     1.0  0.54689  0.04312  0.65514  1.0000
  H   H2678     1.0  0.74265  0.13620  0.49298  1.0000
  S   S335      1.0  0.49883  0.04631  0.54997  1.0000
  H   H2679     1.0  0.74574  0.15599  0.42402  1.0000
  N   N86       1.0  0.74568  0.13644  0.46263  1.0000
  H   H2680     1.0  0.74502  0.16691  0.45889  1.0000
  C   C1511     1.0  0.74643  0.02591  0.64068  1.0000
  Fe  Fe167     1.0  0.68674  0.07776  0.33026  1.0000
  C   C1512     1.0  0.74712  0.11908  0.62904  1.0000
  S   S336      1.0  0.58201  0.45261  0.92370  1.0000
  C   C1513     1.0  0.56283  0.00340  0.98526  1.0000
  Fe  Fe168     1.0  0.60908  0.45671  0.90625  1.0000
  S   S337      1.0  0.62473  0.43635  0.88711  1.0000
  H   H2681     1.0  0.60953  0.10408  0.73728  1.0000
  H   H2682     1.0  0.65979  0.02271  0.67363  1.0000
  S   S338      1.0  0.57438  0.08372  0.96440  1.0000
  Fe  Fe169     1.0  0.60429  0.15800  0.88146  1.0000
  S   S339      1.0  0.58770  0.18594  0.88118  1.0000
  S   S340      1.0  0.61538  0.14400  0.90867  1.0000
  Fe  Fe170     1.0  0.60418  0.15690  0.83858  1.0000
  S   S341      1.0  0.58740  0.18513  0.83544  1.0000
  S   S342      1.0  0.60984  0.13381  0.81796  1.0000
  Fe  Fe171     1.0  0.60674  0.19450  0.85618  1.0000
  S   S343      1.0  0.61814  0.22391  0.85333  1.0000
  Fe  Fe172     1.0  0.56968  0.17464  0.86097  1.0000
  S   S344      1.0  0.53807  0.17575  0.86902  1.0000
  S   S345      1.0  0.62455  0.16698  0.85743  1.0000
  S   S346      1.0  0.58526  0.14610  0.86314  1.0000
  Fe  Fe173     1.0  0.63454  0.08518  0.68563  1.0000
  S   S347      1.0  0.63902  0.07282  0.71512  1.0000
  H   H2683     1.0  0.71947  0.28973  0.86046  1.0000
  C   C1514     1.0  0.61007  0.39171  0.97790  1.0000
  S   S348      1.0  0.68344  0.08010  0.70657  1.0000
  H   H2684     1.0  0.58654  0.03589  0.68156  1.0000
  Fe  Fe174     1.0  0.66449  0.05737  0.70193  1.0000
  S   S349      1.0  0.67140  0.02639  0.71146  1.0000
  Fe  Fe175     1.0  0.65709  0.09650  0.71731  1.0000
  S   S350      1.0  0.65577  0.11754  0.73997  1.0000
  H   H2685     1.0  0.59202  0.11832  0.76251  1.0000
  S   S351      1.0  0.65139  0.10971  0.68835  1.0000
  Fe  Fe176     1.0  0.67212  0.33472  0.91926  1.0000
  S   S352      1.0  0.70245  0.33815  0.92315  1.0000
  S   S353      1.0  0.64962  0.35691  0.92830  1.0000
  Fe  Fe177     1.0  0.67916  0.29334  0.91032  1.0000
  S   S354      1.0  0.71005  0.29399  0.91430  1.0000
  S   S355      1.0  0.66941  0.26439  0.90517  1.0000
  Fe  Fe178     1.0  0.70169  0.30989  0.93969  1.0000
  S   S356      1.0  0.71690  0.30285  0.96668  1.0000
  Fe  Fe179     1.0  0.70854  0.32210  0.89753  1.0000
  S   S357      1.0  0.60365  0.08909  0.67962  1.0000
  S   S358      1.0  0.67115  0.30714  0.93713  1.0000
  S   S359      1.0  0.67789  0.32084  0.89220  1.0000
  S   S360      1.0  0.59526  0.44732  0.97665  1.0000
  H   H2686     1.0  0.67116  0.43113  0.90249  1.0000
  H   H2687     1.0  0.57770  0.16053  0.78839  1.0000
  H   H2688     1.0  0.60581  0.03942  0.70763  1.0000
  N   N87       1.0  0.72003  0.03006  0.66723  1.0000
  Fe  Fe180     1.0  0.59782  0.46078  0.94711  1.0000
  H   H2689     1.0  0.68175  0.32234  0.98005  1.0000
  H   H2690     1.0  0.55556  0.15506  0.69204  1.0000
  C   C1515     1.0  0.70314  0.44446  0.86481  1.0000
  H   H2691     1.0  0.69126  0.42718  0.91655  1.0000
  C   C1516     1.0  0.51892  0.13203  0.95757  1.0000
  C   C1517     1.0  0.60469  0.13995  0.72707  1.0000
  C   C1518     1.0  0.54899  0.15686  0.70635  1.0000
  C   C1519     1.0  0.62250  0.12984  0.79607  1.0000
  C   C1520     1.0  0.63355  0.14313  0.78620  1.0000
  C   C1521     1.0  0.64360  0.13905  0.76916  1.0000
  C   C1522     1.0  0.64261  0.12175  0.76156  1.0000
  C   C1523     1.0  0.63133  0.10854  0.77129  1.0000
  C   C1524     1.0  0.62146  0.11254  0.78845  1.0000
  H   H2692     1.0  0.63450  0.15652  0.79175  1.0000
  H   H2693     1.0  0.65222  0.14941  0.76179  1.0000
  H   H2694     1.0  0.63045  0.09514  0.76575  1.0000
  H   H2695     1.0  0.61297  0.10212  0.79591  1.0000
  C   C1525     1.0  0.63125  0.23513  0.86890  1.0000
  C   C1526     1.0  0.64093  0.22505  0.88337  1.0000
  C   C1527     1.0  0.65216  0.23433  0.89446  1.0000
  C   C1528     1.0  0.65375  0.25387  0.89153  1.0000
  C   C1529     1.0  0.64367  0.26405  0.87738  1.0000
  C   C1530     1.0  0.63271  0.25471  0.86606  1.0000
  H   H2696     1.0  0.64005  0.21002  0.88579  1.0000
  H   H2697     1.0  0.65979  0.22623  0.90534  1.0000
  H   H2698     1.0  0.64450  0.27907  0.87499  1.0000
  H   H2699     1.0  0.62528  0.26272  0.85498  1.0000
  C   C1531     1.0  0.51869  0.17651  0.85476  1.0000
  C   C1532     1.0  0.52017  0.18191  0.83548  1.0000
  H   H2700     1.0  0.57851  0.15981  0.75356  1.0000
  H   H2701     1.0  0.53361  0.18520  0.82871  1.0000
  H   H2702     1.0  0.74559  0.40280  0.86741  1.0000
  H   H2703     1.0  0.52898  0.13899  0.96505  1.0000
  H   H2704     1.0  0.66294  0.05097  0.83395  1.0000
  H   H2705     1.0  0.50572  0.14117  0.95643  1.0000
  C   C1533     1.0  0.58641  0.10011  0.94905  1.0000
  C   C1534     1.0  0.59989  0.11066  0.95525  1.0000
  C   C1535     1.0  0.60873  0.12398  0.94267  1.0000
  C   C1536     1.0  0.60396  0.12707  0.92391  1.0000
  C   C1537     1.0  0.59071  0.11629  0.91762  1.0000
  C   C1538     1.0  0.58202  0.10282  0.93014  1.0000
  H   H2706     1.0  0.60346  0.10864  0.96975  1.0000
  H   H2707     1.0  0.61914  0.13212  0.94759  1.0000
  H   H2708     1.0  0.58717  0.11840  0.90315  1.0000
  H   H2709     1.0  0.57173  0.09456  0.92521  1.0000
  C   C1539     1.0  0.63095  0.41369  0.89775  1.0000
  C   C1540     1.0  0.62179  0.40716  0.91467  1.0000
  C   C1541     1.0  0.62737  0.38945  0.92344  1.0000
  C   C1542     1.0  0.64233  0.37823  0.91561  1.0000
  C   C1543     1.0  0.65133  0.38455  0.89850  1.0000
  C   C1544     1.0  0.64554  0.40221  0.88951  1.0000
  H   H2710     1.0  0.61041  0.41578  0.92101  1.0000
  H   H2711     1.0  0.62007  0.38444  0.93642  1.0000
  H   H2712     1.0  0.66272  0.37587  0.89234  1.0000
  H   H2713     1.0  0.65255  0.40716  0.87633  1.0000
  H   H2714     1.0  0.56853  0.12455  0.75693  1.0000
  H   H2715     1.0  0.53874  0.06785  0.95588  1.0000
  H   H2716     1.0  0.66768  0.08464  0.87033  1.0000
  C   C1545     1.0  0.52603  0.47347  0.90209  1.0000
  C   C1546     1.0  0.67077  0.41321  0.94957  1.0000
  C   C1547     1.0  0.58257  0.09222  0.73752  1.0000
  C   C1548     1.0  0.59186  0.07256  0.73514  1.0000
  H   H2717     1.0  0.56986  0.09376  0.72941  1.0000
  H   H2718     1.0  0.57818  0.09284  0.75262  1.0000
  H   H2719     1.0  0.59595  0.07097  0.72009  1.0000
  H   H2720     1.0  0.60447  0.06992  0.74341  1.0000
  H   H2721     1.0  0.58188  0.06187  0.74017  1.0000
  H   H2722     1.0  0.71815  0.05613  0.68072  1.0000
  C   C1549     1.0  0.62768  0.15342  0.70183  1.0000
  H   H2723     1.0  0.68177  0.41155  0.98465  1.0000
  C   C1550     1.0  0.71165  0.37675  0.85418  1.0000
  C   C1551     1.0  0.70736  0.40904  0.86339  1.0000
  H   H2724     1.0  0.59978  0.14727  0.69715  1.0000
  H   H2725     1.0  0.70060  0.04089  0.68884  1.0000
  C   C1552     1.0  0.69172  0.37059  0.86020  1.0000
  H   H2726     1.0  0.54058  0.00144  0.95144  1.0000
  C   C1553     1.0  0.61797  0.00729  0.95694  1.0000
  H   H2727     1.0  0.54270  0.17153  0.70663  1.0000
  C   C1554     1.0  0.68454  0.35922  0.84561  1.0000
  H   H2728     1.0  0.74070  0.39511  0.89744  1.0000
  H   H2729     1.0  0.52327  0.16591  0.90646  1.0000
  H   H2730     1.0  0.70226  0.38140  0.89120  1.0000
  C   C1555     1.0  0.73746  0.26537  0.86702  1.0000
  C   C1556     1.0  0.52582  0.48994  0.91118  1.0000
  H   H2731     1.0  0.71132  0.38269  0.83928  1.0000
  H   H2732     1.0  0.70166  0.41094  0.84922  1.0000
  H   H2733     1.0  0.69468  0.40906  0.87336  1.0000
  C   C1557     1.0  0.50407  0.18365  0.82504  1.0000
  H   H2734     1.0  0.61785  0.47893  0.97074  1.0000
  C   C1558     1.0  0.59923  0.46467  0.99120  1.0000
  H   H2735     1.0  0.51558  0.37270  0.91923  1.0000
  H   H2736     1.0  0.68164  0.38298  0.86211  1.0000
  H   H2737     1.0  0.69188  0.36137  0.87354  1.0000
  H   H2738     1.0  0.73721  0.24499  0.83814  1.0000
  H   H2739     1.0  0.51377  0.47092  0.98521  1.0000
  H   H2740     1.0  0.72154  0.27938  0.82944  1.0000
  C   C1559     1.0  0.71725  0.38234  0.88627  1.0000
  H   H2741     1.0  0.56805  0.18176  0.94250  1.0000
  H   H2742     1.0  0.67234  0.39858  0.94527  1.0000
  C   C1560     1.0  0.55099  0.03000  0.96426  1.0000
  H   H2743     1.0  0.50384  0.10665  0.96331  1.0000
  H   H2744     1.0  0.68342  0.36780  0.83195  1.0000
  H   H2745     1.0  0.69411  0.34644  0.84364  1.0000
  H   H2746     1.0  0.67042  0.35479  0.85055  1.0000
  H   H2747     1.0  0.55504  0.17380  0.91309  1.0000
  H   H2748     1.0  0.52340  0.38543  0.93756  1.0000
  H   H2749     1.0  0.54926  0.03350  0.93345  1.0000
  C   C1561     1.0  0.72126  0.04617  0.71799  1.0000
  C   C1562     1.0  0.58468  0.14762  0.76227  1.0000
  H   H2750     1.0  0.62291  0.01602  0.66510  1.0000
  C   C1563     1.0  0.54313  0.00222  0.99550  1.0000
  C   C1564     1.0  0.56364  0.15301  0.72097  1.0000
  H   H2751     1.0  0.57435  0.16327  0.71747  1.0000
  C   C1565     1.0  0.66230  0.00880  0.68064  1.0000
  H   H2752     1.0  0.66415  0.44109  0.93461  1.0000
  H   H2753     1.0  0.58390  0.02280  0.94420  1.0000
  S   S361      1.0  0.65899  0.06833  0.67226  1.0000
  C   C1566     1.0  0.50054  0.18822  0.92927  1.0000
  H   H2754     1.0  0.64363  0.43467  0.98471  1.0000
  H   H2755     1.0  0.72381  0.36764  0.88746  1.0000
  H   H2756     1.0  0.72923  0.08638  0.67180  1.0000
  H   H2757     1.0  0.64296  0.44101  0.96058  1.0000
  H   H2758     1.0  0.55641  0.15553  0.73483  1.0000
  H   H2759     1.0  0.72996  0.39078  0.93076  1.0000
  N   N88       1.0  0.58885  0.12764  0.73311  1.0000
  H   H2760     1.0  0.53761  0.14718  0.70940  1.0000
  H   H2761     1.0  0.50529  0.18829  0.81023  1.0000
  C   C1567     1.0  0.52017  0.38637  0.92256  1.0000
  H   H2762     1.0  0.63975  0.14760  0.71001  1.0000
  C   C1568     1.0  0.72671  0.24923  0.82772  1.0000
  C   C1569     1.0  0.67708  0.42273  0.91480  1.0000
  C   C1570     1.0  0.73725  0.25301  0.80861  1.0000
  C   C1571     1.0  0.61084  0.47892  0.98462  1.0000
  H   H2763     1.0  0.72129  0.36380  0.85386  1.0000
  H   H2764     1.0  0.58726  0.02737  0.96762  1.0000
  H   H2765     1.0  0.51497  0.12175  0.93142  1.0000
  C   C1572     1.0  0.50241  0.23842  0.81145  1.0000
  H   H2766     1.0  0.63225  0.15385  0.68666  1.0000
  H   H2767     1.0  0.52213  0.05317  0.94783  1.0000
  H   H2768     1.0  0.54643  0.46746  0.97091  1.0000
  C   C1573     1.0  0.66419  0.42601  0.93228  1.0000
  H   H2769     1.0  0.67966  0.44546  0.96141  1.0000
  N   N89       1.0  0.71903  0.39050  0.86606  1.0000
  H   H2770     1.0  0.74342  0.38283  0.83167  1.0000
  H   H2771     1.0  0.54704  0.15613  0.94694  1.0000
  H   H2772     1.0  0.68441  0.38128  0.97001  1.0000
  H   H2773     1.0  0.50804  0.11802  0.98382  1.0000
  H   H2774     1.0  0.62354  0.16799  0.70542  1.0000
  H   H2775     1.0  0.62031  0.01574  0.96870  1.0000
  H   H2776     1.0  0.65531  0.47230  0.95874  1.0000
  H   H2777     1.0  0.56540  0.08699  0.67170  1.0000
  C   C1574     1.0  0.66767  0.00675  0.69915  1.0000
  C   C1575     1.0  0.69022  0.31854  0.99192  1.0000
  H   H2778     1.0  0.53248  0.44942  0.96495  1.0000
  H   H2779     1.0  0.57592  0.12899  0.70661  1.0000
  C   C1576     1.0  0.72404  0.38265  0.92045  1.0000
  H   H2780     1.0  0.70695  0.00803  0.68514  1.0000
  H   H2781     1.0  0.60110  0.15468  0.73029  1.0000
  H   H2782     1.0  0.61423  0.37799  0.97214  1.0000
  H   H2783     1.0  0.51071  0.41551  0.92125  1.0000
  N   N90       1.0  0.64188  0.10277  0.86927  1.0000
  C   C1577     1.0  0.64229  0.11569  0.85139  1.0000
  C   C1578     1.0  0.62170  0.10022  0.87588  1.0000
  C   C1579     1.0  0.65039  0.11250  0.88408  1.0000
  C   C1580     1.0  0.65279  0.08402  0.86709  1.0000
  C   C1581     1.0  0.66158  0.12322  0.84489  1.0000
  C   C1582     1.0  0.64937  0.10257  0.90430  1.0000
  C   C1583     1.0  0.60973  0.09129  0.86249  1.0000
  C   C1584     1.0  0.58937  0.09090  0.87036  1.0000
  C   C1585     1.0  0.66189  0.13187  0.82459  1.0000
  C   C1586     1.0  0.66075  0.11220  0.91730  1.0000
  H   H2784     1.0  0.63216  0.12813  0.85301  1.0000
  H   H2785     1.0  0.63723  0.10899  0.83959  1.0000
  H   H2786     1.0  0.62083  0.09100  0.88921  1.0000
  H   H2787     1.0  0.61445  0.11406  0.87908  1.0000
  H   H2788     1.0  0.64371  0.12705  0.88477  1.0000
  H   H2789     1.0  0.66550  0.11415  0.88027  1.0000
  H   H2790     1.0  0.64722  0.07314  0.87768  1.0000
  H   H2791     1.0  0.66449  0.13444  0.85375  1.0000
  H   H2792     1.0  0.67307  0.11193  0.84610  1.0000
  H   H2793     1.0  0.65483  0.08763  0.90438  1.0000
  H   H2794     1.0  0.63474  0.10319  0.91049  1.0000
  H   H2795     1.0  0.60966  0.09920  0.84845  1.0000
  H   H2796     1.0  0.61504  0.07649  0.86108  1.0000
  H   H2797     1.0  0.58849  0.08289  0.88439  1.0000
  H   H2798     1.0  0.58298  0.10539  0.87162  1.0000
  H   H2799     1.0  0.58116  0.08409  0.86072  1.0000
  H   H2800     1.0  0.65946  0.12118  0.81493  1.0000
  H   H2801     1.0  0.65091  0.14369  0.82310  1.0000
  H   H2802     1.0  0.67573  0.13740  0.82045  1.0000
  H   H2803     1.0  0.65926  0.10519  0.93177  1.0000
  H   H2804     1.0  0.67583  0.11134  0.91248  1.0000
  H   H2805     1.0  0.65550  0.12719  0.91779  1.0000
  N   N91       1.0  0.53493  0.14296  0.92503  1.0000
  C   C1587     1.0  0.55149  0.14930  0.93394  1.0000
  C   C1588     1.0  0.52685  0.12722  0.93777  1.0000
  C   C1589     1.0  0.54210  0.13487  0.90688  1.0000
  C   C1590     1.0  0.56373  0.16289  0.92127  1.0000
  C   C1591     1.0  0.55146  0.04206  0.94510  1.0000
  H   H2806     1.0  0.50576  0.24285  0.79640  1.0000
  C   C1592     1.0  0.52738  0.12651  0.89584  1.0000
  C   C1593     1.0  0.65236  0.43419  0.97130  1.0000
  H   H2807     1.0  0.73201  0.36867  0.92045  1.0000
  C   C1594     1.0  0.53573  0.12140  0.87658  1.0000
  H   H2808     1.0  0.56098  0.13695  0.93869  1.0000
  C   C1595     1.0  0.52016  0.15877  0.92069  1.0000
  H   H2809     1.0  0.50278  0.40290  0.90316  1.0000
  H   H2810     1.0  0.53768  0.11517  0.93953  1.0000
  H   H2811     1.0  0.55347  0.12366  0.90952  1.0000
  H   H2812     1.0  0.54846  0.14581  0.89698  1.0000
  H   H2813     1.0  0.49918  0.19977  0.93870  1.0000
  C   C1596     1.0  0.50950  0.06550  0.99038  1.0000
  C   C1597     1.0  0.59927  0.02610  0.68315  1.0000
  H   H2814     1.0  0.52497  0.11542  0.86902  1.0000
  H   H2815     1.0  0.57286  0.15491  0.91111  1.0000
  H   H2816     1.0  0.69268  0.44327  0.87697  1.0000
  H   H2817     1.0  0.71060  0.45731  0.86560  1.0000
  H   H2818     1.0  0.52259  0.11339  0.90342  1.0000
  C   C1598     1.0  0.55607  0.99891  0.95207  1.0000
  H   H2819     1.0  0.53928  0.46593  0.89838  1.0000
  S   S362      1.0  0.59007  0.49151  0.94205  1.0000
  C   C1599     1.0  0.53900  0.45496  0.97668  1.0000
  H   H2820     1.0  0.49969  0.16823  0.87821  1.0000
  H   H2821     1.0  0.63436  0.39165  0.99355  1.0000
  H   H2822     1.0  0.51504  0.13665  0.89358  1.0000
  H   H2823     1.0  0.54037  0.13407  0.86795  1.0000
  H   H2824     1.0  0.54786  0.11083  0.87810  1.0000
  N   N92       1.0  0.70498  0.26645  0.85273  1.0000
  C   C1600     1.0  0.70091  0.24700  0.86119  1.0000
  C   C1601     1.0  0.71739  0.27485  0.86536  1.0000
  C   C1602     1.0  0.68659  0.27840  0.85276  1.0000
  C   C1603     1.0  0.71360  0.26664  0.83284  1.0000
  H   H2825     1.0  0.50631  0.15301  0.91995  1.0000
  C   C1604     1.0  0.68593  0.23740  0.85165  1.0000
  C   C1605     1.0  0.68746  0.29935  0.84519  1.0000
  C   C1606     1.0  0.66861  0.44686  0.97291  1.0000
  H   H2826     1.0  0.67817  0.40768  0.91202  1.0000
  H   H2827     1.0  0.58583  0.18138  0.92344  1.0000
  C   C1607     1.0  0.68646  0.21634  0.85758  1.0000
  C   C1608     1.0  0.66775  0.30878  0.84282  1.0000
  H   H2828     1.0  0.69590  0.24745  0.87627  1.0000
  H   H2829     1.0  0.71382  0.23740  0.86144  1.0000
  H   H2830     1.0  0.50902  0.24778  0.82011  1.0000
  H   H2831     1.0  0.71041  0.27505  0.87976  1.0000
  H   H2832     1.0  0.67982  0.27816  0.86724  1.0000
  H   H2833     1.0  0.67663  0.27255  0.84409  1.0000
  H   H2834     1.0  0.70245  0.26802  0.82263  1.0000
  H   H2835     1.0  0.61975  0.01607  0.94342  1.0000
  Fe  Fe181     1.0  0.61637  0.49290  0.92323  1.0000
  C   C1609     1.0  0.66861  0.40465  0.98352  1.0000
  H   H2836     1.0  0.67173  0.24346  0.85590  1.0000
  H   H2837     1.0  0.68766  0.23947  0.83613  1.0000
  H   H2838     1.0  0.69543  0.30082  0.83136  1.0000
  H   H2839     1.0  0.69414  0.30729  0.85512  1.0000
  H   H2840     1.0  0.58543  0.16199  0.94122  1.0000
  H   H2841     1.0  0.61706  0.13516  0.73528  1.0000
  H   H2842     1.0  0.73123  0.00294  0.67946  1.0000
  C   C1610     1.0  0.62735  0.40104  0.98255  1.0000
  C   C1611     1.0  0.59844  0.00002  0.95943  1.0000
  H   H2843     1.0  0.59969  0.14978  0.76353  1.0000
  H   H2844     1.0  0.61726  0.04867  0.68595  1.0000
  C   C1612     1.0  0.67450  0.38344  0.98238  1.0000
  H   H2845     1.0  0.69997  0.20917  0.85259  1.0000
  H   H2846     1.0  0.68458  0.21384  0.87311  1.0000
  H   H2847     1.0  0.67484  0.21020  0.85141  1.0000
  H   H2848     1.0  0.65946  0.30837  0.85655  1.0000
  H   H2849     1.0  0.66864  0.32366  0.83729  1.0000
  H   H2850     1.0  0.66034  0.30164  0.83276  1.0000
  C   C1613     1.0  0.52389  0.46023  0.99187  1.0000
  N   N93       1.0  0.65814  0.41415  0.96732  1.0000
  C   C1614     1.0  0.50911  0.46714  0.89712  1.0000
  C   C1615     1.0  0.51419  0.11426  0.96987  1.0000
  C   C1616     1.0  0.71808  0.00949  0.67348  1.0000
  H   H2851     1.0  0.69570  0.44604  0.85162  1.0000
  S   S363      1.0  0.72871  0.32829  0.87167  1.0000
  C   C1617     1.0  0.61124  0.14107  0.70592  1.0000
  H   H2852     1.0  0.71776  0.40704  0.90198  1.0000
  H   H2853     1.0  0.62542  0.02604  0.69699  1.0000
  H   H2854     1.0  0.63977  0.07682  0.84165  1.0000
  H   H2855     1.0  0.66226  0.37522  0.98127  1.0000
  H   H2856     1.0  0.55476  0.03910  0.97495  1.0000
  S   S364      1.0  0.62513  0.46245  0.93040  1.0000
  H   H2857     1.0  0.58003  0.13526  0.79107  1.0000
  C   C1618     1.0  0.57226  0.13249  0.72133  1.0000
  C   C1619     1.0  0.59609  0.10759  0.73035  1.0000
  H   H2858     1.0  0.55944  0.14745  0.78118  1.0000
  C   C1620     1.0  0.65368  0.07629  0.84745  1.0000
  H   H2859     1.0  0.66273  0.08467  0.83725  1.0000
  C   C1621     1.0  0.51753  0.17477  0.93405  1.0000
  H   H2860     1.0  0.63220  0.41283  0.95409  1.0000
  H   H2861     1.0  0.74069  0.27020  0.89615  1.0000
  H   H2862     1.0  0.59945  0.10571  0.71525  1.0000
  C   C1622     1.0  0.58313  0.12869  0.75379  1.0000
  H   H2863     1.0  0.56061  0.12364  0.72640  1.0000
  C   C1623     1.0  0.66199  0.05593  0.84825  1.0000
  H   H2864     1.0  0.65294  0.04670  0.85760  1.0000
  C   C1624     1.0  0.58303  0.01647  0.95895  1.0000
  H   H2865     1.0  0.70629  0.04465  0.72256  1.0000
  H   H2866     1.0  0.52993  0.18318  0.93258  1.0000
  C   C1625     1.0  0.57483  0.14766  0.78191  1.0000
  H   H2867     1.0  0.67630  0.05475  0.85343  1.0000
  Fe  Fe182     1.0  0.57583  0.48377  0.91722  1.0000
  H   H2868     1.0  0.50225  0.19446  0.91452  1.0000
  H   H2869     1.0  0.64441  0.39066  0.95894  1.0000
  H   H2870     1.0  0.51561  0.16939  0.94896  1.0000
  C   C1626     1.0  0.57649  0.17258  0.93289  1.0000
  H   H2871     1.0  0.53321  0.38921  0.91379  1.0000
  H   H2872     1.0  0.51355  0.07471  0.97829  1.0000
  H   H2873     1.0  0.53689  0.06666  0.93116  1.0000
  H   H2874     1.0  0.68525  0.41650  0.95196  1.0000
  H   H2875     1.0  0.64985  0.42325  0.92925  1.0000
  Fe  Fe183     1.0  0.67661  0.09203  0.67748  1.0000
  H   H2876     1.0  0.73439  0.40693  0.83240  1.0000
  H   H2877     1.0  0.56509  0.04842  0.94227  1.0000
  H   H2878     1.0  0.67333  0.47630  0.97379  1.0000
  C   C1627     1.0  0.71572  0.04107  0.68423  1.0000
  H   H2879     1.0  0.60205  0.40095  0.96746  1.0000
  C   C1628     1.0  0.64072  0.40447  0.96477  1.0000
  H   H2880     1.0  0.61592  0.12706  0.70133  1.0000
  C   C1629     1.0  0.70785  0.30896  0.98923  1.0000
  H   H2881     1.0  0.50949  0.45468  0.88963  1.0000
  H   H2882     1.0  0.73543  0.14012  0.71267  1.0000
  C   C1630     1.0  0.61281  0.03563  0.69403  1.0000
  N   N94       1.0  0.56326  0.01172  0.96509  1.0000
  H   H2883     1.0  0.72724  0.25673  0.79748  1.0000
  H   H2884     1.0  0.71847  0.23695  0.82687  1.0000
  H   H2885     1.0  0.73799  0.16434  0.70448  1.0000
  C   C1631     1.0  0.72718  0.03439  0.70156  1.0000
  H   H2886     1.0  0.62235  0.41442  0.98848  1.0000
  C   C1632     1.0  0.72564  0.39320  0.90093  1.0000
  H   H2887     1.0  0.53605  0.02730  0.96788  1.0000
  H   H2888     1.0  0.59553  0.01318  0.69181  1.0000
  H   H2889     1.0  0.67520  0.44303  0.98644  1.0000
  H   H2890     1.0  0.56400  0.01824  0.67525  1.0000
  H   H2891     1.0  0.73743  0.25006  0.87089  1.0000
  C   C1633     1.0  0.71722  0.42723  0.86514  1.0000
  C   C1634     1.0  0.50103  0.17240  0.86332  1.0000
  H   H2892     1.0  0.70913  0.38074  0.92499  1.0000
  H   H2893     1.0  0.72337  0.06123  0.71398  1.0000
  H   H2894     1.0  0.72466  0.42660  0.87817  1.0000
  Fe  Fe184     1.0  0.58038  0.07630  0.99515  1.0000
  C   C1635     1.0  0.66151  0.46760  0.97233  1.0000
  C   C1636     1.0  0.50505  0.40221  0.91837  1.0000
  H   H2895     1.0  0.57095  0.01157  0.99374  1.0000
  H   H2896     1.0  0.72510  0.01955  0.70656  1.0000
  H   H2897     1.0  0.52711  0.10484  0.97206  1.0000
  H   H2898     1.0  0.67613  0.26931  0.98946  1.0000
  S   S365      1.0  0.60186  0.48751  0.89763  1.0000
  H   H2899     1.0  0.74583  0.26799  0.85352  1.0000
  H   H2900     1.0  0.72769  0.42963  0.85317  1.0000
  H   H2901     1.0  0.72981  0.04127  0.73005  1.0000
  H   H2902     1.0  0.50847  0.22377  0.81444  1.0000
  C   C1637     1.0  0.53631  0.05837  0.94505  1.0000
  H   H2903     1.0  0.49803  0.42600  0.95027  1.0000
  H   H2904     1.0  0.54942  0.44397  0.98244  1.0000
  H   H2905     1.0  0.74612  0.24022  0.80505  1.0000
  H   H2906     1.0  0.50172  0.45873  0.93846  1.0000
  H   H2907     1.0  0.60079  0.38920  0.99080  1.0000
  H   H2908     1.0  0.65080  0.47006  0.98396  1.0000
  C   C1638     1.0  0.73954  0.39195  0.86016  1.0000
  H   H2909     1.0  0.74236  0.03575  0.69816  1.0000
  H   H2910     1.0  0.56190  0.00232  0.93743  1.0000
  C   C1639     1.0  0.74573  0.15089  0.70931  1.0000
  C   C1640     1.0  0.74430  0.39585  0.83876  1.0000
  C   C1641     1.0  0.61359  0.49315  0.99604  1.0000
  H   H2911     1.0  0.74649  0.26465  0.80892  1.0000
  H   H2912     1.0  0.53209  0.02465  0.66374  1.0000
  C   C1642     1.0  0.60820  0.02193  0.66356  1.0000
  H   H2913     1.0  0.61441  0.76959  0.24717  1.0000
  S   S366      1.0  0.58848  0.51168  0.08135  1.0000
  H   H2914     1.0  0.62147  0.86281  0.19154  1.0000
  H   H2915     1.0  0.50638  0.82610  0.16347  1.0000
  S   S367      1.0  0.62503  0.52785  0.11716  1.0000
  H   H2916     1.0  0.65152  0.94745  0.17457  1.0000
  S   S368      1.0  0.58302  0.90696  0.01999  1.0000
  H   H2917     1.0  0.74724  0.55705  0.08531  1.0000
  Fe  Fe185     1.0  0.59122  0.87930  0.00833  1.0000
  S   S369      1.0  0.60210  0.85224  0.02426  1.0000
  H   H2918     1.0  0.53391  0.50836  0.02615  1.0000
  S   S370      1.0  0.63690  0.89499  0.30190  1.0000
  Fe  Fe186     1.0  0.68650  0.87192  0.31004  1.0000
  S   S371      1.0  0.67772  0.88468  0.28152  1.0000
  C   C1643     1.0  0.51466  0.82077  0.10664  1.0000
  Fe  Fe187     1.0  0.66395  0.90862  0.29695  1.0000
  S   S372      1.0  0.66071  0.93933  0.28535  1.0000
  Fe  Fe188     1.0  0.65116  0.86997  0.28834  1.0000
  S   S373      1.0  0.63230  0.86015  0.26688  1.0000
  H   H2919     1.0  0.73781  0.69057  0.14169  1.0000
  Fe  Fe189     1.0  0.60830  0.82027  0.13220  1.0000
  S   S374      1.0  0.58898  0.79784  0.12910  1.0000
  S   S375      1.0  0.61191  0.84632  0.11201  1.0000
  Fe  Fe190     1.0  0.61540  0.80647  0.17335  1.0000
  S   S376      1.0  0.59598  0.78316  0.17322  1.0000
  S   S377      1.0  0.63482  0.80994  0.19687  1.0000
  Fe  Fe191     1.0  0.61012  0.77809  0.14464  1.0000
  S   S378      1.0  0.61577  0.74743  0.13735  1.0000
  Fe  Fe192     1.0  0.57638  0.80437  0.15754  1.0000
  S   S379      1.0  0.54517  0.81332  0.16257  1.0000
  S   S380      1.0  0.63049  0.80024  0.14551  1.0000
  S   S381      1.0  0.59483  0.82789  0.16000  1.0000
  Fe  Fe193     1.0  0.67662  0.62387  0.09499  1.0000
  S   S382      1.0  0.70547  0.61239  0.08581  1.0000
  S   S383      1.0  0.65086  0.60925  0.08930  1.0000
  Fe  Fe194     1.0  0.69011  0.66179  0.10295  1.0000
  S   S384      1.0  0.72009  0.65276  0.09351  1.0000
  S   S385      1.0  0.68628  0.69143  0.11340  1.0000
  Fe  Fe195     1.0  0.70787  0.64048  0.06962  1.0000
  S   S386      1.0  0.72209  0.64023  0.04009  1.0000
  Fe  Fe196     1.0  0.71566  0.62536  0.11036  1.0000
  H   H2920     1.0  0.51221  0.49955  0.00837  1.0000
  S   S387      1.0  0.67857  0.65167  0.07757  1.0000
  S   S388      1.0  0.68614  0.63469  0.12108  1.0000
  H   H2921     1.0  0.54169  0.80598  0.07521  1.0000
  H   H2922     1.0  0.72377  0.60780  0.19602  1.0000
  C   C1644     1.0  0.69010  0.64245  0.02009  1.0000
  C   C1645     1.0  0.70962  0.63936  0.01968  1.0000
  C   C1646     1.0  0.71955  0.63571  0.00256  1.0000
  H   H2923     1.0  0.62188  0.55005  0.01698  1.0000
  C   C1647     1.0  0.73829  0.90896  0.31528  1.0000
  H   H2924     1.0  0.68229  0.64553  0.03307  1.0000
  H   H2925     1.0  0.58956  0.51151  0.14590  1.0000
  H   H2926     1.0  0.59031  0.78055  0.07784  1.0000
  C   C1648     1.0  0.67006  0.57342  0.04551  1.0000
  H   H2927     1.0  0.65551  0.86275  0.19861  1.0000
  H   H2928     1.0  0.52325  0.49744  0.13325  1.0000
  H   H2929     1.0  0.59525  0.79104  0.02606  1.0000
  C   C1649     1.0  0.63547  0.73254  0.12948  1.0000
  C   C1650     1.0  0.63278  0.71389  0.12622  1.0000
  C   C1651     1.0  0.64800  0.70126  0.12086  1.0000
  C   C1652     1.0  0.66626  0.70704  0.11888  1.0000
  C   C1653     1.0  0.66895  0.72568  0.12216  1.0000
  C   C1654     1.0  0.65367  0.73840  0.12719  1.0000
  H   H2930     1.0  0.61878  0.70914  0.12791  1.0000
  H   H2931     1.0  0.64562  0.68700  0.11847  1.0000
  H   H2932     1.0  0.68296  0.73039  0.12061  1.0000
  H   H2933     1.0  0.65598  0.75271  0.12934  1.0000
  C   C1655     1.0  0.52508  0.80171  0.15857  1.0000
  C   C1656     1.0  0.52620  0.78305  0.15412  1.0000
  C   C1657     1.0  0.64386  0.91443  0.03430  1.0000
  H   H2934     1.0  0.53975  0.77528  0.15271  1.0000
  H   H2935     1.0  0.55680  0.87032  0.07810  1.0000
  N   N95       1.0  0.64557  0.74512  0.19274  1.0000
  H   H2936     1.0  0.65238  0.91272  0.17490  1.0000
  C   C1658     1.0  0.63346  0.82350  0.21670  1.0000
  C   C1659     1.0  0.61765  0.83528  0.22151  1.0000
  C   C1660     1.0  0.61751  0.84609  0.23706  1.0000
  C   C1661     1.0  0.63307  0.84523  0.24812  1.0000
  C   C1662     1.0  0.64868  0.83303  0.24362  1.0000
  C   C1663     1.0  0.64890  0.82237  0.22795  1.0000
  H   H2937     1.0  0.60558  0.83619  0.21318  1.0000
  H   H2938     1.0  0.60527  0.85531  0.24047  1.0000
  H   H2939     1.0  0.66071  0.83204  0.25203  1.0000
  H   H2940     1.0  0.66117  0.81322  0.22451  1.0000
  C   C1664     1.0  0.65939  0.97637  0.29294  1.0000
  C   C1665     1.0  0.66770  0.95811  0.29702  1.0000
  C   C1666     1.0  0.68174  0.95535  0.30976  1.0000
  H   H2941     1.0  0.70628  0.57155  0.07596  1.0000
  H   H2942     1.0  0.58205  0.51586  0.12226  1.0000
  H   H2943     1.0  0.55307  0.99672  0.02363  1.0000
  C   C1667     1.0  0.60412  0.85069  0.04878  1.0000
  C   C1668     1.0  0.60080  0.86650  0.05894  1.0000
  C   C1669     1.0  0.60289  0.86484  0.07839  1.0000
  C   C1670     1.0  0.60817  0.84739  0.08786  1.0000
  C   C1671     1.0  0.61120  0.83152  0.07778  1.0000
  C   C1672     1.0  0.60923  0.83319  0.05828  1.0000
  H   H2944     1.0  0.59677  0.88000  0.05180  1.0000
  H   H2945     1.0  0.60048  0.87715  0.08616  1.0000
  H   H2946     1.0  0.61551  0.81806  0.08492  1.0000
  H   H2947     1.0  0.61190  0.82091  0.05051  1.0000
  Fe  Fe197     1.0  0.60792  0.50000  0.05857  1.0000
  H   H2948     1.0  0.52216  0.81971  0.11974  1.0000
  H   H2949     1.0  0.65341  0.72358  0.21452  1.0000
  H   H2950     1.0  0.62303  0.58146  0.04328  1.0000
  C   C1673     1.0  0.51187  0.50286  0.09644  1.0000
  C   C1674     1.0  0.55017  0.81080  0.08602  1.0000
  C   C1675     1.0  0.63359  0.54958  0.10800  1.0000
  C   C1676     1.0  0.64819  0.55676  0.11657  1.0000
  C   C1677     1.0  0.65418  0.57473  0.11058  1.0000
  C   C1678     1.0  0.64514  0.58593  0.09639  1.0000
  C   C1679     1.0  0.63055  0.57873  0.08786  1.0000
  C   C1680     1.0  0.62506  0.56052  0.09334  1.0000
  H   H2951     1.0  0.65474  0.54846  0.12804  1.0000
  H   H2952     1.0  0.66531  0.58015  0.11738  1.0000
  H   H2953     1.0  0.62309  0.58745  0.07729  1.0000
  H   H2954     1.0  0.61360  0.55531  0.08687  1.0000
  C   C1681     1.0  0.62978  0.73331  0.18961  1.0000
  H   H2955     1.0  0.61338  0.94227  0.29417  1.0000
  H   H2956     1.0  0.57258  0.77801  0.09679  1.0000
  C   C1682     1.0  0.63217  0.86918  0.18153  1.0000
  H   H2957     1.0  0.61378  0.96588  0.31770  1.0000
  H   H2958     1.0  0.63151  0.92138  0.26617  1.0000
  H   H2959     1.0  0.52125  0.83517  0.20453  1.0000
  C   C1683     1.0  0.66022  0.73394  0.20423  1.0000
  H   H2960     1.0  0.68729  0.75833  0.15242  1.0000
  H   H2961     1.0  0.74090  0.59187  0.09093  1.0000
  H   H2962     1.0  0.54161  0.86568  0.10623  1.0000
  H   H2963     1.0  0.64330  0.71830  0.16598  1.0000
  H   H2964     1.0  0.58035  0.81131  0.08958  1.0000
  C   C1684     1.0  0.52301  0.83940  0.32223  1.0000
  N   N96       1.0  0.54510  0.83138  0.08847  1.0000
  C   C1685     1.0  0.51264  0.90620  0.00385  1.0000
  C   C1686     1.0  0.61546  0.56188  0.02483  1.0000
  H   H2965     1.0  0.62525  0.89577  0.06580  1.0000
  H   H2966     1.0  0.52948  0.81545  0.22007  1.0000
  C   C1687     1.0  0.55849  0.85906  0.12972  1.0000
  H   H2967     1.0  0.49937  0.87312  0.31989  1.0000
  H   H2968     1.0  0.51983  0.81140  0.19850  1.0000
  C   C1688     1.0  0.51857  0.82062  0.21021  1.0000
  H   H2969     1.0  0.64847  0.77030  0.20649  1.0000
  H   H2970     1.0  0.71021  0.63948  0.18227  1.0000
  C   C1689     1.0  0.55045  0.87281  0.04918  1.0000
  H   H2971     1.0  0.54566  0.83704  0.05831  1.0000
  H   H2972     1.0  0.54010  0.86830  0.04004  1.0000
  H   H2973     1.0  0.54870  0.88837  0.04894  1.0000
  H   H2974     1.0  0.56478  0.86874  0.04331  1.0000
  H   H2975     1.0  0.73175  0.56716  0.11558  1.0000
  C   C1690     1.0  0.67362  0.89056  0.21577  1.0000
  C   C1691     1.0  0.65549  0.91918  0.20373  1.0000
  C   C1692     1.0  0.64742  0.90429  0.23486  1.0000
  C   C1693     1.0  0.66271  0.91884  0.18287  1.0000
  C   C1694     1.0  0.66507  0.93875  0.17382  1.0000
  C   C1695     1.0  0.62113  0.91603  0.25764  1.0000
  H   H2976     1.0  0.68358  0.90017  0.22023  1.0000
  H   H2977     1.0  0.67933  0.88686  0.20172  1.0000
  H   H2978     1.0  0.64147  0.92702  0.20335  1.0000
  H   H2979     1.0  0.66453  0.92804  0.21068  1.0000
  H   H2980     1.0  0.65808  0.91141  0.24163  1.0000
  H   H2981     1.0  0.63026  0.93121  0.23209  1.0000
  H   H2982     1.0  0.67650  0.91080  0.18122  1.0000
  C   C1696     1.0  0.67524  0.59314  0.01531  1.0000
  C   C1697     1.0  0.60258  0.99146  0.01496  1.0000
  H   H2983     1.0  0.55623  0.51643  0.15854  1.0000
  H   H2984     1.0  0.69407  0.84791  0.23576  1.0000
  H   H2985     1.0  0.60790  0.92516  0.25889  1.0000
  N   N97       1.0  0.72300  0.65990  0.16211  1.0000
  H   H2986     1.0  0.50862  0.51784  0.09677  1.0000
  H   H2987     1.0  0.62810  0.91297  0.08117  1.0000
  H   H2988     1.0  0.65975  0.78207  0.17730  1.0000
  H   H2989     1.0  0.52980  0.98994  0.02136  1.0000
  C   C1698     1.0  0.57106  0.80529  0.08042  1.0000
  H   H2990     1.0  0.72163  0.66742  0.19072  1.0000
  H   H2991     1.0  0.65959  0.57001  0.05732  1.0000
  H   H2992     1.0  0.63458  0.74550  0.23131  1.0000
  H   H2993     1.0  0.64858  0.97866  0.28303  1.0000
  C   C1699     1.0  0.57867  0.51892  0.13707  1.0000
  H   H2994     1.0  0.51760  0.83218  0.07773  1.0000
  S   S389      1.0  0.73647  0.60807  0.12959  1.0000
  C   C1700     1.0  0.68067  0.64190  0.00360  1.0000
  C   C1701     1.0  0.63726  0.76140  0.20341  1.0000
  H   H2995     1.0  0.66817  0.60185  0.00382  1.0000
  H   H2996     1.0  0.60879  0.95286  0.06423  1.0000
  C   C1702     1.0  0.67943  0.98903  0.31386  1.0000
  C   C1703     1.0  0.74350  0.57764  0.02257  1.0000
  N   N98       1.0  0.66102  0.58669  0.03061  1.0000
  H   H2997     1.0  0.57157  0.86399  0.12233  1.0000
  C   C1704     1.0  0.63279  0.63500  0.03733  1.0000
  H   H2998     1.0  0.54668  0.80208  0.09932  1.0000
  H   H2999     1.0  0.55623  0.82448  0.11592  1.0000
  H   H3000     1.0  0.61887  0.74204  0.18162  1.0000
  H   H3001     1.0  0.63786  0.85843  0.17197  1.0000
  H   H3002     1.0  0.56953  0.83982  0.10061  1.0000
  C   C1705     1.0  0.57530  0.78398  0.08206  1.0000
  C   C1706     1.0  0.55923  0.51285  0.14385  1.0000
  H   H3003     1.0  0.69370  0.71745  0.21749  1.0000
  C   C1707     1.0  0.50734  0.81157  0.16036  1.0000
  S   S390      1.0  0.52918  0.91434  0.01729  1.0000
  C   C1708     1.0  0.63438  0.90701  0.06816  1.0000
  C   C1709     1.0  0.64661  0.57660  0.02202  1.0000
  C   C1710     1.0  0.55094  0.50385  0.04973  1.0000
  H   H3004     1.0  0.53252  0.84889  0.12387  1.0000
  H   H3005     1.0  0.60958  0.70161  0.18854  1.0000
  H   H3006     1.0  0.62208  0.69318  0.16782  1.0000
  H   H3007     1.0  0.56658  0.77733  0.07274  1.0000
  H   H3008     1.0  0.69826  0.58409  0.04405  1.0000
  C   C1711     1.0  0.54548  0.85317  0.11575  1.0000
  C   C1712     1.0  0.66510  0.99174  0.30143  1.0000
  H   H3009     1.0  0.62967  0.96074  0.03881  1.0000
  H   H3010     1.0  0.64521  0.64288  0.03889  1.0000
  H   H3011     1.0  0.62280  0.64418  0.02879  1.0000
  H   H3012     1.0  0.62588  0.63151  0.05147  1.0000
  H   H3013     1.0  0.69990  0.55295  0.06297  1.0000
  H   H3014     1.0  0.57540  0.93081  0.05704  1.0000
  C   C1713     1.0  0.65185  0.88114  0.08808  1.0000
  H   H3015     1.0  0.66027  0.74205  0.16548  1.0000
  C   C1714     1.0  0.66752  0.76844  0.17456  1.0000
  C   C1715     1.0  0.52400  0.83413  0.09107  1.0000
  H   H3016     1.0  0.60872  0.71556  0.16620  1.0000
  H   H3017     1.0  0.64172  0.92486  0.02198  1.0000
  H   H3018     1.0  0.51717  0.90182  0.31871  1.0000
  H   H3019     1.0  0.71639  0.90116  0.29845  1.0000
  H   H3020     1.0  0.51475  0.83230  0.31288  1.0000
  H   H3021     1.0  0.60425  0.55643  0.03488  1.0000
  S   S391      1.0  0.60808  0.51119  0.02817  1.0000
  C   C1716     1.0  0.70423  0.66754  0.15513  1.0000
  H   H3022     1.0  0.63893  0.94276  0.07063  1.0000
  H   H3023     1.0  0.63526  0.55857  0.04605  1.0000
  C   C1717     1.0  0.68712  0.66658  0.16964  1.0000
  C   C1718     1.0  0.72824  0.67212  0.17671  1.0000
  C   C1719     1.0  0.54223  0.82854  0.32325  1.0000
  H   H3024     1.0  0.60635  0.91535  0.04701  1.0000
  C   C1720     1.0  0.66973  0.67746  0.16186  1.0000
  H   H3025     1.0  0.71617  0.63146  0.15966  1.0000
  H   H3026     1.0  0.58852  0.96644  0.01124  1.0000
  H   H3027     1.0  0.60902  0.57293  0.01486  1.0000
  C   C1721     1.0  0.63494  0.99105  0.00293  1.0000
  H   H3028     1.0  0.70097  0.66012  0.14294  1.0000
  H   H3029     1.0  0.70468  0.68257  0.14969  1.0000
  H   H3030     1.0  0.62572  0.61026  0.02569  1.0000
  H   H3031     1.0  0.74198  0.63560  0.19150  1.0000
  C   C1722     1.0  0.72587  0.91259  0.29866  1.0000
  C   C1723     1.0  0.64413  0.95554  0.04210  1.0000
  H   H3032     1.0  0.69002  0.67248  0.18281  1.0000
  H   H3033     1.0  0.68348  0.65183  0.17295  1.0000
  H   H3034     1.0  0.57910  0.53427  0.13787  1.0000
  H   H3035     1.0  0.72582  0.68101  0.12414  1.0000
  H   H3036     1.0  0.70029  0.70298  0.19847  1.0000
  S   S392      1.0  0.71762  0.86157  0.31132  1.0000
  H   H3037     1.0  0.66982  0.77649  0.14447  1.0000
  H   H3038     1.0  0.53255  0.86822  0.07392  1.0000
  H   H3039     1.0  0.55137  0.87065  0.13744  1.0000
  H   H3040     1.0  0.66231  0.90785  0.07870  1.0000
  H   H3041     1.0  0.65767  0.67640  0.17241  1.0000
  H   H3042     1.0  0.67217  0.69252  0.15840  1.0000
  H   H3043     1.0  0.66604  0.67149  0.14896  1.0000
  C   C1724     1.0  0.62642  0.75633  0.22251  1.0000
  H   H3044     1.0  0.61324  0.78452  0.22558  1.0000
  C   C1725     1.0  0.73803  0.67856  0.13298  1.0000
  H   H3045     1.0  0.66691  0.74322  0.21300  1.0000
  C   C1726     1.0  0.67910  0.77152  0.15594  1.0000
  C   C1727     1.0  0.67516  0.87245  0.22932  1.0000
  Fe  Fe198     1.0  0.61422  0.50809  0.09817  1.0000
  H   H3046     1.0  0.67950  0.69865  0.21338  1.0000
  C   C1728     1.0  0.62211  0.77359  0.23358  1.0000
  H   H3047     1.0  0.62266  0.72824  0.20317  1.0000
  H   H3048     1.0  0.54924  0.82822  0.30893  1.0000
  H   H3049     1.0  0.68632  0.73342  0.18601  1.0000
  C   C1729     1.0  0.60772  0.93954  0.30893  1.0000
  C   C1730     1.0  0.62847  0.91630  0.23709  1.0000
  H   H3050     1.0  0.61821  0.90154  0.26333  1.0000
  H   H3051     1.0  0.67494  0.87612  0.24400  1.0000
  N   N99       1.0  0.65422  0.90041  0.21500  1.0000
  H   H3052     1.0  0.66593  0.87495  0.09186  1.0000
  C   C1731     1.0  0.60274  0.93932  0.06301  1.0000
  H   H3053     1.0  0.56450  0.51946  0.00109  1.0000
  H   H3054     1.0  0.64188  0.75980  0.16530  1.0000
  C   C1732     1.0  0.69331  0.86038  0.22532  1.0000
  H   H3055     1.0  0.69372  0.85538  0.21108  1.0000
  H   H3056     1.0  0.66563  0.64471  0.00400  1.0000
  H   H3057     1.0  0.69873  0.96852  0.32764  1.0000
  H   H3058     1.0  0.51483  0.80644  0.10188  1.0000
  S   S393      1.0  0.66047  0.85591  0.31623  1.0000
  C   C1733     1.0  0.68762  0.57743  0.00583  1.0000
  H   H3059     1.0  0.65948  0.93367  0.05844  1.0000
  H   H3060     1.0  0.64429  0.59956  0.05303  1.0000
  H   H3061     1.0  0.64564  0.89088  0.24366  1.0000
  H   H3062     1.0  0.61761  0.91103  0.22912  1.0000
  H   H3063     1.0  0.70566  0.86848  0.22647  1.0000
  C   C1734     1.0  0.63519  0.71531  0.17949  1.0000
  H   H3064     1.0  0.64353  0.70498  0.18865  1.0000
  H   H3065     1.0  0.67724  0.76474  0.18591  1.0000
  H   H3066     1.0  0.64433  0.86999  0.08274  1.0000
  C   C1735     1.0  0.67671  0.72333  0.19328  1.0000
  C   C1736     1.0  0.64034  0.88888  0.20718  1.0000
  H   H3067     1.0  0.66325  0.86393  0.22829  1.0000
  H   H3068     1.0  0.73466  0.63341  0.00205  1.0000
  H   H3069     1.0  0.67192  0.71517  0.18247  1.0000
  H   H3070     1.0  0.51929  0.84871  0.09409  1.0000
  C   C1737     1.0  0.61779  0.70589  0.17532  1.0000
  H   H3071     1.0  0.62536  0.88124  0.17302  1.0000
  C   C1738     1.0  0.73518  0.60876  0.18473  1.0000
  C   C1739     1.0  0.68669  0.58072  0.05460  1.0000
  H   H3072     1.0  0.62861  0.89828  0.20138  1.0000
  H   H3073     1.0  0.65799  0.88213  0.18137  1.0000
  C   C1740     1.0  0.65345  0.75322  0.17389  1.0000
  H   H3074     1.0  0.56214  0.84707  0.14009  1.0000
  H   H3075     1.0  0.68824  0.94139  0.31297  1.0000
  C   C1741     1.0  0.55486  0.83662  0.10505  1.0000
  H   H3076     1.0  0.64077  0.58546  0.00990  1.0000
  H   H3077     1.0  0.68901  0.78242  0.15702  1.0000
  H   H3078     1.0  0.73335  0.64909  0.13582  1.0000
  H   H3079     1.0  0.64521  0.62124  0.01360  1.0000
  Fe  Fe199     1.0  0.64795  0.88233  0.32886  1.0000
  H   H3080     1.0  0.73133  0.60159  0.17262  1.0000
  C   C1742     1.0  0.64803  0.87556  0.19197  1.0000
  H   H3081     1.0  0.63348  0.87967  0.21861  1.0000
  C   C1743     1.0  0.54723  0.86406  0.06933  1.0000
  C   C1744     1.0  0.63866  0.61710  0.02766  1.0000
  C   C1745     1.0  0.64737  0.88999  0.01055  1.0000
  C   C1746     1.0  0.68821  0.70979  0.20653  1.0000
  C   C1747     1.0  0.63014  0.56990  0.03558  1.0000
  H   H3082     1.0  0.65326  0.56369  0.01611  1.0000
  S   S394      1.0  0.63376  0.49886  0.07446  1.0000
  H   H3083     1.0  0.56709  0.84053  0.06808  1.0000
  H   H3084     1.0  0.69589  0.56845  0.01619  1.0000
  C   C1748     1.0  0.55159  0.84247  0.07053  1.0000
  C   C1749     1.0  0.58469  0.80126  0.01940  1.0000
  C   C1750     1.0  0.58248  0.94390  0.05778  1.0000
  C   C1751     1.0  0.64444  0.93815  0.05674  1.0000
  H   H3085     1.0  0.52531  0.85368  0.31561  1.0000
  H   H3086     1.0  0.67563  0.94553  0.18094  1.0000
  H   H3087     1.0  0.74452  0.61595  0.06595  1.0000
  C   C1752     1.0  0.65218  0.60376  0.03963  1.0000
  H   H3088     1.0  0.63525  0.77964  0.23654  1.0000
  C   C1753     1.0  0.54408  0.99038  0.01431  1.0000
  H   H3089     1.0  0.57463  0.95219  0.06856  1.0000
  H   H3090     1.0  0.61272  0.75104  0.22024  1.0000
  H   H3091     1.0  0.66802  0.96758  0.05234  1.0000
  C   C1754     1.0  0.73689  0.65961  0.14526  1.0000
  H   H3092     1.0  0.62757  0.77076  0.19464  1.0000
  H   H3093     1.0  0.68356  0.56266  0.08067  1.0000
  C   C1755     1.0  0.72104  0.63994  0.17041  1.0000
  H   H3094     1.0  0.57464  0.81041  0.06559  1.0000
  H   H3095     1.0  0.54888  0.52128  0.13505  1.0000
  C   C1756     1.0  0.50970  0.77430  0.15182  1.0000
  H   H3096     1.0  0.64401  0.88585  0.10097  1.0000
  H   H3097     1.0  0.66997  0.93818  0.15880  1.0000
  H   H3098     1.0  0.64534  0.97635  0.06225  1.0000
  H   H3099     1.0  0.51071  0.75982  0.14853  1.0000
  H   H3100     1.0  0.60992  0.92427  0.31309  1.0000
  H   H3101     1.0  0.60236  0.93128  0.07700  1.0000
  C   C1757     1.0  0.63730  0.89565  0.02892  1.0000
  C   C1758     1.0  0.60142  0.97334  0.00882  1.0000
  C   C1759     1.0  0.65321  0.97177  0.04933  1.0000
  H   H3102     1.0  0.54980  0.97578  0.01227  1.0000
  C   C1760     1.0  0.61775  0.95080  0.32169  1.0000
  H   H3103     1.0  0.74062  0.60330  0.03590  1.0000
  C   C1761     1.0  0.69457  0.56602  0.06942  1.0000
  H   H3104     1.0  0.68473  0.60265  0.02067  1.0000
  H   H3105     1.0  0.57065  0.79579  0.02236  1.0000
  N   N100      1.0  0.63425  0.92189  0.05183  1.0000
  H   H3106     1.0  0.72235  0.68689  0.17371  1.0000
  H   H3107     1.0  0.67477  0.55969  0.03996  1.0000
  H   H3108     1.0  0.58203  0.95236  0.04401  1.0000
  H   H3109     1.0  0.50059  0.50491  0.04253  1.0000
  H   H3110     1.0  0.61314  0.93619  0.03417  1.0000
  S   S395      1.0  0.67462  0.89718  0.32461  1.0000
  H   H3111     1.0  0.66184  0.89202  0.06071  1.0000
  C   C1762     1.0  0.65388  0.89760  0.07308  1.0000
  H   H3112     1.0  0.66321  0.61239  0.04367  1.0000
  C   C1763     1.0  0.61411  0.92791  0.04806  1.0000
  H   H3113     1.0  0.56095  0.51447  0.04451  1.0000
  C   C1764     1.0  0.68765  0.97075  0.31804  1.0000
  H   H3114     1.0  0.58483  0.81477  0.02583  1.0000
  H   H3115     1.0  0.65203  0.95203  0.02883  1.0000
  H   H3116     1.0  0.65933  0.91268  0.03529  1.0000
  C   C1765     1.0  0.61708  0.96428  0.99957  1.0000
  H   H3117     1.0  0.66273  0.88784  0.01193  1.0000
  H   H3118     1.0  0.62209  0.89693  0.02694  1.0000
  C   C1766     1.0  0.73863  0.62927  0.17871  1.0000
  H   H3119     1.0  0.52397  0.50909  0.15390  1.0000
  H   H3120     1.0  0.71730  0.92615  0.29942  1.0000
  H   H3121     1.0  0.64018  0.88398  0.03986  1.0000
  H   H3122     1.0  0.68202  0.59355  0.06169  1.0000
  H   H3123     1.0  0.49910  0.82787  0.23304  1.0000
  H   H3124     1.0  0.52295  0.95822  0.00313  1.0000
  C   C1767     1.0  0.49914  0.81999  0.22039  1.0000
  H   H3125     1.0  0.67897  0.56841  0.99882  1.0000
  H   H3126     1.0  0.54191  0.50484  0.09482  1.0000
  H   H3127     1.0  0.59244  0.94366  0.30973  1.0000
  H   H3128     1.0  0.73791  0.57979  0.06132  1.0000
  H   H3129     1.0  0.68964  0.70940  0.99880  1.0000
  H   H3130     1.0  0.53973  0.51064  0.05886  1.0000
  H   H3131     1.0  0.63299  0.94822  0.31860  1.0000
  H   H3132     1.0  0.72956  0.57318  0.02812  1.0000
  H   H3133     1.0  0.73476  0.91328  0.28531  1.0000
  Fe  Fe200     1.0  0.55759  0.90733  0.00366  1.0000
  H   H3134     1.0  0.65298  0.98394  0.03853  1.0000
  H   H3135     1.0  0.64227  0.87662  0.00698  1.0000
  C   C1768     1.0  0.58952  0.80399  0.99824  1.0000
  H   H3136     1.0  0.64445  0.90097  0.99891  1.0000
  H   H3137     1.0  0.74206  0.58510  0.00840  1.0000
  H   H3138     1.0  0.74608  0.54532  0.11848  1.0000
  C   C1769     1.0  0.74637  0.56066  0.11463  1.0000
  H   H3139     1.0  0.74540  0.69742  0.19579  1.0000
  H   H3140     1.0  0.54079  0.81386  0.32930  1.0000
  H   H3141     1.0  0.74691  0.92111  0.31504  1.0000
  H   H3142     1.0  0.71066  0.59493  0.99701  1.0000
  Fe  Fe201     1.0  0.52634  0.90238  0.60543  1.0000
  H   H3143     1.0  0.55379  0.92804  0.52520  1.0000
  S   S396      1.0  0.54728  0.91007  0.62555  1.0000
  Fe  Fe202     1.0  0.51581  0.89529  0.56546  1.0000
  S   S397      1.0  0.52961  0.89405  0.53577  1.0000
  H   H3144     1.0  0.63481  0.79559  0.63185  1.0000
  C   C1770     1.0  0.54748  0.96878  0.58417  1.0000
  S   S398      1.0  0.52311  0.92075  0.57863  1.0000
  S   S399      1.0  0.52139  0.87619  0.59191  1.0000
  H   H3145     1.0  0.51330  0.99396  0.37639  1.0000
  Fe  Fe203     1.0  0.52856  0.88303  0.39567  1.0000
  S   S400      1.0  0.51867  0.91072  0.38140  1.0000
  S   S401      1.0  0.54777  0.86526  0.37661  1.0000
  Fe  Fe204     1.0  0.52076  0.92182  0.40905  1.0000
  S   S402      1.0  0.53499  0.94789  0.41217  1.0000
  S   S403      1.0  0.53310  0.89479  0.42291  1.0000
  Fe  Fe205     1.0  0.50298  0.88971  0.43111  1.0000
  S   S404      1.0  0.63117  0.88822  0.35613  1.0000
  H   H3146     1.0  0.54381  0.89336  0.49744  1.0000
  C   C1771     1.0  0.68909  0.82229  0.65643  1.0000
  C   C1772     1.0  0.70107  0.88313  0.38887  1.0000
  S   S405      1.0  0.49938  0.87500  0.40510  1.0000
  C   C1773     1.0  0.72846  0.87342  0.63167  1.0000
  H   H3147     1.0  0.73708  0.87445  0.60207  1.0000
  H   H3148     1.0  0.71639  0.88333  0.62979  1.0000
  C   C1774     1.0  0.52950  0.97401  0.57336  1.0000
  H   H3149     1.0  0.49992  0.85531  0.37215  1.0000
  H   H3150     1.0  0.56538  0.92736  0.46626  1.0000
  C   C1775     1.0  0.74029  0.86841  0.61597  1.0000
  H   H3151     1.0  0.53390  0.96130  0.61162  1.0000
  C   C1776     1.0  0.57058  0.87250  0.37039  1.0000
  C   C1777     1.0  0.58061  0.86638  0.35421  1.0000
  C   C1778     1.0  0.59905  0.87141  0.34939  1.0000
  C   C1779     1.0  0.60775  0.88221  0.36101  1.0000
  C   C1780     1.0  0.59771  0.88825  0.37719  1.0000
  C   C1781     1.0  0.57912  0.88372  0.38170  1.0000
  H   H3152     1.0  0.53095  0.97119  0.34723  1.0000
  C   C1782     1.0  0.73220  0.86556  0.64975  1.0000
  H   H3153     1.0  0.60448  0.89615  0.38651  1.0000
  H   H3154     1.0  0.57163  0.88832  0.39432  1.0000
  C   C1783     1.0  0.51858  0.96651  0.41677  1.0000
  C   C1784     1.0  0.55132  0.94918  0.35510  1.0000
  C   C1785     1.0  0.72201  0.90463  0.36827  1.0000
  H   H3155     1.0  0.55882  0.98924  0.54472  1.0000
  H   H3156     1.0  0.54139  0.95217  0.47639  1.0000
  C   C1786     1.0  0.57018  0.90019  0.63011  1.0000
  C   C1787     1.0  0.58061  0.90892  0.64223  1.0000
  C   C1788     1.0  0.60654  0.88508  0.63912  1.0000
  C   C1789     1.0  0.59607  0.87621  0.62715  1.0000
  C   C1790     1.0  0.57799  0.88375  0.62261  1.0000
  H   H3157     1.0  0.60199  0.86350  0.62127  1.0000
  H   H3158     1.0  0.57007  0.87682  0.61337  1.0000
  H   H3159     1.0  0.61400  0.92987  0.34525  1.0000
  C   C1791     1.0  0.59871  0.90149  0.64665  1.0000
  C   C1792     1.0  0.65887  0.81224  0.62618  1.0000
  H   H3160     1.0  0.55728  0.96831  0.61216  1.0000
  C   C1793     1.0  0.51852  0.89024  0.51521  1.0000
  C   C1794     1.0  0.54750  0.95842  0.52426  1.0000
  C   C1795     1.0  0.52090  0.88822  0.48115  1.0000
  C   C1796     1.0  0.52910  0.89093  0.49789  1.0000
  H   H3161     1.0  0.52930  0.88847  0.46800  1.0000
  H   H3162     1.0  0.58813  0.98169  0.65430  1.0000
  H   H3163     1.0  0.65959  0.95568  0.34385  1.0000
  C   C1797     1.0  0.74179  0.92803  0.35027  1.0000
  H   H3164     1.0  0.60668  0.86657  0.33694  1.0000
  H   H3165     1.0  0.63261  0.81732  0.64292  1.0000
  H   H3166     1.0  0.72793  0.90701  0.38162  1.0000
  H   H3167     1.0  0.53800  0.98114  0.43044  1.0000
  H   H3168     1.0  0.55297  0.93899  0.44699  1.0000
  H   H3169     1.0  0.55909  0.97733  0.57841  1.0000
  H   H3170     1.0  0.66346  0.80484  0.61347  1.0000
  H   H3171     1.0  0.68433  0.93039  0.34778  1.0000
  H   H3172     1.0  0.70709  0.84510  0.34938  1.0000
  H   H3173     1.0  0.69595  0.86881  0.39068  1.0000
  H   H3174     1.0  0.72642  0.83067  0.37515  1.0000
  H   H3175     1.0  0.53453  0.95734  0.51714  1.0000
  C   C1798     1.0  0.54561  0.97014  0.35133  1.0000
  H   H3176     1.0  0.50247  0.91028  0.33831  1.0000
  H   H3177     1.0  0.51367  0.92459  0.46624  1.0000
  C   C1799     1.0  0.51696  0.93935  0.46685  1.0000
  H   H3178     1.0  0.67771  0.88904  0.58846  1.0000
  H   H3179     1.0  0.60350  0.99547  0.62712  1.0000
  C   C1800     1.0  0.53700  0.93817  0.47404  1.0000
  H   H3180     1.0  0.57399  0.94122  0.52671  1.0000
  C   C1801     1.0  0.54320  0.95905  0.54575  1.0000
  H   H3181     1.0  0.55128  0.83547  0.33205  1.0000
  H   H3182     1.0  0.69199  0.82113  0.59898  1.0000
  H   H3183     1.0  0.55433  0.97106  0.51799  1.0000
  H   H3184     1.0  0.59653  0.94886  0.34386  1.0000
  H   H3185     1.0  0.74166  0.90365  0.65929  1.0000
  H   H3186     1.0  0.65482  0.84125  0.63333  1.0000
  H   H3187     1.0  0.54752  0.91569  0.45657  1.0000
  C   C1802     1.0  0.67688  0.89052  0.60379  1.0000
  H   H3188     1.0  0.72737  0.79561  0.61217  1.0000
  C   C1803     1.0  0.50782  0.96971  0.47922  1.0000
  C   C1804     1.0  0.63779  0.81063  0.62995  1.0000
  H   H3189     1.0  0.55472  0.97578  0.33929  1.0000
  H   H3190     1.0  0.69612  0.80961  0.65054  1.0000
  C   C1805     1.0  0.50198  0.88474  0.48152  1.0000
  H   H3191     1.0  0.68877  0.89350  0.38738  1.0000
  H   H3192     1.0  0.72294  0.82638  0.62581  1.0000
  H   H3193     1.0  0.52770  0.87347  0.33954  1.0000
  H   H3194     1.0  0.52289  0.84391  0.35187  1.0000
  H   H3195     1.0  0.51677  0.97400  0.46641  1.0000
  C   C1806     1.0  0.51405  0.88125  0.34294  1.0000
  S   S406      1.0  0.62918  0.87509  0.64457  1.0000
  H   H3196     1.0  0.70824  0.88534  0.40162  1.0000
  H   H3197     1.0  0.51327  0.93930  0.50468  1.0000
  C   C1807     1.0  0.67157  0.87225  0.61484  1.0000
  H   H3198     1.0  0.65743  0.86955  0.61086  1.0000
  H   H3199     1.0  0.56250  0.97802  0.37222  1.0000
  C   C1808     1.0  0.49959  0.88674  0.51561  1.0000
  H   H3200     1.0  0.53551  0.94651  0.55072  1.0000
  N   N101      1.0  0.62128  0.95485  0.35732  1.0000
  C   C1809     1.0  0.62573  0.97453  0.34991  1.0000
  C   C1810     1.0  0.61197  0.94549  0.34270  1.0000
  C   C1811     1.0  0.60748  0.95642  0.37417  1.0000
  C   C1812     1.0  0.63838  0.94299  0.36374  1.0000
  C   C1813     1.0  0.65541  0.94162  0.34939  1.0000
  H   H3201     1.0  0.57416  0.85763  0.34543  1.0000
  C   C1814     1.0  0.60001  0.93767  0.38314  1.0000
  N   N102      1.0  0.50183  0.95003  0.47830  1.0000
  H   H3202     1.0  0.53964  0.97338  0.38094  1.0000
  H   H3203     1.0  0.74245  0.96614  0.35489  1.0000
  H   H3204     1.0  0.72625  0.87382  0.37356  1.0000
  C   C1815     1.0  0.58480  0.94116  0.39875  1.0000
  C   C1816     1.0  0.49756  0.87214  0.33549  1.0000
  C   C1817     1.0  0.54347  0.99335  0.54539  1.0000
  H   H3205     1.0  0.63006  0.81754  0.61796  1.0000
  H   H3206     1.0  0.64859  0.97872  0.36771  1.0000
  H   H3207     1.0  0.59522  0.96625  0.37039  1.0000
  H   H3208     1.0  0.61384  0.96245  0.38572  1.0000
  H   H3209     1.0  0.64309  0.94804  0.37673  1.0000
  H   H3210     1.0  0.63494  0.92823  0.36778  1.0000
  H   H3211     1.0  0.67963  0.85076  0.64858  1.0000
  C   C1818     1.0  0.71458  0.88478  0.37141  1.0000
  H   H3212     1.0  0.50591  0.96554  0.54895  1.0000
  H   H3213     1.0  0.66595  0.80466  0.63814  1.0000
  H   H3214     1.0  0.61147  0.92846  0.38955  1.0000
  H   H3215     1.0  0.59392  0.92990  0.37268  1.0000
  H   H3216     1.0  0.51210  0.88151  0.35838  1.0000
  H   H3217     1.0  0.56366  0.94103  0.50462  1.0000
  C   C1819     1.0  0.52392  0.98141  0.42592  1.0000
  S   S407      1.0  0.67232  0.90446  0.65312  1.0000
  C   C1820     1.0  0.72641  0.90557  0.33414  1.0000
  H   H3218     1.0  0.53762  0.92911  0.48742  1.0000
  H   H3219     1.0  0.70672  0.88165  0.35946  1.0000
  H   H3220     1.0  0.54229  0.94287  0.36687  1.0000
  H   H3221     1.0  0.51679  0.97004  0.49117  1.0000
  C   C1821     1.0  0.72222  0.84446  0.34750  1.0000
  C   C1822     1.0  0.51359  0.97817  0.54393  1.0000
  H   H3222     1.0  0.57960  0.92755  0.40476  1.0000
  H   H3223     1.0  0.59040  0.94804  0.41018  1.0000
  H   H3224     1.0  0.57276  0.95011  0.39315  1.0000
  H   H3225     1.0  0.55219  0.95373  0.58305  1.0000
  H   H3226     1.0  0.70016  0.86061  0.61202  1.0000
  H   H3227     1.0  0.57464  0.92159  0.64817  1.0000
  C   C1823     1.0  0.67235  0.93116  0.35843  1.0000
  H   H3228     1.0  0.55704  0.95683  0.55197  1.0000
  C   C1824     1.0  0.68611  0.85565  0.61061  1.0000
  C   C1825     1.0  0.73079  0.85141  0.33041  1.0000
  C   C1826     1.0  0.66340  0.83312  0.62278  1.0000
  H   H3229     1.0  0.66916  0.91661  0.36370  1.0000
  C   C1827     1.0  0.51532  0.90143  0.33425  1.0000
  C   C1828     1.0  0.69633  0.82234  0.61342  1.0000
  C   C1829     1.0  0.55154  0.92951  0.46006  1.0000
  H   H3230     1.0  0.70966  0.91500  0.36688  1.0000
  H   H3231     1.0  0.63520  0.97441  0.33694  1.0000
  H   H3232     1.0  0.51768  0.94559  0.45202  1.0000
  H   H3233     1.0  0.68549  0.85359  0.59544  1.0000
  H   H3234     1.0  0.54013  0.85647  0.66071  1.0000
  H   H3235     1.0  0.56610  0.94689  0.35878  1.0000
  C   C1830     1.0  0.68916  0.83982  0.64208  1.0000
  N   N103      1.0  0.68374  0.83734  0.62254  1.0000
  H   H3236     1.0  0.72060  0.83818  0.60266  1.0000
  H   H3237     1.0  0.55083  0.87842  0.65874  1.0000
  C   C1831     1.0  0.54396  0.97133  0.60508  1.0000
  H   H3238     1.0  0.69056  0.89449  0.60789  1.0000
  H   H3239     1.0  0.65222  0.93360  0.33768  1.0000
  H   H3240     1.0  0.65760  0.83800  0.60899  1.0000
  H   H3241     1.0  0.67051  0.87456  0.62990  1.0000
  H   H3242     1.0  0.73236  0.93754  0.34123  1.0000
  H   H3243     1.0  0.55956  0.98685  0.40278  1.0000
  C   C1832     1.0  0.50024  0.96659  0.41141  1.0000
  H   H3244     1.0  0.66604  0.90200  0.60690  1.0000
  H   H3245     1.0  0.69480  0.80825  0.62086  1.0000
  C   C1833     1.0  0.56053  0.94112  0.52000  1.0000
  H   H3246     1.0  0.70317  0.84540  0.64149  1.0000
  H   H3247     1.0  0.67646  0.93865  0.37019  1.0000
  C   C1834     1.0  0.73325  0.83625  0.36210  1.0000
  H   H3248     1.0  0.51991  0.96269  0.57757  1.0000
  H   H3249     1.0  0.62588  0.98850  0.37617  1.0000
  C   C1835     1.0  0.71763  0.82530  0.61182  1.0000
  H   H3250     1.0  0.70867  0.96744  0.65594  1.0000
  H   H3251     1.0  0.52758  0.90739  0.33942  1.0000
  N   N104      1.0  0.53250  0.97663  0.55220  1.0000
  H   H3252     1.0  0.72699  0.94053  0.37456  1.0000
  C   C1836     1.0  0.54764  0.98065  0.36896  1.0000
  H   H3253     1.0  0.67442  0.81966  0.66127  1.0000
  C   C1837     1.0  0.59520  0.99059  0.66317  1.0000
  H   H3254     1.0  0.60658  0.90847  0.65587  1.0000
  H   H3255     1.0  0.65656  0.99450  0.65670  1.0000
  H   H3256     1.0  0.51515  0.97844  0.52842  1.0000
  H   H3257     1.0  0.72208  0.89109  0.33422  1.0000
  H   H3258     1.0  0.74415  0.81164  0.60202  1.0000
  C   C1838     1.0  0.51098  0.99659  0.42943  1.0000
  H   H3259     1.0  0.52209  0.98665  0.57909  1.0000
  H   H3260     1.0  0.72466  0.80741  0.58890  1.0000
  C   C1839     1.0  0.72905  0.80893  0.60319  1.0000
  C   C1840     1.0  0.63512  0.98604  0.36343  1.0000
  H   H3261     1.0  0.54972  0.94182  0.34241  1.0000
  H   H3262     1.0  0.71321  0.91492  0.33355  1.0000
  C   C1841     1.0  0.49998  0.93975  0.49761  1.0000
  H   H3263     1.0  0.61267  0.98282  0.34560  1.0000
  H   H3264     1.0  0.50606  0.96982  0.63757  1.0000
  H   H3265     1.0  0.51032  0.82507  0.34692  1.0000
  N   N105      1.0  0.73601  0.90802  0.35173  1.0000
  H   H3266     1.0  0.53836  0.98593  0.60736  1.0000
  H   H3267     1.0  0.62306  0.97560  0.65791  1.0000
  C   C1842     1.0  0.50055  0.99587  0.54771  1.0000
  C   C1843     1.0  0.51283  0.83988  0.34205  1.0000
  C   C1844     1.0  0.74165  0.93776  0.36876  1.0000
  H   H3268     1.0  0.49801  0.94731  0.61580  1.0000
  H   H3269     1.0  0.49774  0.92472  0.49661  1.0000
  C   C1845     1.0  0.49772  0.97469  0.62584  1.0000
  H   H3270     1.0  0.57908  0.99675  0.35324  1.0000
  C   C1846     1.0  0.71246  0.99678  0.65873  1.0000
  C   C1847     1.0  0.58656  0.53729  0.97282  1.0000
  H   H3271     1.0  0.63750  0.84068  0.67324  1.0000
  N   N106      1.0  0.59168  0.55360  0.95899  1.0000
  S   S408      1.0  0.63882  0.51200  0.92900  1.0000
  C   C1848     1.0  0.67086  0.98853  0.70802  1.0000
  H   H3272     1.0  0.58566  0.99193  0.67591  1.0000
  C   C1849     1.0  0.57636  0.56930  0.95987  1.0000
  C   C1850     1.0  0.56331  0.85680  0.67855  1.0000
  C   C1851     1.0  0.58600  0.89651  0.71267  1.0000
  H   H3273     1.0  0.56883  0.85142  0.96784  1.0000
  H   H3274     1.0  0.57403  0.56347  0.92286  1.0000
  S   S409      1.0  0.57149  0.88496  0.94036  1.0000
  H   H3275     1.0  0.69799  0.55381  0.89820  1.0000
  C   C1852     1.0  0.62571  0.54600  0.96912  1.0000
  C   C1853     1.0  0.62060  0.84312  0.69965  1.0000
  H   H3276     1.0  0.56957  0.86847  0.73848  1.0000
  H   H3277     1.0  0.73528  0.54130  0.85216  1.0000
  S   S410      1.0  0.63719  0.90861  0.68493  1.0000
  H   H3278     1.0  0.52096  0.87178  0.91038  1.0000
  Fe  Fe206     1.0  0.68798  0.88604  0.67476  1.0000
  S   S411      1.0  0.68056  0.90583  0.69765  1.0000
  H   H3279     1.0  0.73350  0.67654  0.93811  1.0000
  Fe  Fe207     1.0  0.65473  0.88963  0.70497  1.0000
  S   S412      1.0  0.64053  0.88370  0.73467  1.0000
  Fe  Fe208     1.0  0.66339  0.92334  0.67627  1.0000
  H   H3280     1.0  0.69526  0.69573  0.96854  1.0000
  S   S413      1.0  0.66342  0.86880  0.68387  1.0000
  H   H3281     1.0  0.60219  0.53263  0.94008  1.0000
  Fe  Fe209     1.0  0.60784  0.80750  0.82209  1.0000
  S   S414      1.0  0.58817  0.78429  0.82888  1.0000
  S   S415      1.0  0.62109  0.81232  0.79181  1.0000
  Fe  Fe210     1.0  0.60652  0.81591  0.86342  1.0000
  S   S416      1.0  0.58702  0.79358  0.87272  1.0000
  S   S417      1.0  0.61934  0.83223  0.88447  1.0000
  Fe  Fe211     1.0  0.60520  0.77494  0.85398  1.0000
  S   S418      1.0  0.60938  0.74380  0.86567  1.0000
  Fe  Fe212     1.0  0.57143  0.80427  0.84723  1.0000
  S   S419      1.0  0.53975  0.81061  0.85245  1.0000
  S   S420      1.0  0.62588  0.79675  0.84611  1.0000
  S   S421      1.0  0.59000  0.82810  0.83901  1.0000
  Fe  Fe213     1.0  0.71568  0.62180  0.90328  1.0000
  S   S422      1.0  0.69432  0.62906  0.88182  1.0000
  H   H3282     1.0  0.72623  0.59307  0.86317  1.0000
  Fe  Fe214     1.0  0.68697  0.63246  0.93590  1.0000
  S   S423      1.0  0.66366  0.63938  0.91618  1.0000
  S   S424      1.0  0.67752  0.63611  0.96670  1.0000
  Fe  Fe215     1.0  0.67484  0.61333  0.90255  1.0000
  S   S425      1.0  0.65636  0.59322  0.89114  1.0000
  Fe  Fe216     1.0  0.68480  0.65466  0.89730  1.0000
  S   S426      1.0  0.68013  0.68499  0.88346  1.0000
  S   S427      1.0  0.69629  0.60522  0.92364  1.0000
  S   S428      1.0  0.70794  0.64862  0.91749  1.0000
  H   H3283     1.0  0.54924  0.50961  0.98628  1.0000
  C   C1854     1.0  0.62934  0.72778  0.87062  1.0000
  C   C1855     1.0  0.62653  0.71006  0.88027  1.0000
  C   C1856     1.0  0.64176  0.69675  0.88419  1.0000
  C   C1857     1.0  0.66014  0.70093  0.87847  1.0000
  C   C1858     1.0  0.66296  0.71866  0.86890  1.0000
  C   C1859     1.0  0.64773  0.73199  0.86504  1.0000
  H   H3284     1.0  0.61245  0.70656  0.88478  1.0000
  H   H3285     1.0  0.63928  0.68325  0.89159  1.0000
  H   H3286     1.0  0.67706  0.72208  0.86434  1.0000
  H   H3287     1.0  0.65023  0.74545  0.85754  1.0000
  C   C1860     1.0  0.52022  0.80164  0.84332  1.0000
  H   H3288     1.0  0.60663  0.55568  0.93138  1.0000
  H   H3289     1.0  0.57303  0.85069  0.66754  1.0000
  H   H3290     1.0  0.58880  0.58628  0.93540  1.0000
  C   C1861     1.0  0.52222  0.78853  0.82987  1.0000
  H   H3291     1.0  0.72467  0.59015  0.82858  1.0000
  C   C1862     1.0  0.59576  0.54734  0.93938  1.0000
  H   H3292     1.0  0.53607  0.78391  0.82433  1.0000
  C   C1863     1.0  0.63449  0.86345  0.74971  1.0000
  C   C1864     1.0  0.64133  0.84517  0.74618  1.0000
  C   C1865     1.0  0.63685  0.82975  0.75906  1.0000
  C   C1866     1.0  0.62541  0.83230  0.77562  1.0000
  C   C1867     1.0  0.61814  0.85052  0.77886  1.0000
  C   C1868     1.0  0.62280  0.86596  0.76610  1.0000
  H   H3293     1.0  0.65038  0.84292  0.73372  1.0000
  H   H3294     1.0  0.64250  0.81574  0.75629  1.0000
  H   H3295     1.0  0.60902  0.85275  0.79127  1.0000
  H   H3296     1.0  0.61732  0.87999  0.76899  1.0000
  C   C1869     1.0  0.66364  0.97455  0.67998  1.0000
  C   C1870     1.0  0.66872  0.97251  0.69857  1.0000
  H   H3297     1.0  0.57218  0.89409  0.71993  1.0000
  H   H3298     1.0  0.67127  0.95860  0.70557  1.0000
  S   S429      1.0  0.54680  0.49941  0.91637  1.0000
  C   C1871     1.0  0.58521  0.87068  0.92473  1.0000
  C   C1872     1.0  0.57624  0.86240  0.91113  1.0000
  C   C1873     1.0  0.58644  0.85045  0.89885  1.0000
  C   C1874     1.0  0.60583  0.84693  0.89982  1.0000
  C   C1875     1.0  0.61484  0.85539  0.91326  1.0000
  C   C1876     1.0  0.60459  0.86716  0.92570  1.0000
  H   H3299     1.0  0.56126  0.86513  0.91018  1.0000
  H   H3300     1.0  0.57934  0.84413  0.88850  1.0000
  H   H3301     1.0  0.62985  0.85288  0.91400  1.0000
  H   H3302     1.0  0.61172  0.87371  0.93585  1.0000
  H   H3303     1.0  0.59178  0.84413  0.72702  1.0000
  H   H3304     1.0  0.55245  0.86391  0.72236  1.0000
  H   H3305     1.0  0.60464  0.87253  0.72238  1.0000
  C   C1877     1.0  0.64362  0.55529  0.97185  1.0000
  H   H3306     1.0  0.62246  0.53695  0.98219  1.0000
  C   C1878     1.0  0.62711  0.84282  0.96667  1.0000
  H   H3307     1.0  0.62874  0.99522  0.95701  1.0000
  H   H3308     1.0  0.68040  0.51263  0.86914  1.0000
  H   H3309     1.0  0.64145  0.56407  0.98388  1.0000
  H   H3310     1.0  0.72174  0.70958  0.94326  1.0000
  C   C1879     1.0  0.64389  0.53424  0.91776  1.0000
  C   C1880     1.0  0.63530  0.54200  0.90164  1.0000
  C   C1881     1.0  0.63927  0.56007  0.89365  1.0000
  C   C1882     1.0  0.65187  0.57053  0.90167  1.0000
  C   C1883     1.0  0.66067  0.56264  0.91764  1.0000
  C   C1884     1.0  0.65683  0.54451  0.92550  1.0000
  H   H3311     1.0  0.62577  0.53399  0.89524  1.0000
  H   H3312     1.0  0.63256  0.56598  0.88116  1.0000
  H   H3313     1.0  0.67046  0.57049  0.92389  1.0000
  H   H3314     1.0  0.66380  0.53846  0.93778  1.0000
  C   C1885     1.0  0.50845  0.49965  0.91573  1.0000
  H   H3315     1.0  0.67282  0.53236  0.85326  1.0000
  H   H3316     1.0  0.57246  0.57201  0.97478  1.0000
  H   H3317     1.0  0.59887  0.96307  0.69327  1.0000
  H   H3318     1.0  0.63494  0.68508  0.95342  1.0000
  C   C1886     1.0  0.57525  0.81855  0.98857  1.0000
  H   H3319     1.0  0.64767  0.87602  0.81873  1.0000
  H   H3320     1.0  0.57600  0.83658  0.71208  1.0000
  H   H3321     1.0  0.58352  0.90470  0.69900  1.0000
  H   H3322     1.0  0.55561  0.54064  0.97260  1.0000
  H   H3323     1.0  0.65332  0.71119  0.93958  1.0000
  H   H3324     1.0  0.59639  0.83890  0.68509  1.0000
  H   H3325     1.0  0.67156  0.53440  0.87832  1.0000
  H   H3326     1.0  0.60353  0.84082  0.98645  1.0000
  C   C1887     1.0  0.68437  0.72077  0.95082  1.0000
  H   H3327     1.0  0.66959  0.67969  0.95630  1.0000
  H   H3328     1.0  0.56224  0.87945  0.69642  1.0000
  C   C1888     1.0  0.55977  0.97738  0.95687  1.0000
  C   C1889     1.0  0.61318  0.97914  0.66990  1.0000
  H   H3329     1.0  0.55438  0.59540  0.93700  1.0000
  H   H3330     1.0  0.70251  0.57815  0.89655  1.0000
  N   N107      1.0  0.57823  0.82209  0.96751  1.0000
  C   C1890     1.0  0.59825  0.82608  0.96167  1.0000
  C   C1891     1.0  0.57384  0.80484  0.95860  1.0000
  C   C1892     1.0  0.60846  0.96055  0.68073  1.0000
  H   H3331     1.0  0.53563  0.85661  0.94153  1.0000
  C   C1893     1.0  0.59594  0.90875  0.72454  1.0000
  S   S430      1.0  0.71742  0.87089  0.67008  1.0000
  S   S431      1.0  0.74476  0.60617  0.89795  1.0000
  C   C1894     1.0  0.57285  0.80710  0.93688  1.0000
  C   C1895     1.0  0.56947  0.78850  0.92936  1.0000
  H   H3332     1.0  0.49804  0.72373  0.83482  1.0000
  C   C1896     1.0  0.57332  0.87087  0.68880  1.0000
  H   H3333     1.0  0.59989  0.82999  0.94629  1.0000
  H   H3334     1.0  0.60781  0.81317  0.96411  1.0000
  H   H3335     1.0  0.58459  0.79309  0.96181  1.0000
  H   H3336     1.0  0.56035  0.79966  0.96479  1.0000
  H   H3337     1.0  0.62040  0.98705  0.67944  1.0000
  C   C1897     1.0  0.53297  0.85466  0.95702  1.0000
  C   C1898     1.0  0.50621  0.78150  0.82352  1.0000
  H   H3338     1.0  0.60969  0.91224  0.71759  1.0000
  C   C1899     1.0  0.68487  0.70799  0.96944  1.0000
  C   C1900     1.0  0.66043  0.99278  0.67110  1.0000
  H   H3339     1.0  0.57512  0.83191  0.99542  1.0000
  H   H3340     1.0  0.53960  0.82487  0.95886  1.0000
  H   H3341     1.0  0.50707  0.89149  0.89941  1.0000
  C   C1901     1.0  0.63376  0.83185  0.68634  1.0000
  H   H3342     1.0  0.56118  0.81738  0.93261  1.0000
  H   H3343     1.0  0.58606  0.81190  0.92974  1.0000
  H   H3344     1.0  0.56848  0.79069  0.91390  1.0000
  H   H3345     1.0  0.58128  0.77784  0.93230  1.0000
  H   H3346     1.0  0.55615  0.78317  0.93574  1.0000
  H   H3347     1.0  0.71785  0.63187  0.97309  1.0000
  H   H3348     1.0  0.55814  0.84528  0.68844  1.0000
  C   C1902     1.0  0.49855  0.73051  0.84807  1.0000
  H   H3349     1.0  0.56210  0.96989  0.92793  1.0000
  Fe  Fe217     1.0  0.64728  0.88859  0.66355  1.0000
  C   C1903     1.0  0.56557  0.83891  0.96107  1.0000
  C   C1904     1.0  0.71453  0.58581  0.85841  1.0000
  N   N108      1.0  0.55309  0.73167  0.84814  1.0000
  C   C1905     1.0  0.55397  0.73980  0.86670  1.0000
  C   C1906     1.0  0.55942  0.71104  0.85051  1.0000
  C   C1907     1.0  0.56559  0.74211  0.83366  1.0000
  C   C1908     1.0  0.53342  0.73378  0.84163  1.0000
  C   C1909     1.0  0.54592  0.76048  0.86758  1.0000
  C   C1910     1.0  0.56890  0.73381  0.81435  1.0000
  C   C1911     1.0  0.58012  0.70631  0.85539  1.0000
  C   C1912     1.0  0.58543  0.68519  0.85600  1.0000
  C   C1913     1.0  0.54628  0.76659  0.88740  1.0000
  C   C1914     1.0  0.58153  0.74576  0.80087  1.0000
  H   H3350     1.0  0.56877  0.73952  0.87046  1.0000
  H   H3351     1.0  0.54694  0.73097  0.87827  1.0000
  H   H3352     1.0  0.55073  0.70380  0.86201  1.0000
  H   H3353     1.0  0.55705  0.70408  0.83773  1.0000
  H   H3354     1.0  0.57950  0.74342  0.83914  1.0000
  H   H3355     1.0  0.55959  0.75682  0.83077  1.0000
  H   H3356     1.0  0.52935  0.74870  0.83701  1.0000
  H   H3357     1.0  0.53270  0.72614  0.82892  1.0000
  H   H3358     1.0  0.55446  0.76996  0.85801  1.0000
  H   H3359     1.0  0.53121  0.76259  0.86361  1.0000
  H   H3360     1.0  0.55549  0.73336  0.80769  1.0000
  H   H3361     1.0  0.57586  0.71940  0.81577  1.0000
  H   H3362     1.0  0.59005  0.71329  0.84496  1.0000
  H   H3363     1.0  0.58232  0.71079  0.86941  1.0000
  H   H3364     1.0  0.57633  0.67744  0.86673  1.0000
  H   H3365     1.0  0.58415  0.68001  0.84204  1.0000
  H   H3366     1.0  0.60022  0.68226  0.85974  1.0000
  H   H3367     1.0  0.53693  0.75828  0.89737  1.0000
  H   H3368     1.0  0.56076  0.76474  0.89217  1.0000
  H   H3369     1.0  0.54129  0.78168  0.88746  1.0000
  H   H3370     1.0  0.59536  0.74644  0.80674  1.0000
  H   H3371     1.0  0.58390  0.73943  0.78725  1.0000
  H   H3372     1.0  0.57489  0.76023  0.79822  1.0000
  H   H3373     1.0  0.62838  0.85452  0.70408  1.0000
  C   C1915     1.0  0.56725  0.52956  0.97140  1.0000
  C   C1916     1.0  0.51785  0.72655  0.85600  1.0000
  H   H3374     1.0  0.53564  0.87204  0.67915  1.0000
  H   H3375     1.0  0.53864  0.96958  0.93920  1.0000
  C   C1917     1.0  0.60920  0.56087  0.96529  1.0000
  H   H3376     1.0  0.61724  0.83348  0.71222  1.0000
  C   C1918     1.0  0.71768  0.56033  0.91714  1.0000
  C   C1919     1.0  0.73263  0.55670  0.84866  1.0000
  C   C1920     1.0  0.59797  0.87791  0.70917  1.0000
  H   H3377     1.0  0.70191  0.59111  0.86689  1.0000
  H   H3378     1.0  0.72443  0.54585  0.91916  1.0000
  H   H3379     1.0  0.51939  0.96864  0.97958  1.0000
  C   C1921     1.0  0.69961  0.69673  0.93023  1.0000
  C   C1922     1.0  0.69960  0.55619  0.86022  1.0000
  H   H3380     1.0  0.69381  0.59439  0.97955  1.0000
  C   C1923     1.0  0.71177  0.59319  0.83763  1.0000
  H   H3381     1.0  0.56682  0.52304  0.95808  1.0000
  H   H3382     1.0  0.71032  0.57445  0.98427  1.0000
  H   H3383     1.0  0.63055  0.84428  0.95128  1.0000
  C   C1924     1.0  0.60262  0.85116  0.68991  1.0000
  C   C1925     1.0  0.70915  0.56364  0.89807  1.0000
  C   C1926     1.0  0.72427  0.56049  0.88189  1.0000
  H   H3384     1.0  0.67212  0.73109  0.95273  1.0000
  C   C1927     1.0  0.68429  0.72597  0.91664  1.0000
  H   H3385     1.0  0.69530  0.55892  0.84558  1.0000
  H   H3386     1.0  0.68793  0.56314  0.86887  1.0000
  H   H3387     1.0  0.59058  0.59546  0.95760  1.0000
  H   H3388     1.0  0.50813  0.51242  0.92270  1.0000
  H   H3389     1.0  0.70008  0.58673  0.83204  1.0000
  H   H3390     1.0  0.69627  0.73468  0.91752  1.0000
  C   C1928     1.0  0.69979  0.53459  0.86487  1.0000
  H   H3391     1.0  0.62846  0.53699  0.95736  1.0000
  H   H3392     1.0  0.58706  0.54122  0.98748  1.0000
  H   H3393     1.0  0.58724  0.92207  0.72643  1.0000
  H   H3394     1.0  0.53348  0.99614  0.98674  1.0000
  C   C1929     1.0  0.66401  0.68180  0.94224  1.0000
  H   H3395     1.0  0.68085  0.76480  0.90389  1.0000
  H   H3396     1.0  0.61467  0.57172  0.95460  1.0000
  H   H3397     1.0  0.70789  0.52727  0.85353  1.0000
  H   H3398     1.0  0.57017  0.98918  0.98658  1.0000
  H   H3399     1.0  0.60975  0.88234  0.69920  1.0000
  N   N109      1.0  0.71777  0.56476  0.86227  1.0000
  H   H3400     1.0  0.62704  0.81940  0.68264  1.0000
  H   H3401     1.0  0.73345  0.68240  0.91298  1.0000
  N   N110      1.0  0.58826  0.86248  0.70161  1.0000
  C   C1930     1.0  0.56440  0.85770  0.73042  1.0000
  H   H3402     1.0  0.64586  0.96654  0.98946  1.0000
  H   H3403     1.0  0.55120  0.83139  0.73768  1.0000
  C   C1931     1.0  0.58056  0.84939  0.71750  1.0000
  H   H3404     1.0  0.53148  0.90443  0.97913  1.0000
  H   H3405     1.0  0.69849  0.69034  0.91681  1.0000
  H   H3406     1.0  0.73052  0.54578  0.88403  1.0000
  H   H3407     1.0  0.64685  0.82692  0.69328  1.0000
  H   H3408     1.0  0.63478  0.85936  0.80938  1.0000
  C   C1932     1.0  0.69932  0.82521  0.67378  1.0000
  C   C1933     1.0  0.50419  0.89615  0.97442  1.0000
  H   H3409     1.0  0.56830  0.84272  0.94584  1.0000
  H   H3410     1.0  0.57201  0.53952  0.90004  1.0000
  C   C1934     1.0  0.67038  0.75592  0.89928  1.0000
  H   H3411     1.0  0.59707  0.52506  0.97143  1.0000
  C   C1935     1.0  0.55700  0.84253  0.74481  1.0000
  H   H3412     1.0  0.59710  0.99123  0.94772  1.0000
  C   C1936     1.0  0.58129  0.58832  0.94924  1.0000
  H   H3413     1.0  0.67569  0.75043  0.88575  1.0000
  H   H3414     1.0  0.65719  0.76483  0.89691  1.0000
  H   H3415     1.0  0.59917  0.85598  0.96569  1.0000
  C   C1937     1.0  0.71006  0.63492  0.98609  1.0000
  H   H3416     1.0  0.72770  0.55815  0.83418  1.0000
  C   C1938     1.0  0.56375  0.60153  0.94608  1.0000
  C   C1939     1.0  0.68994  0.71877  0.98555  1.0000
  C   C1940     1.0  0.50207  0.80784  0.85004  1.0000
  C   C1941     1.0  0.55380  0.96640  0.94131  1.0000
  H   H3417     1.0  0.62018  0.88409  0.84103  1.0000
  H   H3418     1.0  0.61021  0.86553  0.85622  1.0000
  C   C1942     1.0  0.54424  0.83712  0.96513  1.0000
  H   H3419     1.0  0.59470  0.54864  0.89939  1.0000
  H   H3420     1.0  0.57470  0.97315  0.95896  1.0000
  C   C1943     1.0  0.66655  0.73980  0.91421  1.0000
  Fe  Fe218     1.0  0.57895  0.89325  0.96876  1.0000
  H   H3421     1.0  0.73587  0.56933  0.88403  1.0000
  H   H3422     1.0  0.51592  0.89294  0.92211  1.0000
  H   H3423     1.0  0.65515  0.54430  0.97470  1.0000
  H   H3424     1.0  0.65486  0.73245  0.90961  1.0000
  H   H3425     1.0  0.54564  0.84887  0.75415  1.0000
  C   C1944     1.0  0.61718  0.86906  0.84213  1.0000
  H   H3426     1.0  0.55603  0.60418  0.95970  1.0000
  H   H3427     1.0  0.52017  0.71116  0.85939  1.0000
  S   S432      1.0  0.60643  0.89183  0.98218  1.0000
  H   H3428     1.0  0.63161  0.84170  0.84184  1.0000
  H   H3429     1.0  0.56329  0.56528  0.95448  1.0000
  H   H3430     1.0  0.55629  0.95108  0.94523  1.0000
  H   H3431     1.0  0.66170  0.74606  0.92742  1.0000
  H   H3432     1.0  0.69672  0.72933  0.94961  1.0000
  H   H3433     1.0  0.72540  0.84505  0.83461  1.0000
  H   H3434     1.0  0.60737  0.86691  0.83136  1.0000
  C   C1945     1.0  0.63532  0.85649  0.83963  1.0000
  H   H3435     1.0  0.68704  0.71920  0.90319  1.0000
  C   C1946     1.0  0.51014  0.88342  0.91298  1.0000
  H   H3436     1.0  0.67504  0.98679  0.72232  1.0000
  H   H3437     1.0  0.67327  0.84924  0.84290  1.0000
  H   H3438     1.0  0.56785  0.61516  0.93898  1.0000
  H   H3439     1.0  0.64431  0.82672  0.81610  1.0000
  H   H3440     1.0  0.64436  0.85905  0.85089  1.0000
  C   C1947     1.0  0.60598  0.84226  0.97101  1.0000
  H   H3441     1.0  0.54059  0.83564  0.98048  1.0000
  H   H3442     1.0  0.51776  0.85329  0.96039  1.0000
  C   C1948     1.0  0.64515  0.86084  0.81984  1.0000
  H   H3443     1.0  0.66050  0.82346  0.83377  1.0000
  H   H3444     1.0  0.67664  0.78444  0.80464  1.0000
  H   H3445     1.0  0.67184  0.79107  0.82827  1.0000
  H   H3446     1.0  0.55162  0.97277  0.96998  1.0000
  H   H3447     1.0  0.69928  0.68479  0.94122  1.0000
  C   C1949     1.0  0.65913  0.82852  0.81871  1.0000
  C   C1950     1.0  0.66786  0.79408  0.81355  1.0000
  N   N111      1.0  0.68331  0.71115  0.93311  1.0000
  H   H3448     1.0  0.51950  0.94353  0.98485  1.0000
  H   H3449     1.0  0.70663  0.61947  0.82053  1.0000
  H   H3450     1.0  0.70585  0.97380  0.67971  1.0000
  H   H3451     1.0  0.63462  0.82981  0.97290  1.0000
  H   H3452     1.0  0.70618  0.52987  0.87828  1.0000
  N   N112      1.0  0.66308  0.84905  0.81527  1.0000
  H   H3453     1.0  0.65798  0.84957  0.78592  1.0000
  H   H3454     1.0  0.71833  0.62172  0.84152  1.0000
  C   C1951     1.0  0.57902  0.54862  0.92654  1.0000
  S   S433      1.0  0.56449  0.87863  0.99423  1.0000
  H   H3455     1.0  0.69855  0.81267  0.68405  1.0000
  H   H3456     1.0  0.67245  0.67201  0.93327  1.0000
  C   C1952     1.0  0.64389  0.67602  0.94407  1.0000
  S   S434      1.0  0.56984  0.92232  0.97735  1.0000
  C   C1953     1.0  0.67083  0.81443  0.80640  1.0000
  H   H3457     1.0  0.65781  0.88312  0.78870  1.0000
  H   H3458     1.0  0.65298  0.79121  0.81274  1.0000
  H   H3459     1.0  0.50786  0.77135  0.81315  1.0000
  H   H3460     1.0  0.72904  0.97116  0.66809  1.0000
  S   S435      1.0  0.61748  0.94154  0.99165  1.0000
  C   C1954     1.0  0.66877  0.85381  0.79478  1.0000
  H   H3461     1.0  0.59823  0.90137  0.73862  1.0000
  C   C1955     1.0  0.67754  0.85370  0.82803  1.0000
  C   C1956     1.0  0.67157  0.87477  0.78864  1.0000
  H   H3462     1.0  0.67826  0.86918  0.82765  1.0000
  H   H3463     1.0  0.66640  0.81656  0.79175  1.0000
  H   H3464     1.0  0.68601  0.81617  0.80592  1.0000
  H   H3465     1.0  0.69285  0.83763  0.68066  1.0000
  H   H3466     1.0  0.68184  0.84558  0.79036  1.0000
  H   H3467     1.0  0.68070  0.88075  0.79800  1.0000
  H   H3468     1.0  0.67239  0.87077  0.75875  1.0000
  S   S436      1.0  0.66166  0.95494  0.66699  1.0000
  C   C1957     1.0  0.67991  0.52816  0.86644  1.0000
  H   H3469     1.0  0.63803  0.67703  0.93005  1.0000
  H   H3470     1.0  0.60595  0.56800  0.97846  1.0000
  C   C1958     1.0  0.71944  0.70395  0.92978  1.0000
  C   C1959     1.0  0.69764  0.84457  0.82456  1.0000
  C   C1960     1.0  0.68063  0.87715  0.76868  1.0000
  H   H3471     1.0  0.68115  0.89233  0.76404  1.0000
  H   H3472     1.0  0.59096  0.52545  0.91070  1.0000
  H   H3473     1.0  0.72153  0.71506  0.91816  1.0000
  C   C1961     1.0  0.66495  0.70219  0.93306  1.0000
  H   H3474     1.0  0.70315  0.84750  0.80983  1.0000
  H   H3475     1.0  0.69786  0.82919  0.82819  1.0000
  H   H3476     1.0  0.71197  0.86746  0.83376  1.0000
  H   H3477     1.0  0.69516  0.87043  0.76809  1.0000
  C   C1962     1.0  0.69052  0.63790  0.98657  1.0000
  H   H3478     1.0  0.69350  0.61822  0.84289  1.0000
  C   C1963     1.0  0.58462  0.54001  0.90807  1.0000
  C   C1964     1.0  0.71116  0.85208  0.83707  1.0000
  H   H3479     1.0  0.64373  0.66123  0.95025  1.0000
  H   H3480     1.0  0.67076  0.70301  0.97337  1.0000
  H   H3481     1.0  0.53685  0.86735  0.96319  1.0000
  H   H3482     1.0  0.50795  0.89344  0.95998  1.0000
  H   H3483     1.0  0.66130  0.70126  0.91835  1.0000
  C   C1965     1.0  0.70730  0.61445  0.83561  1.0000
  C   C1966     1.0  0.73464  0.68809  0.92671  1.0000
  H   H3484     1.0  0.56696  0.54142  0.93326  1.0000
  H   H3485     1.0  0.60716  0.85988  0.67694  1.0000
  H   H3486     1.0  0.51733  0.73352  0.86921  1.0000
  H   H3487     1.0  0.56835  0.83609  0.75366  1.0000
  H   H3488     1.0  0.70657  0.84922  0.85213  1.0000
  C   C1967     1.0  0.51751  0.90237  0.98527  1.0000
  H   H3489     1.0  0.70650  0.56217  0.92851  1.0000
  H   H3490     1.0  0.62154  0.95279  0.68556  1.0000
  H   H3491     1.0  0.63209  0.85501  0.97282  1.0000
  H   H3492     1.0  0.72825  0.57059  0.91826  1.0000
  C   C1968     1.0  0.51531  0.95734  0.99035  1.0000
  H   H3493     1.0  0.71432  0.82730  0.66987  1.0000
  C   C1969     1.0  0.56353  0.51419  0.98713  1.0000
  H   H3494     1.0  0.57957  0.88088  0.67771  1.0000
  H   H3495     1.0  0.60187  0.95164  0.67159  1.0000
  H   H3496     1.0  0.59779  0.99111  0.97283  1.0000
  C   C1970     1.0  0.54646  0.86658  0.66874  1.0000
  H   H3497     1.0  0.58952  0.79014  0.99251  1.0000
  H   H3498     1.0  0.50035  0.81811  0.86027  1.0000
  H   H3499     1.0  0.70428  0.72359  0.98280  1.0000
  H   H3500     1.0  0.56115  0.81343  0.99242  1.0000
  Fe  Fe219     1.0  0.59613  0.91979  0.99293  1.0000
  H   H3501     1.0  0.64785  0.56428  0.95903  1.0000
  H   H3502     1.0  0.57376  0.50184  0.98562  1.0000
  C   C1971     1.0  0.71417  0.97605  0.66612  1.0000
  H   H3503     1.0  0.62285  0.50393  0.99100  1.0000
  H   H3504     1.0  0.67975  0.73110  0.98743  1.0000
  C   C1972     1.0  0.70143  0.58586  0.99077  1.0000
  C   C1973     1.0  0.63369  0.97336  0.99656  1.0000
  H   H3505     1.0  0.60394  0.80865  0.99624  1.0000
  Fe  Fe220     1.0  0.98652  0.39967  0.10650  1.0000
  S   S437      1.0  0.97789  0.41459  0.07914  1.0000
  S   S438      1.0  0.96866  0.39907  0.13408  1.0000
  H   H3506     1.0  0.80179  0.31748  0.19605  1.0000
  C   C1974     1.0  0.75471  0.34641  0.15129  1.0000
  S   S439      1.0  0.89537  0.30465  0.29732  1.0000
  Fe  Fe221     1.0  0.86669  0.37806  0.17015  1.0000
  S   S440      1.0  0.87294  0.39584  0.19275  1.0000
  S   S441      1.0  0.88797  0.36757  0.14772  1.0000
  Fe  Fe222     1.0  0.82418  0.37958  0.18078  1.0000
  S   S442      1.0  0.82771  0.39834  0.20388  1.0000
  S   S443      1.0  0.79493  0.36858  0.17871  1.0000
  Fe  Fe223     1.0  0.84754  0.41413  0.18365  1.0000
  S   S444      1.0  0.85145  0.44513  0.17438  1.0000
  Fe  Fe224     1.0  0.85289  0.37859  0.21151  1.0000
  S   S445      1.0  0.85514  0.37023  0.24327  1.0000
  S   S446      1.0  0.84217  0.39691  0.16002  1.0000
  S   S447      1.0  0.84846  0.35934  0.18934  1.0000
  C   C1975     1.0  0.78263  0.36032  0.16050  1.0000
  C   C1976     1.0  0.76501  0.35308  0.16511  1.0000
  C   C1977     1.0  0.76176  0.34702  0.13252  1.0000
  C   C1978     1.0  0.78968  0.36089  0.14174  1.0000
  H   H3507     1.0  0.98448  0.29143  0.27212  1.0000
  H   H3508     1.0  0.99360  0.30895  0.30780  1.0000
  S   S448      1.0  0.98258  0.37918  0.04098  1.0000
  H   H3509     1.0  0.84783  0.29816  0.27549  1.0000
  C   C1979     1.0  0.84618  0.46644  0.18520  1.0000
  C   C1980     1.0  0.83748  0.46712  0.20327  1.0000
  H   H3510     1.0  0.83731  0.27605  0.27885  1.0000
  H   H3511     1.0  0.94871  0.26926  0.27777  1.0000
  H   H3512     1.0  0.83370  0.45425  0.21120  1.0000
  C   C1981     1.0  0.88435  0.32333  0.28267  1.0000
  C   C1982     1.0  0.87131  0.33693  0.28980  1.0000
  C   C1983     1.0  0.86262  0.35109  0.27753  1.0000
  C   C1984     1.0  0.86688  0.35204  0.25797  1.0000
  C   C1985     1.0  0.88016  0.33861  0.25088  1.0000
  C   C1986     1.0  0.88866  0.32429  0.26311  1.0000
  H   H3513     1.0  0.86778  0.33644  0.30476  1.0000
  H   H3514     1.0  0.85246  0.36141  0.28326  1.0000
  H   H3515     1.0  0.88394  0.33929  0.23597  1.0000
  H   H3516     1.0  0.89870  0.31389  0.25737  1.0000
  C   C1987     1.0  0.84487  0.48918  0.27625  1.0000
  C   C1988     1.0  0.83292  0.31526  0.21715  1.0000
  C   C1989     1.0  0.91060  0.37590  0.14420  1.0000
  C   C1990     1.0  0.92019  0.37563  0.12639  1.0000
  C   C1991     1.0  0.93808  0.38251  0.12307  1.0000
  C   C1992     1.0  0.94666  0.38936  0.13766  1.0000
  C   C1993     1.0  0.93728  0.38916  0.15558  1.0000
  C   C1994     1.0  0.91926  0.38260  0.15881  1.0000
  H   H3517     1.0  0.91362  0.37030  0.11506  1.0000
  H   H3518     1.0  0.94518  0.38253  0.10923  1.0000
  H   H3519     1.0  0.94390  0.39425  0.16700  1.0000
  H   H3520     1.0  0.91215  0.38255  0.17264  1.0000
  H   H3521     1.0  0.82616  0.48500  0.22468  1.0000
  C   C1995     1.0  0.85307  0.31898  0.22160  1.0000
  N   N113      1.0  0.81733  0.32191  0.23085  1.0000
  C   C1996     1.0  0.85087  0.48333  0.17504  1.0000
  H   H3522     1.0  0.83983  0.46123  0.28893  1.0000
  H   H3523     1.0  0.85717  0.48299  0.16091  1.0000
  H   H3524     1.0  0.94910  0.32571  0.26597  1.0000
  H   H3525     1.0  0.81367  0.28735  0.25622  1.0000
  H   H3526     1.0  0.83706  0.28866  0.24575  1.0000
  H   H3527     1.0  0.87905  0.42578  0.10579  1.0000
  H   H3528     1.0  0.81320  0.34797  0.21308  1.0000
  H   H3529     1.0  0.92975  0.33375  0.29107  1.0000
  H   H3530     1.0  0.92958  0.29735  0.24195  1.0000
  C   C1997     1.0  0.84742  0.47340  0.29193  1.0000
  H   H3531     1.0  0.83274  0.29994  0.21576  1.0000
  H   H3532     1.0  0.80927  0.37980  0.23884  1.0000
  H   H3533     1.0  0.88644  0.40289  0.11697  1.0000
  H   H3534     1.0  0.96533  0.33386  0.29235  1.0000
  H   H3535     1.0  0.80016  0.34977  0.25517  1.0000
  N   N114      1.0  0.96068  0.30533  0.28727  1.0000
  H   H3536     1.0  0.97228  0.26643  0.28573  1.0000
  Fe  Fe225     1.0  0.99460  0.39093  0.06556  1.0000
  H   H3537     1.0  0.78458  0.34711  0.23713  1.0000
  H   H3538     1.0  0.85701  0.31162  0.23519  1.0000
  H   H3539     1.0  0.78858  0.31556  0.23845  1.0000
  C   C1998     1.0  0.95349  0.28836  0.29877  1.0000
  H   H3540     1.0  0.78675  0.33507  0.20717  1.0000
  C   C1999     1.0  0.95788  0.32175  0.29925  1.0000
  C   C2000     1.0  0.95695  0.30136  0.25170  1.0000
  S   S449      1.0  0.74948  0.33882  0.11426  1.0000
  H   H3541     1.0  0.83073  0.32208  0.20279  1.0000
  H   H3542     1.0  0.83369  0.32417  0.25468  1.0000
  C   C2001     1.0  0.77763  0.08328  0.32962  1.0000
  C   C2002     1.0  0.95164  0.25298  0.30392  1.0000
  H   H3543     1.0  0.86459  0.31909  0.19249  1.0000
  H   H3544     1.0  0.96978  0.30800  0.24570  1.0000
  H   H3545     1.0  0.80997  0.32035  0.26076  1.0000
  H   H3546     1.0  0.78432  0.37996  0.24398  1.0000
  H   H3547     1.0  0.82428  0.29699  0.28625  1.0000
  H   H3548     1.0  0.92956  0.31797  0.31198  1.0000
  H   H3549     1.0  0.80236  0.29764  0.22747  1.0000
  C   C2003     1.0  0.98140  0.30262  0.28181  1.0000
  H   H3550     1.0  0.84166  0.47818  0.30564  1.0000
  C   C2004     1.0  0.91090  0.47864  0.14835  1.0000
  H   H3551     1.0  0.75483  0.39433  0.16824  1.0000
  C   C2005     1.0  0.82195  0.31627  0.25088  1.0000
  H   H3552     1.0  0.80316  0.36637  0.13785  1.0000
  H   H3553     1.0  0.93623  0.25395  0.30704  1.0000
  H   H3554     1.0  0.77816  0.29406  0.20502  1.0000
  C   C2006     1.0  0.86755  0.31208  0.20656  1.0000
  N   N115      1.0  0.91014  0.44230  0.14749  1.0000
  C   C2007     1.0  0.93124  0.44218  0.14501  1.0000
  C   C2008     1.0  0.90481  0.43381  0.16703  1.0000
  C   C2009     1.0  0.90398  0.42966  0.13370  1.0000
  C   C2010     1.0  0.90026  0.46168  0.14396  1.0000
  C   C2011     1.0  0.99159  0.38284  0.01728  1.0000
  C   C2012     1.0  0.93939  0.44678  0.12458  1.0000
  C   C2013     1.0  0.88305  0.42535  0.13575  1.0000
  C   C2014     1.0  0.90955  0.44462  0.18354  1.0000
  C   C2015     1.0  0.90428  0.43392  0.20238  1.0000
  H   H3555     1.0  0.96058  0.28608  0.25401  1.0000
  C   C2016     1.0  0.95961  0.45219  0.12408  1.0000
  H   H3556     1.0  0.95879  0.25282  0.31719  1.0000
  H   H3557     1.0  0.93780  0.42809  0.14981  1.0000
  H   H3558     1.0  0.93675  0.45174  0.15418  1.0000
  H   H3559     1.0  0.88947  0.43266  0.16901  1.0000
  H   H3560     1.0  0.91129  0.41919  0.16910  1.0000
  H   H3561     1.0  0.91243  0.41592  0.13466  1.0000
  H   H3562     1.0  0.90671  0.43583  0.11903  1.0000
  H   H3563     1.0  0.89686  0.46452  0.12899  1.0000
  H   H3564     1.0  0.88633  0.46238  0.15197  1.0000
  H   H3565     1.0  0.85041  0.48345  0.26291  1.0000
  C   C2017     1.0  0.95726  0.26935  0.29003  1.0000
  H   H3566     1.0  0.93946  0.43416  0.11662  1.0000
  H   H3567     1.0  0.93085  0.45836  0.11715  1.0000
  H   H3568     1.0  0.87372  0.43834  0.13722  1.0000
  H   H3569     1.0  0.88043  0.41531  0.14825  1.0000
  H   H3570     1.0  0.92470  0.44671  0.18312  1.0000
  H   H3571     1.0  0.90125  0.45841  0.18328  1.0000
  H   H3572     1.0  0.91187  0.41974  0.20355  1.0000
  H   H3573     1.0  0.90802  0.44178  0.21403  1.0000
  H   H3574     1.0  0.88893  0.43241  0.20392  1.0000
  C   C2018     1.0  0.83328  0.48458  0.21088  1.0000
  H   H3575     1.0  0.92153  0.35100  0.31867  1.0000
  C   C2019     1.0  0.77932  0.35432  0.12792  1.0000
  H   H3576     1.0  0.96861  0.44073  0.13120  1.0000
  H   H3577     1.0  0.96526  0.45455  0.10929  1.0000
  H   H3578     1.0  0.96030  0.46524  0.13113  1.0000
  H   H3579     1.0  0.79386  0.37727  0.22036  1.0000
  H   H3580     1.0  0.75934  0.35249  0.17953  1.0000
  C   C2020     1.0  0.83445  0.29138  0.27532  1.0000
  C   C2021     1.0  0.81473  0.34307  0.22814  1.0000
  H   H3581     1.0  0.93802  0.29036  0.30154  1.0000
  C   C2022     1.0  0.94962  0.31028  0.27002  1.0000
  H   H3582     1.0  0.88724  0.49566  0.16025  1.0000
  H   H3583     1.0  0.86249  0.46865  0.29285  1.0000
  C   C2023     1.0  0.93727  0.32912  0.30389  1.0000
  C   C2024     1.0  0.79634  0.37366  0.23544  1.0000
  H   H3584     1.0  0.88174  0.31540  0.20985  1.0000
  C   C2025     1.0  0.98184  0.37660  0.00302  1.0000
  C   C2026     1.0  0.93640  0.34594  0.31564  1.0000
  C   C2027     1.0  0.99439  0.29757  0.29824  1.0000
  Fe  Fe226     1.0  0.89704  0.29849  0.32942  1.0000
  H   H3585     1.0  0.96842  0.37086  0.00651  1.0000
  H   H3586     1.0  0.93851  0.31978  0.23384  1.0000
  H   H3587     1.0  0.94376  0.35762  0.30791  1.0000
  H   H3588     1.0  0.85428  0.33417  0.22232  1.0000
  H   H3589     1.0  0.91710  0.47639  0.16213  1.0000
  H   H3590     1.0  0.74735  0.38921  0.06729  1.0000
  C   C2028     1.0  0.79137  0.31988  0.20796  1.0000
  H   H3591     1.0  0.94628  0.48939  0.10557  1.0000
  H   H3592     1.0  0.99479  0.47052  0.01435  1.0000
  H   H3593     1.0  0.98615  0.31562  0.27374  1.0000
  H   H3594     1.0  0.96406  0.31806  0.31305  1.0000
  H   H3595     1.0  0.86273  0.41265  0.12097  1.0000
  H   H3596     1.0  0.86755  0.29664  0.20614  1.0000
  H   H3597     1.0  0.82751  0.34930  0.23173  1.0000
  C   C2029     1.0  0.75017  0.40922  0.16412  1.0000
  H   H3598     1.0  0.87728  0.49026  0.22338  1.0000
  C   C2030     1.0  0.79809  0.35239  0.23994  1.0000
  C   C2031     1.0  0.95342  0.47888  0.07076  1.0000
  H   H3599     1.0  0.93469  0.30708  0.27321  1.0000
  C   C2032     1.0  0.79971  0.31319  0.22709  1.0000
  C   C2033     1.0  0.82658  0.29494  0.25593  1.0000
  C   C2034     1.0  0.94239  0.30453  0.23694  1.0000
  H   H3600     1.0  0.95566  0.23949  0.29769  1.0000
  C   C2035     1.0  0.87757  0.41614  0.11877  1.0000
  H   H3601     1.0  0.94821  0.29868  0.22374  1.0000
  C   C2036     1.0  0.98798  0.32582  0.08663  1.0000
  H   H3602     1.0  0.95914  0.28681  0.31296  1.0000
  H   H3603     1.0  0.78506  0.35481  0.11352  1.0000
  H   H3604     1.0  0.97854  0.33849  0.08281  1.0000
  C   C2037     1.0  0.77427  0.30938  0.20508  1.0000
  H   H3605     1.0  0.99057  0.28442  0.30648  1.0000
  H   H3606     1.0  0.82959  0.49283  0.27555  1.0000
  H   H3607     1.0  0.92250  0.48104  0.13753  1.0000
  H   H3608     1.0  0.95072  0.47798  0.05582  1.0000
  H   H3609     1.0  0.94474  0.46890  0.07960  1.0000
  H   H3610     1.0  0.77919  0.08391  0.31405  1.0000
  H   H3611     1.0  0.76309  0.31188  0.21631  1.0000
  H   H3612     1.0  0.76126  0.41556  0.15452  1.0000
  H   H3613     1.0  0.96848  0.47458  0.07254  1.0000
  H   H3614     1.0  0.99078  0.31692  0.05890  1.0000
  H   H3615     1.0  0.76865  0.31454  0.19133  1.0000
  H   H3616     1.0  0.97918  0.31423  0.09207  1.0000
  H   H3617     1.0  0.74945  0.39431  0.10043  1.0000
  H   H3618     1.0  0.97597  0.49613  0.12580  1.0000
  H   H3619     1.0  0.74842  0.41687  0.17698  1.0000
  H   H3620     1.0  0.99673  0.32888  0.09799  1.0000
  C   C2038     1.0  0.89804  0.49673  0.14839  1.0000
  H   H3621     1.0  0.94287  0.34184  0.32919  1.0000
  Fe  Fe227     1.0  0.91979  0.39965  0.48910  1.0000
  S   S450      1.0  0.93970  0.38528  0.50952  1.0000
  S   S451      1.0  0.92444  0.42905  0.47531  1.0000
  Fe  Fe228     1.0  0.90089  0.36316  0.48635  1.0000
  S   S452      1.0  0.91910  0.34620  0.50707  1.0000
  S   S453      1.0  0.87799  0.35010  0.47279  1.0000
  Fe  Fe229     1.0  0.91493  0.37136  0.52385  1.0000
  S   S454      1.0  0.91570  0.37076  0.55554  1.0000
  Fe  Fe230     1.0  0.94220  0.36141  0.49132  1.0000
  S   S455      1.0  0.97014  0.34667  0.48384  1.0000
  S   S456      1.0  0.89449  0.38746  0.50456  1.0000
  S   S457      1.0  0.92449  0.37657  0.46955  1.0000
  H   H3622     1.0  0.98272  0.01983  0.42633  1.0000
  H   H3623     1.0  0.86655  0.04727  0.55737  1.0000
  H   H3624     1.0  0.78986  0.08436  0.36441  1.0000
  H   H3625     1.0  0.91790  0.22924  0.61749  1.0000
  S   S458      1.0  0.87732  0.01442  0.60424  1.0000
  H   H3626     1.0  0.89338  0.07266  0.53311  1.0000
  H   H3627     1.0  0.86066  0.29442  0.47315  1.0000
  H   H3628     1.0  0.94168  0.29296  0.56196  1.0000
  C   C2039     1.0  0.78058  0.16737  0.65487  1.0000
  Fe  Fe231     1.0  0.89462  0.29949  0.64064  1.0000
  S   S459      1.0  0.91567  0.27592  0.63381  1.0000
  S   S460      1.0  0.87856  0.31220  0.61587  1.0000
  H   H3629     1.0  0.77330  0.04955  0.42834  1.0000
  H   H3630     1.0  0.76999  0.08284  0.47625  1.0000
  H   H3631     1.0  0.84935  0.10734  0.35642  1.0000
  H   H3632     1.0  0.80513  0.19343  0.66324  1.0000
  H   H3633     1.0  0.96157  0.07374  0.61171  1.0000
  H   H3634     1.0  0.80563  0.99993  0.37642  1.0000
  Fe  Fe232     1.0  0.84769  0.12041  0.60244  1.0000
  S   S461      1.0  0.82200  0.11356  0.58907  1.0000
  S   S462      1.0  0.87568  0.10323  0.60061  1.0000
  Fe  Fe233     1.0  0.83012  0.15843  0.61449  1.0000
  S   S463      1.0  0.80291  0.15433  0.60178  1.0000
  S   S464      1.0  0.83120  0.18546  0.62939  1.0000
  Fe  Fe234     1.0  0.80584  0.12441  0.61476  1.0000
  S   S465      1.0  0.78485  0.10691  0.63338  1.0000
  Fe  Fe235     1.0  0.82087  0.14376  0.57708  1.0000
  S   S466      1.0  0.81868  0.15569  0.54653  1.0000
  S   S467      1.0  0.83207  0.12913  0.62893  1.0000
  S   S468      1.0  0.84762  0.15000  0.58897  1.0000
  Fe  Fe236     1.0  0.83865  0.11286  0.40748  1.0000
  S   S469      1.0  0.81356  0.10175  0.42347  1.0000
  S   S470      1.0  0.86496  0.09449  0.39994  1.0000
  Fe  Fe237     1.0  0.82187  0.15322  0.40590  1.0000
  S   S471      1.0  0.79504  0.14453  0.42213  1.0000
  S   S472      1.0  0.82432  0.18466  0.39624  1.0000
  Fe  Fe238     1.0  0.81401  0.12604  0.44105  1.0000
  S   S473      1.0  0.80799  0.11623  0.47212  1.0000
  Fe  Fe239     1.0  0.79593  0.12057  0.40358  1.0000
  H   H3635     1.0  0.76533  0.11669  0.47716  1.0000
  S   S474      1.0  0.84053  0.13611  0.42619  1.0000
  S   S475      1.0  0.82147  0.13036  0.38610  1.0000
  Fe  Fe240     1.0  0.89030  0.30690  0.37097  1.0000
  S   S476      1.0  0.91160  0.28435  0.38091  1.0000
  S   S477      1.0  0.87263  0.32587  0.39013  1.0000
  Fe  Fe241     1.0  0.89823  0.26645  0.36199  1.0000
  S   S478      1.0  0.89365  0.23589  0.37355  1.0000
  Fe  Fe242     1.0  0.92979  0.29425  0.35551  1.0000
  H   H3636     1.0  0.84050  0.29342  0.63348  1.0000
  S   S479      1.0  0.87611  0.28884  0.35280  1.0000
  H   H3637     1.0  0.92381  0.24989  0.60246  1.0000
  C   C2040     1.0  0.97666  0.38195  0.43422  1.0000
  C   C2041     1.0  0.98239  0.29423  0.35085  1.0000
  H   H3638     1.0  0.93385  0.43667  0.37906  1.0000
  C   C2042     1.0  0.84388  0.19841  0.38925  1.0000
  C   C2043     1.0  0.86251  0.19116  0.39067  1.0000
  C   C2044     1.0  0.87743  0.20277  0.38563  1.0000
  C   C2045     1.0  0.87409  0.22177  0.37882  1.0000
  C   C2046     1.0  0.85547  0.22899  0.37719  1.0000
  C   C2047     1.0  0.84053  0.21745  0.38251  1.0000
  H   H3639     1.0  0.86545  0.17663  0.39584  1.0000
  H   H3640     1.0  0.89171  0.19695  0.38700  1.0000
  H   H3641     1.0  0.85256  0.24350  0.37195  1.0000
  H   H3642     1.0  0.82623  0.22328  0.38128  1.0000
  C   C2048     1.0  0.86273  0.22823  0.58854  1.0000
  C   C2049     1.0  0.85163  0.08725  0.45714  1.0000
  C   C2050     1.0  0.87202  0.05656  0.45970  1.0000
  C   C2051     1.0  0.81669  0.14390  0.52610  1.0000
  C   C2052     1.0  0.82138  0.15310  0.50838  1.0000
  C   C2053     1.0  0.81921  0.14471  0.49171  1.0000
  C   C2054     1.0  0.81191  0.12716  0.49259  1.0000
  C   C2055     1.0  0.80706  0.11802  0.51031  1.0000
  C   C2056     1.0  0.80970  0.12618  0.52699  1.0000
  H   H3643     1.0  0.82669  0.16687  0.50754  1.0000
  H   H3644     1.0  0.82293  0.15195  0.47820  1.0000
  H   H3645     1.0  0.80101  0.10463  0.51112  1.0000
  H   H3646     1.0  0.80575  0.11908  0.54051  1.0000
  C   C2057     1.0  0.87947  0.21702  0.64860  1.0000
  C   C2058     1.0  0.86075  0.22414  0.65078  1.0000
  C   C2059     1.0  0.84627  0.21426  0.64487  1.0000
  C   C2060     1.0  0.85022  0.19719  0.63656  1.0000
  C   C2061     1.0  0.86894  0.19007  0.63434  1.0000
  H   H3647     1.0  0.76148  0.14690  0.64764  1.0000
  S   S480      1.0  0.96395  0.29503  0.64304  1.0000
  S   S481      1.0  0.92855  0.00521  0.57792  1.0000
  H   H3648     1.0  0.87229  0.17694  0.62808  1.0000
  C   C2062     1.0  0.92936  0.03849  0.42032  1.0000
  N   N116      1.0  0.89113  0.04617  0.46135  1.0000
  H   H3649     1.0  0.88227  0.09689  0.55441  1.0000
  H   H3650     1.0  0.97047  0.05388  0.55549  1.0000
  C   C2063     1.0  0.87725  0.03907  0.60326  1.0000
  C   C2064     1.0  0.86050  0.04963  0.60800  1.0000
  C   C2065     1.0  0.85990  0.06932  0.60736  1.0000
  C   C2066     1.0  0.87612  0.07855  0.60220  1.0000
  C   C2067     1.0  0.89299  0.06799  0.59780  1.0000
  C   C2068     1.0  0.89351  0.04830  0.59817  1.0000
  H   H3651     1.0  0.84793  0.04253  0.61215  1.0000
  H   H3652     1.0  0.84692  0.07735  0.61101  1.0000
  H   H3653     1.0  0.90558  0.07510  0.59380  1.0000
  H   H3654     1.0  0.90645  0.04025  0.59458  1.0000
  H   H3655     1.0  0.93649  0.06344  0.48699  1.0000
  H   H3656     1.0  0.84590  0.08546  0.47195  1.0000
  H   H3657     1.0  0.84453  0.08036  0.57210  1.0000
  C   C2069     1.0  0.86727  0.03007  0.40475  1.0000
  C   C2070     1.0  0.85153  0.04051  0.41223  1.0000
  C   C2071     1.0  0.85080  0.06024  0.41109  1.0000
  C   C2072     1.0  0.86570  0.06971  0.40223  1.0000
  C   C2073     1.0  0.88157  0.05927  0.39496  1.0000
  C   C2074     1.0  0.88236  0.03950  0.39619  1.0000
  H   H3658     1.0  0.83985  0.03327  0.41893  1.0000
  H   H3659     1.0  0.83866  0.06813  0.41695  1.0000
  H   H3660     1.0  0.89319  0.06651  0.38811  1.0000
  H   H3661     1.0  0.89446  0.03159  0.39018  1.0000
  H   H3662     1.0  0.86621  0.29933  0.43853  1.0000
  H   H3663     1.0  0.89258  0.28275  0.44428  1.0000
  H   H3664     1.0  0.81851  0.04736  0.51249  1.0000
  H   H3665     1.0  0.87049  0.22485  0.57509  1.0000
  C   C2075     1.0  0.87833  0.34374  0.44942  1.0000
  C   C2076     1.0  0.89394  0.33449  0.44020  1.0000
  C   C2077     1.0  0.89267  0.32874  0.42194  1.0000
  C   C2078     1.0  0.87581  0.33229  0.41293  1.0000
  C   C2079     1.0  0.86045  0.34160  0.42221  1.0000
  C   C2080     1.0  0.86164  0.34709  0.44030  1.0000
  H   H3666     1.0  0.90683  0.33155  0.44725  1.0000
  H   H3667     1.0  0.90462  0.32156  0.41487  1.0000
  H   H3668     1.0  0.84738  0.34439  0.41546  1.0000
  H   H3669     1.0  0.84945  0.35396  0.44733  1.0000
  C   C2081     1.0  0.90413  0.35506  0.57199  1.0000
  C   C2082     1.0  0.89304  0.34164  0.56652  1.0000
  C   C2083     1.0  0.88488  0.32883  0.58018  1.0000
  C   C2084     1.0  0.88849  0.32881  0.59920  1.0000
  C   C2085     1.0  0.89951  0.34227  0.60464  1.0000
  C   C2086     1.0  0.90684  0.35565  0.59112  1.0000
  H   H3670     1.0  0.89066  0.34124  0.55184  1.0000
  H   H3671     1.0  0.87606  0.31866  0.57596  1.0000
  H   H3672     1.0  0.90200  0.34263  0.61930  1.0000
  H   H3673     1.0  0.91492  0.36638  0.59544  1.0000
  H   H3674     1.0  0.77592  0.14488  0.48192  1.0000
  H   H3675     1.0  0.97464  0.26677  0.34622  1.0000
  C   C2087     1.0  0.84758  0.09243  0.35438  1.0000
  H   H3676     1.0  0.96737  0.38699  0.47796  1.0000
  H   H3677     1.0  0.86720  0.38817  0.36868  1.0000
  C   C2088     1.0  0.91820  0.45033  0.48593  1.0000
  C   C2089     1.0  0.90443  0.45148  0.50073  1.0000
  C   C2090     1.0  0.89887  0.46894  0.50783  1.0000
  C   C2091     1.0  0.92662  0.46675  0.47865  1.0000
  H   H3678     1.0  0.89777  0.43900  0.50642  1.0000
  H   H3679     1.0  0.93725  0.46602  0.46719  1.0000
  H   H3680     1.0  0.88796  0.46973  0.51902  1.0000
  H   H3681     1.0  0.90862  0.03310  0.49740  1.0000
  H   H3682     1.0  0.82787  0.08670  0.55527  1.0000
  H   H3683     1.0  0.85856  0.13161  0.53814  1.0000
  H   H3684     1.0  0.84403  0.29490  0.37932  1.0000
  C   C2092     1.0  0.88506  0.24599  0.60260  1.0000
  C   C2093     1.0  0.92914  0.01466  0.63058  1.0000
  H   H3685     1.0  0.83600  0.29220  0.47045  1.0000
  H   H3686     1.0  0.79116  0.16886  0.46032  1.0000
  H   H3687     1.0  0.81835  0.07602  0.52936  1.0000
  H   H3688     1.0  0.84627  0.31405  0.46325  1.0000
  C   C2094     1.0  0.90436  0.04811  0.54932  1.0000
  H   H3689     1.0  0.83442  0.05725  0.49413  1.0000
  H   H3690     1.0  0.93761  0.04501  0.50584  1.0000
  H   H3691     1.0  0.89985  0.03451  0.55615  1.0000
  C   C2095     1.0  0.85938  0.09263  0.53656  1.0000
  H   H3692     1.0  0.86882  0.09195  0.52359  1.0000
  H   H3693     1.0  0.88114  0.02539  0.48269  1.0000
  C   C2096     1.0  0.86859  0.10391  0.55040  1.0000
  H   H3694     1.0  0.85889  0.06278  0.51677  1.0000
  C   C2097     1.0  0.99236  0.31297  0.58359  1.0000
  C   C2098     1.0  0.92156  0.03818  0.44076  1.0000
  C   C2099     1.0  0.75506  0.10155  0.45555  1.0000
  H   H3695     1.0  0.84796  0.09090  0.33908  1.0000
  C   C2100     1.0  0.93917  0.08642  0.62882  1.0000
  H   H3696     1.0  0.92959  0.05315  0.41379  1.0000
  N   N117      1.0  0.86567  0.26245  0.42714  1.0000
  N   N118      1.0  0.95661  0.31982  0.58102  1.0000
  C   C2101     1.0  0.95573  0.33759  0.59096  1.0000
  C   C2102     1.0  0.95797  0.32450  0.55988  1.0000
  C   C2103     1.0  0.93849  0.31066  0.58612  1.0000
  S   S482      1.0  0.93059  0.00547  0.52336  1.0000
  C   C2104     1.0  0.99154  0.01908  0.61871  1.0000
  C   C2105     1.0  0.95480  0.33530  0.61271  1.0000
  C   C2106     1.0  0.93642  0.29220  0.57691  1.0000
  C   C2107     1.0  0.88340  0.19987  0.64042  1.0000
  H   H3697     1.0  0.79353  0.03355  0.36841  1.0000
  H   H3698     1.0  0.86694  0.27770  0.53940  1.0000
  C   C2108     1.0  0.95289  0.35444  0.62075  1.0000
  C   C2109     1.0  0.91597  0.28754  0.57776  1.0000
  H   H3699     1.0  0.94354  0.34710  0.58643  1.0000
  H   H3700     1.0  0.96811  0.34563  0.58683  1.0000
  C   C2110     1.0  0.97250  0.30603  0.58709  1.0000
  H   H3701     1.0  0.94369  0.32685  0.55439  1.0000
  H   H3702     1.0  0.92645  0.32079  0.58245  1.0000
  H   H3703     1.0  0.93650  0.30688  0.60147  1.0000
  C   C2111     1.0  0.97759  0.03552  0.62471  1.0000
  C   C2112     1.0  0.78068  0.17322  0.47159  1.0000
  H   H3704     1.0  0.94071  0.03406  0.59651  1.0000
  C   C2113     1.0  0.82001  0.00429  0.37261  1.0000
  H   H3705     1.0  0.94266  0.32768  0.61879  1.0000
  H   H3706     1.0  0.96790  0.32774  0.61763  1.0000
  H   H3707     1.0  0.74814  0.01035  0.64221  1.0000
  H   H3708     1.0  0.98336  0.04862  0.61816  1.0000
  N   N119      1.0  0.95749  0.03454  0.62018  1.0000
  S   S483      1.0  0.95924  0.30454  0.35524  1.0000
  H   H3709     1.0  0.81762  0.09588  0.35725  1.0000
  H   H3710     1.0  0.77316  0.12391  0.45394  1.0000
  H   H3711     1.0  0.95644  0.06173  0.58628  1.0000
  H   H3712     1.0  0.83890  0.04624  0.57244  1.0000
  H   H3713     1.0  0.83393  0.23500  0.57886  1.0000
  H   H3714     1.0  0.80298  0.07248  0.57729  1.0000
  H   H3715     1.0  0.80350  0.07646  0.39268  1.0000
  C   C2114     1.0  0.76939  0.08525  0.46076  1.0000
  H   H3716     1.0  0.93943  0.36225  0.61713  1.0000
  H   H3717     1.0  0.98188  0.34256  0.55758  1.0000
  H   H3718     1.0  0.90785  0.29800  0.56851  1.0000
  C   C2115     1.0  0.98763  0.41578  0.52385  1.0000
  H   H3719     1.0  0.84240  0.08098  0.44806  1.0000
  H   H3720     1.0  0.87453  0.06759  0.56512  1.0000
  H   H3721     1.0  0.83890  0.27061  0.57334  1.0000
  H   H3722     1.0  0.93205  0.05315  0.61958  1.0000
  H   H3723     1.0  0.86170  0.02159  0.45574  1.0000
  H   H3724     1.0  0.82460  0.28136  0.62136  1.0000
  H   H3725     1.0  0.83705  0.26911  0.64061  1.0000
  C   C2116     1.0  0.82154  0.02446  0.37722  1.0000
  C   C2117     1.0  0.90727  0.48535  0.50053  1.0000
  H   H3726     1.0  0.95779  0.00416  0.62506  1.0000
  H   H3727     1.0  0.85156  0.10253  0.45285  1.0000
  C   C2118     1.0  0.84883  0.29851  0.46405  1.0000
  C   C2119     1.0  0.98618  0.28927  0.65248  1.0000
  H   H3728     1.0  0.89315  0.04227  0.43172  1.0000
  H   H3729     1.0  0.83799  0.05808  0.37110  1.0000
  H   H3730     1.0  0.86805  0.21740  0.59951  1.0000
  C   C2120     1.0  0.85475  0.28171  0.54906  1.0000
  H   H3731     1.0  0.97035  0.37088  0.44398  1.0000
  H   H3732     1.0  0.94009  0.00329  0.48369  1.0000
  C   C2121     1.0  0.88669  0.25965  0.42806  1.0000
  C   C2122     1.0  0.85864  0.24338  0.42554  1.0000
  C   C2123     1.0  0.86293  0.22804  0.44175  1.0000
  C   C2124     1.0  0.91819  0.27265  0.43046  1.0000
  C   C2125     1.0  0.85164  0.21101  0.44074  1.0000
  H   H3733     1.0  0.86931  0.26886  0.39701  1.0000
  H   H3734     1.0  0.89049  0.24960  0.44016  1.0000
  H   H3735     1.0  0.89309  0.25328  0.41522  1.0000
  H   H3736     1.0  0.86460  0.23767  0.41228  1.0000
  H   H3737     1.0  0.84317  0.24457  0.42463  1.0000
  H   H3738     1.0  0.83724  0.26414  0.39735  1.0000
  H   H3739     1.0  0.85952  0.23346  0.45568  1.0000
  H   H3740     1.0  0.87796  0.22286  0.44069  1.0000
  H   H3741     1.0  0.92525  0.28571  0.43137  1.0000
  H   H3742     1.0  0.92174  0.26262  0.44267  1.0000
  H   H3743     1.0  0.83665  0.30684  0.40004  1.0000
  H   H3744     1.0  0.85500  0.20482  0.42715  1.0000
  H   H3745     1.0  0.85521  0.20011  0.45224  1.0000
  H   H3746     1.0  0.83636  0.21504  0.44222  1.0000
  H   H3747     1.0  0.76457  0.04843  0.63133  1.0000
  H   H3748     1.0  0.77019  0.02702  0.62011  1.0000
  H   H3749     1.0  0.77279  0.18653  0.46663  1.0000
  C   C2126     1.0  0.99176  0.02479  0.43651  1.0000
  H   H3750     1.0  0.76534  0.07222  0.45542  1.0000
  H   H3751     1.0  0.79523  0.05764  0.33248  1.0000
  C   C2127     1.0  0.82319  0.06062  0.50504  1.0000
  H   H3752     1.0  0.92790  0.49663  0.48023  1.0000
  H   H3753     1.0  0.99482  0.31987  0.35459  1.0000
  C   C2128     1.0  0.98163  0.38220  0.48092  1.0000
  H   H3754     1.0  0.94096  0.04851  0.64212  1.0000
  C   C2129     1.0  0.95051  0.01694  0.63076  1.0000
  H   H3755     1.0  0.96443  0.07019  0.63639  1.0000
  H   H3756     1.0  0.76431  0.07688  0.33439  1.0000
  H   H3757     1.0  0.98814  0.00560  0.62660  1.0000
  H   H3758     1.0  0.97278  0.29311  0.57958  1.0000
  C   C2130     1.0  0.95570  0.03303  0.59954  1.0000
  H   H3759     1.0  0.81113  0.06821  0.49796  1.0000
  H   H3760     1.0  0.93136  0.22680  0.59556  1.0000
  H   H3761     1.0  0.98640  0.42616  0.53452  1.0000
  S   S484      1.0  0.91387  0.31252  0.65806  1.0000
  H   H3762     1.0  0.75810  0.16229  0.48933  1.0000
  H   H3763     1.0  0.80691  0.04858  0.58735  1.0000
  C   C2131     1.0  0.99501  0.39646  0.53236  1.0000
  C   C2132     1.0  0.82892  0.08678  0.36401  1.0000
  C   C2133     1.0  0.75345  0.09556  0.65460  1.0000
  H   H3764     1.0  0.99446  0.38654  0.52146  1.0000
  H   H3765     1.0  0.93162  0.08398  0.64282  1.0000
  H   H3766     1.0  0.76150  0.12650  0.36136  1.0000
  H   H3767     1.0  0.90165  0.01743  0.46973  1.0000
  H   H3768     1.0  0.81179  0.03675  0.35083  1.0000
  H   H3769     1.0  0.91649  0.04504  0.53926  1.0000
  S   S485      1.0  0.90902  0.31830  0.34702  1.0000
  H   H3770     1.0  0.78353  0.08827  0.45443  1.0000
  H   H3771     1.0  0.87990  0.25524  0.56584  1.0000
  H   H3772     1.0  0.94446  0.28032  0.58456  1.0000
  H   H3773     1.0  0.95919  0.35516  0.55606  1.0000
  H   H3774     1.0  0.94968  0.41565  0.38172  1.0000
  Fe  Fe243     1.0  0.93422  0.28752  0.65316  1.0000
  N   N120      1.0  0.90311  0.39464  0.41069  1.0000
  C   C2134     1.0  0.91325  0.40790  0.39666  1.0000
  C   C2135     1.0  0.88671  0.38792  0.40180  1.0000
  C   C2136     1.0  0.89523  0.40578  0.42682  1.0000
  C   C2137     1.0  0.91584  0.37827  0.41829  1.0000
  C   C2138     1.0  0.93183  0.37039  0.40472  1.0000
  C   C2139     1.0  0.92836  0.41862  0.40476  1.0000
  C   C2140     1.0  0.88239  0.39540  0.44201  1.0000
  C   C2141     1.0  0.89115  0.37667  0.38438  1.0000
  C   C2142     1.0  0.87328  0.37436  0.37471  1.0000
  C   C2143     1.0  0.94156  0.35224  0.41351  1.0000
  H   H3775     1.0  0.99109  0.41012  0.47778  1.0000
  C   C2144     1.0  0.87767  0.40695  0.45884  1.0000
  H   H3776     1.0  0.90305  0.41869  0.39011  1.0000
  H   H3777     1.0  0.92005  0.40048  0.38477  1.0000
  H   H3778     1.0  0.87886  0.37829  0.41198  1.0000
  H   H3779     1.0  0.87661  0.40012  0.39796  1.0000
  H   H3780     1.0  0.88710  0.41887  0.42145  1.0000
  H   H3781     1.0  0.90678  0.41043  0.43445  1.0000
  H   H3782     1.0  0.92298  0.38215  0.43046  1.0000
  H   H3783     1.0  0.90740  0.36648  0.42399  1.0000
  H   H3784     1.0  0.94264  0.38062  0.40156  1.0000
  H   H3785     1.0  0.92679  0.36737  0.39121  1.0000
  H   H3786     1.0  0.92149  0.43042  0.41241  1.0000
  H   H3787     1.0  0.93676  0.40934  0.41479  1.0000
  H   H3788     1.0  0.88936  0.38173  0.44714  1.0000
  H   H3789     1.0  0.86886  0.39293  0.43643  1.0000
  H   H3790     1.0  0.90087  0.38354  0.37373  1.0000
  H   H3791     1.0  0.89724  0.36234  0.38884  1.0000
  H   H3792     1.0  0.87658  0.36505  0.36316  1.0000
  H   H3793     1.0  0.86270  0.36782  0.38479  1.0000
  H   H3794     1.0  0.77619  0.02820  0.64394  1.0000
  H   H3795     1.0  0.95352  0.34739  0.40398  1.0000
  H   H3796     1.0  0.94694  0.35448  0.42721  1.0000
  H   H3797     1.0  0.93167  0.34101  0.41574  1.0000
  H   H3798     1.0  0.82356  0.00290  0.35743  1.0000
  C   C2145     1.0  0.79216  0.06993  0.35969  1.0000
  H   H3799     1.0  0.82551  0.20202  0.58022  1.0000
  H   H3800     1.0  0.86865  0.39905  0.46953  1.0000
  H   H3801     1.0  0.89062  0.40965  0.46540  1.0000
  H   H3802     1.0  0.87003  0.42059  0.45449  1.0000
  C   C2146     1.0  0.75235  0.11515  0.36385  1.0000
  C   C2147     1.0  0.80477  0.06127  0.39033  1.0000
  H   H3803     1.0  0.92069  0.02584  0.63783  1.0000
  H   H3804     1.0  0.92887  0.08771  0.61781  1.0000
  H   H3805     1.0  0.88977  0.26014  0.60415  1.0000
  C   C2148     1.0  0.76551  0.03284  0.63366  1.0000
  H   H3806     1.0  0.78737  0.03752  0.39922  1.0000
  C   C2149     1.0  0.90178  0.23474  0.59263  1.0000
  C   C2150     1.0  0.92135  0.48413  0.48603  1.0000
  C   C2151     1.0  0.98678  0.36302  0.48424  1.0000
  C   C2152     1.0  0.90135  0.05533  0.47541  1.0000
  C   C2153     1.0  0.87164  0.07821  0.45506  1.0000
  C   C2154     1.0  0.91595  0.04270  0.48677  1.0000
  C   C2155     1.0  0.92794  0.05446  0.49715  1.0000
  H   H3807     1.0  0.90846  0.06757  0.46830  1.0000
  H   H3808     1.0  0.89122  0.06118  0.48632  1.0000
  H   H3809     1.0  0.90275  0.06270  0.43711  1.0000
  H   H3810     1.0  0.85939  0.10552  0.56333  1.0000
  H   H3811     1.0  0.87703  0.08163  0.44033  1.0000
  H   H3812     1.0  0.88011  0.08504  0.46440  1.0000
  C   C2156     1.0  0.87632  0.01525  0.45609  1.0000
  H   H3813     1.0  0.92553  0.03399  0.47777  1.0000
  C   C2157     1.0  0.89699  0.27729  0.43053  1.0000
  C   C2158     1.0  0.83804  0.27974  0.62833  1.0000
  C   C2159     1.0  0.90142  0.04771  0.44222  1.0000
  Fe  Fe244     1.0  0.90232  0.26003  0.65916  1.0000
  C   C2160     1.0  0.88814  0.02598  0.46827  1.0000
  H   H3814     1.0  0.84218  0.28467  0.54076  1.0000
  H   H3815     1.0  0.75482  0.10306  0.44002  1.0000
  C   C2161     1.0  0.86119  0.27455  0.40940  1.0000
  H   H3816     1.0  0.89424  0.28847  0.41914  1.0000
  H   H3817     1.0  0.92364  0.26639  0.41735  1.0000
  C   C2162     1.0  0.80790  0.03845  0.36592  1.0000
  C   C2163     1.0  0.84019  0.27632  0.40492  1.0000
  N   N121      1.0  0.85410  0.07329  0.54415  1.0000
  C   C2164     1.0  0.83502  0.29424  0.39255  1.0000
  H   H3818     1.0  0.86592  0.28885  0.40959  1.0000
  H   H3819     1.0  0.83075  0.27626  0.41787  1.0000
  H   H3820     1.0  0.89906  0.21973  0.59260  1.0000
  C   C2165     1.0  0.85133  0.26586  0.56444  1.0000
  H   H3821     1.0  0.84823  0.25345  0.55737  1.0000
  H   H3822     1.0  0.85498  0.28519  0.60282  1.0000
  C   C2166     1.0  0.97033  0.34374  0.53078  1.0000
  C   C2167     1.0  0.75541  0.15452  0.46073  1.0000
  H   H3823     1.0  0.88322  0.23925  0.61713  1.0000
  C   C2168     1.0  0.85654  0.27047  0.44467  1.0000
  H   H3824     1.0  0.84235  0.26532  0.44805  1.0000
  H   H3825     1.0  0.86465  0.26514  0.45701  1.0000
  C   C2169     1.0  0.83877  0.07546  0.55957  1.0000
  H   H3826     1.0  0.83487  0.22325  0.60197  1.0000
  H   H3827     1.0  0.88155  0.12310  0.52878  1.0000
  H   H3828     1.0  0.82019  0.29449  0.38899  1.0000
  C   C2170     1.0  0.85429  0.27397  0.61454  1.0000
  H   H3829     1.0  0.83757  0.25628  0.60121  1.0000
  H   H3830     1.0  0.86319  0.05376  0.47295  1.0000
  H   H3831     1.0  0.88258  0.01516  0.44153  1.0000
  H   H3832     1.0  0.87393  0.27442  0.57941  1.0000
  H   H3833     1.0  0.77421  0.05975  0.39455  1.0000
  H   H3834     1.0  0.86458  0.05139  0.44835  1.0000
  H   H3835     1.0  0.85738  0.29478  0.55534  1.0000
  C   C2171     1.0  0.85369  0.29227  0.44435  1.0000
  H   H3836     1.0  0.84202  0.29776  0.43555  1.0000
  S   S486      1.0  0.77047  0.10470  0.39717  1.0000
  C   C2172     1.0  0.85153  0.25489  0.60708  1.0000
  H   H3837     1.0  0.86724  0.27315  0.62223  1.0000
  C   C2173     1.0  0.87202  0.12369  0.54167  1.0000
  H   H3838     1.0  0.87858  0.13139  0.55191  1.0000
  H   H3839     1.0  0.97619  0.35722  0.52549  1.0000
  C   C2174     1.0  0.86883  0.26101  0.57584  1.0000
  H   H3840     1.0  0.85018  0.24448  0.61945  1.0000
  H   H3841     1.0  0.92075  0.03051  0.41208  1.0000
  H   H3842     1.0  0.84669  0.10149  0.53212  1.0000
  C   C2175     1.0  0.78596  0.05573  0.42136  1.0000
  C   C2176     1.0  0.87053  0.06164  0.55235  1.0000
  C   C2177     1.0  0.88838  0.05898  0.53899  1.0000
  H   H3843     1.0  0.98975  0.36369  0.41434  1.0000
  C   C2178     1.0  0.76040  0.12006  0.46276  1.0000
  C   C2179     1.0  0.75613  0.17257  0.63061  1.0000
  H   H3844     1.0  0.84532  0.04859  0.53300  1.0000
  N   N122      1.0  0.86666  0.24763  0.59326  1.0000
  C   C2180     1.0  0.84191  0.22408  0.58761  1.0000
  H   H3845     1.0  0.79092  0.16613  0.64254  1.0000
  H   H3846     1.0  0.76641  0.16856  0.61907  1.0000
  N   N123      1.0  0.80789  0.05882  0.36966  1.0000
  C   C2181     1.0  0.81382  0.06161  0.58241  1.0000
  H   H3847     1.0  0.98532  0.39219  0.54448  1.0000
  C   C2182     1.0  0.76015  0.10744  0.63921  1.0000
  H   H3848     1.0  0.97353  0.41484  0.51868  1.0000
  C   C2183     1.0  0.76736  0.15779  0.47720  1.0000
  H   H3849     1.0  0.84809  0.19372  0.58837  1.0000
  H   H3850     1.0  0.99135  0.01756  0.60347  1.0000
  H   H3851     1.0  0.88564  0.05076  0.52724  1.0000
  C   C2184     1.0  0.96465  0.04800  0.58554  1.0000
  H   H3852     1.0  0.99592  0.31537  0.56830  1.0000
  C   C2185     1.0  0.82673  0.06562  0.36277  1.0000
  H   H3853     1.0  0.90959  0.28754  0.59234  1.0000
  H   H3854     1.0  0.97277  0.02930  0.56348  1.0000
  H   H3855     1.0  0.93100  0.04593  0.44829  1.0000
  H   H3856     1.0  0.83632  0.02769  0.37383  1.0000
  C   C2186     1.0  0.91977  0.23527  0.60268  1.0000
  C   C2187     1.0  0.78715  0.05283  0.40045  1.0000
  C   C2188     1.0  0.82879  0.05751  0.56672  1.0000
  H   H3857     1.0  0.92214  0.02333  0.44664  1.0000
  H   H3858     1.0  0.96496  0.31242  0.55269  1.0000
  C   C2189     1.0  0.83011  0.07301  0.51891  1.0000
  C   C2190     1.0  0.94535  0.05121  0.62692  1.0000
  H   H3859     1.0  0.75022  0.16613  0.65997  1.0000
  S   S487      1.0  0.86704  0.00543  0.40550  1.0000
  H   H3860     1.0  0.90903  0.05651  0.56011  1.0000
  H   H3861     1.0  0.79852  0.04883  0.42809  1.0000
  H   H3862     1.0  0.94390  0.03178  0.41967  1.0000
  C   C2191     1.0  0.84770  0.06350  0.52830  1.0000
  H   H3863     1.0  0.90451  0.24050  0.57791  1.0000
  H   H3864     1.0  0.95191  0.43503  0.39551  1.0000
  C   C2192     1.0  0.95414  0.07040  0.62549  1.0000
  H   H3865     1.0  0.80713  0.07878  0.33269  1.0000
  H   H3866     1.0  0.94975  0.04147  0.56169  1.0000
  H   H3867     1.0  0.82021  0.06657  0.59453  1.0000
  H   H3868     1.0  0.80001  0.13512  0.65419  1.0000
  S   S488      1.0  0.91845  0.27457  0.33732  1.0000
  H   H3869     1.0  0.98075  0.47485  0.48172  1.0000
  H   H3870     1.0  0.92466  0.01521  0.61610  1.0000
  H   H3871     1.0  0.96465  0.36296  0.61530  1.0000
  H   H3872     1.0  0.96382  0.48617  0.49767  1.0000
  H   H3873     1.0  0.77866  0.06353  0.36361  1.0000
  H   H3874     1.0  0.96143  0.01889  0.59558  1.0000
  H   H3875     1.0  0.91513  0.27348  0.57275  1.0000
  H   H3876     1.0  0.96615  0.38775  0.42418  1.0000
  C   C2193     1.0  0.96788  0.34235  0.55213  1.0000
  C   C2194     1.0  0.98612  0.27554  0.34669  1.0000
  H   H3877     1.0  0.78835  0.17578  0.48392  1.0000
  H   H3878     1.0  0.91900  0.06348  0.50653  1.0000
  C   C2195     1.0  0.96435  0.04279  0.56534  1.0000
  H   H3879     1.0  0.81713  0.05527  0.39786  1.0000
  H   H3880     1.0  0.97023  0.30113  0.60222  1.0000
  H   H3881     1.0  0.95303  0.35242  0.63626  1.0000
  H   H3882     1.0  0.83188  0.21992  0.64674  1.0000
  H   H3883     1.0  0.98013  0.39354  0.44231  1.0000
  H   H3884     1.0  0.95657  0.34342  0.52471  1.0000
  H   H3885     1.0  0.85949  0.08363  0.36052  1.0000
  C   C2196     1.0  0.75386  0.10271  0.38001  1.0000
  H   H3886     1.0  0.94585  0.09990  0.62829  1.0000
  H   H3887     1.0  0.83358  0.08642  0.51090  1.0000
  H   H3888     1.0  0.76498  0.15522  0.44785  1.0000
  H   H3889     1.0  0.78489  0.07096  0.42335  1.0000
  C   C2197     1.0  0.76140  0.16208  0.64925  1.0000
  H   H3890     1.0  0.81849  0.02478  0.39257  1.0000
  H   H3891     1.0  0.82877  0.08976  0.37893  1.0000
  H   H3892     1.0  0.84629  0.20543  0.56498  1.0000
  H   H3893     1.0  0.89779  0.19413  0.63871  1.0000
  C   C2198     1.0  0.84044  0.20517  0.57977  1.0000
  H   H3894     1.0  0.95391  0.01613  0.64577  1.0000
  H   H3895     1.0  0.82167  0.05212  0.55533  1.0000
  C   C2199     1.0  0.94173  0.42698  0.38924  1.0000
  C   C2200     1.0  0.97709  0.48787  0.48890  1.0000
  H   H3896     1.0  0.99419  0.47913  0.51184  1.0000
  S   S489      1.0  0.89841  0.22894  0.65569  1.0000
  H   H3897     1.0  0.97946  0.04947  0.58815  1.0000
  H   H3898     1.0  0.99624  0.35637  0.59995  1.0000
  H   H3899     1.0  0.97832  0.03619  0.64012  1.0000
  H   H3900     1.0  0.97995  0.33200  0.52587  1.0000
  C   C2201     1.0  0.79438  0.07168  0.33794  1.0000
  C   C2202     1.0  0.99509  0.39529  0.48067  1.0000
  H   H3901     1.0  0.99348  0.32605  0.59036  1.0000
  C   C2203     1.0  0.99424  0.37390  0.42353  1.0000
  H   H3902     1.0  0.75643  0.13243  0.42517  1.0000
  H   H3903     1.0  0.83045  0.06217  0.34807  1.0000
  H   H3904     1.0  0.77682  0.09786  0.33383  1.0000
  H   H3905     1.0  0.75195  0.12826  0.61715  1.0000
  H   H3906     1.0  0.76335  0.08648  0.66260  1.0000
  H   H3907     1.0  0.77851  0.18260  0.65686  1.0000
  H   H3908     1.0  0.98105  0.99980  0.46506  1.0000
  H   H3909     1.0  0.75558  0.18801  0.63141  1.0000
  H   H3910     1.0  0.85741  0.23722  0.65713  1.0000
  C   C2204     1.0  0.99265  0.49141  0.50133  1.0000
  H   H3911     1.0  0.98274  0.03181  0.44746  1.0000
  H   H3912     1.0  0.81728  0.16083  0.66300  1.0000
  H   H3913     1.0  0.99710  0.42078  0.51179  1.0000
  Fe  Fe245     1.0  0.97194  0.38089  0.90574  1.0000
  S   S490      1.0  0.94221  0.37192  0.90568  1.0000
  H   H3914     1.0  0.87562  0.33603  0.95217  1.0000
  S   S491      1.0  0.97537  0.39961  0.92857  1.0000
  Fe  Fe246     1.0  0.90153  0.29452  0.68263  1.0000
  S   S492      1.0  0.92281  0.26983  0.67824  1.0000
  S   S493      1.0  0.90104  0.30606  0.71170  1.0000
  Fe  Fe247     1.0  0.87091  0.37424  0.82450  1.0000
  S   S494      1.0  0.86616  0.38609  0.79495  1.0000
  S   S495      1.0  0.90196  0.37075  0.82965  1.0000
  Fe  Fe248     1.0  0.82884  0.37098  0.83429  1.0000
  S   S496      1.0  0.82146  0.38288  0.80535  1.0000
  S   S497      1.0  0.80868  0.36346  0.85994  1.0000
  Fe  Fe249     1.0  0.84596  0.36395  0.79453  1.0000
  S   S498      1.0  0.84225  0.34853  0.76845  1.0000
  Fe  Fe250     1.0  0.84252  0.40411  0.80784  1.0000
  S   S499      1.0  0.83775  0.43439  0.79510  1.0000
  S   S500      1.0  0.85209  0.35067  0.82344  1.0000
  S   S501      1.0  0.84846  0.39364  0.83751  1.0000
  H   H3915     1.0  0.98676  0.27490  0.73245  1.0000
  C   C2205     1.0  0.83995  0.47259  0.79515  1.0000
  C   C2206     1.0  0.84359  0.45487  0.80497  1.0000
  C   C2207     1.0  0.85160  0.45394  0.82229  1.0000
  C   C2208     1.0  0.85565  0.47057  0.82977  1.0000
  H   H3916     1.0  0.83377  0.47348  0.78174  1.0000
  H   H3917     1.0  0.85450  0.44043  0.82999  1.0000
  H   H3918     1.0  0.86166  0.46973  0.84324  1.0000
  C   C2209     1.0  0.75989  0.34049  0.85073  1.0000
  C   C2210     1.0  0.77739  0.34837  0.84767  1.0000
  C   C2211     1.0  0.78638  0.35375  0.86279  1.0000
  C   C2212     1.0  0.77752  0.35116  0.88096  1.0000
  H   H3919     1.0  0.92433  0.37171  0.76261  1.0000
  H   H3920     1.0  0.78396  0.35023  0.83362  1.0000
  H   H3921     1.0  0.78427  0.35525  0.89279  1.0000
  H   H3922     1.0  0.75353  0.34127  0.89809  1.0000
  C   C2213     1.0  0.76005  0.34321  0.88402  1.0000
  C   C2214     1.0  0.88416  0.31742  0.72737  1.0000
  C   C2215     1.0  0.89011  0.32299  0.74418  1.0000
  C   C2216     1.0  0.87754  0.33239  0.75692  1.0000
  C   C2217     1.0  0.85870  0.33628  0.75310  1.0000
  C   C2218     1.0  0.85268  0.33057  0.73638  1.0000
  C   C2219     1.0  0.86529  0.32125  0.72358  1.0000
  H   H3923     1.0  0.90451  0.31988  0.74750  1.0000
  H   H3924     1.0  0.88238  0.33645  0.76979  1.0000
  H   H3925     1.0  0.83813  0.33341  0.73328  1.0000
  H   H3926     1.0  0.86040  0.31700  0.71081  1.0000
  H   H3927     1.0  0.81089  0.09412  0.69120  1.0000
  C   C2220     1.0  0.90133  0.37901  0.74448  1.0000
  C   C2221     1.0  0.81153  0.31059  0.87785  1.0000
  H   H3928     1.0  0.92725  0.47956  0.83919  1.0000
  C   C2222     1.0  0.93107  0.37270  0.88436  1.0000
  C   C2223     1.0  0.94150  0.37095  0.86730  1.0000
  C   C2224     1.0  0.93232  0.37062  0.85066  1.0000
  C   C2225     1.0  0.91268  0.37255  0.85081  1.0000
  C   C2226     1.0  0.90223  0.37511  0.86774  1.0000
  C   C2227     1.0  0.91138  0.37483  0.88453  1.0000
  H   H3929     1.0  0.95664  0.36931  0.86700  1.0000
  H   H3930     1.0  0.94051  0.36869  0.83761  1.0000
  H   H3931     1.0  0.88715  0.37708  0.86782  1.0000
  H   H3932     1.0  0.90324  0.37635  0.89768  1.0000
  C   C2228     1.0  0.87696  0.37418  0.71462  1.0000
  H   H3933     1.0  0.75313  0.33643  0.83888  1.0000
  H   H3934     1.0  0.77908  0.12938  0.66663  1.0000
  H   H3935     1.0  0.90215  0.36395  0.77237  1.0000
  H   H3936     1.0  0.80816  0.09913  0.66642  1.0000
  H   H3937     1.0  0.94825  0.33162  0.72570  1.0000
  N   N124      1.0  0.85653  0.33360  0.89058  1.0000
  C   C2229     1.0  0.85505  0.32730  0.91126  1.0000
  C   C2230     1.0  0.84297  0.32374  0.88032  1.0000
  C   C2231     1.0  0.87615  0.32759  0.88305  1.0000
  C   C2232     1.0  0.85356  0.35473  0.88681  1.0000
  H   H3938     1.0  0.96620  0.29618  0.74712  1.0000
  C   C2233     1.0  0.86988  0.33442  0.92309  1.0000
  C   C2234     1.0  0.87999  0.33094  0.86147  1.0000
  C   C2235     1.0  0.82350  0.32022  0.89034  1.0000
  H   H3939     1.0  0.83304  0.38921  0.87855  1.0000
  C   C2236     1.0  0.80690  0.16391  0.67491  1.0000
  C   C2237     1.0  0.86449  0.33133  0.94410  1.0000
  C   C2238     1.0  0.90024  0.32457  0.85556  1.0000
  H   H3940     1.0  0.85638  0.31165  0.91332  1.0000
  H   H3941     1.0  0.84093  0.33155  0.91762  1.0000
  H   H3942     1.0  0.84046  0.33142  0.86637  1.0000
  H   H3943     1.0  0.84923  0.30950  0.87720  1.0000
  H   H3944     1.0  0.87956  0.31236  0.88712  1.0000
  H   H3945     1.0  0.88676  0.33519  0.88930  1.0000
  H   H3946     1.0  0.86666  0.36137  0.88881  1.0000
  H   H3947     1.0  0.85068  0.35867  0.87183  1.0000
  H   H3948     1.0  0.78773  0.09894  0.68281  1.0000
  C   C2239     1.0  0.84108  0.40333  0.74639  1.0000
  H   H3949     1.0  0.88371  0.32659  0.92043  1.0000
  H   H3950     1.0  0.87161  0.34960  0.91957  1.0000
  H   H3951     1.0  0.87759  0.34606  0.85676  1.0000
  H   H3952     1.0  0.87080  0.32295  0.85390  1.0000
  C   C2240     1.0  0.85178  0.48829  0.82006  1.0000
  H   H3953     1.0  0.82574  0.39340  0.90241  1.0000
  H   H3954     1.0  0.98057  0.30276  0.68849  1.0000
  H   H3955     1.0  0.94526  0.27547  0.74444  1.0000
  H   H3956     1.0  0.87381  0.40824  0.68945  1.0000
  H   H3957     1.0  0.98828  0.27304  0.70785  1.0000
  C   C2241     1.0  0.94737  0.31912  0.73598  1.0000
  H   H3958     1.0  0.94002  0.29156  0.71241  1.0000
  H   H3959     1.0  0.82603  0.18376  0.69928  1.0000
  H   H3960     1.0  0.98351  0.43690  0.85703  1.0000
  C   C2242     1.0  0.83797  0.36510  0.89897  1.0000
  H   H3961     1.0  0.90272  0.32750  0.84012  1.0000
  H   H3962     1.0  0.91019  0.33233  0.86249  1.0000
  H   H3963     1.0  0.90308  0.30926  0.85922  1.0000
  N   N125      1.0  0.91745  0.43977  0.89992  1.0000
  C   C2243     1.0  0.89810  0.43368  0.89791  1.0000
  C   C2244     1.0  0.92708  0.42601  0.91405  1.0000
  C   C2245     1.0  0.91548  0.45940  0.90623  1.0000
  C   C2246     1.0  0.92912  0.43995  0.88154  1.0000
  C   C2247     1.0  0.93086  0.42132  0.87187  1.0000
  C   C2248     1.0  0.88732  0.44395  0.88142  1.0000
  C   C2249     1.0  0.93386  0.46718  0.91129  1.0000
  C   C2250     1.0  0.91797  0.42532  0.93440  1.0000
  C   C2251     1.0  0.92924  0.41165  0.94771  1.0000
  C   C2252     1.0  0.93961  0.42404  0.85185  1.0000
  C   C2253     1.0  0.86834  0.43595  0.88045  1.0000
  H   H3964     1.0  0.86294  0.31620  0.94831  1.0000
  H   H3965     1.0  0.88902  0.43586  0.91090  1.0000
  H   H3966     1.0  0.89862  0.41827  0.89665  1.0000
  H   H3967     1.0  0.92737  0.41147  0.90969  1.0000
  H   H3968     1.0  0.94214  0.42862  0.91437  1.0000
  H   H3969     1.0  0.90508  0.46041  0.91845  1.0000
  H   H3970     1.0  0.90963  0.46953  0.89506  1.0000
  H   H3971     1.0  0.92382  0.45160  0.87147  1.0000
  H   H3972     1.0  0.94375  0.44300  0.88362  1.0000
  H   H3973     1.0  0.91715  0.41556  0.87096  1.0000
  H   H3974     1.0  0.93997  0.41063  0.87984  1.0000
  H   H3975     1.0  0.88472  0.45917  0.88322  1.0000
  H   H3976     1.0  0.89513  0.44233  0.86767  1.0000
  H   H3977     1.0  0.96819  0.47610  0.96782  1.0000
  H   H3978     1.0  0.94084  0.45791  0.92238  1.0000
  H   H3979     1.0  0.91713  0.43926  0.94004  1.0000
  H   H3980     1.0  0.90363  0.42050  0.93485  1.0000
  H   H3981     1.0  0.92161  0.41025  0.96175  1.0000
  H   H3982     1.0  0.94304  0.41701  0.94941  1.0000
  H   H3983     1.0  0.93077  0.43438  0.84315  1.0000
  H   H3984     1.0  0.95387  0.42886  0.85185  1.0000
  H   H3985     1.0  0.94074  0.41045  0.84541  1.0000
  H   H3986     1.0  0.86077  0.44359  0.86871  1.0000
  H   H3987     1.0  0.87029  0.42084  0.87785  1.0000
  H   H3988     1.0  0.85956  0.43754  0.89370  1.0000
  H   H3989     1.0  0.84719  0.40019  0.76019  1.0000
  H   H3990     1.0  0.76233  0.26744  0.88203  1.0000
  H   H3991     1.0  0.98047  0.48888  0.89638  1.0000
  H   H3992     1.0  0.96192  0.25858  0.73388  1.0000
  H   H3993     1.0  0.82409  0.36022  0.89728  1.0000
  C   C2254     1.0  0.94949  0.26854  0.73142  1.0000
  H   H3994     1.0  0.75001  0.02677  0.66990  1.0000
  H   H3995     1.0  0.78330  0.15829  0.70208  1.0000
  H   H3996     1.0  0.75269  0.15272  0.72230  1.0000
  C   C2255     1.0  0.98958  0.27371  0.66538  1.0000
  H   H3997     1.0  0.90899  0.39033  0.73657  1.0000
  H   H3998     1.0  0.95673  0.27574  0.70182  1.0000
  H   H3999     1.0  0.93143  0.33612  0.75602  1.0000
  C   C2256     1.0  0.95353  0.28333  0.71471  1.0000
  N   N126      1.0  0.96900  0.29589  0.71685  1.0000
  H   H4000     1.0  0.81564  0.33341  0.89386  1.0000
  H   H4001     1.0  0.98334  0.49285  0.99037  1.0000
  C   C2257     1.0  0.81997  0.40190  0.74995  1.0000
  C   C2258     1.0  0.93345  0.25694  0.72762  1.0000
  H   H4002     1.0  0.81803  0.29641  0.87516  1.0000
  H   H4003     1.0  0.93498  0.31165  0.73360  1.0000
  H   H4004     1.0  0.85035  0.39215  0.89501  1.0000
  H   H4005     1.0  0.86334  0.35472  0.67509  1.0000
  H   H4006     1.0  0.97883  0.32172  0.70284  1.0000
  C   C2259     1.0  0.95347  0.31699  0.68944  1.0000
  H   H4007     1.0  0.81433  0.41181  0.76038  1.0000
  C   C2260     1.0  0.99286  0.48294  0.90318  1.0000
  H   H4008     1.0  0.94173  0.32165  0.69918  1.0000
  H   H4009     1.0  0.90471  0.48943  0.86601  1.0000
  C   C2261     1.0  0.77524  0.15895  0.68929  1.0000
  H   H4010     1.0  0.96849  0.47648  0.86974  1.0000
  H   H4011     1.0  0.92492  0.48792  0.80273  1.0000
  C   C2262     1.0  0.97139  0.30951  0.69955  1.0000
  H   H4012     1.0  0.93720  0.24903  0.71510  1.0000
  H   H4013     1.0  0.99254  0.33604  0.99533  1.0000
  H   H4014     1.0  0.89890  0.49188  0.82940  1.0000
  H   H4015     1.0  0.89085  0.37709  0.70745  1.0000
  H   H4016     1.0  0.96160  0.34551  0.68202  1.0000
  H   H4017     1.0  0.85113  0.33959  0.94773  1.0000
  C   C2263     1.0  0.76013  0.14454  0.69397  1.0000
  C   C2264     1.0  0.79220  0.13609  0.66809  1.0000
  H   H4018     1.0  0.94863  0.30564  0.68185  1.0000
  C   C2265     1.0  0.80249  0.10266  0.68061  1.0000
  S   S502      1.0  0.98285  0.40104  0.88273  1.0000
  H   H4019     1.0  0.82496  0.31081  0.90345  1.0000
  H   H4020     1.0  0.98216  0.37177  0.97363  1.0000
  H   H4021     1.0  0.84078  0.36315  0.91407  1.0000
  H   H4022     1.0  0.77458  0.39099  0.84077  1.0000
  H   H4023     1.0  0.76752  0.40376  0.81928  1.0000
  H   H4024     1.0  0.81272  0.40554  0.73677  1.0000
  H   H4025     1.0  0.95631  0.33399  0.75865  1.0000
  C   C2266     1.0  0.98697  0.28339  0.71864  1.0000
  H   H4026     1.0  0.90662  0.38847  0.77160  1.0000
  H   H4027     1.0  0.92044  0.26617  0.72529  1.0000
  H   H4028     1.0  0.93059  0.24669  0.73988  1.0000
  C   C2267     1.0  0.94425  0.32632  0.75547  1.0000
  H   H4029     1.0  0.94230  0.31446  0.76638  1.0000
  S   S503      1.0  0.88026  0.28330  0.66541  1.0000
  H   H4030     1.0  0.80987  0.31908  0.86421  1.0000
  C   C2268     1.0  0.96568  0.30623  0.73434  1.0000
  H   H4031     1.0  0.95697  0.46326  0.85445  1.0000
  H   H4032     1.0  0.79896  0.12640  0.69722  1.0000
  H   H4033     1.0  0.84339  0.41806  0.74115  1.0000
  H   H4034     1.0  0.90472  0.36590  0.73741  1.0000
  C   C2269     1.0  0.82464  0.19027  0.68472  1.0000
  H   H4035     1.0  0.93141  0.39751  0.94235  1.0000
  H   H4036     1.0  0.81698  0.38744  0.75574  1.0000
  S   S504      1.0  0.97915  0.44902  0.90129  1.0000
  H   H4037     1.0  0.97717  0.31544  0.73546  1.0000
  H   H4038     1.0  0.86697  0.44219  0.68264  1.0000
  C   C2270     1.0  0.83679  0.38625  0.89336  1.0000
  C   C2271     1.0  0.89695  0.48973  0.79333  1.0000
  H   H4039     1.0  0.89185  0.40764  0.71671  1.0000
  H   H4040     1.0  0.85750  0.38344  0.69208  1.0000
  H   H4041     1.0  0.88472  0.36583  0.67672  1.0000
  H   H4042     1.0  0.87988  0.34488  0.69175  1.0000
  H   H4043     1.0  0.87919  0.36029  0.72283  1.0000
  C   C2272     1.0  0.87353  0.35822  0.68494  1.0000
  C   C2273     1.0  0.87641  0.40819  0.71967  1.0000
  H   H4044     1.0  0.88831  0.43749  0.69464  1.0000
  H   H4045     1.0  0.87338  0.41867  0.73024  1.0000
  C   C2274     1.0  0.86351  0.37042  0.69958  1.0000
  H   H4046     1.0  0.79736  0.30907  0.88490  1.0000
  N   N127      1.0  0.87052  0.38921  0.72768  1.0000
  H   H4047     1.0  0.76574  0.41539  0.84064  1.0000
  C   C2275     1.0  0.87984  0.38434  0.74597  1.0000
  H   H4048     1.0  0.79464  0.18998  0.68681  1.0000
  H   H4049     1.0  0.85162  0.36276  0.70645  1.0000
  H   H4050     1.0  0.76675  0.13067  0.69916  1.0000
  H   H4051     1.0  0.87323  0.37242  0.75423  1.0000
  H   H4052     1.0  0.84583  0.37515  0.73754  1.0000
  C   C2276     1.0  0.84959  0.38947  0.73207  1.0000
  C   C2277     1.0  0.76425  0.40187  0.83469  1.0000
  H   H4053     1.0  0.84176  0.39274  0.71927  1.0000
  C   C2278     1.0  0.86791  0.41645  0.70118  1.0000
  H   H4054     1.0  0.76793  0.17330  0.68824  1.0000
  C   C2279     1.0  0.97518  0.48549  0.95676  1.0000
  H   H4055     1.0  0.87768  0.39632  0.75491  1.0000
  C   C2280     1.0  0.75110  0.33780  0.86890  1.0000
  C   C2281     1.0  0.98957  0.37714  0.98435  1.0000
  H   H4056     1.0  0.85243  0.41658  0.70215  1.0000
  H   H4057     1.0  0.74776  0.28909  0.87922  1.0000
  C   C2282     1.0  0.87286  0.43673  0.69617  1.0000
  H   H4058     1.0  0.86683  0.44583  0.70718  1.0000
  C   C2283     1.0  0.99556  0.46359  0.90770  1.0000
  H   H4059     1.0  0.75243  0.14229  0.68165  1.0000
  C   C2284     1.0  0.80649  0.18529  0.67710  1.0000
  C   C2285     1.0  0.90902  0.37559  0.76396  1.0000
  H   H4060     1.0  0.81297  0.15665  0.68773  1.0000
  H   H4061     1.0  0.97839  0.26480  0.67004  1.0000
  H   H4062     1.0  0.81880  0.12635  0.68039  1.0000
  C   C2286     1.0  0.80375  0.12353  0.68263  1.0000
  H   H4063     1.0  0.89278  0.47678  0.80180  1.0000
  C   C2287     1.0  0.96166  0.47729  0.85627  1.0000
  Fe  Fe251     1.0  0.98822  0.41848  0.90563  1.0000
  H   H4064     1.0  0.97617  0.47870  0.94338  1.0000
  C   C2288     1.0  0.84405  0.48922  0.80261  1.0000
  H   H4065     1.0  0.90183  0.48602  0.77899  1.0000
  N   N128      1.0  0.78832  0.15641  0.67202  1.0000
  H   H4066     1.0  0.83698  0.18532  0.67570  1.0000
  H   H4067     1.0  0.94367  0.46867  0.89869  1.0000
  H   H4068     1.0  0.82459  0.20575  0.68486  1.0000
  C   C2289     1.0  0.74761  0.27359  0.88202  1.0000
  H   H4069     1.0  0.74775  0.37864  0.86468  1.0000
  H   H4070     1.0  0.93555  0.48818  0.86891  1.0000
  H   H4071     1.0  0.94514  0.49154  0.82614  1.0000
  H   H4072     1.0  0.97222  0.48113  0.84475  1.0000
  C   C2290     1.0  0.95736  0.33349  0.67502  1.0000
  H   H4073     1.0  0.92031  0.48622  0.93114  1.0000
  C   C2291     1.0  0.94502  0.49204  0.85650  1.0000
  C   C2292     1.0  0.99482  0.48881  0.96200  1.0000
  C   C2293     1.0  0.93450  0.49281  0.83817  1.0000
  C   C2294     1.0  0.93026  0.48661  0.91852  1.0000
  H   H4074     1.0  0.94444  0.33808  0.66770  1.0000
  H   H4075     1.0  0.94369  0.49141  0.92241  1.0000
  H   H4076     1.0  0.96861  0.32926  0.66441  1.0000
  H   H4077     1.0  0.99603  0.44582  0.83583  1.0000
  H   H4078     1.0  0.84304  0.72300  0.28814  1.0000
  H   H4079     1.0  0.85927  0.52995  0.23578  1.0000
  H   H4080     1.0  0.91056  0.54684  0.22499  1.0000
  H   H4081     1.0  0.75598  0.69222  0.11113  1.0000
  C   C2295     1.0  0.97650  0.51254  0.14902  1.0000
  S   S505      1.0  0.96769  0.58887  0.10847  1.0000
  H   H4082     1.0  0.88297  0.71054  0.27246  1.0000
  C   C2296     1.0  0.75081  0.59079  0.03547  1.0000
  Fe  Fe252     1.0  0.84325  0.55102  0.19895  1.0000
  S   S506      1.0  0.85003  0.56154  0.16890  1.0000
  S   S507      1.0  0.83165  0.52319  0.21040  1.0000
  Fe  Fe253     1.0  0.85827  0.58557  0.21511  1.0000
  S   S508      1.0  0.86579  0.59859  0.18592  1.0000
  S   S509      1.0  0.86522  0.59210  0.24486  1.0000
  Fe  Fe254     1.0  0.83777  0.58973  0.17782  1.0000
  S   S510      1.0  0.81898  0.61027  0.15907  1.0000
  Fe  Fe255     1.0  0.87713  0.56962  0.17890  1.0000
  S   S511      1.0  0.90668  0.55823  0.16976  1.0000
  S   S512      1.0  0.82958  0.57872  0.20758  1.0000
  S   S513      1.0  0.87090  0.55715  0.20830  1.0000
  S   S514      1.0  0.90684  0.64980  0.28885  1.0000
  C   C2297     1.0  0.79624  0.60901  0.15059  1.0000
  C   C2298     1.0  0.78899  0.62374  0.13807  1.0000
  C   C2299     1.0  0.77100  0.62357  0.13122  1.0000
  C   C2300     1.0  0.78512  0.59404  0.15610  1.0000
  H   H4083     1.0  0.79740  0.63540  0.13366  1.0000
  H   H4084     1.0  0.79036  0.58261  0.16573  1.0000
  C   C2301     1.0  0.87673  0.60855  0.25668  1.0000
  C   C2302     1.0  0.88438  0.62448  0.24732  1.0000
  C   C2303     1.0  0.89332  0.63692  0.25740  1.0000
  C   C2304     1.0  0.89502  0.63363  0.27697  1.0000
  C   C2305     1.0  0.88729  0.61775  0.28631  1.0000
  C   C2306     1.0  0.87820  0.60541  0.27626  1.0000
  H   H4085     1.0  0.88320  0.62736  0.23236  1.0000
  H   H4086     1.0  0.89895  0.64926  0.24998  1.0000
  H   H4087     1.0  0.88826  0.61499  0.30132  1.0000
  H   H4088     1.0  0.87215  0.59337  0.28380  1.0000
  N   N129      1.0  0.94735  0.51948  0.10433  1.0000
  C   C2307     1.0  0.95296  0.50081  0.09654  1.0000
  H   H4089     1.0  0.85052  0.51359  0.17466  1.0000
  C   C2308     1.0  0.88210  0.53415  0.28169  1.0000
  C   C2309     1.0  0.95103  0.58119  0.12628  1.0000
  C   C2310     1.0  0.93254  0.58944  0.12654  1.0000
  C   C2311     1.0  0.91879  0.58299  0.14011  1.0000
  C   C2312     1.0  0.92351  0.56826  0.15352  1.0000
  C   C2313     1.0  0.94209  0.56036  0.15354  1.0000
  C   C2314     1.0  0.95580  0.56679  0.13999  1.0000
  H   H4090     1.0  0.92876  0.60062  0.11597  1.0000
  H   H4091     1.0  0.90447  0.58900  0.13982  1.0000
  H   H4092     1.0  0.94583  0.54899  0.16392  1.0000
  H   H4093     1.0  0.97003  0.56052  0.14001  1.0000
  H   H4094     1.0  0.92682  0.55767  0.23782  1.0000
  H   H4095     1.0  0.97223  0.52910  0.08885  1.0000
  H   H4096     1.0  0.84363  0.68052  0.32137  1.0000
  C   C2315     1.0  0.75988  0.61194  0.06530  1.0000
  H   H4097     1.0  0.94926  0.53122  0.13077  1.0000
  C   C2316     1.0  0.88573  0.50238  0.22449  1.0000
  C   C2317     1.0  0.76709  0.59394  0.14932  1.0000
  C   C2318     1.0  0.84785  0.71904  0.32261  1.0000
  N   N130      1.0  0.92975  0.60706  0.20229  1.0000
  C   C2319     1.0  0.93339  0.62470  0.21098  1.0000
  C   C2320     1.0  0.91382  0.61148  0.18950  1.0000
  C   C2321     1.0  0.92319  0.59323  0.21814  1.0000
  C   C2322     1.0  0.94684  0.59831  0.19179  1.0000
  C   C2323     1.0  0.96121  0.61188  0.18227  1.0000
  C   C2324     1.0  0.94864  0.62241  0.22563  1.0000
  C   C2325     1.0  0.91779  0.57417  0.21242  1.0000
  C   C2326     1.0  0.91738  0.62528  0.17190  1.0000
  C   C2327     1.0  0.89957  0.62989  0.16135  1.0000
  C   C2328     1.0  0.97492  0.60207  0.16831  1.0000
  C   C2329     1.0  0.94042  0.62408  0.24577  1.0000
  H   H4098     1.0  0.98749  0.53402  0.02892  1.0000
  H   H4099     1.0  0.92006  0.63107  0.21755  1.0000
  H   H4100     1.0  0.93775  0.63580  0.20015  1.0000
  H   H4101     1.0  0.91005  0.59852  0.18375  1.0000
  H   H4102     1.0  0.90100  0.61698  0.19764  1.0000
  H   H4103     1.0  0.91079  0.59956  0.22630  1.0000
  H   H4104     1.0  0.93421  0.58976  0.22829  1.0000
  H   H4105     1.0  0.95496  0.58801  0.20130  1.0000
  H   H4106     1.0  0.94243  0.58978  0.18086  1.0000
  H   H4107     1.0  0.96956  0.61684  0.19300  1.0000
  H   H4108     1.0  0.95444  0.62443  0.17460  1.0000
  H   H4109     1.0  0.95748  0.60901  0.22505  1.0000
  H   H4110     1.0  0.95836  0.63375  0.22230  1.0000
  H   H4111     1.0  0.92894  0.56755  0.20309  1.0000
  H   H4112     1.0  0.90464  0.57622  0.20508  1.0000
  H   H4113     1.0  0.92199  0.63877  0.17552  1.0000
  H   H4114     1.0  0.92808  0.61874  0.16202  1.0000
  H   H4115     1.0  0.88834  0.63687  0.17036  1.0000
  H   H4116     1.0  0.90257  0.63953  0.14863  1.0000
  H   H4117     1.0  0.89450  0.61692  0.15681  1.0000
  C   C2330     1.0  0.88165  0.51018  0.24366  1.0000
  H   H4118     1.0  0.88541  0.49874  0.25451  1.0000
  C   C2331     1.0  0.85526  0.50648  0.27999  1.0000
  H   H4119     1.0  0.92994  0.61367  0.24993  1.0000
  H   H4120     1.0  0.95178  0.62166  0.25565  1.0000
  H   H4121     1.0  0.93363  0.63842  0.24723  1.0000
  H   H4122     1.0  0.83611  0.55047  0.23978  1.0000
  C   C2332     1.0  0.91803  0.54025  0.11513  1.0000
  H   H4123     1.0  0.90223  0.56607  0.23866  1.0000
  C   C2333     1.0  0.86758  0.71300  0.27207  1.0000
  H   H4124     1.0  0.86809  0.65521  0.31202  1.0000
  H   H4125     1.0  0.89763  0.55179  0.09519  1.0000
  H   H4126     1.0  0.89464  0.56028  0.27153  1.0000
  C   C2334     1.0  0.86339  0.72443  0.25357  1.0000
  C   C2335     1.0  0.75980  0.60871  0.13690  1.0000
  H   H4127     1.0  0.76578  0.63506  0.12172  1.0000
  H   H4128     1.0  0.84239  0.68911  0.29713  1.0000
  H   H4129     1.0  0.82427  0.58964  0.03812  1.0000
  H   H4130     1.0  0.77336  0.65293  0.08178  1.0000
  C   C2336     1.0  0.91474  0.73151  0.30940  1.0000
  N   N131      1.0  0.85379  0.52308  0.26545  1.0000
  H   H4131     1.0  0.88234  0.51337  0.21298  1.0000
  H   H4132     1.0  0.86132  0.73818  0.28686  1.0000
  H   H4133     1.0  0.89104  0.49962  0.13498  1.0000
  H   H4134     1.0  0.79952  0.55170  0.26495  1.0000
  C   C2337     1.0  0.89798  0.54650  0.11023  1.0000
  H   H4135     1.0  0.96067  0.54582  0.10320  1.0000
  H   H4136     1.0  0.92180  0.52588  0.08963  1.0000
  C   C2338     1.0  0.76852  0.64445  0.07114  1.0000
  H   H4137     1.0  0.75425  0.65016  0.06748  1.0000
  H   H4138     1.0  0.76490  0.61689  0.05084  1.0000
  H   H4139     1.0  0.82628  0.53009  0.27884  1.0000
  H   H4140     1.0  0.93668  0.55528  0.08132  1.0000
  N   N132      1.0  0.76325  0.59090  0.06900  1.0000
  H   H4141     1.0  0.95732  0.50815  0.06632  1.0000
  H   H4142     1.0  0.96837  0.49742  0.09678  1.0000
  C   C2339     1.0  0.78384  0.58441  0.06783  1.0000
  C   C2340     1.0  0.79541  0.59075  0.04964  1.0000
  C   C2341     1.0  0.76842  0.62389  0.07898  1.0000
  H   H4143     1.0  0.76419  0.59558  0.02893  1.0000
  H   H4144     1.0  0.90631  0.50875  0.15031  1.0000
  C   C2342     1.0  0.94887  0.54594  0.07657  1.0000
  C   C2343     1.0  0.81629  0.58527  0.05146  1.0000
  H   H4145     1.0  0.86562  0.66358  0.28766  1.0000
  C   C2344     1.0  0.89145  0.55185  0.28499  1.0000
  H   H4146     1.0  0.84982  0.51097  0.29398  1.0000
  H   H4147     1.0  0.85460  0.54746  0.28108  1.0000
  H   H4148     1.0  0.84613  0.65421  0.30163  1.0000
  H   H4149     1.0  0.88433  0.71848  0.32843  1.0000
  H   H4150     1.0  0.99090  0.50652  0.15176  1.0000
  H   H4151     1.0  0.97531  0.52745  0.15224  1.0000
  H   H4152     1.0  0.79080  0.58870  0.07997  1.0000
  H   H4153     1.0  0.78572  0.56880  0.06923  1.0000
  H   H4154     1.0  0.79386  0.60619  0.04634  1.0000
  C   C2345     1.0  0.84701  0.50072  0.18277  1.0000
  C   C2346     1.0  0.92636  0.52344  0.10416  1.0000
  H   H4155     1.0  0.78305  0.61882  0.08175  1.0000
  H   H4156     1.0  0.89081  0.52184  0.24404  1.0000
  C   C2347     1.0  0.97284  0.51108  0.12847  1.0000
  H   H4157     1.0  0.75890  0.56650  0.05452  1.0000
  H   H4158     1.0  0.76361  0.59150  0.09924  1.0000
  H   H4159     1.0  0.86955  0.73822  0.25274  1.0000
  C   C2348     1.0  0.75570  0.67853  0.11974  1.0000
  H   H4160     1.0  0.82580  0.51940  0.25742  1.0000
  C   C2349     1.0  0.83795  0.50146  0.20065  1.0000
  C   C2350     1.0  0.95221  0.51756  0.12463  1.0000
  C   C2351     1.0  0.91418  0.56038  0.22961  1.0000
  C   C2352     1.0  0.96259  0.55841  0.06511  1.0000
  H   H4161     1.0  0.93357  0.50261  0.07366  1.0000
  H   H4162     1.0  0.87876  0.52682  0.29574  1.0000
  H   H4163     1.0  0.91762  0.53615  0.13048  1.0000
  H   H4164     1.0  0.96726  0.56891  0.07386  1.0000
  H   H4165     1.0  0.90476  0.54791  0.29188  1.0000
  C   C2353     1.0  0.80771  0.55279  0.25120  1.0000
  H   H4166     1.0  0.88214  0.56065  0.29431  1.0000
  C   C2354     1.0  0.75536  0.56418  0.09476  1.0000
  H   H4167     1.0  0.91919  0.51087  0.11034  1.0000
  C   C2355     1.0  0.83322  0.52958  0.26445  1.0000
  C   C2356     1.0  0.95804  0.53493  0.09375  1.0000
  H   H4168     1.0  0.84802  0.72676  0.25223  1.0000
  H   H4169     1.0  0.83282  0.56064  0.26175  1.0000
  H   H4170     1.0  0.95562  0.56611  0.05302  1.0000
  H   H4171     1.0  0.77818  0.64582  0.05834  1.0000
  C   C2357     1.0  0.89865  0.72318  0.30093  1.0000
  H   H4172     1.0  0.89238  0.55805  0.11888  1.0000
  H   H4173     1.0  0.89625  0.73150  0.28736  1.0000
  C   C2358     1.0  0.88065  0.72438  0.31413  1.0000
  C   C2359     1.0  0.86868  0.69410  0.30972  1.0000
  C   C2360     1.0  0.85846  0.72307  0.28916  1.0000
  H   H4174     1.0  0.98268  0.51974  0.11948  1.0000
  H   H4175     1.0  0.98335  0.50312  0.01814  1.0000
  H   H4176     1.0  0.96644  0.50462  0.15854  1.0000
  H   H4177     1.0  0.86964  0.71668  0.24162  1.0000
  H   H4178     1.0  0.84184  0.74874  0.31176  1.0000
  H   H4179     1.0  0.80477  0.56714  0.24427  1.0000
  H   H4180     1.0  0.86194  0.69910  0.27174  1.0000
  H   H4181     1.0  0.91776  0.72396  0.32323  1.0000
  H   H4182     1.0  0.92885  0.91395  0.32271  1.0000
  Fe  Fe256     1.0  0.91316  0.65276  0.31979  1.0000
  H   H4183     1.0  0.80311  0.54253  0.24209  1.0000
  C   C2361     1.0  0.75552  0.58558  0.08879  1.0000
  C   C2362     1.0  0.82869  0.54920  0.25384  1.0000
  H   H4184     1.0  0.92664  0.55246  0.11227  1.0000
  H   H4185     1.0  0.94379  0.53655  0.06699  1.0000
  H   H4186     1.0  0.86713  0.54917  0.25873  1.0000
  H   H4187     1.0  0.88023  0.69008  0.29936  1.0000
  H   H4188     1.0  0.92761  0.73020  0.29988  1.0000
  N   N133      1.0  0.86405  0.71511  0.30842  1.0000
  C   C2363     1.0  0.75268  0.58114  0.05566  1.0000
  H   H4189     1.0  0.75579  0.66726  0.11010  1.0000
  C   C2364     1.0  0.85839  0.66262  0.30191  1.0000
  C   C2365     1.0  0.75052  0.85024  0.32825  1.0000
  S   S515      1.0  0.91942  0.68159  0.32729  1.0000
  H   H4190     1.0  0.98600  0.57457  0.01139  1.0000
  H   H4191     1.0  0.89242  0.52493  0.27396  1.0000
  H   H4192     1.0  0.91119  0.74663  0.31132  1.0000
  H   H4193     1.0  0.82159  0.59238  0.06292  1.0000
  C   C2366     1.0  0.85191  0.68222  0.30767  1.0000
  H   H4194     1.0  0.88884  0.53467  0.11326  1.0000
  H   H4195     1.0  0.83505  0.71300  0.31867  1.0000
  H   H4196     1.0  0.81888  0.56981  0.05439  1.0000
  H   H4197     1.0  0.75864  0.58237  0.15398  1.0000
  H   H4198     1.0  0.74817  0.60128  0.19011  1.0000
  H   H4199     1.0  0.87434  0.68917  0.32357  1.0000
  H   H4200     1.0  0.76791  0.68436  0.19721  1.0000
  H   H4201     1.0  0.76982  0.55739  0.09471  1.0000
  C   C2367     1.0  0.86092  0.51772  0.24623  1.0000
  H   H4202     1.0  0.97502  0.54985  0.05959  1.0000
  H   H4203     1.0  0.90327  0.70850  0.29826  1.0000
  H   H4204     1.0  0.79116  0.58364  0.03771  1.0000
  C   C2368     1.0  0.75267  0.68310  0.19635  1.0000
  H   H4205     1.0  0.75344  0.56504  0.02118  1.0000
  C   C2369     1.0  0.94858  0.49899  0.07601  1.0000
  H   H4206     1.0  0.75733  0.85547  0.31507  1.0000
  H   H4207     1.0  0.76847  0.67638  0.12781  1.0000
  H   H4208     1.0  0.87008  0.50127  0.28169  1.0000
  H   H4209     1.0  0.87722  0.73967  0.31509  1.0000
  C   C2370     1.0  0.86390  0.53916  0.27120  1.0000
  H   H4210     1.0  0.94318  0.50760  0.13315  1.0000
  H   H4211     1.0  0.90080  0.49757  0.22260  1.0000
  H   H4212     1.0  0.98581  0.61163  0.16271  1.0000
  H   H4213     1.0  0.98197  0.58910  0.17516  1.0000
  C   C2371     1.0  0.84224  0.74006  0.32539  1.0000
  H   H4214     1.0  0.75984  0.62338  0.09251  1.0000
  H   H4215     1.0  0.75751  0.65962  0.17973  1.0000
  H   H4216     1.0  0.81188  0.73874  0.32717  1.0000
  H   H4217     1.0  0.96744  0.59841  0.15629  1.0000
  H   H4218     1.0  0.98663  0.51633  0.04853  1.0000
  H   H4219     1.0  0.85211  0.50728  0.24141  1.0000
  H   H4220     1.0  0.75578  0.68192  0.16656  1.0000
  C   C2372     1.0  0.99496  0.52122  0.03563  1.0000
  H   H4221     1.0  0.74790  0.89628  0.31295  1.0000
  H   H4222     1.0  0.75458  0.56662  0.12488  1.0000
  H   H4223     1.0  0.74748  0.67469  0.20920  1.0000
  H   H4224     1.0  0.75096  0.62936  0.16851  1.0000
  H   H4225     1.0  0.75118  0.65473  0.14941  1.0000
  C   C2373     1.0  0.74950  0.67348  0.17882  1.0000
  H   H4226     1.0  0.96152  0.90138  0.32981  1.0000
  H   H4227     1.0  0.93075  0.88887  0.32854  1.0000
  Fe  Fe257     1.0  0.91564  0.53316  0.50452  1.0000
  S   S516      1.0  0.92704  0.54450  0.47608  1.0000
  S   S517      1.0  0.89906  0.50719  0.50919  1.0000
  Fe  Fe258     1.0  0.93057  0.56448  0.52495  1.0000
  S   S518      1.0  0.94320  0.57789  0.49786  1.0000
  S   S519      1.0  0.93759  0.57416  0.55300  1.0000
  Fe  Fe259     1.0  0.91666  0.57286  0.48514  1.0000
  S   S520      1.0  0.90297  0.59696  0.46682  1.0000
  Fe  Fe260     1.0  0.95245  0.54854  0.49111  1.0000
  S   S521      1.0  0.91532  0.98976  0.42764  1.0000
  S   S522      1.0  0.90302  0.56148  0.51281  1.0000
  S   S523      1.0  0.94205  0.53518  0.51890  1.0000
  Fe  Fe261     1.0  0.91118  0.94683  0.39935  1.0000
  S   S524      1.0  0.91470  0.97599  0.38512  1.0000
  S   S525      1.0  0.90999  0.91947  0.38587  1.0000
  H   H4228     1.0  0.83964  0.73902  0.48118  1.0000
  H   H4229     1.0  0.87858  0.73826  0.42261  1.0000
  H   H4230     1.0  0.84658  0.72641  0.45138  1.0000
  S   S526      1.0  0.98087  0.54120  0.47756  1.0000
  S   S527      1.0  0.88868  0.95668  0.42015  1.0000
  S   S528      1.0  0.93465  0.94796  0.41837  1.0000
  S   S529      1.0  0.91066  0.96814  0.60152  1.0000
  S   S530      1.0  0.93514  0.96334  0.56149  1.0000
  H   H4231     1.0  0.86148  0.61064  0.47227  1.0000
  Fe  Fe262     1.0  0.90588  0.95818  0.57349  1.0000
  S   S531      1.0  0.89137  0.93369  0.56453  1.0000
  Fe  Fe263     1.0  0.93891  0.97598  0.58832  1.0000
  Fe  Fe264     1.0  0.91332  0.68670  0.64166  1.0000
  S   S532      1.0  0.89102  0.66637  0.64614  1.0000
  S   S533      1.0  0.90890  0.71725  0.62888  1.0000
  Fe  Fe265     1.0  0.91105  0.64699  0.62991  1.0000
  S   S534      1.0  0.89772  0.63359  0.60697  1.0000
  S   S535      1.0  0.93282  0.66785  0.62409  1.0000
  Fe  Fe266     1.0  0.83998  0.84316  0.59663  1.0000
  S   S536      1.0  0.81999  0.85130  0.57424  1.0000
  S   S537      1.0  0.85527  0.86423  0.61048  1.0000
  Fe  Fe267     1.0  0.83054  0.80191  0.60027  1.0000
  S   S538      1.0  0.80890  0.80777  0.57847  1.0000
  S   S539      1.0  0.83508  0.77255  0.61587  1.0000
  Fe  Fe268     1.0  0.83078  0.82447  0.56182  1.0000
  S   S540      1.0  0.84282  0.82432  0.53124  1.0000
  Fe  Fe269     1.0  0.79969  0.83431  0.59290  1.0000
  S   S541      1.0  0.77012  0.84928  0.59754  1.0000
  S   S542      1.0  0.85267  0.81752  0.58313  1.0000
  S   S543      1.0  0.81951  0.82706  0.61569  1.0000
  Fe  Fe270     1.0  0.82915  0.84616  0.39504  1.0000
  S   S544      1.0  0.80138  0.84064  0.41031  1.0000
  S   S545      1.0  0.83474  0.87697  0.39515  1.0000
  Fe  Fe271     1.0  0.83701  0.80475  0.38728  1.0000
  S   S546      1.0  0.80975  0.79685  0.40215  1.0000
  S   S547      1.0  0.86055  0.78464  0.37490  1.0000
  Fe  Fe272     1.0  0.79657  0.82323  0.38693  1.0000
  S   S548      1.0  0.76599  0.82431  0.37896  1.0000
  Fe  Fe273     1.0  0.81638  0.81515  0.42440  1.0000
  S   S549      1.0  0.80899  0.80622  0.45538  1.0000
  S   S550      1.0  0.82354  0.83022  0.37052  1.0000
  S   S551      1.0  0.84446  0.82161  0.41061  1.0000
  Fe  Fe274     1.0  0.90047  0.67664  0.35339  1.0000
  S   S552      1.0  0.89284  0.64866  0.34501  1.0000
  S   S553      1.0  0.87590  0.69646  0.36436  1.0000
  C   C2374     1.0  0.96035  0.90071  0.38765  1.0000
  C   C2375     1.0  0.96906  0.62163  0.38991  1.0000
  H   H4232     1.0  0.88327  0.84072  0.63469  1.0000
  C   C2376     1.0  0.85475  0.77015  0.42991  1.0000
  Fe  Fe275     1.0  0.91784  0.63614  0.36046  1.0000
  S   S554      1.0  0.91868  0.60791  0.37799  1.0000
  H   H4233     1.0  0.99498  0.95323  0.48554  1.0000
  S   S555      1.0  0.92392  0.66348  0.37072  1.0000
  H   H4234     1.0  0.76076  0.90000  0.62984  1.0000
  C   C2377     1.0  0.88259  0.58372  0.62797  1.0000
  C   C2378     1.0  0.89110  0.53487  0.44003  1.0000
  C   C2379     1.0  0.82120  0.74851  0.42273  1.0000
  C   C2380     1.0  0.86453  0.75998  0.37250  1.0000
  C   C2381     1.0  0.85034  0.74761  0.37605  1.0000
  C   C2382     1.0  0.85425  0.72824  0.37393  1.0000
  C   C2383     1.0  0.87228  0.72092  0.36785  1.0000
  C   C2384     1.0  0.88646  0.73329  0.36418  1.0000
  C   C2385     1.0  0.88259  0.75264  0.36652  1.0000
  H   H4235     1.0  0.83625  0.75304  0.37997  1.0000
  H   H4236     1.0  0.85646  0.75803  0.50118  1.0000
  H   H4237     1.0  0.90040  0.72799  0.35949  1.0000
  H   H4238     1.0  0.89370  0.76203  0.36360  1.0000
  C   C2386     1.0  0.83291  0.81952  0.51032  1.0000
  C   C2387     1.0  0.84402  0.82075  0.49329  1.0000
  C   C2388     1.0  0.83679  0.81723  0.47627  1.0000
  C   C2389     1.0  0.81836  0.81226  0.47612  1.0000
  C   C2390     1.0  0.80737  0.81074  0.49318  1.0000
  C   C2391     1.0  0.81451  0.81450  0.51017  1.0000
  H   H4239     1.0  0.85834  0.82442  0.49330  1.0000
  H   H4240     1.0  0.84557  0.81792  0.46337  1.0000
  H   H4241     1.0  0.79317  0.80665  0.49327  1.0000
  H   H4242     1.0  0.80582  0.81340  0.52314  1.0000
  C   C2392     1.0  0.88836  0.73292  0.62646  1.0000
  C   C2393     1.0  0.87088  0.72871  0.63505  1.0000
  C   C2394     1.0  0.85484  0.74112  0.63186  1.0000
  C   C2395     1.0  0.85603  0.75802  0.62026  1.0000
  C   C2396     1.0  0.87359  0.76243  0.61200  1.0000
  C   C2397     1.0  0.88960  0.74994  0.61506  1.0000
  H   H4243     1.0  0.86972  0.71588  0.64411  1.0000
  H   H4244     1.0  0.84138  0.73759  0.63843  1.0000
  H   H4245     1.0  0.87478  0.77533  0.60306  1.0000
  H   H4246     1.0  0.98649  0.56477  0.44438  1.0000
  H   H4247     1.0  0.91876  0.57234  0.63473  1.0000
  C   C2398     1.0  0.88074  0.57019  0.59660  1.0000
  C   C2399     1.0  0.99175  0.99302  0.45527  1.0000
  H   H4248     1.0  0.77218  0.83808  0.63809  1.0000
  H   H4249     1.0  0.88024  0.59819  0.62090  1.0000
  H   H4250     1.0  0.96559  0.96547  0.45625  1.0000
  C   C2400     1.0  0.95687  0.55099  0.42930  1.0000
  C   C2401     1.0  0.86340  0.88476  0.59808  1.0000
  C   C2402     1.0  0.87341  0.89671  0.60742  1.0000
  C   C2403     1.0  0.88145  0.91233  0.59756  1.0000
  C   C2404     1.0  0.87952  0.91602  0.57826  1.0000
  C   C2405     1.0  0.86891  0.90446  0.56913  1.0000
  C   C2406     1.0  0.86079  0.88894  0.57899  1.0000
  H   H4251     1.0  0.87540  0.89360  0.62224  1.0000
  H   H4252     1.0  0.88959  0.92115  0.60473  1.0000
  H   H4253     1.0  0.86734  0.90726  0.55420  1.0000
  H   H4254     1.0  0.85300  0.87994  0.57169  1.0000
  C   C2407     1.0  0.84677  0.58716  0.48607  1.0000
  H   H4255     1.0  0.97783  0.59312  0.39845  1.0000
  C   C2408     1.0  0.88932  0.90723  0.38960  1.0000
  C   C2409     1.0  0.88983  0.88826  0.38586  1.0000
  C   C2410     1.0  0.87337  0.87852  0.38794  1.0000
  C   C2411     1.0  0.85620  0.88784  0.39341  1.0000
  C   C2412     1.0  0.85578  0.90670  0.39737  1.0000
  C   C2413     1.0  0.87222  0.91630  0.39560  1.0000
  H   H4256     1.0  0.90296  0.88112  0.38115  1.0000
  H   H4257     1.0  0.87387  0.86401  0.38480  1.0000
  H   H4258     1.0  0.84258  0.91407  0.40152  1.0000
  H   H4259     1.0  0.87151  0.93093  0.39826  1.0000
  H   H4260     1.0  0.76288  0.89665  0.34030  1.0000
  H   H4261     1.0  0.88198  0.73748  0.56845  1.0000
  C   C2414     1.0  0.89105  0.70039  0.58176  1.0000
  H   H4262     1.0  0.85513  0.76505  0.41574  1.0000
  C   C2415     1.0  0.85638  0.60531  0.48664  1.0000
  H   H4263     1.0  0.79720  0.74462  0.40711  1.0000
  C   C2416     1.0  0.85187  0.54641  0.51508  1.0000
  H   H4264     1.0  0.85407  0.75873  0.57769  1.0000
  H   H4265     1.0  0.86794  0.72584  0.55403  1.0000
  C   C2417     1.0  0.90792  0.59991  0.44221  1.0000
  C   C2418     1.0  0.90608  0.61800  0.43281  1.0000
  C   C2419     1.0  0.90946  0.62074  0.41316  1.0000
  C   C2420     1.0  0.91433  0.60532  0.40271  1.0000
  C   C2421     1.0  0.91589  0.58722  0.41210  1.0000
  C   C2422     1.0  0.91283  0.58453  0.43177  1.0000
  H   H4266     1.0  0.90207  0.62998  0.44075  1.0000
  H   H4267     1.0  0.90809  0.63474  0.40607  1.0000
  H   H4268     1.0  0.91958  0.57521  0.40412  1.0000
  H   H4269     1.0  0.91410  0.57054  0.43881  1.0000
  C   C2423     1.0  0.92672  0.59188  0.56682  1.0000
  C   C2424     1.0  0.90871  0.60021  0.56387  1.0000
  C   C2425     1.0  0.90021  0.61329  0.57604  1.0000
  C   C2426     1.0  0.90967  0.61835  0.59112  1.0000
  C   C2427     1.0  0.92786  0.61042  0.59377  1.0000
  C   C2428     1.0  0.93623  0.59712  0.58178  1.0000
  H   H4270     1.0  0.90121  0.59626  0.55247  1.0000
  H   H4271     1.0  0.88613  0.61933  0.57389  1.0000
  H   H4272     1.0  0.93534  0.61420  0.60526  1.0000
  H   H4273     1.0  0.95017  0.59077  0.58417  1.0000
  H   H4274     1.0  0.77456  0.86454  0.37209  1.0000
  H   H4275     1.0  0.97855  0.56171  0.51040  1.0000
  H   H4276     1.0  0.79329  0.76335  0.42235  1.0000
  C   C2429     1.0  0.98606  0.98096  0.40108  1.0000
  C   C2430     1.0  0.91293  0.58426  0.64268  1.0000
  H   H4277     1.0  0.78787  0.90954  0.56811  1.0000
  H   H4278     1.0  0.74958  0.96352  0.37865  1.0000
  H   H4279     1.0  0.94532  0.95883  0.35464  1.0000
  H   H4280     1.0  0.75604  0.92879  0.34308  1.0000
  C   C2431     1.0  0.78038  0.87850  0.37040  1.0000
  N   N134      1.0  0.91243  0.85279  0.58222  1.0000
  H   H4281     1.0  0.95942  0.59897  0.45695  1.0000
  C   C2432     1.0  0.82413  0.53340  0.47870  1.0000
  H   H4282     1.0  0.96321  0.54881  0.41499  1.0000
  H   H4283     1.0  0.78158  0.89123  0.60643  1.0000
  H   H4284     1.0  0.95478  0.88331  0.41355  1.0000
  H   H4285     1.0  0.79689  0.52206  0.48005  1.0000
  N   N135      1.0  0.84864  0.87642  0.45509  1.0000
  C   C2433     1.0  0.83081  0.88483  0.44666  1.0000
  C   C2434     1.0  0.86322  0.89070  0.45323  1.0000
  C   C2435     1.0  0.85617  0.86019  0.44394  1.0000
  C   C2436     1.0  0.84517  0.86880  0.47527  1.0000
  C   C2437     1.0  0.83637  0.88286  0.48911  1.0000
  C   C2438     1.0  0.81471  0.87160  0.44700  1.0000
  C   C2439     1.0  0.87603  0.85121  0.44838  1.0000
  C   C2440     1.0  0.85621  0.91161  0.45480  1.0000
  C   C2441     1.0  0.87247  0.92339  0.45736  1.0000
  C   C2442     1.0  0.83130  0.87272  0.50832  1.0000
  C   C2443     1.0  0.79746  0.88186  0.43831  1.0000
  C   C2444     1.0  0.88223  0.83540  0.43587  1.0000
  H   H4286     1.0  0.83399  0.89022  0.43180  1.0000
  H   H4287     1.0  0.82483  0.89729  0.45369  1.0000
  H   H4288     1.0  0.87399  0.88671  0.46363  1.0000
  H   H4289     1.0  0.87097  0.89074  0.43912  1.0000
  H   H4290     1.0  0.85661  0.86472  0.42862  1.0000
  H   H4291     1.0  0.84671  0.84857  0.44609  1.0000
  H   H4292     1.0  0.83620  0.85680  0.47613  1.0000
  H   H4293     1.0  0.85848  0.86284  0.48121  1.0000
  H   H4294     1.0  0.82335  0.89045  0.48407  1.0000
  H   H4295     1.0  0.84662  0.89307  0.49132  1.0000
  H   H4296     1.0  0.81895  0.85944  0.43877  1.0000
  H   H4297     1.0  0.81038  0.86632  0.46158  1.0000
  H   H4298     1.0  0.87624  0.84505  0.46314  1.0000
  H   H4299     1.0  0.88670  0.86167  0.44597  1.0000
  H   H4300     1.0  0.84967  0.91737  0.44165  1.0000
  H   H4301     1.0  0.84571  0.91359  0.46664  1.0000
  H   H4302     1.0  0.87863  0.91908  0.47103  1.0000
  H   H4303     1.0  0.88358  0.92174  0.44588  1.0000
  H   H4304     1.0  0.86742  0.93847  0.45718  1.0000
  H   H4305     1.0  0.82530  0.88306  0.51816  1.0000
  H   H4306     1.0  0.82075  0.86246  0.50715  1.0000
  H   H4307     1.0  0.84395  0.86515  0.51431  1.0000
  H   H4308     1.0  0.79216  0.89402  0.44623  1.0000
  H   H4309     1.0  0.80090  0.88685  0.42340  1.0000
  H   H4310     1.0  0.78618  0.87209  0.43872  1.0000
  H   H4311     1.0  0.89671  0.82974  0.43877  1.0000
  H   H4312     1.0  0.87285  0.82377  0.43875  1.0000
  H   H4313     1.0  0.88209  0.84069  0.42079  1.0000
  H   H4314     1.0  0.82181  0.68525  0.54766  1.0000
  H   H4315     1.0  0.83637  0.54679  0.51589  1.0000
  H   H4316     1.0  0.96648  0.98205  0.33930  1.0000
  C   C2445     1.0  0.89600  0.84855  0.57158  1.0000
  C   C2446     1.0  0.86054  0.54043  0.49595  1.0000
  H   H4317     1.0  0.85861  0.52791  0.46209  1.0000
  C   C2447     1.0  0.96410  0.92125  0.38084  1.0000
  C   C2448     1.0  0.75295  0.89409  0.35275  1.0000
  C   C2449     1.0  0.91646  0.87315  0.57799  1.0000
  C   C2450     1.0  0.89386  0.85892  0.55173  1.0000
  C   C2451     1.0  0.87831  0.85131  0.54186  1.0000
  C   C2452     1.0  0.81084  0.87440  0.65186  1.0000
  C   C2453     1.0  0.97427  0.94547  0.35686  1.0000
  H   H4318     1.0  0.78522  0.91538  0.60329  1.0000
  H   H4319     1.0  0.97733  0.98302  0.36119  1.0000
  C   C2454     1.0  0.80272  0.53597  0.47983  1.0000
  H   H4320     1.0  0.89610  0.83316  0.57036  1.0000
  H   H4321     1.0  0.88253  0.85241  0.57955  1.0000
  H   H4322     1.0  0.90304  0.75341  0.60843  1.0000
  H   H4323     1.0  0.82995  0.90187  0.61541  1.0000
  H   H4324     1.0  0.88911  0.56305  0.58529  1.0000
  H   H4325     1.0  0.86838  0.57851  0.63082  1.0000
  C   C2455     1.0  0.97515  0.95474  0.46364  1.0000
  C   C2456     1.0  0.97079  0.61841  0.48434  1.0000
  H   H4326     1.0  0.80888  0.93385  0.60541  1.0000
  H   H4327     1.0  0.97506  0.92563  0.38933  1.0000
  H   H4328     1.0  0.81622  0.90909  0.58646  1.0000
  C   C2457     1.0  0.98753  0.98884  0.57515  1.0000
  H   H4329     1.0  0.89000  0.87411  0.55286  1.0000
  H   H4330     1.0  0.95507  0.96025  0.37684  1.0000
  H   H4331     1.0  0.86471  0.85294  0.55024  1.0000
  H   H4332     1.0  0.87677  0.85918  0.52791  1.0000
  H   H4333     1.0  0.88166  0.83621  0.53976  1.0000
  C   C2458     1.0  0.86355  0.60639  0.65768  1.0000
  C   C2459     1.0  0.99561  0.65660  0.65343  1.0000
  C   C2460     1.0  0.93829  0.84120  0.55771  1.0000
  S   S556      1.0  0.92385  0.63317  0.65594  1.0000
  H   H4334     1.0  0.86846  0.60290  0.49567  1.0000
  C   C2461     1.0  0.76156  0.84231  0.34298  1.0000
  C   C2462     1.0  0.91563  0.97400  0.51447  1.0000
  C   C2463     1.0  0.78702  0.90898  0.63905  1.0000
  H   H4335     1.0  0.82775  0.84839  0.64730  1.0000
  H   H4336     1.0  0.85661  0.73344  0.41491  1.0000
  C   C2464     1.0  0.86032  0.57165  0.47754  1.0000
  H   H4337     1.0  0.85944  0.76026  0.55270  1.0000
  H   H4338     1.0  0.83565  0.66659  0.56003  1.0000
  C   C2465     1.0  0.87475  0.77524  0.43357  1.0000
  C   C2466     1.0  0.88558  0.78257  0.41563  1.0000
  H   H4339     1.0  0.87366  0.78638  0.44348  1.0000
  H   H4340     1.0  0.88318  0.76294  0.43997  1.0000
  H   H4341     1.0  0.87889  0.70570  0.41479  1.0000
  H   H4342     1.0  0.89955  0.78641  0.41899  1.0000
  H   H4343     1.0  0.88767  0.77161  0.40553  1.0000
  H   H4344     1.0  0.87797  0.79524  0.40891  1.0000
  C   C2467     1.0  0.83611  0.68062  0.55206  1.0000
  C   C2468     1.0  0.79653  0.89629  0.57165  1.0000
  H   H4345     1.0  0.87201  0.69055  0.55696  1.0000
  H   H4346     1.0  0.97834  0.97274  0.48524  1.0000
  C   C2469     1.0  0.98046  0.60719  0.40243  1.0000
  Fe  Fe276     1.0  0.91221  0.95977  0.43804  1.0000
  H   H4347     1.0  0.95112  0.92986  0.38499  1.0000
  H   H4348     1.0  0.88188  0.70622  0.43951  1.0000
  C   C2470     1.0  0.86238  0.54267  0.46165  1.0000
  H   H4349     1.0  0.98289  0.66831  0.61437  1.0000
  C   C2471     1.0  0.88409  0.54147  0.45914  1.0000
  H   H4350     1.0  0.79739  0.54243  0.49288  1.0000
  H   H4351     1.0  0.97612  0.60644  0.49400  1.0000
  H   H4352     1.0  0.85675  0.55014  0.44864  1.0000
  C   C2472     1.0  0.98702  0.97853  0.59271  1.0000
  H   H4353     1.0  0.95528  0.61857  0.48445  1.0000
  H   H4354     1.0  0.89012  0.53114  0.47004  1.0000
  H   H4355     1.0  0.95306  0.93553  0.46701  1.0000
  H   H4356     1.0  0.80313  0.84543  0.65354  1.0000
  H   H4357     1.0  0.88970  0.55525  0.46019  1.0000
  H   H4358     1.0  0.87592  0.54093  0.49648  1.0000
  H   H4359     1.0  0.97694  0.95305  0.40400  1.0000
  H   H4360     1.0  0.94047  0.84109  0.58779  1.0000
  C   C2473     1.0  0.96309  0.94111  0.47579  1.0000
  H   H4361     1.0  0.99501  0.61755  0.46517  1.0000
  C   C2474     1.0  0.81894  0.90929  0.62437  1.0000
  H   H4362     1.0  0.92895  0.83569  0.54820  1.0000
  H   H4363     1.0  0.85021  0.66610  0.63283  1.0000
  H   H4364     1.0  0.84572  0.78356  0.42868  1.0000
  H   H4365     1.0  0.86180  0.76456  0.46716  1.0000
  H   H4366     1.0  0.85949  0.70133  0.43154  1.0000
  C   C2475     1.0  0.93551  0.90053  0.58233  1.0000
  H   H4367     1.0  0.91922  0.85086  0.61143  1.0000
  H   H4368     1.0  0.97858  0.64946  0.60055  1.0000
  H   H4369     1.0  0.85088  0.71186  0.33664  1.0000
  H   H4370     1.0  0.97200  0.92912  0.48215  1.0000
  H   H4371     1.0  0.94747  0.89687  0.38178  1.0000
  H   H4372     1.0  0.77669  0.84146  0.34106  1.0000
  H   H4373     1.0  0.75213  0.92520  0.65150  1.0000
  C   C2476     1.0  0.83683  0.93756  0.61222  1.0000
  C   C2477     1.0  0.88513  0.60267  0.65421  1.0000
  H   H4374     1.0  0.83236  0.69598  0.57649  1.0000
  C   C2478     1.0  0.86583  0.73068  0.42669  1.0000
  H   H4375     1.0  0.86765  0.73592  0.45544  1.0000
  N   N136      1.0  0.85381  0.55194  0.47869  1.0000
  C   C2479     1.0  0.83277  0.55262  0.47795  1.0000
  Fe  Fe277     1.0  0.94449  0.65564  0.65125  1.0000
  H   H4376     1.0  0.97148  0.63615  0.39276  1.0000
  H   H4377     1.0  0.83797  0.68112  0.60335  1.0000
  C   C2480     1.0  0.87187  0.70969  0.42835  1.0000
  H   H4378     1.0  0.87076  0.56864  0.66232  1.0000
  C   C2481     1.0  0.84700  0.76455  0.46346  1.0000
  C   C2482     1.0  0.85630  0.73713  0.44549  1.0000
  H   H4379     1.0  0.84141  0.77956  0.46254  1.0000
  H   H4380     1.0  0.90356  0.88227  0.58126  1.0000
  C   C2483     1.0  0.76012  0.84802  0.63618  1.0000
  H   H4381     1.0  0.92948  0.69273  0.58457  1.0000
  C   C2484     1.0  0.84262  0.69485  0.56431  1.0000
  C   C2485     1.0  0.84382  0.68079  0.63206  1.0000
  H   H4382     1.0  0.84200  0.70872  0.55601  1.0000
  H   H4383     1.0  0.85087  0.68893  0.64156  1.0000
  H   H4384     1.0  0.86332  0.57716  0.46263  1.0000
  N   N137      1.0  0.84613  0.75654  0.44476  1.0000
  H   H4385     1.0  0.82555  0.56005  0.48965  1.0000
  H   H4386     1.0  0.90667  0.83041  0.63896  1.0000
  H   H4387     1.0  0.83303  0.75439  0.51095  1.0000
  H   H4388     1.0  0.90667  0.53361  0.43893  1.0000
  N   N138      1.0  0.80090  0.89972  0.62533  1.0000
  C   C2486     1.0  0.84545  0.68982  0.61189  1.0000
  H   H4389     1.0  0.83830  0.70412  0.61195  1.0000
  H   H4390     1.0  0.84570  0.67945  0.53926  1.0000
  C   C2487     1.0  0.88628  0.56852  0.66035  1.0000
  H   H4391     1.0  0.97956  0.94854  0.34196  1.0000
  H   H4392     1.0  0.82477  0.90828  0.63838  1.0000
  H   H4393     1.0  0.84624  0.72087  0.58622  1.0000
  H   H4394     1.0  0.87396  0.57150  0.48409  1.0000
  C   C2488     1.0  0.89406  0.82933  0.63113  1.0000
  C   C2489     1.0  0.93240  0.87996  0.58854  1.0000
  C   C2490     1.0  0.84134  0.76135  0.49900  1.0000
  H   H4395     1.0  0.98200  0.68438  0.64899  1.0000
  H   H4396     1.0  0.82708  0.75739  0.41066  1.0000
  H   H4397     1.0  0.86588  0.72663  0.59697  1.0000
  C   C2491     1.0  0.80670  0.89759  0.58944  1.0000
  H   H4398     1.0  0.91107  0.97185  0.52910  1.0000
  H   H4399     1.0  0.90822  0.54711  0.65108  1.0000
  H   H4400     1.0  0.85516  0.51821  0.52951  1.0000
  Fe  Fe278     1.0  0.94271  0.66684  0.34412  1.0000
  C   C2492     1.0  0.89908  0.83057  0.60998  1.0000
  H   H4401     1.0  0.83458  0.59050  0.47728  1.0000
  H   H4402     1.0  0.82882  0.68056  0.63705  1.0000
  C   C2493     1.0  0.82568  0.75563  0.44146  1.0000
  C   C2494     1.0  0.83633  0.75445  0.48057  1.0000
  H   H4403     1.0  0.81809  0.76975  0.44247  1.0000
  H   H4404     1.0  0.83801  0.77678  0.49896  1.0000
  C   C2495     1.0  0.75026  0.95668  0.36531  1.0000
  H   H4405     1.0  0.79280  0.87100  0.62960  1.0000
  C   C2496     1.0  0.89319  0.57220  0.61261  1.0000
  H   H4406     1.0  0.95287  0.89206  0.35252  1.0000
  H   H4407     1.0  0.84139  0.58282  0.50053  1.0000
  C   C2497     1.0  0.86176  0.72005  0.58464  1.0000
  C   C2498     1.0  0.86622  0.69026  0.60443  1.0000
  C   C2499     1.0  0.86288  0.68919  0.57020  1.0000
  C   C2500     1.0  0.85446  0.75093  0.56497  1.0000
  H   H4408     1.0  0.87185  0.67528  0.60502  1.0000
  H   H4409     1.0  0.86392  0.67385  0.57470  1.0000
  H   H4410     1.0  0.84004  0.74743  0.56277  1.0000
  H   H4411     1.0  0.81887  0.74606  0.45251  1.0000
  H   H4412     1.0  0.82096  0.75756  0.47970  1.0000
  H   H4413     1.0  0.82674  0.73369  0.42193  1.0000
  S   S557      1.0  0.96562  0.97133  0.60390  1.0000
  H   H4414     1.0  0.97321  0.61992  0.37489  1.0000
  C   C2501     1.0  0.81747  0.93056  0.61769  1.0000
  C   C2502     1.0  0.79264  0.90129  0.60639  1.0000
  H   H4415     1.0  0.82358  0.88130  0.65432  1.0000
  H   H4416     1.0  0.79360  0.73918  0.43212  1.0000
  H   H4417     1.0  0.95936  0.60996  0.42547  1.0000
  C   C2503     1.0  0.80503  0.87912  0.63139  1.0000
  H   H4418     1.0  0.81551  0.88439  0.59231  1.0000
  H   H4419     1.0  0.78344  0.92386  0.63383  1.0000
  H   H4420     1.0  0.97434  0.66969  0.39497  1.0000
  H   H4421     1.0  0.84620  0.93439  0.62398  1.0000
  H   H4422     1.0  0.82846  0.56105  0.46488  1.0000
  H   H4423     1.0  0.92888  0.87906  0.60390  1.0000
  N   N139      1.0  0.87003  0.69997  0.58505  1.0000
  C   C2504     1.0  0.86767  0.73309  0.56706  1.0000
  H   H4424     1.0  0.94179  0.54844  0.42970  1.0000
  C   C2505     1.0  0.75297  0.83514  0.36001  1.0000
  S   S558      1.0  0.97011  0.68044  0.34737  1.0000
  C   C2506     1.0  0.97979  0.57504  0.43381  1.0000
  H   H4425     1.0  0.94106  0.85585  0.55269  1.0000
  H   H4426     1.0  0.85244  0.74562  0.33399  1.0000
  H   H4427     1.0  0.88497  0.54445  0.64403  1.0000
  H   H4428     1.0  0.83556  0.95300  0.60862  1.0000
  H   H4429     1.0  0.92265  0.90970  0.58556  1.0000
  H   H4430     1.0  0.87382  0.69682  0.61484  1.0000
  H   H4431     1.0  0.84631  0.61622  0.49248  1.0000
  C   C2507     1.0  0.80003  0.74897  0.42104  1.0000
  C   C2508     1.0  0.90700  0.84973  0.60302  1.0000
  Fe  Fe279     1.0  0.93634  0.97774  0.40629  1.0000
  H   H4432     1.0  0.97439  0.63163  0.48967  1.0000
  H   H4433     1.0  0.90325  0.94947  0.50746  1.0000
  H   H4434     1.0  0.86885  0.56167  0.60169  1.0000
  H   H4435     1.0  0.93214  0.98070  0.46184  1.0000
  S   S559      1.0  0.97500  0.64430  0.65438  1.0000
  H   H4436     1.0  0.90946  0.81865  0.60722  1.0000
  C   C2509     1.0  0.85864  0.53273  0.53128  1.0000
  H   H4437     1.0  0.93082  0.66867  0.57882  1.0000
  C   C2510     1.0  0.91675  0.96388  0.48313  1.0000
  H   H4438     1.0  0.92401  0.68732  0.56144  1.0000
  C   C2511     1.0  0.99427  0.67406  0.34174  1.0000
  Fe  Fe280     1.0  0.92280  0.99211  0.55210  1.0000
  H   H4439     1.0  0.82255  0.73387  0.34941  1.0000
  H   H4440     1.0  0.83003  0.99469  0.38077  1.0000
  C   C2512     1.0  0.97495  0.60932  0.42343  1.0000
  Fe  Fe281     1.0  0.89362  0.98594  0.40770  1.0000
  H   H4441     1.0  0.89654  0.70945  0.59163  1.0000
  H   H4442     1.0  0.89479  0.70685  0.56740  1.0000
  H   H4443     1.0  0.89662  0.67061  0.57574  1.0000
  H   H4444     1.0  0.90241  0.67554  0.59871  1.0000
  C   C2513     1.0  0.95701  0.89823  0.40901  1.0000
  C   C2514     1.0  0.90249  0.68104  0.58373  1.0000
  H   H4445     1.0  0.89831  0.55795  0.61816  1.0000
  H   H4446     1.0  0.96725  0.83457  0.56502  1.0000
  H   H4447     1.0  0.94704  0.90511  0.58993  1.0000
  H   H4448     1.0  0.81646  0.87292  0.62205  1.0000
  H   H4449     1.0  0.77120  0.90762  0.36971  1.0000
  H   H4450     1.0  0.82831  0.52408  0.49117  1.0000
  C   C2515     1.0  0.99646  0.55530  0.48600  1.0000
  H   H4451     1.0  0.89632  0.86098  0.60729  1.0000
  H   H4452     1.0  0.84311  0.71888  0.37668  1.0000
  N   N140      1.0  0.96925  0.92531  0.36017  1.0000
  C   C2516     1.0  0.98730  0.67674  0.39642  1.0000
  Fe  Fe282     1.0  0.90018  0.99679  0.58907  1.0000
  H   H4453     1.0  0.84328  0.93080  0.59972  1.0000
  C   C2517     1.0  0.95082  0.90377  0.34153  1.0000
  H   H4454     1.0  0.95170  0.57251  0.44815  1.0000
  H   H4455     1.0  0.97919  0.58655  0.46711  1.0000
  H   H4456     1.0  0.85615  0.60527  0.64483  1.0000
  H   H4457     1.0  0.97476  0.99208  0.56796  1.0000
  H   H4458     1.0  0.90687  0.85773  0.54257  1.0000
  C   C2518     1.0  0.92939  0.83959  0.57804  1.0000
  H   H4459     1.0  0.94426  0.90693  0.41361  1.0000
  C   C2519     1.0  0.91120  0.96125  0.50218  1.0000
  H   H4460     1.0  0.95172  0.58073  0.42352  1.0000
  S   S560      1.0  0.96331  0.99262  0.40224  1.0000
  S   S561      1.0  0.91027  0.94814  0.46801  1.0000
  H   H4461     1.0  0.94581  0.87156  0.58566  1.0000
  H   H4462     1.0  0.85179  0.53700  0.54478  1.0000
  H   H4463     1.0  0.90552  0.57953  0.60645  1.0000
  H   H4464     1.0  0.95504  0.81436  0.56085  1.0000
  H   H4465     1.0  0.88613  0.82860  0.60309  1.0000
  H   H4466     1.0  0.98586  0.94803  0.36555  1.0000
  C   C2520     1.0  0.95891  0.57103  0.43409  1.0000
  C   C2521     1.0  0.92295  0.68263  0.57666  1.0000
  H   H4467     1.0  0.93931  0.92739  0.35674  1.0000
  C   C2522     1.0  0.95698  0.82935  0.55625  1.0000
  H   H4468     1.0  0.85631  0.56039  0.51748  1.0000
  H   H4469     1.0  0.86661  0.98753  0.45503  1.0000
  H   H4470     1.0  0.98328  0.94659  0.45298  1.0000
  H   H4471     1.0  0.91649  0.59709  0.63352  1.0000
  H   H4472     1.0  0.86872  0.99392  0.47854  1.0000
  H   H4473     1.0  0.88823  0.81563  0.63568  1.0000
  H   H4474     1.0  0.87519  0.58421  0.59056  1.0000
  H   H4475     1.0  0.99036  0.64778  0.33093  1.0000
  C   C2523     1.0  0.76455  0.89416  0.37012  1.0000
  C   C2524     1.0  0.92723  0.97903  0.47642  1.0000
  H   H4476     1.0  0.78907  0.87948  0.38243  1.0000
  S   S562      1.0  0.89340  0.98639  0.56207  1.0000
  H   H4477     1.0  0.92583  0.82475  0.58088  1.0000
  H   H4478     1.0  0.85865  0.52525  0.49525  1.0000
  C   C2525     1.0  0.75515  0.91033  0.65696  1.0000
  C   C2526     1.0  0.82297  0.74264  0.33579  1.0000
  C   C2527     1.0  0.99159  0.56421  0.50239  1.0000
  H   H4479     1.0  0.89019  0.61469  0.64474  1.0000
  H   H4480     1.0  0.95494  0.94830  0.48719  1.0000
  H   H4481     1.0  0.80695  0.89383  0.55973  1.0000
  H   H4482     1.0  0.96281  0.83028  0.54143  1.0000
  H   H4483     1.0  0.97467  0.49991  0.47822  1.0000
  H   H4484     1.0  0.91995  0.87662  0.56282  1.0000
  H   H4485     1.0  0.94784  0.59754  0.64632  1.0000
  H   H4486     1.0  0.90885  0.99441  0.63988  1.0000
  H   H4487     1.0  0.93189  0.98401  0.63354  1.0000
  H   H4488     1.0  0.93934  0.90245  0.56701  1.0000
  C   C2528     1.0  0.75619  0.85563  0.61806  1.0000
  N   N141      1.0  0.89189  0.58431  0.64622  1.0000
  H   H4489     1.0  0.81092  0.93872  0.62923  1.0000
  C   C2529     1.0  0.96424  0.98037  0.35484  1.0000
  C   C2530     1.0  0.95268  0.92327  0.34873  1.0000
  H   H4490     1.0  0.77030  0.88502  0.64892  1.0000
  H   H4491     1.0  0.97863  0.62357  0.42599  1.0000
  H   H4492     1.0  0.78737  0.88439  0.57357  1.0000
  H   H4493     1.0  0.96370  0.54063  0.43967  1.0000
  H   H4494     1.0  0.88613  0.52089  0.43835  1.0000
  H   H4495     1.0  0.87404  0.53280  0.53203  1.0000
  C   C2531     1.0  0.89308  0.54841  0.65547  1.0000
  H   H4496     1.0  0.95080  0.57222  0.64644  1.0000
  H   H4497     1.0  0.74954  0.92906  0.37958  1.0000
  H   H4498     1.0  0.78958  0.87962  0.35726  1.0000
  H   H4499     1.0  0.95306  0.99105  0.35923  1.0000
  H   H4500     1.0  0.97433  0.67357  0.59133  1.0000
  H   H4501     1.0  0.88619  0.54517  0.42853  1.0000
  C   C2532     1.0  0.95835  0.96070  0.36145  1.0000
  C   C2533     1.0  0.93151  0.90269  0.33414  1.0000
  C   C2534     1.0  0.97969  0.61686  0.46447  1.0000
  N   N142      1.0  0.98372  0.59472  0.43739  1.0000
  H   H4502     1.0  0.96924  0.90224  0.41597  1.0000
  C   C2535     1.0  0.92447  0.58287  0.66034  1.0000
  H   H4503     1.0  0.76520  0.95469  0.36010  1.0000
  C   C2536     1.0  0.97500  0.59838  0.45669  1.0000
  H   H4504     1.0  0.98600  0.68308  0.41006  1.0000
  H   H4505     1.0  0.97420  0.62932  0.45561  1.0000
  C   C2537     1.0  0.76813  0.89980  0.64295  1.0000
  C   C2538     1.0  0.98888  0.96139  0.40186  1.0000
  H   H4506     1.0  0.97232  0.89075  0.38373  1.0000
  H   H4507     1.0  0.95385  0.61965  0.39229  1.0000
  H   H4508     1.0  0.79771  0.54498  0.46746  1.0000
  C   C2539     1.0  0.98372  0.66372  0.59994  1.0000
  H   H4509     1.0  0.75578  0.89203  0.38340  1.0000
  C   C2540     1.0  0.81526  0.85330  0.65613  1.0000
  H   H4510     1.0  0.98623  0.57118  0.42005  1.0000
  H   H4511     1.0  0.98359  0.98836  0.44413  1.0000
  C   C2541     1.0  0.74820  0.85293  0.65186  1.0000
  S   S563      1.0  0.93801  0.63857  0.33476  1.0000
  C   C2542     1.0  0.87520  0.99480  0.46397  1.0000
  C   C2543     1.0  0.94535  0.58406  0.65476  1.0000
  H   H4512     1.0  0.92037  0.90415  0.34566  1.0000
  C   C2544     1.0  0.92571  0.98938  0.50779  1.0000
  C   C2545     1.0  0.93176  0.99178  0.48878  1.0000
  H   H4513     1.0  0.82849  0.52618  0.46588  1.0000
  H   H4514     1.0  0.98839  0.68806  0.38480  1.0000
  H   H4515     1.0  0.98320  0.89805  0.35482  1.0000
  H   H4516     1.0  0.88937  0.98738  0.46391  1.0000
  H   H4517     1.0  0.86309  0.63688  0.65277  1.0000
  C   C2546     1.0  0.98615  0.91306  0.35357  1.0000
  H   H4518     1.0  0.95296  0.93321  0.33580  1.0000
  H   H4519     1.0  0.74886  0.87961  0.35190  1.0000
  H   H4520     1.0  0.79944  0.87885  0.66216  1.0000
  H   H4521     1.0  0.79333  0.90973  0.65268  1.0000
  C   C2547     1.0  0.98798  0.96424  0.47587  1.0000
  H   H4522     1.0  0.81997  0.75759  0.33869  1.0000
  C   C2548     1.0  0.99525  0.67618  0.65044  1.0000
  H   H4523     1.0  0.98785  0.50401  0.50883  1.0000
  H   H4524     1.0  0.92744  0.99475  0.65549  1.0000
  H   H4525     1.0  0.99543  0.60971  0.39924  1.0000
  H   H4526     1.0  0.98953  0.91667  0.33830  1.0000
  C   C2549     1.0  0.92410  0.99579  0.64052  1.0000
  H   H4527     1.0  0.99457  0.98851  0.50263  1.0000
  H   H4528     1.0  0.89648  0.60074  0.77445  1.0000
  C   C2550     1.0  0.89044  0.51146  0.88154  1.0000
  H   H4529     1.0  0.75133  0.84676  0.66575  1.0000
  C   C2551     1.0  0.91938  0.64782  0.74708  1.0000
  H   H4530     1.0  0.94283  0.56206  0.81991  1.0000
  S   S564      1.0  0.95916  0.54680  0.89863  1.0000
  Fe  Fe283     1.0  0.83460  0.57867  0.82263  1.0000
  S   S565      1.0  0.83636  0.55766  0.80060  1.0000
  S   S566      1.0  0.80651  0.59597  0.82897  1.0000
  Fe  Fe284     1.0  0.87745  0.57338  0.82707  1.0000
  S   S567      1.0  0.88126  0.55208  0.80593  1.0000
  S   S568      1.0  0.90470  0.58349  0.83604  1.0000
  Fe  Fe285     1.0  0.86223  0.57166  0.78808  1.0000
  S   S569      1.0  0.87367  0.57535  0.75709  1.0000
  Fe  Fe286     1.0  0.85546  0.53991  0.81997  1.0000
  S   S570      1.0  0.85688  0.50866  0.83053  1.0000
  S   S571      1.0  0.85935  0.59359  0.80869  1.0000
  S   S572      1.0  0.85266  0.56022  0.84260  1.0000
  H   H4531     1.0  0.95882  0.54708  0.80607  1.0000
  H   H4532     1.0  0.94637  0.62326  0.83171  1.0000
  C   C2552     1.0  0.92846  0.63040  0.78714  1.0000
  N   N143      1.0  0.92087  0.50966  0.83399  1.0000
  S   S573      1.0  0.88836  0.64794  0.69991  1.0000
  H   H4533     1.0  0.89482  0.51564  0.82038  1.0000
  C   C2553     1.0  0.89482  0.63621  0.78019  1.0000
  C   C2554     1.0  0.91833  0.62721  0.75562  1.0000
  C   C2555     1.0  0.99425  0.49885  0.98038  1.0000
  H   H4534     1.0  0.76019  0.56073  0.81887  1.0000
  C   C2556     1.0  0.87751  0.59571  0.74134  1.0000
  C   C2557     1.0  0.88955  0.59393  0.72504  1.0000
  C   C2558     1.0  0.89306  0.60966  0.71220  1.0000
  C   C2559     1.0  0.88440  0.62742  0.71538  1.0000
  C   C2560     1.0  0.87231  0.62916  0.73162  1.0000
  C   C2561     1.0  0.86890  0.61346  0.74451  1.0000
  H   H4535     1.0  0.89630  0.58028  0.72240  1.0000
  H   H4536     1.0  0.90254  0.60808  0.69993  1.0000
  H   H4537     1.0  0.86547  0.64278  0.73424  1.0000
  H   H4538     1.0  0.85941  0.61507  0.75679  1.0000
  H   H4539     1.0  0.92105  0.52106  0.86100  1.0000
  C   C2562     1.0  0.90936  0.60393  0.78095  1.0000
  C   C2563     1.0  0.78962  0.59859  0.84845  1.0000
  C   C2564     1.0  0.77389  0.61160  0.84627  1.0000
  C   C2565     1.0  0.76006  0.61415  0.86113  1.0000
  C   C2566     1.0  0.76172  0.60369  0.87851  1.0000
  C   C2567     1.0  0.77740  0.59062  0.88067  1.0000
  C   C2568     1.0  0.79121  0.58805  0.86580  1.0000
  H   H4540     1.0  0.77244  0.61986  0.83296  1.0000
  H   H4541     1.0  0.77893  0.58244  0.89400  1.0000
  H   H4542     1.0  0.80313  0.57798  0.86778  1.0000
  H   H4543     1.0  0.76773  0.54141  0.83550  1.0000
  C   C2569     1.0  0.94395  0.55815  0.88180  1.0000
  C   C2570     1.0  0.94966  0.57215  0.86818  1.0000
  C   C2571     1.0  0.93735  0.57995  0.85452  1.0000
  C   C2572     1.0  0.91924  0.57381  0.85419  1.0000
  C   C2573     1.0  0.91339  0.56013  0.86806  1.0000
  C   C2574     1.0  0.92570  0.55231  0.88171  1.0000
  H   H4544     1.0  0.96362  0.57683  0.86808  1.0000
  H   H4545     1.0  0.94201  0.59061  0.84396  1.0000
  H   H4546     1.0  0.89933  0.55569  0.86836  1.0000
  H   H4547     1.0  0.92106  0.54171  0.89236  1.0000
  H   H4548     1.0  0.92011  0.53755  0.81954  1.0000
  H   H4549     1.0  0.90959  0.56493  0.77636  1.0000
  Fe  Fe287     1.0  0.98782  0.55380  0.90733  1.0000
  C   C2575     1.0  0.95403  0.55043  0.82054  1.0000
  H   H4550     1.0  0.95882  0.62981  0.80963  1.0000
  C   C2576     1.0  0.94486  0.63044  0.81742  1.0000
  C   C2577     1.0  0.86688  0.64529  0.80213  1.0000
  H   H4551     1.0  0.86663  0.66014  0.79607  1.0000
  H   H4552     1.0  0.90218  0.51399  0.88996  1.0000
  H   H4553     1.0  0.91755  0.62095  0.81609  1.0000
  C   C2578     1.0  0.93023  0.64879  0.72788  1.0000
  C   C2579     1.0  0.92210  0.56965  0.78228  1.0000
  H   H4554     1.0  0.92605  0.58965  0.75873  1.0000
  H   H4555     1.0  0.75843  0.56151  0.86182  1.0000
  H   H4556     1.0  0.77935  0.56289  0.83318  1.0000
  H   H4557     1.0  0.88185  0.52493  0.87872  1.0000
  C   C2580     1.0  0.94693  0.53315  0.83213  1.0000
  H   H4558     1.0  0.90835  0.62069  0.74746  1.0000
  H   H4559     1.0  0.95037  0.50557  0.85889  1.0000
  H   H4560     1.0  0.98877  0.51370  0.97682  1.0000
  N   N144      1.0  0.91289  0.62439  0.77643  1.0000
  H   H4561     1.0  0.93618  0.60585  0.80677  1.0000
  H   H4562     1.0  0.93915  0.59324  0.77841  1.0000
  C   C2581     1.0  0.93057  0.52552  0.82295  1.0000
  H   H4563     1.0  0.96598  0.55530  0.82730  1.0000
  Fe  Fe288     1.0  0.90555  0.65398  0.67191  1.0000
  H   H4564     1.0  0.84101  0.50274  0.79498  1.0000
  H   H4565     1.0  0.86154  0.64505  0.81709  1.0000
  H   H4566     1.0  0.93687  0.52110  0.80930  1.0000
  H   H4567     1.0  0.85735  0.63762  0.79457  1.0000
  H   H4568     1.0  0.93229  0.61983  0.75236  1.0000
  H   H4569     1.0  0.76155  0.90979  0.67067  1.0000
  H   H4570     1.0  0.95895  0.52238  0.83280  1.0000
  H   H4571     1.0  0.90220  0.53024  0.84753  1.0000
  C   C2582     1.0  0.76556  0.55693  0.83299  1.0000
  C   C2583     1.0  0.91095  0.51702  0.85142  1.0000
  H   H4572     1.0  0.89807  0.53704  0.68415  1.0000
  H   H4573     1.0  0.92428  0.63980  0.71836  1.0000
  H   H4574     1.0  0.93986  0.64534  0.81893  1.0000
  C   C2584     1.0  0.93084  0.62078  0.80729  1.0000
  H   H4575     1.0  0.93440  0.56001  0.77843  1.0000
  C   C2585     1.0  0.92538  0.58966  0.77427  1.0000
  H   H4576     1.0  0.92673  0.64588  0.78810  1.0000
  H   H4577     1.0  0.94274  0.53731  0.84640  1.0000
  H   H4578     1.0  0.90622  0.60055  0.79619  1.0000
  H   H4579     1.0  0.89648  0.65129  0.77582  1.0000
  H   H4580     1.0  0.92634  0.65627  0.75634  1.0000
  H   H4581     1.0  0.94524  0.64412  0.72933  1.0000
  H   H4582     1.0  0.94232  0.62786  0.77936  1.0000
  H   H4583     1.0  0.92925  0.66348  0.72134  1.0000
  C   C2586     1.0  0.88680  0.63591  0.80083  1.0000
  H   H4584     1.0  0.88383  0.63207  0.77152  1.0000
  H   H4585     1.0  0.89554  0.64390  0.80895  1.0000
  H   H4586     1.0  0.88628  0.62148  0.80767  1.0000
  H   H4587     1.0  0.91990  0.56888  0.79780  1.0000
  H   H4588     1.0  0.90500  0.65438  0.74496  1.0000
  S   S574      1.0  0.92680  0.67593  0.66866  1.0000
  S   S575      1.0  0.99560  0.53677  0.93405  1.0000
  H   H4589     1.0  0.96658  0.49906  0.95477  1.0000
  C   C2587     1.0  0.91259  0.49833  0.80225  1.0000
  H   H4590     1.0  0.92009  0.59424  0.66951  1.0000
  C   C2588     1.0  0.89770  0.50362  0.86305  1.0000
  H   H4591     1.0  0.74823  0.62434  0.85918  1.0000
  H   H4592     1.0  0.75081  0.58042  0.84525  1.0000
  C   C2589     1.0  0.75200  0.56496  0.84818  1.0000
  H   H4593     1.0  0.88147  0.50136  0.88982  1.0000
  H   H4594     1.0  0.74870  0.69351  0.92667  1.0000
  H   H4595     1.0  0.81843  0.85021  0.67109  1.0000
  H   H4596     1.0  0.88519  0.50206  0.85537  1.0000
  H   H4597     1.0  0.89430  0.51975  0.66838  1.0000
  H   H4598     1.0  0.91624  0.51086  0.79282  1.0000
  H   H4599     1.0  0.89091  0.57068  0.67445  1.0000
  H   H4600     1.0  0.87470  0.53458  0.67715  1.0000
  H   H4601     1.0  0.92290  0.56925  0.66879  1.0000
  H   H4602     1.0  0.95330  0.58337  0.66757  1.0000
  H   H4603     1.0  0.86511  0.62786  0.67704  1.0000
  C   C2590     1.0  0.90600  0.50403  0.82216  1.0000
  H   H4604     1.0  0.89102  0.60373  0.66795  1.0000
  C   C2591     1.0  0.88981  0.53413  0.67236  1.0000
  C   C2592     1.0  0.85845  0.62610  0.66387  1.0000
  H   H4605     1.0  0.92466  0.49694  0.90744  1.0000
  H   H4606     1.0  0.84303  0.62838  0.66653  1.0000
  H   H4607     1.0  0.88447  0.49996  0.79221  1.0000
  H   H4608     1.0  0.85805  0.59633  0.66903  1.0000
  S   S576      1.0  0.99716  0.58029  0.91726  1.0000
