data_image0
_chemical_formula_structural       CFeSFeSFeSFeS3HFeS2FeSCFeSFeS3HFeS2NC2SHC2HCH5C6H4C6H4C3H2CH2C6H2SHCH2C5H14NC11H19CH14NHC2H2C2H3CH2SC2NH2CH2CH3CHC2H3C2H2C2H4C2H2C2H6CH3NHC2H2S2HCHCH3CHCH4C3H4C2H3CH2CH5CHCFeHCH3CHCH2CH7CHCH5CHCH3NH4CHCH5CH4CHSH2CHC3H5CFeC2HCH2CHCHCHCH4CH8SFeCH2CH2C2HCS2CHNCSH5FeCH3CSHCHC2NC2H6CH2CH2C2FeHCNCHC2HCH2CSH2SCH2C2HSC2H2CHCH6CH4CHCHSCHFeS2FeSFeSFeCS3HCH3CHCHSH2C6H6SHCH2C4H4C2HCH4CH2NCHSHC6HCHNCH3CH2CH8CFeC2HC2H5NH9C2H3CH5SH3CHC2H3CH2CH3C2H2CH5C2HCH3C2H2C2SHCH3C2H3CHCH5SHC2H3C2H3C4HCHNSCH2FeSFeHSFeSHFeS2FeSFeS3HSFeH2FeS2C6H4CH5C6H3C6H2CHCH4C4H4NC7HC4H15CH2CHC2H6SC2HCH4CH4S3H3SHNH3CHCH5CH3C2HC2H3CH4NC11H27CH4CH3CH4CH2SFeH5C2HCH2CNH2C2H2CHC3HC2H4CHCH2CH2C3HCNH5C3H3CHCHCH2CH7SH2C2H3C7H7CH3CH4SCH6CHC2HCFeS2FeS2FeSFeS2FeS2FeS2Fe2S3H2FeS2FeS2FeSFeHS2CH2CHCHC7H4C6H2SC7H6C3H3C2HCH3C2HCHCHCH2CH8CH3C4NC10HCH22C3H3NC11H27CNH6CH2C3HCHCH12CHC3H5CHC2H5NH3CHCHCH2C2FeS2FeS2Fe2S3FeS2FeS2Fe2S3CSHFeSCFeSHSCS2FeHFeSH3CHCHCH2SH2C6H4C6H4CHCH3CH2C6H3C6H4C6H2CHNC12H17CH2CH8CH4C3H5CHCH3CH6FeH2C2H3CNH4CH4CH4C3HNSH3CHCHCHCHCH3FeH3CH3CH2C2H5C2H6CH4CNH5CHCHCH2C2HCSHCHCHC2H3C2SH2CH2NH2CH5CHCH2C2H2CH4CH2FeH6SCHC2H4CNH3C2H2SC2H2CH2CH4C2H2CHCHCH4CNHCH3CH7CH3CH2C3H5CHCH2CH2NCHCH3SFeSH2FeS3FeSHFeS2FeSFeHS2HS4FeS2FeS2FeS2FeS2FeSFeS3C6H4C6H4C6H4C6H4CH2CFeNC6H4C6H5NC4HC4HC2H11CH9CH6CNC10H16NH7CH2C2H5CH6C5H5CH3C3HCNHCH6CHCH3CH2CHCH2CH2CHCHCH2CHCHSFeH4CHFeH2CH2FeH5CHCHCH3CHCHSCH2SHC2H4C2HC2H5NH3SH2CH4C2HC2HC3HFeHCHCH10CH3SH2CHSHCH6CH4SCHCHCH3SH3CHSFeSHFeSFeSFeSFeS2FeS2FeSFeHS2FeHS6FeS2FeS2FeSFeS3C6H4C6H4C6H4SCH2CH3C6H4C6H4C6H4CNC9FeH16CH2FeHCHCH2C2HC2H2NH6CH2C2H9CNC4HC3H10CH7CH3NC11SH12CH10C2HCH2CFeH2CHNC11H20FeH3CHC3HC2HSHCHCH4CHSCH3CH3CH2C2H7CH4CH2CHCH13CH2C2H4CH2CHCH4CNH4CH8CHSH3CNH2CH2C2H2C2H7CSH3CFeS2FeSFeSFeS2HSHSHFeSFeSNHFeS2FeS2Fe2S3H2CFeS2HCH2C3FeH2CH2CH5C6H4C6H4C6H4C6H2CHCH3NC10HCH8C2HCH3C2H2CH2CHCH3NC11H19CH4SH6NH2C4H4C3H3CHC2H3CH2CHFeC2SH5CHNC12H27CH3CHSH16CHSH4C2H3CFeC2H3CHCHFeHCH2CNHSNCH2C3H2C2FeHC2H3C2H6CH7CHCH2SCH3CHCH14S3H2CH10C2HCH6CHCHCH2C6FeS2FeSCFeSFeS3FeSFeS2FeSFeS3FeH2FeS2FeHFeS3HCHC6H4C2HC3SNCHC6H4C2H2C3H2CHCH2CH3CH3CH2C2HCHC2H7CHC2H3CSHNH7CH2CH3CH2CNH3CHCH5NC12H27CH3C2H6CH4CH3CHSC3H4C3HCH2C2H5CSHC2NC2H4C4H4CH2CH5C4HCH3CH2CNFeHC2H7CHCHC3HCH3CHFeSCFeSFeSFeS3FeS2FeS2FeCFeS3HC2HSCHC4NCH3C6H4C6H4C6H4CHC6H4CHCH3S2H9NH2CH3C2HCHC3H2CHC2H4CH2NH2C2H3SNC7SC3H28C2HC3H3CH6SCH4CH6C4HCHCH2CH2C2H8CHC2H3C2H13C3SH2CHFeH4CHCH2NCSHSH7C2HCHCHNCH3CHCHC4H14FeS2FeSFeHS2H2CH2C3H2CH2C3H4CH2C2H2CHC4H3C2H5C2HCSFeCHC2H6CHCHCH8NH6CNH3C3H3SCHCH2SH3C2H6CH2CHNH7C2H2CH4FeS2FeSFeSFeHSH2C2H5C3H2C3H2CH3CSHCH3SCH2CH4CH5CNC12H29C2H2C2H5C2HC2HSH10CSHC2HCH2CH2CH2C2HCFeS2FeS2FeCFeS2FeSHFeS2FeHFeS3HCHSHC6H4CH4CH3C6H6CNH5CHC7H2NC2H3CHC2HCH5C2HNHCHCHCH5SHSH4C2H4CHNHSCH4NC12H29SCHCHCH2C2NC9H16C2H2CH2CHCH6CH2CHC3H4SC3H7CH4CH3CH2C3H3C2H8CH4CHCHC2H4CHC3HCH5Fe
_chemical_formula_sum              "C1296 Fe144 S288 H2304 N72"
_cell_length_a       52.1382
_cell_length_b       51.5053
_cell_length_c       75.9603
_cell_angle_alpha    85.6872
_cell_angle_beta     95.2765
_cell_angle_gamma    113.277

_space_group_name_H-M_alt    "P 1"
_space_group_IT_number       1

loop_
  _space_group_symop_operation_xyz
  'x, y, z'

loop_
  _atom_site_type_symbol
  _atom_site_label
  _atom_site_symmetry_multiplicity
  _atom_site_fract_x
  _atom_site_fract_y
  _atom_site_fract_z
  _atom_site_occupancy
  C   C1        1.0  0.31290  0.13140  0.11874  1.0000
  Fe  Fe1       1.0  0.09853  0.01185  0.19159  1.0000
  S   S1        1.0  0.08368  0.04589  0.18113  1.0000
  Fe  Fe2       1.0  0.15189  0.05526  0.21128  1.0000
  S   S2        1.0  0.13929  0.09147  0.20260  1.0000
  Fe  Fe3       1.0  0.09537  0.06178  0.20861  1.0000
  S   S3        1.0  0.06510  0.07151  0.22414  1.0000
  Fe  Fe4       1.0  0.12863  0.07191  0.17599  1.0000
  S   S4        1.0  0.14371  0.09972  0.15140  1.0000
  S   S5        1.0  0.10856  0.02651  0.21951  1.0000
  S   S6        1.0  0.14288  0.03696  0.18423  1.0000
  H   H1        1.0  0.37256  0.23624  0.02597  1.0000
  Fe  Fe5       1.0  0.24291  0.10728  0.04515  1.0000
  S   S7        1.0  0.21594  0.11757  0.06250  1.0000
  S   S8        1.0  0.29069  0.12297  0.04975  1.0000
  Fe  Fe6       1.0  0.19139  0.06393  0.02408  1.0000
  S   S9        1.0  0.16143  0.07084  0.04083  1.0000
  C   C2        1.0  0.16478  0.98203  0.00928  1.0000
  Fe  Fe7       1.0  0.18843  0.11704  0.03766  1.0000
  S   S10       1.0  0.16505  0.14629  0.03391  1.0000
  Fe  Fe8       1.0  0.19135  0.07079  0.06398  1.0000
  S   S11       1.0  0.17847  0.04637  0.08980  1.0000
  S   S12       1.0  0.21747  0.11078  0.01986  1.0000
  S   S13       1.0  0.21931  0.05993  0.04767  1.0000
  H   H2        1.0  0.21607  0.07046  0.16735  1.0000
  Fe  Fe9       1.0  0.43137  0.22630  0.10606  1.0000
  S   S14       1.0  0.44411  0.19115  0.11721  1.0000
  S   S15       1.0  0.38626  0.21900  0.09518  1.0000
  N   N1        1.0  0.31328  0.20481  0.02005  1.0000
  C   C3        1.0  0.36121  0.23010  0.03821  1.0000
  C   C4        1.0  0.11702  0.12453  0.09257  1.0000
  S   S16       1.0  0.44576  0.25092  0.13110  1.0000
  H   H3        1.0  0.23135  0.13783  0.12557  1.0000
  C   C5        1.0  0.15762  0.15984  0.01282  1.0000
  C   C6        1.0  0.98633  0.07062  0.21634  1.0000
  H   H4        1.0  0.33731  0.11995  0.21770  1.0000
  C   C7        1.0  0.07443  0.10383  0.07199  1.0000
  H   H5        1.0  0.28823  0.14598  0.00901  1.0000
  H   H6        1.0  0.27588  0.06075  0.06990  1.0000
  H   H7        1.0  0.32771  0.24526  0.03251  1.0000
  H   H8        1.0  0.26863  0.15742  0.12469  1.0000
  H   H9        1.0  0.30448  0.23788  0.00484  1.0000
  C   C8        1.0  0.35942  0.19044  0.08393  1.0000
  C   C9        1.0  0.33191  0.18956  0.08200  1.0000
  C   C10       1.0  0.31029  0.16834  0.07232  1.0000
  C   C11       1.0  0.31600  0.14794  0.06413  1.0000
  C   C12       1.0  0.34338  0.14863  0.06623  1.0000
  C   C13       1.0  0.36487  0.16953  0.07617  1.0000
  H   H10       1.0  0.32742  0.20566  0.08788  1.0000
  H   H11       1.0  0.28947  0.16832  0.07072  1.0000
  H   H12       1.0  0.34817  0.13312  0.05988  1.0000
  H   H13       1.0  0.38587  0.16992  0.07741  1.0000
  C   C14       1.0  0.15344  0.08464  0.13446  1.0000
  C   C15       1.0  0.16697  0.10197  0.12020  1.0000
  C   C16       1.0  0.17374  0.09032  0.10605  1.0000
  C   C17       1.0  0.16820  0.06142  0.10651  1.0000
  C   C18       1.0  0.15508  0.04417  0.12091  1.0000
  C   C19       1.0  0.14738  0.05566  0.13474  1.0000
  H   H14       1.0  0.17208  0.12446  0.12012  1.0000
  H   H15       1.0  0.18368  0.10376  0.09497  1.0000
  H   H16       1.0  0.15068  0.02176  0.12135  1.0000
  H   H17       1.0  0.13668  0.04202  0.14556  1.0000
  C   C20       1.0  0.03397  0.07354  0.21387  1.0000
  C   C21       1.0  0.03152  0.08001  0.19575  1.0000
  C   C22       1.0  0.00694  0.08257  0.18809  1.0000
  H   H18       1.0  0.00738  0.01401  0.14675  1.0000
  H   H19       1.0  0.13332  0.09552  0.01139  1.0000
  C   C23       1.0  0.01133  0.06902  0.22415  1.0000
  H   H20       1.0  0.04892  0.08395  0.18776  1.0000
  H   H21       1.0  0.00563  0.08854  0.17419  1.0000
  C   C24       1.0  0.41244  0.22103  0.21018  1.0000
  C   C25       1.0  0.41732  0.23573  0.19371  1.0000
  C   C26       1.0  0.43032  0.22777  0.18090  1.0000
  C   C27       1.0  0.43859  0.20508  0.18448  1.0000
  C   C28       1.0  0.43381  0.19044  0.20101  1.0000
  C   C29       1.0  0.42077  0.19839  0.21384  1.0000
  H   H22       1.0  0.41101  0.25333  0.19082  1.0000
  H   H23       1.0  0.22375  0.15429  0.09469  1.0000
  S   S17       1.0  0.45507  0.19460  0.16869  1.0000
  H   H24       1.0  0.41719  0.18701  0.22654  1.0000
  C   C30       1.0  0.13649  0.17054  0.01065  1.0000
  H   H25       1.0  0.99214  0.03785  0.16628  1.0000
  H   H26       1.0  0.05383  0.08567  0.07030  1.0000
  C   C31       1.0  0.09290  0.07217  0.09049  1.0000
  C   C32       1.0  0.13807  0.13130  0.07811  1.0000
  C   C33       1.0  0.09663  0.06066  0.07297  1.0000
  C   C34       1.0  0.10053  0.03278  0.07632  1.0000
  C   C35       1.0  0.16378  0.15840  0.08192  1.0000
  H   H27       1.0  0.08631  0.10334  0.06073  1.0000
  H   H28       1.0  0.11093  0.07317  0.09992  1.0000
  H   H29       1.0  0.46461  0.33943  0.24010  1.0000
  H   H30       1.0  0.12879  0.13451  0.06484  1.0000
  H   H31       1.0  0.14556  0.11401  0.07779  1.0000
  H   H32       1.0  0.07771  0.05616  0.06375  1.0000
  H   H33       1.0  0.11492  0.07583  0.06625  1.0000
  H   H34       1.0  0.08152  0.01607  0.08165  1.0000
  H   H35       1.0  0.11865  0.03536  0.08587  1.0000
  H   H36       1.0  0.15777  0.17690  0.08118  1.0000
  H   H37       1.0  0.17399  0.15681  0.09519  1.0000
  H   H38       1.0  0.17920  0.16197  0.07190  1.0000
  H   H39       1.0  0.03675  0.11552  0.04753  1.0000
  H   H40       1.0  0.99066  0.02049  0.20297  1.0000
  N   N2        1.0  0.29365  0.17165  0.20226  1.0000
  C   C36       1.0  0.26795  0.14568  0.19744  1.0000
  C   C37       1.0  0.31682  0.16254  0.20972  1.0000
  C   C38       1.0  0.28646  0.18554  0.21685  1.0000
  C   C39       1.0  0.30318  0.19294  0.18692  1.0000
  C   C40       1.0  0.29803  0.18113  0.16810  1.0000
  C   C41       1.0  0.24045  0.15057  0.19314  1.0000
  C   C42       1.0  0.31115  0.21020  0.22581  1.0000
  C   C43       1.0  0.32733  0.14710  0.19719  1.0000
  C   C44       1.0  0.34782  0.13575  0.20717  1.0000
  C   C45       1.0  0.31356  0.20417  0.15452  1.0000
  C   C46       1.0  0.21773  0.12543  0.18396  1.0000
  H   H41       1.0  0.32064  0.21583  0.04768  1.0000
  H   H42       1.0  0.26381  0.12944  0.20853  1.0000
  H   H43       1.0  0.27116  0.13516  0.18615  1.0000
  H   H44       1.0  0.33586  0.18114  0.21390  1.0000
  H   H45       1.0  0.31021  0.14879  0.22190  1.0000
  H   H46       1.0  0.27658  0.16964  0.22753  1.0000
  H   H47       1.0  0.27052  0.19412  0.21178  1.0000
  H   H48       1.0  0.29271  0.20816  0.18628  1.0000
  H   H49       1.0  0.32594  0.20631  0.18910  1.0000
  H   H50       1.0  0.27539  0.17312  0.16385  1.0000
  H   H51       1.0  0.30487  0.16349  0.16748  1.0000
  H   H52       1.0  0.23220  0.15308  0.20562  1.0000
  H   H53       1.0  0.24398  0.16992  0.18457  1.0000
  H   H54       1.0  0.32429  0.22531  0.21586  1.0000
  H   H55       1.0  0.17509  0.98979  0.02197  1.0000
  H   H56       1.0  0.31001  0.12886  0.19116  1.0000
  H   H57       1.0  0.33886  0.16217  0.18663  1.0000
  H   H58       1.0  0.39766  0.25589  0.05444  1.0000
  H   H59       1.0  0.21973  0.03702  0.16926  1.0000
  C   C47       1.0  0.00407  0.99858  0.18448  1.0000
  H   H60       1.0  0.33655  0.21192  0.15766  1.0000
  H   H61       1.0  0.30888  0.19553  0.14110  1.0000
  H   H62       1.0  0.30695  0.22223  0.15433  1.0000
  H   H63       1.0  0.19801  0.12906  0.18178  1.0000
  H   H64       1.0  0.22409  0.12272  0.17089  1.0000
  H   H65       1.0  0.21341  0.10567  0.19230  1.0000
  H   H66       1.0  0.26406  0.21988  0.01733  1.0000
  H   H67       1.0  0.09909  0.11493  0.02034  1.0000
  H   H68       1.0  0.22834  0.20401  0.03886  1.0000
  H   H69       1.0  0.07432  0.05491  0.09604  1.0000
  H   H70       1.0  0.27017  0.17577  0.01451  1.0000
  H   H71       1.0  0.44020  0.17290  0.20389  1.0000
  H   H72       1.0  0.07177  0.13523  0.04042  1.0000
  H   H73       1.0  0.36602  0.15327  0.21325  1.0000
  N   N3        1.0  0.08927  0.10012  0.08944  1.0000
  H   H74       1.0  0.12793  0.12062  0.10508  1.0000
  C   C48       1.0  0.28351  0.18939  0.02524  1.0000
  C   C49       1.0  0.09548  0.09220  0.02209  1.0000
  H   H75       1.0  0.05241  0.15348  0.04858  1.0000
  H   H76       1.0  0.00891  0.00564  0.23019  1.0000
  C   C50       1.0  0.17253  0.16048  0.99831  1.0000
  C   C51       1.0  0.05672  0.13392  0.05024  1.0000
  H   H77       1.0  0.10447  0.02573  0.06374  1.0000
  H   H78       1.0  0.02217  0.01886  0.18200  1.0000
  H   H79       1.0  0.11385  0.14414  0.09479  1.0000
  C   C52       1.0  0.06894  0.13141  0.06908  1.0000
  H   H80       1.0  0.08854  0.15044  0.07102  1.0000
  H   H81       1.0  0.32635  0.17193  0.03114  1.0000
  S   S18       1.0  0.19567  0.06096  0.22379  1.0000
  C   C53       1.0  0.32964  0.22445  0.03470  1.0000
  C   C54       1.0  0.37566  0.25362  0.05125  1.0000
  N   N4        1.0  0.25992  0.09989  0.12078  1.0000
  H   H82       1.0  0.35569  0.12541  0.19787  1.0000
  H   H83       1.0  0.21700  0.07950  0.12781  1.0000
  C   C55       1.0  0.26804  0.20829  0.02949  1.0000
  H   H84       1.0  0.07264  0.07924  0.02084  1.0000
  H   H85       1.0  0.35679  0.15947  0.12140  1.0000
  C   C56       1.0  0.99572  0.99208  0.15212  1.0000
  H   H86       1.0  0.23083  0.10781  0.10138  1.0000
  H   H87       1.0  0.23771  0.05831  0.10997  1.0000
  H   H88       1.0  0.28755  0.05125  0.09155  1.0000
  C   C57       1.0  0.07094  0.09922  0.10398  1.0000
  H   H89       1.0  0.05364  0.13165  0.07824  1.0000
  C   C58       1.0  0.23841  0.08826  0.13448  1.0000
  C   C59       1.0  0.24133  0.06483  0.14763  1.0000
  H   H90       1.0  0.23888  0.10529  0.14282  1.0000
  H   H91       1.0  0.04952  0.08265  0.10142  1.0000
  H   H92       1.0  0.08767  0.07526  0.12424  1.0000
  C   C60       1.0  0.97349  0.01749  0.16676  1.0000
  C   C61       1.0  0.25929  0.07522  0.11077  1.0000
  H   H93       1.0  0.10047  0.11262  0.12738  1.0000
  H   H94       1.0  0.26098  0.07335  0.15620  1.0000
  C   C62       1.0  0.25144  0.11985  0.10835  1.0000
  C   C63       1.0  0.24907  0.14520  0.11686  1.0000
  H   H95       1.0  0.27277  0.06516  0.11804  1.0000
  H   H96       1.0  0.43894  0.29237  0.22637  1.0000
  H   H97       1.0  0.28703  0.12928  0.14002  1.0000
  H   H98       1.0  0.24131  0.04669  0.14061  1.0000
  C   C64       1.0  0.08180  0.09384  0.12313  1.0000
  C   C65       1.0  0.27051  0.05588  0.08392  1.0000
  H   H99       1.0  0.06825  0.11955  0.10424  1.0000
  H   H100      1.0  0.24141  0.18310  0.10918  1.0000
  C   C66       1.0  0.24350  0.16545  0.10273  1.0000
  C   C67       1.0  0.26736  0.08121  0.09125  1.0000
  H   H101      1.0  0.25057  0.03692  0.08443  1.0000
  H   H102      1.0  0.26598  0.12876  0.09764  1.0000
  H   H103      1.0  0.25063  0.08526  0.08284  1.0000
  H   H104      1.0  0.19679  0.04333  0.15184  1.0000
  H   H105      1.0  0.28710  0.09981  0.08962  1.0000
  H   H106      1.0  0.26106  0.17450  0.09391  1.0000
  C   C68       1.0  0.28819  0.11465  0.13036  1.0000
  H   H107      1.0  0.18891  0.15243  0.99983  1.0000
  H   H108      1.0  0.29456  0.09903  0.13848  1.0000
  H   H109      1.0  0.31796  0.11670  0.11115  1.0000
  N   N5        1.0  0.98261  0.99290  0.16895  1.0000
  H   H110      1.0  0.32449  0.20176  0.23465  1.0000
  C   C69       1.0  0.01427  0.99921  0.21786  1.0000
  C   C70       1.0  0.05968  0.08863  0.13634  1.0000
  H   H111      1.0  0.04089  0.06920  0.13328  1.0000
  H   H112      1.0  0.30830  0.14696  0.10955  1.0000
  S   S19       1.0  0.39591  0.23158  0.22583  1.0000
  S   S20       1.0  0.17288  0.03807  0.99926  1.0000
  H   H113      1.0  0.01315  0.06421  0.23820  1.0000
  C   C71       1.0  0.13005  0.18149  0.99404  1.0000
  H   H114      1.0  0.03594  0.01363  0.21503  1.0000
  C   C72       1.0  0.21701  0.05332  0.15972  1.0000
  H   H115      1.0  0.06844  0.08577  0.14991  1.0000
  H   H116      1.0  0.10557  0.06104  0.01059  1.0000
  H   H117      1.0  0.97332  0.98271  0.20496  1.0000
  C   C73       1.0  0.16105  0.00099  0.99610  1.0000
  H   H118      1.0  0.05350  0.10698  0.13615  1.0000
  C   C74       1.0  0.23965  0.19035  0.03667  1.0000
  H   H119      1.0  0.28011  0.22393  0.03952  1.0000
  H   H120      1.0  0.28297  0.17484  0.03696  1.0000
  H   H121      1.0  0.33611  0.16381  0.13774  1.0000
  H   H122      1.0  0.25467  0.07705  0.23167  1.0000
  C   C75       1.0  0.33939  0.14797  0.13010  1.0000
  C   C76       1.0  0.32526  0.18290  0.01813  1.0000
  C   C77       1.0  0.99350  0.00036  0.20257  1.0000
  H   H123      1.0  0.28813  0.23672  0.22907  1.0000
  H   H124      1.0  0.35506  0.25394  0.00302  1.0000
  H   H125      1.0  0.36359  0.21072  0.04418  1.0000
  H   H126      1.0  0.43400  0.23928  0.16828  1.0000
  C   C78       1.0  0.22094  0.08978  0.23555  1.0000
  C   C79       1.0  0.34075  0.23697  0.99441  1.0000
  H   H127      1.0  0.34571  0.13347  0.13936  1.0000
  H   H128      1.0  0.34459  0.08419  0.23877  1.0000
  H   H129      1.0  0.36493  0.24845  0.06380  1.0000
  C   C80       1.0  0.98412  0.07756  0.19827  1.0000
  H   H130      1.0  0.24239  0.17952  0.04946  1.0000
  H   H131      1.0  0.10388  0.08853  0.03557  1.0000
  C   C81       1.0  0.11048  0.08399  0.00850  1.0000
  H   H132      1.0  0.37575  0.27410  0.04546  1.0000
  H   H133      1.0  0.22657  0.17430  0.02707  1.0000
  H   H134      1.0  0.12500  0.17035  0.02184  1.0000
  H   H135      1.0  0.34588  0.15244  0.99828  1.0000
  H   H136      1.0  0.19240  0.10791  0.24197  1.0000
  C   C82       1.0  0.24892  0.09219  0.23768  1.0000
  H   H137      1.0  0.96909  0.06718  0.22437  1.0000
  C   C83       1.0  0.30056  0.22651  0.23730  1.0000
  Fe  Fe10      1.0  0.46025  0.21681  0.14147  1.0000
  H   H138      1.0  0.44957  0.13543  0.13208  1.0000
  C   C84       1.0  0.46124  0.29941  0.23126  1.0000
  H   H139      1.0  0.96840  0.20408  0.99642  1.0000
  H   H140      1.0  0.34724  0.19281  0.01446  1.0000
  H   H141      1.0  0.32705  0.12989  0.01627  1.0000
  C   C85       1.0  0.32481  0.14029  0.00318  1.0000
  H   H142      1.0  0.01324  0.98234  0.18616  1.0000
  C   C86       1.0  0.30930  0.15968  0.00468  1.0000
  H   H143      1.0  0.03443  0.99543  0.12802  1.0000
  H   H144      1.0  0.46546  0.28045  0.23593  1.0000
  C   C87       1.0  0.31251  0.22132  0.00289  1.0000
  H   H145      1.0  0.03680  0.99191  0.16088  1.0000
  H   H146      1.0  0.29730  0.20739  0.99292  1.0000
  H   H147      1.0  0.31275  0.12352  0.99376  1.0000
  H   H148      1.0  0.97923  0.98146  0.14164  1.0000
  H   H149      1.0  0.46629  0.11143  0.12878  1.0000
  H   H150      1.0  0.02300  0.46154  0.40974  1.0000
  H   H151      1.0  0.19480  0.02447  0.28274  1.0000
  C   C88       1.0  0.98787  0.47349  0.40287  1.0000
  H   H152      1.0  0.98199  0.46662  0.44293  1.0000
  C   C89       1.0  0.97138  0.46494  0.45532  1.0000
  H   H153      1.0  0.97755  0.45012  0.46446  1.0000
  H   H154      1.0  0.96736  0.41772  0.44181  1.0000
  H   H155      1.0  0.97538  0.45409  0.39632  1.0000
  H   H156      1.0  0.22825  0.14545  0.26006  1.0000
  H   H157      1.0  0.21529  0.05731  0.27159  1.0000
  C   C90       1.0  0.21449  0.03594  0.27603  1.0000
  H   H158      1.0  0.21399  0.02420  0.26422  1.0000
  C   C91       1.0  0.21382  0.10951  0.24340  1.0000
  H   H159      1.0  0.46128  0.36423  0.44140  1.0000
  H   H160      1.0  0.37290  0.31483  0.26043  1.0000
  H   H161      1.0  0.45520  0.32245  0.28944  1.0000
  N   N6        1.0  0.45199  0.30976  0.26245  1.0000
  H   H162      1.0  0.46409  0.12907  0.25088  1.0000
  H   H163      1.0  0.36412  0.27815  0.25602  1.0000
  H   H164      1.0  0.45443  0.10304  0.43921  1.0000
  H   H165      1.0  0.31310  0.45180  0.38430  1.0000
  C   C92       1.0  0.45380  0.28241  0.26969  1.0000
  H   H166      1.0  0.33044  0.04802  0.24726  1.0000
  C   C93       1.0  0.45641  0.32214  0.33171  1.0000
  H   H167      1.0  0.28740  0.21208  0.24754  1.0000
  H   H168      1.0  0.36066  0.07400  0.25856  1.0000
  H   H169      1.0  0.33060  0.10059  0.26412  1.0000
  H   H170      1.0  0.41979  0.32257  0.24938  1.0000
  H   H171      1.0  0.43153  0.97877  0.46143  1.0000
  C   C94       1.0  0.41713  0.47021  0.40340  1.0000
  H   H172      1.0  0.41223  0.28604  0.24860  1.0000
  H   H173      1.0  0.29087  0.11569  0.24893  1.0000
  H   H174      1.0  0.44008  0.14765  0.34064  1.0000
  H   H175      1.0  0.45861  0.09010  0.41857  1.0000
  C   C95       1.0  0.46416  0.33140  0.27650  1.0000
  H   H176      1.0  0.42258  0.98952  0.42698  1.0000
  S   S21       1.0  0.44742  0.98239  0.39523  1.0000
  H   H177      1.0  0.45922  0.44089  0.41721  1.0000
  H   H178      1.0  0.43884  0.35704  0.26930  1.0000
  C   C96       1.0  0.23421  0.13076  0.25370  1.0000
  H   H179      1.0  0.44284  0.27540  0.28210  1.0000
  C   C97       1.0  0.41433  0.11539  0.30165  1.0000
  C   C98       1.0  0.32101  0.07757  0.26199  1.0000
  C   C99       1.0  0.01494  0.47779  0.41053  1.0000
  H   H180      1.0  0.28247  0.12977  0.32462  1.0000
  H   H181      1.0  0.44942  0.31170  0.42757  1.0000
  H   H182      1.0  0.44743  0.43330  0.46651  1.0000
  H   H183      1.0  0.44237  0.26497  0.26053  1.0000
  H   H184      1.0  0.44358  0.46733  0.44422  1.0000
  C   C100      1.0  0.42811  0.30520  0.38260  1.0000
  Fe  Fe11      1.0  0.38517  0.20557  0.25136  1.0000
  C   C101      1.0  0.31339  0.02795  0.33560  1.0000
  C   C102      1.0  0.41129  0.39343  0.41725  1.0000
  H   H185      1.0  0.38245  0.27363  0.31248  1.0000
  C   C103      1.0  0.30327  0.09226  0.29617  1.0000
  H   H186      1.0  0.44570  0.24556  0.34960  1.0000
  H   H187      1.0  0.45147  0.26718  0.41491  1.0000
  C   C104      1.0  0.43702  0.27706  0.40879  1.0000
  H   H188      1.0  0.33804  0.06962  0.28747  1.0000
  C   C105      1.0  0.43575  0.23190  0.36112  1.0000
  H   H189      1.0  0.43841  0.26694  0.44561  1.0000
  C   C106      1.0  0.45102  0.04698  0.44467  1.0000
  H   H190      1.0  0.45043  0.22296  0.36790  1.0000
  C   C107      1.0  0.43792  0.46982  0.39290  1.0000
  H   H191      1.0  0.31862  0.24320  0.24411  1.0000
  H   H192      1.0  0.41491  0.42823  0.43252  1.0000
  H   H193      1.0  0.44226  0.07097  0.32359  1.0000
  H   H194      1.0  0.41690  0.07653  0.29503  1.0000
  C   C108      1.0  0.41013  0.98935  0.43810  1.0000
  H   H195      1.0  0.40754  0.36218  0.38296  1.0000
  H   H196      1.0  0.40627  0.28979  0.38438  1.0000
  H   H197      1.0  0.30099  0.07274  0.25393  1.0000
  H   H198      1.0  0.31299  0.03848  0.27767  1.0000
  H   H199      1.0  0.39989  0.00446  0.43448  1.0000
  H   H200      1.0  0.42120  0.39995  0.44488  1.0000
  H   H201      1.0  0.45927  0.98827  0.48465  1.0000
  H   H202      1.0  0.41847  0.23378  0.38507  1.0000
  S   S22       1.0  0.28685  0.15976  0.26939  1.0000
  Fe  Fe12      1.0  0.33441  0.17367  0.27231  1.0000
  C   C109      1.0  0.43524  0.13217  0.33065  1.0000
  H   H203      1.0  0.39896  0.33585  0.36670  1.0000
  H   H204      1.0  0.31683  0.12951  0.32387  1.0000
  C   C110      1.0  0.45390  0.27464  0.38032  1.0000
  H   H205      1.0  0.23902  0.05005  0.30027  1.0000
  H   H206      1.0  0.43581  0.05172  0.45190  1.0000
  C   C111      1.0  0.42156  0.27378  0.43990  1.0000
  C   C112      1.0  0.28366  0.09751  0.30832  1.0000
  H   H207      1.0  0.23712  0.01659  0.29367  1.0000
  C   C113      1.0  0.42881  0.99792  0.45554  1.0000
  S   S23       1.0  0.41952  0.24299  0.31238  1.0000
  S   S24       1.0  0.39602  0.11882  0.28143  1.0000
  C   C114      1.0  0.23969  0.03834  0.28882  1.0000
  H   H208      1.0  0.46000  0.36911  0.29982  1.0000
  N   N7        1.0  0.44870  0.29411  0.39219  1.0000
  C   C115      1.0  0.45725  0.42906  0.43020  1.0000
  S   S25       1.0  0.43892  0.36458  0.33928  1.0000
  H   H209      1.0  0.30781  0.00625  0.33107  1.0000
  H   H210      1.0  0.44947  0.11423  0.27164  1.0000
  H   H211      1.0  0.41523  0.15343  0.31216  1.0000
  H   H212      1.0  0.28679  0.02017  0.30228  1.0000
  H   H213      1.0  0.41000  0.31429  0.28263  1.0000
  Fe  Fe13      1.0  0.38435  0.15692  0.27711  1.0000
  C   C116      1.0  0.31713  0.06092  0.28013  1.0000
  H   H214      1.0  0.30439  0.10651  0.28423  1.0000
  H   H215      1.0  0.32485  0.07051  0.32516  1.0000
  H   H216      1.0  0.35895  0.28760  0.27741  1.0000
  C   C117      1.0  0.45149  0.29518  0.32572  1.0000
  S   S26       1.0  0.35628  0.15988  0.25326  1.0000
  H   H217      1.0  0.41674  0.25934  0.40560  1.0000
  C   C118      1.0  0.34036  0.07045  0.25102  1.0000
  H   H218      1.0  0.43522  0.45072  0.38655  1.0000
  C   C119      1.0  0.43051  0.33488  0.38746  1.0000
  C   C120      1.0  0.44300  0.10899  0.33401  1.0000
  N   N8        1.0  0.29467  0.06212  0.29092  1.0000
  C   C121      1.0  0.31875  0.04925  0.31983  1.0000
  C   C122      1.0  0.40235  0.29743  0.27291  1.0000
  H   H219      1.0  0.33265  0.03355  0.34462  1.0000
  H   H220      1.0  0.41630  0.00284  0.46494  1.0000
  H   H221      1.0  0.39849  0.45123  0.40509  1.0000
  H   H222      1.0  0.26676  0.03699  0.26989  1.0000
  H   H223      1.0  0.27833  0.08212  0.31973  1.0000
  H   H224      1.0  0.42023  0.37711  0.41713  1.0000
  C   C123      1.0  0.42109  0.13546  0.31453  1.0000
  H   H225      1.0  0.39088  0.32092  0.32327  1.0000
  H   H226      1.0  0.29624  0.02827  0.34313  1.0000
  C   C124      1.0  0.42217  0.09219  0.30493  1.0000
  H   H227      1.0  0.30136  0.14350  0.30514  1.0000
  H   H228      1.0  0.41167  0.25537  0.36690  1.0000
  C   C125      1.0  0.40411  0.33986  0.38102  1.0000
  C   C126      1.0  0.42168  0.30432  0.25739  1.0000
  Fe  Fe14      1.0  0.39038  0.21331  0.29136  1.0000
  H   H229      1.0  0.43004  0.30674  0.36801  1.0000
  C   C127      1.0  0.43661  0.08904  0.32104  1.0000
  N   N9        1.0  0.45666  0.02243  0.45382  1.0000
  C   C128      1.0  0.42535  0.41321  0.43244  1.0000
  H   H230      1.0  0.38850  0.38260  0.41894  1.0000
  C   C129      1.0  0.26745  0.05269  0.27947  1.0000
  C   C130      1.0  0.40314  0.28710  0.31765  1.0000
  H   H231      1.0  0.40091  0.27729  0.27992  1.0000
  C   C131      1.0  0.26947  0.11398  0.24752  1.0000
  H   H232      1.0  0.44119  0.04147  0.43108  1.0000
  H   H233      1.0  0.26610  0.07092  0.27124  1.0000
  C   C132      1.0  0.29233  0.04196  0.30680  1.0000
  S   S27       1.0  0.36074  0.16794  0.29654  1.0000
  H   H234      1.0  0.40229  0.25483  0.43677  1.0000
  H   H235      1.0  0.33674  0.04870  0.31336  1.0000
  S   S28       1.0  0.36182  0.22010  0.26909  1.0000
  C   C133      1.0  0.26209  0.13298  0.25596  1.0000
  H   H236      1.0  0.43417  0.33820  0.40183  1.0000
  H   H237      1.0  0.46275  0.40985  0.46109  1.0000
  C   C134      1.0  0.37278  0.29433  0.26621  1.0000
  C   C135      1.0  0.40797  0.31390  0.32386  1.0000
  H   H238      1.0  0.41419  0.40550  0.40433  1.0000
  S   S29       1.0  0.41542  0.20142  0.27316  1.0000
  C   C136      1.0  0.42486  0.27750  0.31862  1.0000
  C   C137      1.0  0.43454  0.33153  0.33102  1.0000
  H   H239      1.0  0.45618  0.03886  0.47910  1.0000
  H   H240      1.0  0.44830  0.35140  0.38092  1.0000
  C   C138      1.0  0.29704  0.12688  0.31592  1.0000
  H   H241      1.0  0.41706  0.28559  0.45004  1.0000
  C   C139      1.0  0.43082  0.29294  0.42333  1.0000
  H   H242      1.0  0.37990  0.46240  0.47502  1.0000
  H   H243      1.0  0.41666  0.21419  0.35606  1.0000
  H   H244      1.0  0.26415  0.09630  0.30052  1.0000
  H   H245      1.0  0.38612  0.32575  0.38856  1.0000
  H   H246      1.0  0.27495  0.04011  0.31482  1.0000
  H   H247      1.0  0.41347  0.29954  0.41853  1.0000
  C   C140      1.0  0.42783  0.24865  0.37390  1.0000
  H   H248      1.0  0.32498  0.10045  0.30245  1.0000
  H   H249      1.0  0.46327  0.28638  0.36805  1.0000
  H   H250      1.0  0.33531  0.46120  0.40457  1.0000
  H   H251      1.0  0.30369  0.46771  0.40169  1.0000
  C   C141      1.0  0.32149  0.46758  0.39474  1.0000
  H   H252      1.0  0.46573  0.41279  0.42869  1.0000
  C   C142      1.0  0.46100  0.36000  0.27233  1.0000
  H   H253      1.0  0.41530  0.47290  0.46895  1.0000
  S   S30       1.0  0.45995  0.10585  0.35481  1.0000
  C   C143      1.0  0.40211  0.47602  0.47857  1.0000
  H   H254      1.0  0.35792  0.01464  0.57612  1.0000
  Fe  Fe15      1.0  0.13594  0.37276  0.68556  1.0000
  S   S31       1.0  0.14857  0.33524  0.68830  1.0000
  S   S32       1.0  0.11299  0.38020  0.65986  1.0000
  Fe  Fe16      1.0  0.17086  0.39814  0.71886  1.0000
  S   S33       1.0  0.18635  0.36329  0.72362  1.0000
  Fe  Fe17      1.0  0.19211  0.36772  0.69449  1.0000
  S   S34       1.0  0.23097  0.36760  0.68291  1.0000
  Fe  Fe18      1.0  0.14153  0.33381  0.71734  1.0000
  C   C144      1.0  0.20075  0.44389  0.60828  1.0000
  S   S35       1.0  0.17980  0.40463  0.69022  1.0000
  S   S36       1.0  0.12567  0.36917  0.71417  1.0000
  S   S37       1.0  0.05164  0.46588  0.64929  1.0000
  H   H255      1.0  0.37723  0.99087  0.59357  1.0000
  C   C145      1.0  0.34420  0.99949  0.56625  1.0000
  H   H256      1.0  0.14027  0.44360  0.58371  1.0000
  H   H257      1.0  0.44946  0.15599  0.54656  1.0000
  H   H258      1.0  0.20368  0.46089  0.67330  1.0000
  C   C146      1.0  0.97015  0.43284  0.63699  1.0000
  H   H259      1.0  0.97392  0.45991  0.65863  1.0000
  C   C147      1.0  0.08508  0.24931  0.72459  1.0000
  H   H260      1.0  0.02336  0.39687  0.65345  1.0000
  S   S38       1.0  0.18992  0.43676  0.73530  1.0000
  H   H261      1.0  0.46047  0.43731  0.49770  1.0000
  H   H262      1.0  0.98989  0.36212  0.60942  1.0000
  C   C148      1.0  0.25772  0.39769  0.67357  1.0000
  C   C149      1.0  0.27840  0.39407  0.66455  1.0000
  C   C150      1.0  0.30062  0.41758  0.65759  1.0000
  C   C151      1.0  0.30258  0.44503  0.65981  1.0000
  C   C152      1.0  0.28174  0.44860  0.66870  1.0000
  C   C153      1.0  0.25937  0.42512  0.67545  1.0000
  H   H263      1.0  0.27739  0.37295  0.66307  1.0000
  H   H264      1.0  0.31651  0.41448  0.65084  1.0000
  H   H265      1.0  0.41021  0.44665  0.49740  1.0000
  H   H266      1.0  0.24363  0.42824  0.68232  1.0000
  H   H267      1.0  0.00547  0.20305  0.73981  1.0000
  H   H268      1.0  0.44566  0.40343  0.53234  1.0000
  S   S39       1.0  0.01558  0.46600  0.59910  1.0000
  H   H269      1.0  0.43415  0.47668  0.56144  1.0000
  C   C154      1.0  0.40133  0.43920  0.53512  1.0000
  H   H270      1.0  0.01693  0.42049  0.62644  1.0000
  H   H271      1.0  0.31275  0.01780  0.56503  1.0000
  C   C155      1.0  0.07966  0.43711  0.66887  1.0000
  C   C156      1.0  0.09327  0.41819  0.67153  1.0000
  C   C157      1.0  0.09827  0.40604  0.65706  1.0000
  C   C158      1.0  0.09031  0.41366  0.63989  1.0000
  H   H272      1.0  0.07514  0.44575  0.68019  1.0000
  H   H273      1.0  0.09921  0.41242  0.68480  1.0000
  H   H274      1.0  0.02655  0.38306  0.58827  1.0000
  H   H275      1.0  0.33960  0.45647  0.52418  1.0000
  C   C159      1.0  0.07146  0.44454  0.65173  1.0000
  C   C160      1.0  0.29122  0.39912  0.72015  1.0000
  H   H276      1.0  0.44703  0.20740  0.59327  1.0000
  C   C161      1.0  0.46139  0.14329  0.57364  1.0000
  H   H277      1.0  0.22950  0.46544  0.70418  1.0000
  H   H278      1.0  0.09407  0.40431  0.62862  1.0000
  H   H279      1.0  0.15601  0.43189  0.61353  1.0000
  H   H280      1.0  0.17566  0.45792  0.63579  1.0000
  C   C162      1.0  0.26943  0.39709  0.73341  1.0000
  H   H281      1.0  0.42074  0.39016  0.58440  1.0000
  H   H282      1.0  0.28303  0.46975  0.67039  1.0000
  N   N10       1.0  0.20961  0.43027  0.62484  1.0000
  C   C163      1.0  0.34806  0.45073  0.53717  1.0000
  H   H283      1.0  0.35742  0.99625  0.55670  1.0000
  S   S40       1.0  0.41547  0.43715  0.59958  1.0000
  H   H284      1.0  0.98980  0.44824  0.63168  1.0000
  C   C164      1.0  0.18925  0.39997  0.62743  1.0000
  C   C165      1.0  0.00260  0.37898  0.65183  1.0000
  C   C166      1.0  0.32610  0.01352  0.55600  1.0000
  C   C167      1.0  0.01456  0.05291  0.72672  1.0000
  C   C168      1.0  0.45503  0.23728  0.57118  1.0000
  C   C169      1.0  0.19651  0.38251  0.64314  1.0000
  H   H285      1.0  0.33061  0.47431  0.55163  1.0000
  C   C170      1.0  0.44282  0.43488  0.58796  1.0000
  H   H286      1.0  0.44438  0.44559  0.54431  1.0000
  N   N11       1.0  0.26968  0.42484  0.73891  1.0000
  C   C171      1.0  0.17342  0.35293  0.64472  1.0000
  H   H287      1.0  0.43922  0.44685  0.52083  1.0000
  H   H288      1.0  0.18714  0.38830  0.61524  1.0000
  H   H289      1.0  0.16796  0.39879  0.62936  1.0000
  C   C172      1.0  0.99795  0.40134  0.62302  1.0000
  H   H290      1.0  0.24604  0.42125  0.63438  1.0000
  H   H291      1.0  0.43400  0.22667  0.56436  1.0000
  C   C173      1.0  0.18556  0.44864  0.64656  1.0000
  H   H292      1.0  0.29765  0.36104  0.73003  1.0000
  H   H293      1.0  0.21055  0.44090  0.59655  1.0000
  H   H294      1.0  0.03480  0.38177  0.68387  1.0000
  H   H295      1.0  0.34878  0.97975  0.60759  1.0000
  H   H296      1.0  0.21603  0.37957  0.64130  1.0000
  H   H297      1.0  0.19887  0.39285  0.65580  1.0000
  H   H298      1.0  0.16939  0.47378  0.59226  1.0000
  H   H299      1.0  0.25480  0.47235  0.60831  1.0000
  C   C174      1.0  0.06763  0.20325  0.74093  1.0000
  Fe  Fe19      1.0  0.40632  0.47331  0.61012  1.0000
  C   C175      1.0  0.46352  0.19182  0.57263  1.0000
  C   C176      1.0  0.01585  0.36193  0.68214  1.0000
  H   H300      1.0  0.05086  0.21178  0.71517  1.0000
  C   C177      1.0  0.07724  0.43308  0.63720  1.0000
  C   C178      1.0  0.06654  0.22055  0.72584  1.0000
  H   H301      1.0  0.97413  0.34765  0.66998  1.0000
  H   H302      1.0  0.15350  0.35419  0.64775  1.0000
  H   H303      1.0  0.17007  0.34162  0.63229  1.0000
  H   H304      1.0  0.17961  0.34048  0.65561  1.0000
  H   H305      1.0  0.30408  0.47685  0.60985  1.0000
  N   N12       1.0  0.40038  0.46785  0.53026  1.0000
  H   H306      1.0  0.17185  0.46625  0.66715  1.0000
  H   H307      1.0  0.33638  0.44585  0.56448  1.0000
  H   H308      1.0  0.17050  0.42728  0.65059  1.0000
  H   H309      1.0  0.31285  0.45366  0.73724  1.0000
  H   H310      1.0  0.22261  0.43951  0.65232  1.0000
  H   H311      1.0  0.34618  0.42852  0.53709  1.0000
  H   H312      1.0  0.38393  0.46860  0.55537  1.0000
  H   H313      1.0  0.31270  0.41317  0.72485  1.0000
  H   H314      1.0  0.42606  0.10335  0.54977  1.0000
  C   C179      1.0  0.32957  0.45239  0.55119  1.0000
  C   C180      1.0  0.44776  0.98477  0.57680  1.0000
  H   H315      1.0  0.41202  0.39538  0.52050  1.0000
  H   H316      1.0  0.00793  0.04632  0.71288  1.0000
  H   H317      1.0  0.44121  0.18013  0.56796  1.0000
  C   C181      1.0  0.43947  0.40857  0.58171  1.0000
  H   H318      1.0  0.44864  0.11504  0.53164  1.0000
  H   H319      1.0  0.09684  0.45400  0.50721  1.0000
  H   H320      1.0  0.16166  0.41135  0.59746  1.0000
  H   H321      1.0  0.38433  0.42264  0.52738  1.0000
  H   H322      1.0  0.39679  0.43297  0.54925  1.0000
  S   S41       1.0  0.04301  0.16741  0.74217  1.0000
  H   H323      1.0  0.27012  0.35529  0.71253  1.0000
  H   H324      1.0  0.22736  0.46967  0.63829  1.0000
  H   H325      1.0  0.43915  0.13281  0.57705  1.0000
  C   C182      1.0  0.44816  0.11394  0.54628  1.0000
  H   H326      1.0  0.31258  0.99980  0.54538  1.0000
  C   C183      1.0  0.45996  0.40582  0.57187  1.0000
  C   C184      1.0  0.37891  0.47130  0.54094  1.0000
  H   H327      1.0  0.37970  0.98144  0.63506  1.0000
  H   H328      1.0  0.41469  0.39297  0.54445  1.0000
  H   H329      1.0  0.17456  0.45271  0.57592  1.0000
  C   C185      1.0  0.23792  0.42994  0.62230  1.0000
  H   H330      1.0  0.07105  0.43863  0.62396  1.0000
  H   H331      1.0  0.98494  0.40909  0.61348  1.0000
  C   C186      1.0  0.45571  0.99988  0.59232  1.0000
  H   H332      1.0  0.28097  0.44610  0.59821  1.0000
  H   H333      1.0  0.02166  0.34624  0.67603  1.0000
  H   H334      1.0  0.44549  0.15947  0.60218  1.0000
  C   C187      1.0  0.16304  0.45200  0.58767  1.0000
  C   C188      1.0  0.26167  0.45919  0.61829  1.0000
  H   H335      1.0  0.37082  0.45287  0.50758  1.0000
  H   H336      1.0  0.46007  0.10113  0.55191  1.0000
  C   C189      1.0  0.26335  0.44002  0.72234  1.0000
  H   H337      1.0  0.08338  0.26248  0.71313  1.0000
  H   H338      1.0  0.33977  0.03395  0.54976  1.0000
  H   H339      1.0  0.02440  0.37752  0.62050  1.0000
  H   H340      1.0  0.30750  0.43808  0.54798  1.0000
  H   H341      1.0  0.03782  0.41709  0.59782  1.0000
  C   C190      1.0  0.99288  0.36777  0.67065  1.0000
  C   C191      1.0  0.29125  0.37002  0.71746  1.0000
  H   H342      1.0  0.28621  0.40726  0.70696  1.0000
  C   C192      1.0  0.42504  0.40502  0.53255  1.0000
  H   H343      1.0  0.03768  0.06001  0.72860  1.0000
  H   H344      1.0  0.44925  0.13757  0.63299  1.0000
  H   H345      1.0  0.29431  0.44231  0.62067  1.0000
  C   C193      1.0  0.21269  0.44737  0.64074  1.0000
  C   C194      1.0  0.00757  0.38226  0.61270  1.0000
  H   H346      1.0  0.00657  0.36176  0.64611  1.0000
  H   H347      1.0  0.24276  0.42641  0.71583  1.0000
  C   C195      1.0  0.42929  0.43608  0.53299  1.0000
  C   C196      1.0  0.16895  0.43297  0.60253  1.0000
  S   S42       1.0  0.36109  0.46862  0.60591  1.0000
  H   H348      1.0  0.20866  0.46724  0.60947  1.0000
  C   C197      1.0  0.28669  0.45577  0.61133  1.0000
  H   H349      1.0  0.23600  0.41559  0.61152  1.0000
  H   H350      1.0  0.00341  0.40160  0.58656  1.0000
  H   H351      1.0  0.27910  0.44382  0.71254  1.0000
  C   C198      1.0  0.19183  0.46761  0.66228  1.0000
  C   C199      1.0  0.39138  0.47014  0.51092  1.0000
  H   H352      1.0  0.26916  0.47111  0.63062  1.0000
  H   H353      1.0  0.45684  0.38546  0.56708  1.0000
  H   H354      1.0  0.00903  0.07111  0.72888  1.0000
  C   C200      1.0  0.46139  0.14385  0.55314  1.0000
  H   H355      1.0  0.24835  0.38378  0.72743  1.0000
  C   C201      1.0  0.26308  0.46956  0.72449  1.0000
  H   H356      1.0  0.30623  0.37196  0.70745  1.0000
  H   H357      1.0  0.44912  0.98896  0.60486  1.0000
  H   H358      1.0  0.00836  0.35336  0.69541  1.0000
  H   H359      1.0  0.02206  0.23884  0.73069  1.0000
  H   H360      1.0  0.40914  0.99645  0.62123  1.0000
  S   S43       1.0  0.12726  0.29778  0.73873  1.0000
  H   H361      1.0  0.99494  0.42227  0.65779  1.0000
  C   C202      1.0  0.00530  0.22463  0.73910  1.0000
  C   C203      1.0  0.41110  0.46855  0.49734  1.0000
  H   H362      1.0  0.98781  0.38323  0.67752  1.0000
  H   H363      1.0  0.45069  0.98809  0.54852  1.0000
  H   H364      1.0  0.45468  0.25441  0.57910  1.0000
  C   C204      1.0  0.01953  0.39698  0.59530  1.0000
  C   C205      1.0  0.96848  0.01806  0.73778  1.0000
  H   H365      1.0  0.25002  0.46956  0.73517  1.0000
  H   H366      1.0  0.98482  0.22340  0.73277  1.0000
  H   H367      1.0  0.00710  0.01101  0.73677  1.0000
  C   C206      1.0  0.46297  0.21616  0.58329  1.0000
  C   C207      1.0  0.45669  0.99947  0.56063  1.0000
  C   C208      1.0  0.97665  0.40990  0.64880  1.0000
  C   C209      1.0  0.10960  0.47659  0.50395  1.0000
  H   H368      1.0  0.46438  0.01920  0.50903  1.0000
  C   C210      1.0  0.10536  0.26101  0.73833  1.0000
  H   H369      1.0  0.12293  0.47772  0.49307  1.0000
  N   N13       1.0  0.98296  0.38820  0.63955  1.0000
  S   S44       1.0  0.33071  0.47571  0.65226  1.0000
  C   C211      1.0  0.00074  0.02826  0.73981  1.0000
  H   H370      1.0  0.98155  0.01199  0.77370  1.0000
  H   H371      1.0  0.21375  0.47106  0.76538  1.0000
  Fe  Fe20      1.0  0.01814  0.08843  0.79273  1.0000
  S   S45       1.0  0.02906  0.05342  0.80700  1.0000
  Fe  Fe21      1.0  0.02348  0.13813  0.76594  1.0000
  H   H372      1.0  0.98630  0.04391  0.83395  1.0000
  S   S46       1.0  0.04225  0.13580  0.79370  1.0000
  Fe  Fe22      1.0  0.04365  0.20814  0.95521  1.0000
  S   S47       1.0  0.05747  0.17340  0.95005  1.0000
  H   H373      1.0  0.99143  0.22189  0.76501  1.0000
  Fe  Fe23      1.0  0.08165  0.24993  0.92737  1.0000
  S   S48       1.0  0.09753  0.21751  0.92022  1.0000
  S   S49       1.0  0.08801  0.29192  0.91150  1.0000
  Fe  Fe24      1.0  0.05335  0.18598  0.92127  1.0000
  S   S50       1.0  0.03331  0.14961  0.90295  1.0000
  Fe  Fe25      1.0  0.10083  0.20725  0.94960  1.0000
  S   S51       1.0  0.13901  0.19720  0.95861  1.0000
  S   S52       1.0  0.03659  0.21840  0.92628  1.0000
  S   S53       1.0  0.08784  0.24191  0.95685  1.0000
  H   H374      1.0  0.03367  0.23763  0.81170  1.0000
  S   S54       1.0  0.21474  0.44996  0.84798  1.0000
  Fe  Fe26      1.0  0.17708  0.45484  0.83413  1.0000
  H   H375      1.0  0.15142  0.05937  0.96285  1.0000
  H   H376      1.0  0.96924  0.14681  0.88997  1.0000
  Fe  Fe27      1.0  0.19297  0.44565  0.87292  1.0000
  S   S55       1.0  0.19037  0.40846  0.89241  1.0000
  S   S56       1.0  0.15478  0.44887  0.85889  1.0000
  C   C212      1.0  0.11702  0.32402  0.90637  1.0000
  C   C213      1.0  0.11195  0.34544  0.89580  1.0000
  C   C214      1.0  0.13404  0.37119  0.89127  1.0000
  C   C215      1.0  0.16167  0.37601  0.89728  1.0000
  C   C216      1.0  0.16678  0.35463  0.90784  1.0000
  C   C217      1.0  0.14469  0.32879  0.91229  1.0000
  H   H377      1.0  0.09068  0.34211  0.89117  1.0000
  H   H378      1.0  0.12963  0.38740  0.88329  1.0000
  H   H379      1.0  0.18800  0.35807  0.91267  1.0000
  H   H380      1.0  0.14905  0.31266  0.92044  1.0000
  C   C218      1.0  0.18779  0.09793  0.96305  1.0000
  H   H381      1.0  0.19642  0.09317  0.97625  1.0000
  H   H382      1.0  0.10837  0.03487  0.95260  1.0000
  H   H383      1.0  0.99024  0.24939  0.78576  1.0000
  H   H384      1.0  0.23847  0.37580  0.76308  1.0000
  H   H385      1.0  0.16582  0.34167  0.77614  1.0000
  C   C219      1.0  0.02427  0.15562  0.88060  1.0000
  C   C220      1.0  0.01113  0.13226  0.86996  1.0000
  C   C221      1.0  0.00520  0.13604  0.85178  1.0000
  C   C222      1.0  0.01169  0.16330  0.84425  1.0000
  C   C223      1.0  0.02360  0.18667  0.85507  1.0000
  C   C224      1.0  0.03014  0.18289  0.87321  1.0000
  H   H386      1.0  0.00557  0.11118  0.87589  1.0000
  H   H387      1.0  0.99536  0.11791  0.84360  1.0000
  H   H388      1.0  0.04000  0.20100  0.88141  1.0000
  C   C225      1.0  0.17983  0.43268  0.75713  1.0000
  C   C226      1.0  0.19544  0.45315  0.76938  1.0000
  C   C227      1.0  0.18724  0.45070  0.78676  1.0000
  C   C228      1.0  0.16309  0.42803  0.79179  1.0000
  C   C229      1.0  0.14764  0.40748  0.77956  1.0000
  C   C230      1.0  0.15618  0.40957  0.76234  1.0000
  H   H389      1.0  0.07326  0.03316  0.95248  1.0000
  H   H390      1.0  0.99444  0.12211  0.94448  1.0000
  C   C231      1.0  0.02377  0.23596  0.79795  1.0000
  H   H391      1.0  0.19375  0.12115  0.96122  1.0000
  C   C232      1.0  0.16100  0.32814  0.78850  1.0000
  H   H392      1.0  0.99634  0.24833  0.92263  1.0000
  H   H393      1.0  0.09474  0.34279  0.75970  1.0000
  H   H394      1.0  0.07441  0.11723  0.93355  1.0000
  H   H395      1.0  0.32716  0.26663  0.97813  1.0000
  C   C233      1.0  0.02929  0.00046  0.80644  1.0000
  C   C234      1.0  0.03588  0.02683  0.79734  1.0000
  C   C235      1.0  0.04957  0.03200  0.78168  1.0000
  C   C236      1.0  0.05735  0.01120  0.77550  1.0000
  H   H396      1.0  0.22698  0.38375  0.79233  1.0000
  H   H397      1.0  0.06729  0.29204  0.75580  1.0000
  H   H398      1.0  0.05519  0.05240  0.77472  1.0000
  H   H399      1.0  0.06878  0.01564  0.76370  1.0000
  N   N14       1.0  0.06679  0.09070  0.85626  1.0000
  C   C237      1.0  0.07511  0.07713  0.87286  1.0000
  C   C238      1.0  0.07976  0.08495  0.84083  1.0000
  C   C239      1.0  0.07669  0.12202  0.85878  1.0000
  C   C240      1.0  0.03543  0.07867  0.85244  1.0000
  C   C241      1.0  0.02051  0.04590  0.85338  1.0000
  C   C242      1.0  0.06210  0.07962  0.88995  1.0000
  C   C243      1.0  0.07340  0.14026  0.84221  1.0000
  H   H400      1.0  0.12119  0.08838  0.85251  1.0000
  C   C244      1.0  0.11218  0.09793  0.84133  1.0000
  C   C245      1.0  0.03613  0.97931  0.79993  1.0000
  C   C246      1.0  0.06916  0.06227  0.90541  1.0000
  C   C247      1.0  0.08361  0.17136  0.84664  1.0000
  H   H401      1.0  0.09815  0.08693  0.87579  1.0000
  H   H402      1.0  0.07035  0.05442  0.87093  1.0000
  H   H403      1.0  0.97333  0.99715  0.80549  1.0000
  H   H404      1.0  0.07182  0.09236  0.82817  1.0000
  H   H405      1.0  0.09897  0.13096  0.86401  1.0000
  H   H406      1.0  0.06490  0.12588  0.86910  1.0000
  H   H407      1.0  0.02530  0.08689  0.86157  1.0000
  H   H408      1.0  0.02994  0.08600  0.83899  1.0000
  H   H409      1.0  0.02224  0.03721  0.86703  1.0000
  H   H410      1.0  0.02957  0.03603  0.84458  1.0000
  H   H411      1.0  0.07048  0.10197  0.89386  1.0000
  H   H412      1.0  0.03900  0.07211  0.88819  1.0000
  H   H413      1.0  0.05118  0.13315  0.83717  1.0000
  H   H414      1.0  0.08571  0.13907  0.83136  1.0000
  H   H415      1.0  0.12075  0.12116  0.84265  1.0000
  C   C248      1.0  0.33664  0.25111  0.97654  1.0000
  H   H416      1.0  0.17861  0.17308  0.97074  1.0000
  H   H417      1.0  0.00923  0.03558  0.75326  1.0000
  C   C249      1.0  0.24632  0.41809  0.75107  1.0000
  H   H418      1.0  0.15016  0.08359  0.98867  1.0000
  C   C250      1.0  0.09766  0.12682  0.93462  1.0000
  C   C251      1.0  0.10729  0.24335  0.75302  1.0000
  H   H419      1.0  0.06004  0.06483  0.91750  1.0000
  H   H420      1.0  0.06029  0.03945  0.90248  1.0000
  H   H421      1.0  0.09220  0.06957  0.90809  1.0000
  H   H422      1.0  0.07452  0.17369  0.85878  1.0000
  H   H423      1.0  0.10679  0.18079  0.84869  1.0000
  H   H424      1.0  0.07694  0.18320  0.83564  1.0000
  S   S57       1.0  0.15111  0.42486  0.81305  1.0000
  C   C252      1.0  0.08854  0.21472  0.75436  1.0000
  C   C253      1.0  0.07263  0.24818  0.79199  1.0000
  H   H425      1.0  0.13925  0.44620  0.94187  1.0000
  C   C254      1.0  0.24641  0.39797  0.76733  1.0000
  H   H426      1.0  0.11455  0.10219  0.81264  1.0000
  H   H427      1.0  0.13276  0.42936  0.89969  1.0000
  H   H428      1.0  0.97914  0.01304  0.84853  1.0000
  H   H429      1.0  0.35722  0.26254  0.97083  1.0000
  C   C255      1.0  0.09983  0.21852  0.80421  1.0000
  H   H430      1.0  0.21911  0.47377  0.94037  1.0000
  H   H431      1.0  0.07320  0.06180  0.83956  1.0000
  H   H432      1.0  0.98531  0.14502  0.96748  1.0000
  H   H433      1.0  0.22576  0.40792  0.74363  1.0000
  S   S58       1.0  0.98445  0.14061  0.77453  1.0000
  S   S59       1.0  0.01212  0.20523  0.97536  1.0000
  S   S60       1.0  0.00291  0.09039  0.76430  1.0000
  H   H434      1.0  0.12341  0.25196  0.76347  1.0000
  H   H435      1.0  0.34172  0.46930  0.77234  1.0000
  H   H436      1.0  0.01373  0.21288  0.79560  1.0000
  S   S61       1.0  0.97970  0.08909  0.80368  1.0000
  H   H437      1.0  0.03396  0.21360  0.76901  1.0000
  N   N15       1.0  0.04560  0.25055  0.78471  1.0000
  H   H438      1.0  0.98533  0.25188  0.94377  1.0000
  H   H439      1.0  0.96722  0.20590  0.80466  1.0000
  H   H440      1.0  0.05762  0.29153  0.79560  1.0000
  C   C256      1.0  0.07077  0.21817  0.79855  1.0000
  H   H441      1.0  0.09431  0.29837  0.77343  1.0000
  C   C257      1.0  0.09036  0.02964  0.96080  1.0000
  H   H442      1.0  0.06130  0.20257  0.78815  1.0000
  H   H443      1.0  0.19129  0.44566  0.95111  1.0000
  H   H444      1.0  0.10583  0.11853  0.92431  1.0000
  H   H445      1.0  0.10363  0.45332  0.95823  1.0000
  H   H446      1.0  0.96730  0.18064  0.88424  1.0000
  C   C258      1.0  0.97142  0.15002  0.97500  1.0000
  H   H447      1.0  0.12872  0.39018  0.78332  1.0000
  H   H448      1.0  0.97724  0.20042  0.90956  1.0000
  H   H449      1.0  0.11470  0.06916  0.82247  1.0000
  C   C259      1.0  0.09836  0.04767  0.97748  1.0000
  C   C260      1.0  0.00953  0.23608  0.75760  1.0000
  H   H450      1.0  0.07591  0.07971  0.95706  1.0000
  C   C261      1.0  0.10906  0.12081  0.95307  1.0000
  C   C262      1.0  0.14775  0.99038  0.97965  1.0000
  H   H451      1.0  0.14861  0.08743  0.94792  1.0000
  H   H452      1.0  0.11278  0.04055  0.98642  1.0000
  H   H453      1.0  0.07543  0.98562  0.95388  1.0000
  C   C263      1.0  0.07376  0.29944  0.76949  1.0000
  H   H454      1.0  0.10893  0.23146  0.81601  1.0000
  H   H455      1.0  0.08560  0.33951  0.78230  1.0000
  H   H456      1.0  0.13777  0.35047  0.79699  1.0000
  H   H457      1.0  0.10132  0.13098  0.96253  1.0000
  N   N16       1.0  0.14245  0.33930  0.83548  1.0000
  C   C264      1.0  0.14550  0.32484  0.81969  1.0000
  C   C265      1.0  0.13550  0.31820  0.85104  1.0000
  C   C266      1.0  0.11958  0.35009  0.83083  1.0000
  C   C267      1.0  0.16927  0.36397  0.84043  1.0000
  C   C268      1.0  0.19611  0.35754  0.84268  1.0000
  C   C269      1.0  0.15477  0.34395  0.80270  1.0000
  C   C270      1.0  0.11245  0.36429  0.84590  1.0000
  C   C271      1.0  0.10599  0.29384  0.84987  1.0000
  C   C272      1.0  0.10273  0.27224  0.86534  1.0000
  C   C273      1.0  0.22174  0.38366  0.84820  1.0000
  C   C274      1.0  0.08829  0.37332  0.83996  1.0000
  H   H458      1.0  0.12528  0.30763  0.81570  1.0000
  H   H459      1.0  0.16016  0.31406  0.82317  1.0000
  H   H460      1.0  0.15091  0.30808  0.85299  1.0000
  H   H461      1.0  0.13768  0.32903  0.86361  1.0000
  H   H462      1.0  0.10006  0.33288  0.82573  1.0000
  H   H463      1.0  0.12546  0.36624  0.81977  1.0000
  H   H464      1.0  0.17282  0.38213  0.83068  1.0000
  H   H465      1.0  0.16773  0.37235  0.85323  1.0000
  H   H466      1.0  0.20045  0.35086  0.83012  1.0000
  H   H467      1.0  0.19409  0.34064  0.85305  1.0000
  H   H468      1.0  0.09819  0.19658  0.80756  1.0000
  H   H469      1.0  0.17379  0.36329  0.80533  1.0000
  H   H470      1.0  0.13070  0.38361  0.84989  1.0000
  H   H471      1.0  0.10623  0.34970  0.85763  1.0000
  H   H472      1.0  0.08942  0.30214  0.85037  1.0000
  H   H473      1.0  0.10209  0.28231  0.83753  1.0000
  H   H474      1.0  0.11758  0.26172  0.86483  1.0000
  H   H475      1.0  0.10670  0.28269  0.87814  1.0000
  H   H476      1.0  0.08109  0.25577  0.86475  1.0000
  H   H477      1.0  0.21867  0.39147  0.86078  1.0000
  H   H478      1.0  0.24043  0.37825  0.85030  1.0000
  H   H479      1.0  0.22576  0.40071  0.83768  1.0000
  H   H480      1.0  0.09381  0.38867  0.82845  1.0000
  H   H481      1.0  0.06904  0.35466  0.83634  1.0000
  H   H482      1.0  0.08399  0.38377  0.85095  1.0000
  H   H483      1.0  0.23455  0.42044  0.78629  1.0000
  H   H484      1.0  0.26777  0.40337  0.77372  1.0000
  C   C275      1.0  0.97741  0.22704  0.81049  1.0000
  H   H485      1.0  0.98286  0.20398  0.94205  1.0000
  H   H486      1.0  0.19724  0.09095  0.95279  1.0000
  H   H487      1.0  0.20543  0.39297  0.77514  1.0000
  H   H488      1.0  0.05802  0.21034  0.81018  1.0000
  C   C276      1.0  0.15273  0.46914  0.94049  1.0000
  H   H489      1.0  0.11413  0.22720  0.79333  1.0000
  H   H490      1.0  0.32294  0.23503  0.96713  1.0000
  H   H491      1.0  0.97902  0.04505  0.85666  1.0000
  C   C277      1.0  0.14533  0.18262  0.97960  1.0000
  H   H492      1.0  0.17936  0.32290  0.79294  1.0000
  H   H493      1.0  0.08824  0.25557  0.78184  1.0000
  H   H494      1.0  0.08202  0.26225  0.80332  1.0000
  H   H495      1.0  0.02832  0.20779  0.84934  1.0000
  C   C278      1.0  0.10271  0.44706  0.89045  1.0000
  H   H496      1.0  0.14552  0.10137  0.82494  1.0000
  H   H497      1.0  0.19885  0.41034  0.93360  1.0000
  S   S62       1.0  0.00465  0.16883  0.82151  1.0000
  Fe  Fe28      1.0  0.00227  0.13634  0.80218  1.0000
  H   H498      1.0  0.98637  0.22447  0.82405  1.0000
  H   H499      1.0  0.09052  0.20134  0.76560  1.0000
  H   H500      1.0  0.14512  0.00482  0.96925  1.0000
  H   H501      1.0  0.14268  0.30835  0.78537  1.0000
  H   H502      1.0  0.10427  0.07945  0.94601  1.0000
  C   C279      1.0  0.07953  0.99802  0.96592  1.0000
  C   C280      1.0  0.98933  0.03650  0.84780  1.0000
  H   H503      1.0  0.22746  0.43883  0.92349  1.0000
  C   C281      1.0  0.09922  0.08850  0.95736  1.0000
  H   H504      1.0  0.13220  0.13123  0.95342  1.0000
  H   H505      1.0  0.24566  0.43757  0.75591  1.0000
  C   C282      1.0  0.22717  0.39890  0.78109  1.0000
  N   N17       1.0  0.11079  0.07964  0.97469  1.0000
  H   H506      1.0  0.07861  0.04061  0.98441  1.0000
  H   H507      1.0  0.03197  0.28508  0.77773  1.0000
  C   C283      1.0  0.05071  0.98480  0.78461  1.0000
  C   C284      1.0  0.12476  0.44447  0.90440  1.0000
  H   H508      1.0  0.19921  0.46664  0.79613  1.0000
  H   H509      1.0  0.16766  0.47328  0.95240  1.0000
  C   C285      1.0  0.14929  0.47353  0.90735  1.0000
  H   H510      1.0  0.97492  0.15998  0.93880  1.0000
  C   C286      1.0  0.15596  0.08233  0.96137  1.0000
  C   C287      1.0  0.16663  0.17216  0.98184  1.0000
  C   C288      1.0  0.96642  0.20925  0.93436  1.0000
  H   H511      1.0  0.14403  0.39376  0.75294  1.0000
  C   C289      1.0  0.12228  0.09228  0.82430  1.0000
  C   C290      1.0  0.05120  0.28169  0.78247  1.0000
  H   H512      1.0  0.28990  0.45179  0.77367  1.0000
  H   H513      1.0  0.27349  0.38467  0.74516  1.0000
  H   H514      1.0  0.08660  0.42571  0.88761  1.0000
  H   H515      1.0  0.16395  0.43175  0.92270  1.0000
  C   C291      1.0  0.29960  0.46318  0.76146  1.0000
  H   H516      1.0  0.01915  0.99645  0.81874  1.0000
  C   C292      1.0  0.14232  0.09088  0.97592  1.0000
  H   H517      1.0  0.11402  0.43529  0.91667  1.0000
  H   H518      1.0  0.10446  0.15005  0.93214  1.0000
  C   C293      1.0  0.07839  0.33070  0.76899  1.0000
  H   H519      1.0  0.00906  0.26806  0.80494  1.0000
  H   H520      1.0  0.05397  0.24558  0.75805  1.0000
  C   C294      1.0  0.18062  0.45347  0.92301  1.0000
  C   C295      1.0  0.03700  0.23622  0.76726  1.0000
  C   C296      1.0  0.97815  0.24133  0.93094  1.0000
  H   H521      1.0  0.00941  0.25758  0.75604  1.0000
  C   C297      1.0  0.11814  0.47589  0.95914  1.0000
  N   N18       1.0  0.16833  0.47543  0.92387  1.0000
  H   H522      1.0  0.11236  0.45717  0.87795  1.0000
  H   H523      1.0  0.05972  0.99128  0.97263  1.0000
  H   H524      1.0  0.15133  0.11429  0.97629  1.0000
  H   H525      1.0  0.30750  0.42754  0.75462  1.0000
  H   H526      1.0  0.98393  0.15781  0.91754  1.0000
  C   C298      1.0  0.00025  0.24704  0.79892  1.0000
  C   C299      1.0  0.29816  0.44185  0.74758  1.0000
  C   C300      1.0  0.10206  0.09202  0.98936  1.0000
  H   H527      1.0  0.09510  0.99304  0.97495  1.0000
  H   H528      1.0  0.11155  0.11554  0.98840  1.0000
  H   H529      1.0  0.09230  0.46001  0.89529  1.0000
  C   C301      1.0  0.97982  0.17742  0.98091  1.0000
  H   H530      1.0  0.00121  0.98461  0.76091  1.0000
  C   C302      1.0  0.97945  0.10874  0.93425  1.0000
  H   H531      1.0  0.05881  0.33352  0.76429  1.0000
  C   C303      1.0  0.20192  0.45272  0.93857  1.0000
  H   H532      1.0  0.99070  0.10981  0.92237  1.0000
  H   H533      1.0  0.07894  0.08591  0.98809  1.0000
  C   C304      1.0  0.21519  0.43196  0.93542  1.0000
  H   H534      1.0  0.19115  0.45665  0.91044  1.0000
  H   H535      1.0  0.22958  0.43111  0.94697  1.0000
  H   H536      1.0  0.30707  0.16912  0.99131  1.0000
  H   H537      1.0  0.97114  0.08646  0.93950  1.0000
  H   H538      1.0  0.11373  0.18966  0.99250  1.0000
  H   H539      1.0  0.28853  0.47698  0.75659  1.0000
  H   H540      1.0  0.35083  0.22235  0.99200  1.0000
  S   S63       1.0  0.07262  0.96794  0.18106  1.0000
  H   H541      1.0  0.01727  0.84036  0.03097  1.0000
  H   H542      1.0  0.96853  0.93020  0.16922  1.0000
  C   C305      1.0  0.15547  0.95296  0.00595  1.0000
  C   C306      1.0  0.99851  0.81465  0.05428  1.0000
  H   H543      1.0  0.98635  0.88123  0.18100  1.0000
  H   H544      1.0  0.23452  0.92541  0.01777  1.0000
  H   H545      1.0  0.05395  0.95942  0.21686  1.0000
  C   C307      1.0  0.21454  0.90836  0.01319  1.0000
  C   C308      1.0  0.99679  0.89901  0.20670  1.0000
  C   C309      1.0  0.00092  0.89827  0.18883  1.0000
  C   C310      1.0  0.02444  0.91926  0.18122  1.0000
  C   C311      1.0  0.04348  0.94175  0.19117  1.0000
  C   C312      1.0  0.03918  0.94259  0.20895  1.0000
  C   C313      1.0  0.01629  0.92110  0.21669  1.0000
  H   H546      1.0  0.97579  0.84058  0.04564  1.0000
  H   H547      1.0  0.02783  0.91815  0.16751  1.0000
  H   H548      1.0  0.18898  0.85532  0.99844  1.0000
  H   H549      1.0  0.00047  0.80278  0.02759  1.0000
  H   H550      1.0  0.19797  0.91703  0.01173  1.0000
  H   H551      1.0  0.98584  0.82853  0.08634  1.0000
  H   H552      1.0  0.15878  0.93862  0.01619  1.0000
  C   C314      1.0  0.96749  0.83267  0.08024  1.0000
  H   H553      1.0  0.01395  0.92150  0.23057  1.0000
  H   H554      1.0  0.03374  0.81699  0.04007  1.0000
  H   H555      1.0  0.99552  0.79324  0.05988  1.0000
  C   C315      1.0  0.01332  0.81900  0.03717  1.0000
  H   H556      1.0  0.98149  0.93782  0.24086  1.0000
  H   H557      1.0  0.01261  0.83045  0.06370  1.0000
  H   H558      1.0  0.97723  0.87479  0.10428  1.0000
  H   H559      1.0  0.01351  0.97740  0.22003  1.0000
  S   S64       1.0  0.96808  0.87279  0.21727  1.0000
  C   C316      1.0  0.02537  0.97461  0.13526  1.0000
  H   H560      1.0  0.20895  0.89073  0.02337  1.0000
  H   H561      1.0  0.23534  0.89084  0.99732  1.0000
  H   H562      1.0  0.97669  0.85462  0.07442  1.0000
  H   H563      1.0  0.00685  0.96019  0.12740  1.0000
  H   H564      1.0  0.98464  0.84608  0.11575  1.0000
  H   H565      1.0  0.97701  0.94395  0.19108  1.0000
  C   C317      1.0  0.97033  0.81829  0.05064  1.0000
  H   H566      1.0  0.00924  0.95724  0.16035  1.0000
  C   C318      1.0  0.96777  0.85278  0.10989  1.0000
  C   C319      1.0  0.21783  0.89815  0.99547  1.0000
  H   H567      1.0  0.04140  0.96525  0.13691  1.0000
  C   C320      1.0  0.01732  0.97820  0.15348  1.0000
  Fe  Fe29      1.0  0.10170  0.54365  0.44210  1.0000
  S   S65       1.0  0.11445  0.53527  0.47052  1.0000
  S   S66       1.0  0.06711  0.50855  0.42635  1.0000
  Fe  Fe30      1.0  0.14647  0.60438  0.44173  1.0000
  S   S67       1.0  0.16083  0.60094  0.47000  1.0000
  S   S68       1.0  0.16391  0.64408  0.42403  1.0000
  Fe  Fe31      1.0  0.15915  0.55845  0.46342  1.0000
  S   S69       1.0  0.19586  0.55002  0.47732  1.0000
  Fe  Fe32      1.0  0.11541  0.57817  0.47497  1.0000
  S   S70       1.0  0.14677  0.56285  0.43455  1.0000
  S   S71       1.0  0.10061  0.58562  0.44704  1.0000
  Fe  Fe33      1.0  0.38178  0.81708  0.43488  1.0000
  S   S72       1.0  0.38976  0.80505  0.46336  1.0000
  S   S73       1.0  0.41934  0.85362  0.42319  1.0000
  Fe  Fe34      1.0  0.32235  0.76928  0.43362  1.0000
  S   S74       1.0  0.32666  0.75543  0.46183  1.0000
  S   S75       1.0  0.28152  0.74831  0.41706  1.0000
  Fe  Fe35      1.0  0.34651  0.80170  0.46709  1.0000
  Fe  Fe36      1.0  0.36945  0.75983  0.45556  1.0000
  S   S76       1.0  0.38293  0.72611  0.46905  1.0000
  S   S77       1.0  0.33917  0.81583  0.43905  1.0000
  S   S78       1.0  0.36441  0.77137  0.42672  1.0000
  H   H568      1.0  0.40476  0.49857  0.47746  1.0000
  H   H569      1.0  0.38651  0.58175  0.35327  1.0000
  Fe  Fe37      1.0  0.38493  0.52844  0.43787  1.0000
  S   S79       1.0  0.41542  0.56630  0.45205  1.0000
  S   S80       1.0  0.39299  0.49396  0.42455  1.0000
  Fe  Fe38      1.0  0.33406  0.53982  0.44833  1.0000
  S   S81       1.0  0.36079  0.57758  0.46402  1.0000
  S   S82       1.0  0.28810  0.52690  0.43921  1.0000
  Fe  Fe39      1.0  0.38821  0.58940  0.44122  1.0000
  S   S83       1.0  0.40147  0.63286  0.42758  1.0000
  Fe  Fe40      1.0  0.38573  0.55158  0.47392  1.0000
  H   H570      1.0  0.38569  0.88856  0.41856  1.0000
  S   S84       1.0  0.36041  0.55292  0.42495  1.0000
  S   S85       1.0  0.35637  0.51237  0.46031  1.0000
  C   C321      1.0  0.38125  0.56366  0.34463  1.0000
  H   H571      1.0  0.30107  0.64297  0.48715  1.0000
  H   H572      1.0  0.98655  0.53644  0.41194  1.0000
  C   C322      1.0  0.42007  0.49499  0.41155  1.0000
  H   H573      1.0  0.06324  0.50271  0.35828  1.0000
  C   C323      1.0  0.46208  0.49418  0.39052  1.0000
  H   H574      1.0  0.35343  0.48250  0.36616  1.0000
  C   C324      1.0  0.17597  0.60615  0.38878  1.0000
  C   C325      1.0  0.38925  0.70121  0.45722  1.0000
  C   C326      1.0  0.39084  0.67718  0.46643  1.0000
  C   C327      1.0  0.39457  0.65619  0.45745  1.0000
  C   C328      1.0  0.39740  0.65933  0.43920  1.0000
  C   C329      1.0  0.39664  0.68377  0.43004  1.0000
  C   C330      1.0  0.39234  0.70456  0.43898  1.0000
  H   H575      1.0  0.38907  0.67470  0.48059  1.0000
  H   H576      1.0  0.39586  0.63787  0.46474  1.0000
  H   H577      1.0  0.39908  0.68649  0.41595  1.0000
  H   H578      1.0  0.39156  0.72322  0.43180  1.0000
  C   C331      1.0  0.22185  0.54503  0.46617  1.0000
  C   C332      1.0  0.24819  0.55013  0.47501  1.0000
  C   C333      1.0  0.26900  0.54531  0.46681  1.0000
  C   C334      1.0  0.26339  0.53487  0.44979  1.0000
  C   C335      1.0  0.23711  0.52993  0.44094  1.0000
  C   C336      1.0  0.21645  0.53507  0.44905  1.0000
  H   H579      1.0  0.40062  0.56388  0.33960  1.0000
  H   H580      1.0  0.28913  0.54910  0.47377  1.0000
  S   S86       1.0  0.33522  0.82315  0.48838  1.0000
  C   C337      1.0  0.99430  0.51987  0.41161  1.0000
  C   C338      1.0  0.19768  0.67195  0.42346  1.0000
  C   C339      1.0  0.20240  0.69091  0.40877  1.0000
  C   C340      1.0  0.22817  0.71374  0.40725  1.0000
  C   C341      1.0  0.24995  0.71836  0.42039  1.0000
  C   C342      1.0  0.24562  0.69940  0.43523  1.0000
  C   C343      1.0  0.21939  0.67627  0.43681  1.0000
  H   H581      1.0  0.18592  0.68802  0.39843  1.0000
  H   H582      1.0  0.23119  0.72812  0.39575  1.0000
  H   H583      1.0  0.26234  0.70264  0.44543  1.0000
  H   H584      1.0  0.21585  0.66210  0.44839  1.0000
  H   H585      1.0  0.38563  0.88331  0.49220  1.0000
  H   H586      1.0  0.45045  0.78970  0.49267  1.0000
  C   C344      1.0  0.42656  0.88936  0.41544  1.0000
  C   C345      1.0  0.40652  0.90126  0.41455  1.0000
  C   C346      1.0  0.31850  0.63752  0.48363  1.0000
  H   H587      1.0  0.27630  0.79403  0.44019  1.0000
  H   H588      1.0  0.28281  0.81627  0.45886  1.0000
  H   H589      1.0  0.28303  0.77522  0.47668  1.0000
  C   C347      1.0  0.02117  0.52396  0.41955  1.0000
  C   C348      1.0  0.03196  0.50316  0.41873  1.0000
  H   H590      1.0  0.44656  0.53875  0.41508  1.0000
  C   C349      1.0  0.36516  0.53566  0.35494  1.0000
  H   H591      1.0  0.03379  0.54349  0.42590  1.0000
  H   H592      1.0  0.38913  0.50806  0.33609  1.0000
  H   H593      1.0  0.34365  0.56895  0.33295  1.0000
  C   C350      1.0  0.44016  0.94648  0.40261  1.0000
  C   C351      1.0  0.42707  0.50124  0.34183  1.0000
  H   H594      1.0  0.02942  0.48890  0.36742  1.0000
  C   C352      1.0  0.39125  0.54681  0.38439  1.0000
  H   H595      1.0  0.25422  0.81278  0.44265  1.0000
  C   C353      1.0  0.26290  0.75961  0.47113  1.0000
  H   H596      1.0  0.45519  0.97042  0.43792  1.0000
  C   C354      1.0  0.99114  0.91379  0.26305  1.0000
  H   H597      1.0  0.19614  0.53068  0.44221  1.0000
  H   H598      1.0  0.40885  0.60206  0.39615  1.0000
  C   C355      1.0  0.24671  0.77605  0.46058  1.0000
  H   H599      1.0  0.37533  0.55577  0.38589  1.0000
  H   H600      1.0  0.39279  0.53548  0.39727  1.0000
  H   H601      1.0  0.40643  0.89320  0.45462  1.0000
  H   H602      1.0  0.38713  0.47997  0.35237  1.0000
  H   H603      1.0  0.35500  0.51871  0.34529  1.0000
  H   H604      1.0  0.43841  0.49414  0.35299  1.0000
  H   H605      1.0  0.37422  0.95864  0.45126  1.0000
  H   H606      1.0  0.45054  0.51659  0.45138  1.0000
  C   C356      1.0  0.46024  0.93462  0.40355  1.0000
  H   H607      1.0  0.23567  0.78371  0.46942  1.0000
  H   H608      1.0  0.37498  0.48858  0.38617  1.0000
  H   H609      1.0  0.26741  0.71050  0.48071  1.0000
  C   C357      1.0  0.21980  0.71896  0.47642  1.0000
  C   C358      1.0  0.97518  0.93142  0.25462  1.0000
  C   C359      1.0  0.41848  0.86872  0.48733  1.0000
  C   C360      1.0  0.01623  0.50160  0.46912  1.0000
  N   N19       1.0  0.09419  0.58082  0.38204  1.0000
  C   C361      1.0  0.08729  0.54978  0.38004  1.0000
  C   C362      1.0  0.12405  0.59483  0.38962  1.0000
  C   C363      1.0  0.07543  0.58286  0.39547  1.0000
  C   C364      1.0  0.08947  0.59582  0.36493  1.0000
  C   C365      1.0  0.09505  0.58546  0.34750  1.0000
  C   C366      1.0  0.05604  0.53143  0.37506  1.0000
  C   C367      1.0  0.08148  0.61303  0.40143  1.0000
  C   C368      1.0  0.14734  0.59419  0.37860  1.0000
  C   C369      1.0  0.44403  0.51951  0.40896  1.0000
  C   C370      1.0  0.09577  0.60635  0.33198  1.0000
  H   H610      1.0  0.26886  0.74862  0.46112  1.0000
  C   C371      1.0  0.05772  0.61322  0.41174  1.0000
  H   H611      1.0  0.09323  0.54031  0.39267  1.0000
  H   H612      1.0  0.09982  0.54653  0.37006  1.0000
  H   H613      1.0  0.12955  0.61766  0.39151  1.0000
  H   H614      1.0  0.12629  0.58535  0.40304  1.0000
  H   H615      1.0  0.07651  0.56967  0.40765  1.0000
  H   H616      1.0  0.05317  0.57407  0.39021  1.0000
  H   H617      1.0  0.06742  0.59417  0.36315  1.0000
  H   H618      1.0  0.10239  0.61894  0.36553  1.0000
  H   H619      1.0  0.07819  0.56484  0.34410  1.0000
  H   H620      1.0  0.11494  0.58240  0.34840  1.0000
  H   H621      1.0  0.04329  0.52886  0.38641  1.0000
  H   H622      1.0  0.04726  0.54121  0.36391  1.0000
  H   H623      1.0  0.08407  0.62823  0.38993  1.0000
  H   H624      1.0  0.10086  0.62068  0.41035  1.0000
  H   H625      1.0  0.14369  0.57243  0.37518  1.0000
  H   H626      1.0  0.14887  0.60778  0.36639  1.0000
  H   H627      1.0  0.41790  0.51566  0.37397  1.0000
  H   H628      1.0  0.98554  0.89416  0.25573  1.0000
  H   H629      1.0  0.37569  0.86397  0.46184  1.0000
  H   H630      1.0  0.11331  0.62711  0.33425  1.0000
  H   H631      1.0  0.09891  0.59805  0.31962  1.0000
  H   H632      1.0  0.07573  0.60940  0.33017  1.0000
  C   C372      1.0  0.20165  0.69278  0.48767  1.0000
  C   C373      1.0  0.40656  0.52284  0.36281  1.0000
  C   C374      1.0  0.26631  0.80135  0.44997  1.0000
  H   H633      1.0  0.05451  0.59840  0.42352  1.0000
  H   H634      1.0  0.06306  0.63482  0.41635  1.0000
  H   H635      1.0  0.03791  0.60703  0.40323  1.0000
  N   N20       1.0  0.29889  0.63628  0.43279  1.0000
  C   C375      1.0  0.29852  0.66047  0.42036  1.0000
  C   C376      1.0  0.26918  0.61477  0.43353  1.0000
  C   C377      1.0  0.31107  0.64760  0.45075  1.0000
  C   C378      1.0  0.31643  0.62208  0.42632  1.0000
  C   C379      1.0  0.31025  0.61396  0.40667  1.0000
  C   C380      1.0  0.32742  0.68433  0.41710  1.0000
  C   C381      1.0  0.31213  0.62520  0.46530  1.0000
  C   C382      1.0  0.24974  0.62279  0.44436  1.0000
  C   C383      1.0  0.21911  0.60821  0.43772  1.0000
  C   C384      1.0  0.32568  0.59575  0.40230  1.0000
  C   C385      1.0  0.32505  0.70472  0.40197  1.0000
  H   H636      1.0  0.34754  0.53873  0.36041  1.0000
  H   H637      1.0  0.28585  0.67099  0.42538  1.0000
  H   H638      1.0  0.28776  0.65250  0.40734  1.0000
  H   H639      1.0  0.25919  0.61032  0.41990  1.0000
  H   H640      1.0  0.26854  0.59386  0.43902  1.0000
  H   H641      1.0  0.29996  0.66002  0.45545  1.0000
  H   H642      1.0  0.33308  0.66298  0.44994  1.0000
  H   H643      1.0  0.33915  0.63545  0.42836  1.0000
  H   H644      1.0  0.31365  0.60230  0.43445  1.0000
  H   H645      1.0  0.31719  0.63322  0.39777  1.0000
  H   H646      1.0  0.28762  0.60172  0.40360  1.0000
  H   H647      1.0  0.33590  0.69683  0.42912  1.0000
  H   H648      1.0  0.34265  0.67583  0.41359  1.0000
  H   H649      1.0  0.32890  0.61795  0.46291  1.0000
  H   H650      1.0  0.29216  0.60646  0.46554  1.0000
  H   H651      1.0  0.25189  0.61628  0.45851  1.0000
  H   H652      1.0  0.25487  0.64579  0.44369  1.0000
  H   H653      1.0  0.21544  0.61706  0.42439  1.0000
  H   H654      1.0  0.21306  0.58512  0.43706  1.0000
  H   H655      1.0  0.20561  0.61181  0.44687  1.0000
  H   H656      1.0  0.34858  0.60693  0.40523  1.0000
  H   H657      1.0  0.31803  0.57537  0.41014  1.0000
  H   H658      1.0  0.32173  0.59111  0.38804  1.0000
  H   H659      1.0  0.31048  0.71448  0.40500  1.0000
  H   H660      1.0  0.34593  0.72187  0.40017  1.0000
  H   H661      1.0  0.31747  0.69355  0.38940  1.0000
  H   H662      1.0  0.02806  0.49965  0.45820  1.0000
  C   C386      1.0  0.97750  0.49472  0.40310  1.0000
  N   N21       1.0  0.38175  0.52636  0.36950  1.0000
  H   H663      1.0  0.35786  0.55131  0.31918  1.0000
  H   H664      1.0  0.19222  0.60513  0.38070  1.0000
  H   H665      1.0  0.20628  0.73073  0.47204  1.0000
  H   H666      1.0  0.34451  0.51181  0.39767  1.0000
  H   H667      1.0  0.23257  0.52170  0.42781  1.0000
  H   H668      1.0  0.22365  0.71094  0.46416  1.0000
  C   C387      1.0  0.40290  0.88894  0.48321  1.0000
  H   H669      1.0  0.43722  0.56373  0.38569  1.0000
  H   H670      1.0  0.23088  0.76204  0.45094  1.0000
  C   C388      1.0  0.46487  0.51909  0.39848  1.0000
  C   C389      1.0  0.17252  0.67804  0.47849  1.0000
  C   C390      1.0  0.41329  0.92954  0.40813  1.0000
  H   H671      1.0  0.46175  0.92568  0.48285  1.0000
  C   C391      1.0  0.38990  0.88624  0.46422  1.0000
  H   H672      1.0  0.39743  0.93824  0.40718  1.0000
  C   C392      1.0  0.45346  0.90631  0.40992  1.0000
  H   H673      1.0  0.18163  0.62863  0.39172  1.0000
  H   H674      1.0  0.37498  0.58892  0.32175  1.0000
  H   H675      1.0  0.17597  0.59373  0.40137  1.0000
  H   H676      1.0  0.43038  0.86973  0.47565  1.0000
  H   H677      1.0  0.33815  0.65683  0.48403  1.0000
  H   H678      1.0  0.01762  0.48702  0.48037  1.0000
  H   H679      1.0  0.16110  0.69236  0.47698  1.0000
  H   H680      1.0  0.98630  0.90799  0.27709  1.0000
  H   H681      1.0  0.39617  0.94367  0.44225  1.0000
  H   H682      1.0  0.32264  0.50282  0.37750  1.0000
  H   H683      1.0  0.44165  0.83238  0.48334  1.0000
  H   H684      1.0  0.40134  0.84726  0.48757  1.0000
  C   C393      1.0  0.05206  0.50176  0.37022  1.0000
  H   H685      1.0  0.42201  0.48617  0.33108  1.0000
  C   C394      1.0  0.36270  0.49776  0.37685  1.0000
  C   C395      1.0  0.33757  0.49710  0.38668  1.0000
  C   C396      1.0  0.36323  0.56838  0.32867  1.0000
  H   H686      1.0  0.98548  0.51109  0.45225  1.0000
  H   H687      1.0  0.17409  0.67125  0.46522  1.0000
  H   H688      1.0  0.97494  0.49758  0.47404  1.0000
  H   H689      1.0  0.44583  0.61004  0.39726  1.0000
  H   H690      1.0  0.02624  0.52362  0.47365  1.0000
  C   C397      1.0  0.38698  0.95987  0.44005  1.0000
  H   H691      1.0  0.37746  0.89952  0.46191  1.0000
  C   C398      1.0  0.40010  0.50186  0.34781  1.0000
  C   C399      1.0  0.42027  0.57178  0.38352  1.0000
  H   H692      1.0  0.42214  0.54328  0.35791  1.0000
  H   H693      1.0  0.42361  0.58191  0.41125  1.0000
  H   H694      1.0  0.25250  0.55768  0.48830  1.0000
  H   H695      1.0  0.41672  0.91139  0.48497  1.0000
  H   H696      1.0  0.05995  0.49115  0.38143  1.0000
  N   N22       1.0  0.24716  0.73857  0.48524  1.0000
  H   H697      1.0  0.16014  0.65895  0.48651  1.0000
  H   H698      1.0  0.98212  0.95094  0.26201  1.0000
  H   H699      1.0  0.21127  0.67690  0.48933  1.0000
  C   C400      1.0  0.98565  0.49497  0.46281  1.0000
  H   H700      1.0  0.42285  0.58364  0.37062  1.0000
  C   C401      1.0  0.42482  0.59265  0.39792  1.0000
  H   H701      1.0  0.01402  0.92623  0.26263  1.0000
  C   C402      1.0  0.26373  0.72106  0.49196  1.0000
  H   H702      1.0  0.44101  0.52251  0.33679  1.0000
  H   H703      1.0  0.37302  0.95511  0.42773  1.0000
  C   C403      1.0  0.32068  0.92718  0.59356  1.0000
  C   C404      1.0  0.44439  0.59988  0.59096  1.0000
  Fe  Fe41      1.0  0.18212  0.75836  0.68142  1.0000
  S   S87       1.0  0.16716  0.71387  0.69340  1.0000
  S   S88       1.0  0.21711  0.76528  0.66278  1.0000
  Fe  Fe42      1.0  0.13876  0.77053  0.70113  1.0000
  S   S89       1.0  0.12125  0.72686  0.71395  1.0000
  S   S90       1.0  0.12270  0.80524  0.70502  1.0000
  Fe  Fe43      1.0  0.16616  0.73242  0.71894  1.0000
  Fe  Fe44      1.0  0.12343  0.71129  0.68727  1.0000
  S   S91       1.0  0.08735  0.67012  0.67896  1.0000
  S   S92       1.0  0.18420  0.77719  0.70770  1.0000
  S   S93       1.0  0.13777  0.75471  0.67380  1.0000
  Fe  Fe45      1.0  0.38190  0.84484  0.58898  1.0000
  S   S94       1.0  0.42567  0.87485  0.59690  1.0000
  S   S95       1.0  0.37656  0.81239  0.56885  1.0000
  Fe  Fe46      1.0  0.35527  0.86830  0.61483  1.0000
  S   S96       1.0  0.39741  0.90102  0.62368  1.0000
  S   S97       1.0  0.31754  0.86906  0.62784  1.0000
  Fe  Fe47      1.0  0.40748  0.90824  0.59505  1.0000
  Fe  Fe48      1.0  0.41200  0.86512  0.62472  1.0000
  S   S98       1.0  0.43359  0.85684  0.65067  1.0000
  S   S99       1.0  0.36397  0.87803  0.58597  1.0000
  S   S100      1.0  0.36953  0.83241  0.61704  1.0000
  C   C405      1.0  0.24095  0.75243  0.50026  1.0000
  S   S101      1.0  0.01742  0.51371  0.62629  1.0000
  H   H704      1.0  0.25747  0.76285  0.70496  1.0000
  Fe  Fe49      1.0  0.04724  0.50211  0.58427  1.0000
  S   S102      1.0  0.02412  0.53050  0.58434  1.0000
  C   C406      1.0  0.15222  0.51263  0.56125  1.0000
  Fe  Fe50      1.0  0.04957  0.54625  0.60984  1.0000
  S   S103      1.0  0.07316  0.59378  0.61336  1.0000
  H   H705      1.0  0.09952  0.77082  0.73693  1.0000
  S   S104      1.0  0.07520  0.52016  0.60841  1.0000
  C   C407      1.0  0.39375  0.62536  0.58382  1.0000
  S   S105      1.0  0.38072  0.52957  0.62406  1.0000
  S   S106      1.0  0.42358  0.51843  0.59948  1.0000
  Fe  Fe51      1.0  0.42401  0.53039  0.62768  1.0000
  H   H706      1.0  0.40617  0.64671  0.55822  1.0000
  Fe  Fe52      1.0  0.37894  0.51439  0.59702  1.0000
  S   S107      1.0  0.35580  0.52967  0.57467  1.0000
  H   H707      1.0  0.44532  0.48996  0.52791  1.0000
  H   H708      1.0  0.22088  0.75527  0.49723  1.0000
  H   H709      1.0  0.05481  0.86192  0.70701  1.0000
  C   C408      1.0  0.30870  0.71775  0.50575  1.0000
  H   H710      1.0  0.44196  0.90367  0.56214  1.0000
  C   C409      1.0  0.98535  0.72655  0.70218  1.0000
  H   H711      1.0  0.42592  0.60712  0.68406  1.0000
  C   C410      1.0  0.18197  0.56794  0.52363  1.0000
  H   H712      1.0  0.25328  0.53576  0.55612  1.0000
  H   H713      1.0  0.00071  0.85195  0.72472  1.0000
  S   S108      1.0  0.42601  0.94789  0.57656  1.0000
  H   H714      1.0  0.46367  0.90155  0.53577  1.0000
  H   H715      1.0  0.26063  0.79458  0.69205  1.0000
  C   C411      1.0  0.08404  0.64914  0.66071  1.0000
  C   C412      1.0  0.10189  0.65891  0.64687  1.0000
  C   C413      1.0  0.09837  0.64155  0.63259  1.0000
  C   C414      1.0  0.07725  0.61413  0.63206  1.0000
  C   C415      1.0  0.05938  0.60432  0.64590  1.0000
  C   C416      1.0  0.06266  0.62184  0.66007  1.0000
  H   H716      1.0  0.11822  0.67997  0.64709  1.0000
  H   H717      1.0  0.11207  0.64949  0.62183  1.0000
  H   H718      1.0  0.04286  0.58340  0.64560  1.0000
  H   H719      1.0  0.04863  0.61416  0.67066  1.0000
  C   C417      1.0  0.24473  0.79469  0.65320  1.0000
  C   C418      1.0  0.26283  0.78941  0.64259  1.0000
  C   C419      1.0  0.28514  0.81181  0.63478  1.0000
  C   C420      1.0  0.28972  0.83994  0.63744  1.0000
  C   C421      1.0  0.27164  0.84526  0.64803  1.0000
  C   C422      1.0  0.24939  0.82284  0.65592  1.0000
  H   H720      1.0  0.25946  0.76778  0.64033  1.0000
  H   H721      1.0  0.29862  0.80729  0.62656  1.0000
  H   H722      1.0  0.27486  0.86689  0.65018  1.0000
  H   H723      1.0  0.23573  0.82734  0.66401  1.0000
  C   C423      1.0  0.10455  0.80993  0.72254  1.0000
  H   H724      1.0  0.26300  0.79838  0.49490  1.0000
  C   C424      1.0  0.09565  0.79000  0.73661  1.0000
  H   H725      1.0  0.37647  0.96672  0.56856  1.0000
  H   H726      1.0  0.40345  0.86616  0.52073  1.0000
  H   H727      1.0  0.21219  0.54894  0.55554  1.0000
  C   C425      1.0  0.29215  0.73662  0.50234  1.0000
  H   H728      1.0  0.34432  0.84123  0.65506  1.0000
  H   H729      1.0  0.43788  0.60763  0.57801  1.0000
  C   C426      1.0  0.39386  0.54902  0.52091  1.0000
  C   C427      1.0  0.41118  0.55330  0.53661  1.0000
  C   C428      1.0  0.39965  0.54766  0.55315  1.0000
  C   C429      1.0  0.37077  0.53841  0.55410  1.0000
  C   C430      1.0  0.35352  0.53558  0.53842  1.0000
  C   C431      1.0  0.36500  0.54058  0.52182  1.0000
  H   H730      1.0  0.43356  0.56024  0.53598  1.0000
  H   H731      1.0  0.18041  0.50269  0.53783  1.0000
  H   H732      1.0  0.35152  0.53735  0.50978  1.0000
  C   C432      1.0  0.34700  0.82009  0.51063  1.0000
  C   C433      1.0  0.35874  0.80047  0.51619  1.0000
  C   C434      1.0  0.36766  0.79833  0.53409  1.0000
  C   C435      1.0  0.36526  0.81601  0.54650  1.0000
  C   C436      1.0  0.35361  0.83574  0.54089  1.0000
  C   C437      1.0  0.34430  0.83759  0.52304  1.0000
  H   H733      1.0  0.36084  0.78684  0.50673  1.0000
  H   H734      1.0  0.37655  0.78295  0.53836  1.0000
  H   H735      1.0  0.35148  0.84931  0.55035  1.0000
  H   H736      1.0  0.33511  0.85273  0.51881  1.0000
  C   C438      1.0  0.06990  0.51938  0.54248  1.0000
  C   C439      1.0  0.07787  0.54775  0.54638  1.0000
  C   C440      1.0  0.08640  0.56903  0.53288  1.0000
  C   C441      1.0  0.08702  0.56205  0.51546  1.0000
  C   C442      1.0  0.07819  0.53362  0.51151  1.0000
  C   C443      1.0  0.06988  0.51239  0.52500  1.0000
  H   H737      1.0  0.07799  0.55332  0.55985  1.0000
  H   H738      1.0  0.09300  0.59098  0.53600  1.0000
  C   C444      1.0  0.99010  0.57590  0.60169  1.0000
  H   H739      1.0  0.23012  0.55989  0.53546  1.0000
  N   N23       1.0  0.14956  0.61908  0.67878  1.0000
  C   C445      1.0  0.12259  0.59553  0.67261  1.0000
  C   C446      1.0  0.14375  0.63736  0.69134  1.0000
  C   C447      1.0  0.16172  0.63741  0.66268  1.0000
  C   C448      1.0  0.17089  0.60814  0.68719  1.0000
  C   C449      1.0  0.16168  0.58671  0.70307  1.0000
  C   C450      1.0  0.12491  0.57551  0.65910  1.0000
  C   C451      1.0  0.18888  0.66416  0.66620  1.0000
  C   C452      1.0  0.11922  0.62274  0.70354  1.0000
  C   C453      1.0  0.11977  0.64238  0.71784  1.0000
  C   C454      1.0  0.18377  0.57464  0.70886  1.0000
  C   C455      1.0  0.09693  0.55058  0.65578  1.0000
  C   C456      1.0  0.19524  0.68448  0.64994  1.0000
  H   H740      1.0  0.10772  0.60473  0.66644  1.0000
  H   H741      1.0  0.11183  0.58189  0.68387  1.0000
  H   H742      1.0  0.16290  0.64886  0.69991  1.0000
  H   H743      1.0  0.13841  0.65418  0.68376  1.0000
  H   H744      1.0  0.14581  0.64434  0.65548  1.0000
  H   H745      1.0  0.16703  0.62530  0.65312  1.0000
  H   H746      1.0  0.17832  0.59859  0.67712  1.0000
  H   H747      1.0  0.18997  0.62600  0.69218  1.0000
  H   H748      1.0  0.14183  0.56858  0.69981  1.0000
  H   H749      1.0  0.15926  0.59744  0.71455  1.0000
  H   H750      1.0  0.13071  0.58685  0.64612  1.0000
  H   H751      1.0  0.14057  0.56661  0.66395  1.0000
  H   H752      1.0  0.20699  0.65800  0.66941  1.0000
  H   H753      1.0  0.18746  0.67611  0.67732  1.0000
  H   H754      1.0  0.09894  0.61719  0.69555  1.0000
  H   H755      1.0  0.11963  0.60309  0.71024  1.0000
  H   H756      1.0  0.40108  0.66213  0.72169  1.0000
  C   C457      1.0  0.45408  0.62360  0.73913  1.0000
  H   H757      1.0  0.17694  0.55977  0.72050  1.0000
  H   H758      1.0  0.30550  0.75615  0.49524  1.0000
  C   C458      1.0  0.43684  0.66158  0.73908  1.0000
  H   H759      1.0  0.18658  0.56284  0.69803  1.0000
  H   H760      1.0  0.08990  0.53798  0.66824  1.0000
  H   H761      1.0  0.08062  0.55815  0.65004  1.0000
  H   H762      1.0  0.09926  0.53641  0.64629  1.0000
  H   H763      1.0  0.21507  0.70305  0.65268  1.0000
  H   H764      1.0  0.19750  0.67388  0.63832  1.0000
  H   H765      1.0  0.17828  0.69237  0.64677  1.0000
  H   H766      1.0  0.11779  0.51651  0.57366  1.0000
  C   C459      1.0  0.39552  0.57948  0.73885  1.0000
  H   H767      1.0  0.27261  0.88547  0.60684  1.0000
  H   H768      1.0  0.01437  0.76953  0.70335  1.0000
  H   H769      1.0  0.99182  0.56090  0.56679  1.0000
  H   H770      1.0  0.43622  0.65744  0.58600  1.0000
  C   C460      1.0  0.36057  0.97185  0.59933  1.0000
  C   C461      1.0  0.35866  0.94721  0.57272  1.0000
  C   C462      1.0  0.36219  0.58607  0.63311  1.0000
  H   H771      1.0  0.41889  0.59520  0.62847  1.0000
  H   H772      1.0  0.39761  0.62241  0.64162  1.0000
  H   H773      1.0  0.39709  0.59032  0.60897  1.0000
  H   H774      1.0  0.36867  0.57159  0.64229  1.0000
  H   H775      1.0  0.34706  0.59172  0.63968  1.0000
  C   C463      1.0  0.46303  0.59411  0.65357  1.0000
  H   H776      1.0  0.25797  0.77632  0.53372  1.0000
  C   C464      1.0  0.33755  0.78954  0.66533  1.0000
  H   H777      1.0  0.19917  0.69889  0.50091  1.0000
  H   H778      1.0  0.40133  0.81996  0.72216  1.0000
  H   H779      1.0  0.36181  0.93733  0.61831  1.0000
  C   C465      1.0  0.00698  0.81538  0.71501  1.0000
  H   H780      1.0  0.96972  0.70999  0.71028  1.0000
  H   H781      1.0  0.30750  0.77232  0.70057  1.0000
  H   H782      1.0  0.42239  0.90203  0.51470  1.0000
  H   H783      1.0  0.45046  0.64282  0.63681  1.0000
  H   H784      1.0  0.36781  0.56726  0.71489  1.0000
  H   H785      1.0  0.15025  0.57701  0.50634  1.0000
  Fe  Fe53      1.0  0.99370  0.49545  0.60063  1.0000
  H   H786      1.0  0.35043  0.56786  0.73437  1.0000
  H   H787      1.0  0.17300  0.51270  0.56596  1.0000
  C   C466      1.0  0.97543  0.76574  0.71477  1.0000
  C   C467      1.0  0.36714  0.56263  0.72942  1.0000
  H   H788      1.0  0.36881  0.93399  0.57997  1.0000
  H   H789      1.0  0.25180  0.70384  0.50135  1.0000
  H   H790      1.0  0.19826  0.58039  0.53366  1.0000
  C   C468      1.0  0.39307  0.82471  0.69364  1.0000
  N   N24       1.0  0.00022  0.60423  0.59162  1.0000
  H   H791      1.0  0.25345  0.87458  0.58588  1.0000
  H   H792      1.0  0.22136  0.50457  0.55730  1.0000
  H   H793      1.0  0.43302  0.48345  0.50008  1.0000
  H   H794      1.0  0.32359  0.79163  0.65377  1.0000
  C   C469      1.0  0.36342  0.78716  0.65827  1.0000
  H   H795      1.0  0.37767  0.80750  0.65242  1.0000
  H   H796      1.0  0.43700  0.71228  0.72432  1.0000
  H   H797      1.0  0.03520  0.59633  0.58374  1.0000
  H   H798      1.0  0.01269  0.56813  0.53850  1.0000
  C   C470      1.0  0.44315  0.61061  0.67602  1.0000
  H   H799      1.0  0.31839  0.82663  0.69345  1.0000
  H   H800      1.0  0.41282  0.66154  0.59983  1.0000
  H   H801      1.0  0.37372  0.76436  0.63904  1.0000
  H   H802      1.0  0.20413  0.59185  0.71267  1.0000
  C   C471      1.0  0.05266  0.67581  0.61174  1.0000
  C   C472      1.0  0.98125  0.63688  0.57205  1.0000
  C   C473      1.0  0.16274  0.58435  0.51894  1.0000
  H   H803      1.0  0.23755  0.73819  0.51238  1.0000
  N   N25       1.0  0.98512  0.79211  0.72528  1.0000
  S   S109      1.0  0.09966  0.58917  0.49899  1.0000
  H   H804      1.0  0.28453  0.78285  0.50703  1.0000
  H   H805      1.0  0.42713  0.58044  0.59555  1.0000
  H   H806      1.0  0.25175  0.50130  0.70927  1.0000
  C   C474      1.0  0.15509  0.53746  0.54758  1.0000
  H   H807      1.0  0.27267  0.81260  0.52564  1.0000
  C   C475      1.0  0.27241  0.78425  0.70083  1.0000
  H   H808      1.0  0.29678  0.69827  0.51359  1.0000
  C   C476      1.0  0.04182  0.65293  0.59805  1.0000
  H   H809      1.0  0.42734  0.51222  0.52819  1.0000
  C   C477      1.0  0.34328  0.93089  0.55606  1.0000
  H   H810      1.0  0.39983  0.84799  0.69387  1.0000
  C   C478      1.0  0.26302  0.78211  0.50533  1.0000
  H   H811      1.0  0.14818  0.58125  0.52941  1.0000
  H   H812      1.0  0.00840  0.57111  0.60725  1.0000
  H   H813      1.0  0.32898  0.90914  0.55997  1.0000
  Fe  Fe54      1.0  0.04169  0.48654  0.62347  1.0000
  H   H814      1.0  0.13390  0.53798  0.54483  1.0000
  H   H815      1.0  0.19150  0.62500  0.52897  1.0000
  H   H816      1.0  0.02526  0.86930  0.69725  1.0000
  C   C479      1.0  0.44937  0.83039  0.49721  1.0000
  H   H817      1.0  0.28556  0.86945  0.59125  1.0000
  H   H818      1.0  0.36929  0.62582  0.55918  1.0000
  H   H819      1.0  0.45426  0.83220  0.68081  1.0000
  C   C480      1.0  0.45362  0.62341  0.60452  1.0000
  H   H820      1.0  0.28854  0.74220  0.51548  1.0000
  H   H821      1.0  0.05936  0.64676  0.59566  1.0000
  C   C481      1.0  0.44163  0.88667  0.53692  1.0000
  C   C482      1.0  0.08554  0.83976  0.73619  1.0000
  H   H822      1.0  0.42948  0.66167  0.62852  1.0000
  H   H823      1.0  0.31032  0.95872  0.56501  1.0000
  H   H824      1.0  0.34159  0.74403  0.64942  1.0000
  H   H825      1.0  0.30318  0.81658  0.67191  1.0000
  H   H826      1.0  0.41306  0.55023  0.56516  1.0000
  C   C483      1.0  0.38762  0.61284  0.62882  1.0000
  C   C484      1.0  0.40897  0.60636  0.61881  1.0000
  H   H827      1.0  0.05765  0.66706  0.62479  1.0000
  H   H828      1.0  0.06329  0.49044  0.52190  1.0000
  H   H829      1.0  0.33136  0.94178  0.54805  1.0000
  H   H830      1.0  0.39903  0.89484  0.66824  1.0000
  H   H831      1.0  0.98895  0.55025  0.63630  1.0000
  H   H832      1.0  0.40529  0.61602  0.72066  1.0000
  C   C485      1.0  0.43718  0.49697  0.55410  1.0000
  H   H833      1.0  0.44117  0.86640  0.54329  1.0000
  H   H834      1.0  0.38024  0.62792  0.62098  1.0000
  H   H835      1.0  0.11331  0.48819  0.53080  1.0000
  H   H836      1.0  0.99873  0.81689  0.70105  1.0000
  C   C486      1.0  0.41949  0.64536  0.59509  1.0000
  N   N26       1.0  0.43118  0.63184  0.61039  1.0000
  H   H837      1.0  0.45304  0.62315  0.72442  1.0000
  H   H838      1.0  0.28548  0.76700  0.68025  1.0000
  H   H839      1.0  0.32992  0.91094  0.59569  1.0000
  H   H840      1.0  0.46189  0.57532  0.57767  1.0000
  H   H841      1.0  0.23859  0.51536  0.53674  1.0000
  C   C487      1.0  0.03714  0.86751  0.70987  1.0000
  H   H842      1.0  0.02659  0.61735  0.61596  1.0000
  C   C488      1.0  0.44071  0.59025  0.66381  1.0000
  H   H843      1.0  0.41826  0.78736  0.50080  1.0000
  C   C489      1.0  0.27474  0.88390  0.59258  1.0000
  H   H844      1.0  0.42175  0.57134  0.66252  1.0000
  H   H845      1.0  0.10620  0.85041  0.71169  1.0000
  C   C490      1.0  0.35640  0.84108  0.66794  1.0000
  C   C491      1.0  0.09924  0.83473  0.72241  1.0000
  H   H846      1.0  0.32884  0.72943  0.51331  1.0000
  C   C492      1.0  0.32576  0.97103  0.57541  1.0000
  S   S110      1.0  0.40896  0.55186  0.50068  1.0000
  H   H847      1.0  0.41092  0.57243  0.73380  1.0000
  C   C493      1.0  0.42884  0.89922  0.54950  1.0000
  H   H848      1.0  0.13962  0.49184  0.55563  1.0000
  C   C494      1.0  0.29572  0.78175  0.69112  1.0000
  H   H849      1.0  0.08236  0.85928  0.73609  1.0000
  C   C495      1.0  0.35473  0.76533  0.64398  1.0000
  C   C496      1.0  0.40799  0.81551  0.70964  1.0000
  H   H850      1.0  0.16760  0.55712  0.55474  1.0000
  H   H851      1.0  0.28478  0.48510  0.72733  1.0000
  H   H852      1.0  0.98759  0.59020  0.55450  1.0000
  C   C497      1.0  0.46584  0.83166  0.63759  1.0000
  C   C498      1.0  0.44463  0.65320  0.62458  1.0000
  S   S111      1.0  0.40960  0.48527  0.63875  1.0000
  H   H853      1.0  0.42444  0.50654  0.55999  1.0000
  H   H854      1.0  0.19321  0.56899  0.51162  1.0000
  C   C499      1.0  0.99814  0.75439  0.71172  1.0000
  H   H855      1.0  0.40241  0.70782  0.72944  1.0000
  H   H856      1.0  0.37983  0.91296  0.67688  1.0000
  N   N27       1.0  0.16766  0.53759  0.53035  1.0000
  H   H857      1.0  0.11951  0.66259  0.71181  1.0000
  H   H858      1.0  0.19466  0.62030  0.50596  1.0000
  C   C500      1.0  0.01795  0.84534  0.72252  1.0000
  H   H859      1.0  0.99075  0.65554  0.58043  1.0000
  H   H860      1.0  0.07771  0.52796  0.49806  1.0000
  H   H861      1.0  0.37760  0.84466  0.66415  1.0000
  H   H862      1.0  0.03029  0.84579  0.73526  1.0000
  H   H863      1.0  0.40345  0.79256  0.70941  1.0000
  C   C501      1.0  0.40388  0.61175  0.73525  1.0000
  H   H864      1.0  0.03597  0.66249  0.58561  1.0000
  C   C502      1.0  0.25682  0.79119  0.52259  1.0000
  H   H865      1.0  0.36895  0.89772  0.65555  1.0000
  H   H866      1.0  0.28121  0.79678  0.71281  1.0000
  C   C503      1.0  0.21661  0.54123  0.54337  1.0000
  C   C504      1.0  0.42801  0.49213  0.53422  1.0000
  H   H867      1.0  0.37919  0.94903  0.53977  1.0000
  H   H868      1.0  0.23574  0.79199  0.52143  1.0000
  C   C505      1.0  0.14527  0.52227  0.51639  1.0000
  H   H869      1.0  0.32615  0.76850  0.67179  1.0000
  H   H870      1.0  0.12972  0.53207  0.51399  1.0000
  H   H871      1.0  0.35254  0.91616  0.53228  1.0000
  H   H872      1.0  0.36611  0.86624  0.69183  1.0000
  C   C506      1.0  0.38820  0.64040  0.56668  1.0000
  H   H873      1.0  0.38457  0.65946  0.56957  1.0000
  H   H874      1.0  0.10098  0.63214  0.72554  1.0000
  Fe  Fe55      1.0  0.36552  0.48378  0.63348  1.0000
  H   H875      1.0  0.15475  0.52441  0.50351  1.0000
  H   H876      1.0  0.02941  0.62382  0.57108  1.0000
  H   H877      1.0  0.32103  0.62167  0.49363  1.0000
  H   H878      1.0  0.19554  0.52269  0.51884  1.0000
  H   H879      1.0  0.35546  0.81798  0.70592  1.0000
  H   H880      1.0  0.02595  0.81068  0.71436  1.0000
  S   S112      1.0  0.06120  0.49237  0.55922  1.0000
  C   C507      1.0  0.37784  0.89484  0.66904  1.0000
  H   H881      1.0  0.35552  0.78688  0.69764  1.0000
  C   C508      1.0  0.35844  0.86725  0.67779  1.0000
  C   C509      1.0  0.25149  0.48000  0.70746  1.0000
  H   H882      1.0  0.43096  0.82737  0.70929  1.0000
  H   H883      1.0  0.00210  0.71917  0.69995  1.0000
  H   H884      1.0  0.03677  0.68467  0.61327  1.0000
  H   H885      1.0  0.40080  0.82032  0.68161  1.0000
  C   C510      1.0  0.36072  0.80973  0.69421  1.0000
  N   N28       1.0  0.34317  0.81294  0.67783  1.0000
  H   H886      1.0  0.34287  0.77134  0.63263  1.0000
  H   H887      1.0  0.97515  0.72950  0.68912  1.0000
  H   H888      1.0  0.37510  0.77993  0.66915  1.0000
  C   C511      1.0  0.17976  0.61611  0.51640  1.0000
  C   C512      1.0  0.13830  0.51521  0.57754  1.0000
  H   H889      1.0  0.37571  0.91592  0.55130  1.0000
  H   H890      1.0  0.16189  0.84194  0.73536  1.0000
  S   S113      1.0  0.46140  0.56899  0.63811  1.0000
  C   C513      1.0  0.31523  0.81091  0.68333  1.0000
  C   C514      1.0  0.29101  0.91309  0.58416  1.0000
  H   H891      1.0  0.33746  0.86819  0.67748  1.0000
  H   H892      1.0  0.13879  0.64709  0.72701  1.0000
  C   C515      1.0  0.37638  0.95717  0.61201  1.0000
  H   H893      1.0  0.31676  0.93122  0.60709  1.0000
  H   H894      1.0  0.35155  0.57500  0.62084  1.0000
  C   C516      1.0  0.01701  0.62657  0.60480  1.0000
  H   H895      1.0  0.14088  0.47848  0.52455  1.0000
  H   H896      1.0  0.37467  0.61824  0.59131  1.0000
  H   H897      1.0  0.09517  0.48715  0.49932  1.0000
  H   H898      1.0  0.46250  0.93267  0.50597  1.0000
  C   C517      1.0  0.39356  0.97648  0.62681  1.0000
  C   C518      1.0  0.36400  0.92790  0.54415  1.0000
  H   H899      1.0  0.20428  0.48997  0.65828  1.0000
  H   H900      1.0  0.39619  0.60611  0.58020  1.0000
  C   C519      1.0  0.46224  0.82776  0.66926  1.0000
  H   H901      1.0  0.27887  0.92632  0.58539  1.0000
  C   C520      1.0  0.42498  0.88202  0.51864  1.0000
  H   H902      1.0  0.00848  0.75032  0.72444  1.0000
  C   C521      1.0  0.18924  0.52465  0.53219  1.0000
  H   H903      1.0  0.07202  0.69323  0.60738  1.0000
  H   H904      1.0  0.16532  0.62689  0.51229  1.0000
  H   H905      1.0  0.33114  0.52863  0.53911  1.0000
  H   H906      1.0  0.40738  0.88414  0.55235  1.0000
  C   C522      1.0  0.01830  0.60281  0.57754  1.0000
  N   N29       1.0  0.34109  0.95400  0.58489  1.0000
  H   H907      1.0  0.97933  0.59180  0.62527  1.0000
  C   C523      1.0  0.23339  0.52301  0.54869  1.0000
  H   H908      1.0  0.40504  0.96564  0.63542  1.0000
  H   H909      1.0  0.04590  0.88843  0.71601  1.0000
  H   H910      1.0  0.00301  0.63423  0.61113  1.0000
  C   C524      1.0  0.45510  0.83725  0.65242  1.0000
  H   H911      1.0  0.29170  0.91049  0.56992  1.0000
  H   H912      1.0  0.42810  0.91945  0.54384  1.0000
  H   H913      1.0  0.36185  0.53963  0.73193  1.0000
  H   H914      1.0  0.15181  0.53443  0.58473  1.0000
  H   H915      1.0  0.97773  0.55837  0.59284  1.0000
  H   H916      1.0  0.04029  0.57684  0.55584  1.0000
  H   H917      1.0  0.38581  0.61629  0.73847  1.0000
  C   C525      1.0  0.00304  0.58307  0.56206  1.0000
  H   H918      1.0  0.03395  0.60469  0.54268  1.0000
  H   H919      1.0  0.39123  0.95217  0.60475  1.0000
  H   H920      1.0  0.46061  0.83897  0.62457  1.0000
  C   C526      1.0  0.02381  0.58328  0.54902  1.0000
  H   H921      1.0  0.46307  0.70976  0.63460  1.0000
  H   H922      1.0  0.13462  0.49640  0.58665  1.0000
  C   C527      1.0  0.97500  0.60942  0.58371  1.0000
  C   C528      1.0  0.12770  0.49050  0.52035  1.0000
  C   C529      1.0  0.41143  0.67014  0.73478  1.0000
  H   H923      1.0  0.38818  0.49027  0.50810  1.0000
  H   H924      1.0  0.99560  0.63875  0.56169  1.0000
  H   H925      1.0  0.46432  0.61673  0.61627  1.0000
  H   H926      1.0  0.31324  0.97576  0.58489  1.0000
  H   H927      1.0  0.44845  0.66763  0.72679  1.0000
  C   C530      1.0  0.97114  0.57302  0.61701  1.0000
  H   H928      1.0  0.26437  0.48145  0.69628  1.0000
  C   C531      1.0  0.42057  0.70226  0.73384  1.0000
  H   H929      1.0  0.37949  0.49310  0.53885  1.0000
  H   H930      1.0  0.45090  0.84561  0.52277  1.0000
  C   C532      1.0  0.96840  0.54736  0.62932  1.0000
  H   H931      1.0  0.01863  0.78625  0.74185  1.0000
  H   H932      1.0  0.41628  0.82910  0.51330  1.0000
  N   N30       1.0  0.43719  0.87268  0.50425  1.0000
  C   C533      1.0  0.44138  0.79891  0.50195  1.0000
  H   H933      1.0  0.44945  0.79576  0.51565  1.0000
  C   C534      1.0  0.43772  0.84421  0.51025  1.0000
  H   H934      1.0  0.31354  0.71177  0.49308  1.0000
  H   H935      1.0  0.11364  0.85484  0.85816  1.0000
  H   H936      1.0  0.08180  0.59823  0.84562  1.0000
  S   S114      1.0  0.99649  0.89404  0.79400  1.0000
  Fe  Fe56      1.0  0.03840  0.85486  0.77406  1.0000
  S   S115      1.0  0.99551  0.83231  0.78436  1.0000
  H   H937      1.0  0.39387  0.57376  0.75319  1.0000
  H   H938      1.0  0.18618  0.94902  0.94059  1.0000
  Fe  Fe57      1.0  0.01190  0.86162  0.80694  1.0000
  S   S116      1.0  0.00076  0.84020  0.83389  1.0000
  S   S117      1.0  0.02484  0.88667  0.75823  1.0000
  S   S118      1.0  0.05526  0.88258  0.79754  1.0000
  Fe  Fe58      1.0  0.03542  0.83852  0.96183  1.0000
  S   S119      1.0  0.07434  0.83224  0.97278  1.0000
  H   H939      1.0  0.20615  0.57580  0.91399  1.0000
  Fe  Fe59      1.0  0.06527  0.87294  0.92942  1.0000
  S   S120      1.0  0.10614  0.86961  0.93839  1.0000
  S   S121      1.0  0.06558  0.89939  0.90417  1.0000
  Fe  Fe60      1.0  0.07996  0.82411  0.94468  1.0000
  S   S122      1.0  0.09035  0.78761  0.93613  1.0000
  Fe  Fe61      1.0  0.09794  0.87862  0.96550  1.0000
  H   H940      1.0  0.10765  0.55405  0.79946  1.0000
  S   S123      1.0  0.03897  0.82686  0.93426  1.0000
  S   S124      1.0  0.05901  0.88536  0.95596  1.0000
  H   H941      1.0  0.04377  0.77757  0.86543  1.0000
  S   S125      1.0  0.15088  0.52044  0.86724  1.0000
  S   S126      1.0  0.27552  0.52552  0.84222  1.0000
  S   S127      1.0  0.19552  0.50224  0.83487  1.0000
  S   S128      1.0  0.06232  0.95985  0.77713  1.0000
  Fe  Fe62      1.0  0.41849  0.73072  0.86219  1.0000
  S   S129      1.0  0.42311  0.70607  0.88701  1.0000
  S   S130      1.0  0.39824  0.76138  0.86656  1.0000
  Fe  Fe63      1.0  0.40619  0.66825  0.86999  1.0000
  S   S131      1.0  0.36934  0.63095  0.88105  1.0000
  S   S132      1.0  0.40011  0.69272  0.84547  1.0000
  Fe  Fe64      1.0  0.17301  0.71405  0.84316  1.0000
  S   S133      1.0  0.16001  0.70304  0.87119  1.0000
  S   S134      1.0  0.14129  0.70740  0.81962  1.0000
  Fe  Fe65      1.0  0.23570  0.73795  0.85444  1.0000
  S   S135      1.0  0.22761  0.73002  0.88331  1.0000
  S   S136      1.0  0.27559  0.75199  0.83976  1.0000
  Fe  Fe66      1.0  0.19533  0.68764  0.87492  1.0000
  S   S137      1.0  0.19789  0.64827  0.88938  1.0000
  Fe  Fe67      1.0  0.19283  0.74620  0.87736  1.0000
  S   S138      1.0  0.18745  0.78122  0.89223  1.0000
  S   S139      1.0  0.20510  0.69510  0.84651  1.0000
  S   S140      1.0  0.20394  0.75774  0.84893  1.0000
  C   C535      1.0  0.36270  0.75427  0.85963  1.0000
  C   C536      1.0  0.34455  0.75597  0.87170  1.0000
  C   C537      1.0  0.31721  0.75375  0.86602  1.0000
  C   C538      1.0  0.30825  0.75113  0.84806  1.0000
  C   C539      1.0  0.32649  0.74962  0.83601  1.0000
  C   C540      1.0  0.35328  0.75051  0.84179  1.0000
  H   H942      1.0  0.35174  0.75946  0.88545  1.0000
  H   H943      1.0  0.30356  0.75535  0.87541  1.0000
  H   H944      1.0  0.31999  0.74812  0.82205  1.0000
  H   H945      1.0  0.36725  0.74992  0.83229  1.0000
  C   C541      1.0  0.30096  0.55522  0.85305  1.0000
  C   C542      1.0  0.29790  0.56197  0.87001  1.0000
  C   C543      1.0  0.31910  0.58513  0.87836  1.0000
  C   C544      1.0  0.34332  0.60218  0.86975  1.0000
  C   C545      1.0  0.34605  0.59590  0.85260  1.0000
  C   C546      1.0  0.32510  0.57236  0.84438  1.0000
  H   H946      1.0  0.27948  0.54900  0.87684  1.0000
  H   H947      1.0  0.31676  0.58985  0.89162  1.0000
  H   H948      1.0  0.36457  0.60877  0.84583  1.0000
  H   H949      1.0  0.32769  0.56730  0.83127  1.0000
  C   C547      1.0  0.16490  0.55708  0.87127  1.0000
  C   C548      1.0  0.14639  0.57035  0.87296  1.0000
  C   C549      1.0  0.15650  0.59891  0.87736  1.0000
  C   C550      1.0  0.18528  0.61452  0.88019  1.0000
  C   C551      1.0  0.20384  0.60130  0.87839  1.0000
  C   C552      1.0  0.19374  0.57278  0.87378  1.0000
  H   H950      1.0  0.12406  0.55827  0.87132  1.0000
  H   H951      1.0  0.14200  0.60851  0.87942  1.0000
  H   H952      1.0  0.22607  0.61291  0.88114  1.0000
  H   H953      1.0  0.20819  0.56264  0.87292  1.0000
  C   C553      1.0  0.11743  0.78660  0.92366  1.0000
  C   C554      1.0  0.14135  0.81069  0.92000  1.0000
  C   C555      1.0  0.16258  0.80854  0.91058  1.0000
  C   C556      1.0  0.16002  0.78244  0.90431  1.0000
  C   C557      1.0  0.13586  0.75849  0.90771  1.0000
  C   C558      1.0  0.11491  0.76055  0.91744  1.0000
  H   H954      1.0  0.14357  0.83092  0.92452  1.0000
  H   H955      1.0  0.18107  0.82726  0.90799  1.0000
  H   H956      1.0  0.13349  0.73826  0.90307  1.0000
  H   H957      1.0  0.09659  0.74172  0.92020  1.0000
  C   C559      1.0  0.05702  0.79708  0.87256  1.0000
  H   H958      1.0  0.23043  0.55868  0.91473  1.0000
  H   H959      1.0  0.10997  0.57701  0.83610  1.0000
  C   C560      1.0  0.26558  0.66446  0.81692  1.0000
  Fe  Fe68      1.0  0.98347  0.86632  0.77066  1.0000
  N   N31       1.0  0.43074  0.63096  0.74471  1.0000
  C   C561      1.0  0.01932  0.85692  0.85319  1.0000
  C   C562      1.0  0.04025  0.88417  0.85248  1.0000
  C   C563      1.0  0.05421  0.89707  0.86822  1.0000
  C   C564      1.0  0.04780  0.88255  0.88468  1.0000
  C   C565      1.0  0.02714  0.85514  0.88532  1.0000
  C   C566      1.0  0.01275  0.84250  0.86963  1.0000
  H   H960      1.0  0.04541  0.89546  0.83985  1.0000
  H   H961      1.0  0.07011  0.91834  0.86766  1.0000
  H   H962      1.0  0.02182  0.84396  0.89794  1.0000
  H   H963      1.0  0.99649  0.82144  0.87025  1.0000
  C   C567      1.0  0.17227  0.71320  0.76431  1.0000
  C   C568      1.0  0.14644  0.71453  0.76636  1.0000
  C   C569      1.0  0.13665  0.71159  0.78335  1.0000
  C   C570      1.0  0.15302  0.70834  0.79841  1.0000
  C   C571      1.0  0.17859  0.70647  0.79634  1.0000
  C   C572      1.0  0.18798  0.70853  0.77932  1.0000
  H   H964      1.0  0.13401  0.71773  0.75486  1.0000
  H   H965      1.0  0.11657  0.71238  0.78484  1.0000
  H   H966      1.0  0.19138  0.70392  0.80782  1.0000
  H   H967      1.0  0.20794  0.70738  0.77782  1.0000
  H   H968      1.0  0.15513  0.61215  0.80520  1.0000
  N   N32       1.0  0.17855  0.80801  0.79331  1.0000
  C   C573      1.0  0.15186  0.78174  0.79244  1.0000
  C   C574      1.0  0.20216  0.80060  0.78832  1.0000
  C   C575      1.0  0.18368  0.81836  0.81186  1.0000
  C   C576      1.0  0.17632  0.83108  0.78059  1.0000
  H   H969      1.0  0.03122  0.95920  0.80715  1.0000
  C   C577      1.0  0.12445  0.78604  0.79458  1.0000
  C   C578      1.0  0.21141  0.84421  0.81574  1.0000
  C   C579      1.0  0.21201  0.78219  0.80220  1.0000
  C   C580      1.0  0.23487  0.77486  0.79532  1.0000
  H   H970      1.0  0.43567  0.76152  0.89798  1.0000
  C   C581      1.0  0.09901  0.75802  0.79362  1.0000
  C   C582      1.0  0.21642  0.84958  0.83553  1.0000
  H   H971      1.0  0.15299  0.76589  0.80294  1.0000
  H   H972      1.0  0.14929  0.77109  0.77979  1.0000
  H   H973      1.0  0.19602  0.78883  0.77586  1.0000
  H   H974      1.0  0.22081  0.82003  0.78523  1.0000
  H   H975      1.0  0.18265  0.80082  0.82168  1.0000
  H   H976      1.0  0.16678  0.82490  0.81505  1.0000
  H   H977      1.0  0.16114  0.83922  0.78489  1.0000
  H   H978      1.0  0.19666  0.84966  0.78069  1.0000
  H   H979      1.0  0.04487  0.81075  0.87112  1.0000
  H   H980      1.0  0.25832  0.85939  0.94897  1.0000
  H   H981      1.0  0.12497  0.79482  0.80754  1.0000
  C   C583      1.0  0.16602  0.84769  0.74945  1.0000
  H   H982      1.0  0.21045  0.86354  0.80871  1.0000
  H   H983      1.0  0.22981  0.84123  0.81151  1.0000
  H   H984      1.0  0.22091  0.79339  0.81461  1.0000
  H   H985      1.0  0.19437  0.76224  0.80552  1.0000
  H   H986      1.0  0.25407  0.79427  0.79353  1.0000
  H   H987      1.0  0.24021  0.76022  0.80504  1.0000
  H   H988      1.0  0.22773  0.76436  0.78250  1.0000
  H   H989      1.0  0.02100  0.79359  0.89873  1.0000
  H   H990      1.0  0.42752  0.63527  0.79982  1.0000
  C   C584      1.0  0.05785  0.78700  0.89230  1.0000
  H   H991      1.0  0.12783  0.78108  0.96666  1.0000
  H   H992      1.0  0.09666  0.74882  0.78051  1.0000
  H   H993      1.0  0.10115  0.74274  0.80422  1.0000
  H   H994      1.0  0.19885  0.85345  0.84041  1.0000
  H   H995      1.0  0.21860  0.83115  0.84313  1.0000
  H   H996      1.0  0.23605  0.86846  0.83799  1.0000
  C   C585      1.0  0.18953  0.91298  0.95581  1.0000
  N   N33       1.0  0.29916  0.65153  0.84036  1.0000
  C   C586      1.0  0.28296  0.62136  0.83516  1.0000
  C   C587      1.0  0.32764  0.66237  0.83295  1.0000
  C   C588      1.0  0.30369  0.65121  0.86032  1.0000
  C   C589      1.0  0.28406  0.67080  0.83457  1.0000
  C   C590      1.0  0.25540  0.60525  0.84445  1.0000
  C   C591      1.0  0.32262  0.67980  0.86849  1.0000
  C   C592      1.0  0.32828  0.66303  0.81255  1.0000
  C   C593      1.0  0.35792  0.67082  0.80695  1.0000
  C   C594      1.0  0.23598  0.57948  0.83425  1.0000
  C   C595      1.0  0.32175  0.67795  0.88861  1.0000
  H   H997      1.0  0.29612  0.60880  0.83812  1.0000
  H   H998      1.0  0.27786  0.62012  0.82069  1.0000
  H   H999      1.0  0.34010  0.68457  0.83667  1.0000
  H   H1000     1.0  0.33955  0.64964  0.83891  1.0000
  H   H1001     1.0  0.31290  0.63561  0.86508  1.0000
  H   H1002     1.0  0.28333  0.64413  0.86649  1.0000
  H   H1003     1.0  0.26998  0.67073  0.84481  1.0000
  H   H1004     1.0  0.29937  0.69308  0.83359  1.0000
  H   H1005     1.0  0.26022  0.59763  0.85794  1.0000
  H   H1006     1.0  0.24408  0.61911  0.84583  1.0000
  H   H1007     1.0  0.31569  0.69679  0.86325  1.0000
  H   H1008     1.0  0.34480  0.68585  0.86561  1.0000
  H   H1009     1.0  0.31518  0.64227  0.80700  1.0000
  H   H1010     1.0  0.32123  0.67952  0.80641  1.0000
  H   H1011     1.0  0.18409  0.52851  0.90137  1.0000
  H   H1012     1.0  0.37150  0.69282  0.81048  1.0000
  N   N34       1.0  0.11541  0.60804  0.81415  1.0000
  H   H1013     1.0  0.12086  0.80050  0.78397  1.0000
  H   H1014     1.0  0.22990  0.58599  0.82078  1.0000
  H   H1015     1.0  0.33544  0.69870  0.89404  1.0000
  H   H1016     1.0  0.30012  0.67263  0.89242  1.0000
  H   H1017     1.0  0.32941  0.66168  0.89448  1.0000
  H   H1018     1.0  0.08169  0.59550  0.79362  1.0000
  H   H1019     1.0  0.99632  0.90659  0.84046  1.0000
  C   C596      1.0  0.98462  0.90825  0.85155  1.0000
  H   H1020     1.0  0.46357  0.79157  0.95362  1.0000
  H   H1021     1.0  0.35743  0.66959  0.79238  1.0000
  C   C597      1.0  0.10541  0.52877  0.82338  1.0000
  C   C598      1.0  0.08177  0.79496  0.75031  1.0000
  H   H1022     1.0  0.19722  0.61276  0.82467  1.0000
  H   H1023     1.0  0.98472  0.74166  0.78037  1.0000
  H   H1024     1.0  0.20490  0.63248  0.84451  1.0000
  H   H1025     1.0  0.10342  0.64991  0.79159  1.0000
  H   H1026     1.0  0.07980  0.85190  0.86186  1.0000
  C   C599      1.0  0.10370  0.62548  0.82352  1.0000
  H   H1027     1.0  0.24208  0.68319  0.79888  1.0000
  H   H1028     1.0  0.11904  0.48381  0.93116  1.0000
  H   H1029     1.0  0.08137  0.56843  0.82019  1.0000
  H   H1030     1.0  0.07577  0.62281  0.76571  1.0000
  H   H1031     1.0  0.20654  0.83782  0.94372  1.0000
  H   H1032     1.0  0.12602  0.78212  0.84264  1.0000
  C   C600      1.0  0.25672  0.68888  0.81087  1.0000
  C   C601      1.0  0.09954  0.61890  0.84358  1.0000
  C   C602      1.0  0.21104  0.55789  0.92015  1.0000
  C   C603      1.0  0.43772  0.77243  0.91045  1.0000
  C   C604      1.0  0.09258  0.64141  0.85169  1.0000
  H   H1033     1.0  0.08999  0.63639  0.86606  1.0000
  H   H1034     1.0  0.10977  0.66257  0.85007  1.0000
  H   H1035     1.0  0.07286  0.64219  0.84528  1.0000
  H   H1036     1.0  0.45455  0.74381  0.80526  1.0000
  H   H1037     1.0  0.20209  0.64967  0.82333  1.0000
  C   C605      1.0  0.24701  0.86963  0.93971  1.0000
  H   H1038     1.0  0.18467  0.81748  0.75563  1.0000
  H   H1039     1.0  0.11356  0.51471  0.81745  1.0000
  H   H1040     1.0  0.98798  0.76992  0.98332  1.0000
  C   C606      1.0  0.41686  0.74971  0.92258  1.0000
  C   C607      1.0  0.19057  0.87348  0.98900  1.0000
  C   C608      1.0  0.40724  0.63238  0.77315  1.0000
  H   H1041     1.0  0.33032  0.49674  0.77696  1.0000
  C   C609      1.0  0.13464  0.81157  0.86378  1.0000
  N   N35       1.0  0.18817  0.86503  0.97001  1.0000
  H   H1042     1.0  0.39099  0.62908  0.79891  1.0000
  C   C610      1.0  0.40678  0.62374  0.79286  1.0000
  H   H1043     1.0  0.14809  0.80476  0.75938  1.0000
  H   H1044     1.0  0.38360  0.73327  0.90185  1.0000
  H   H1045     1.0  0.99439  0.90268  0.86411  1.0000
  H   H1046     1.0  0.20102  0.50922  0.93831  1.0000
  H   H1047     1.0  0.24666  0.86266  0.92615  1.0000
  H   H1048     1.0  0.15484  0.59941  0.83963  1.0000
  C   C611      1.0  0.19238  0.50424  0.92444  1.0000
  H   H1049     1.0  0.13802  0.83001  0.85449  1.0000
  C   C612      1.0  0.32991  0.48221  0.76674  1.0000
  H   H1050     1.0  0.07486  0.77932  0.76103  1.0000
  H   H1051     1.0  0.01584  0.75503  0.76821  1.0000
  H   H1052     1.0  0.10973  0.89694  0.87864  1.0000
  C   C613      1.0  0.16244  0.62077  0.83314  1.0000
  H   H1053     1.0  0.06345  0.83921  0.83472  1.0000
  H   H1054     1.0  0.19139  0.92302  0.96853  1.0000
  C   C614      1.0  0.13778  0.96121  0.97649  1.0000
  H   H1055     1.0  0.10465  0.65447  0.75914  1.0000
  C   C615      1.0  0.38662  0.74190  0.91520  1.0000
  H   H1056     1.0  0.06489  0.76916  0.89382  1.0000
  H   H1057     1.0  0.13868  0.56617  0.81434  1.0000
  C   C616      1.0  0.09594  0.84344  0.86663  1.0000
  H   H1058     1.0  0.13260  0.47831  0.97117  1.0000
  H   H1059     1.0  0.11325  0.53096  0.83752  1.0000
  C   C617      1.0  0.97272  0.77391  0.99020  1.0000
  H   H1060     1.0  0.24646  0.56469  0.83315  1.0000
  C   C618      1.0  0.16844  0.82301  0.76095  1.0000
  H   H1061     1.0  0.24644  0.64514  0.81868  1.0000
  C   C619      1.0  0.18663  0.52997  0.91596  1.0000
  H   H1062     1.0  0.08628  0.84897  0.89318  1.0000
  H   H1063     1.0  0.13464  0.64824  0.78434  1.0000
  C   C620      1.0  0.10469  0.57791  0.82164  1.0000
  H   H1064     1.0  0.42954  0.78920  0.90663  1.0000
  C   C621      1.0  0.10526  0.79911  0.87151  1.0000
  H   H1065     1.0  0.12657  0.89237  0.89969  1.0000
  S   S141      1.0  0.05946  0.82491  0.76814  1.0000
  Fe  Fe69      1.0  0.23201  0.49724  0.85099  1.0000
  H   H1066     1.0  0.42886  0.60513  0.76883  1.0000
  H   H1067     1.0  0.36706  0.65601  0.81337  1.0000
  H   H1068     1.0  0.27614  0.66066  0.80605  1.0000
  H   H1069     1.0  0.16021  0.63597  0.84186  1.0000
  C   C622      1.0  0.10508  0.85350  0.88576  1.0000
  H   H1070     1.0  0.41171  0.65536  0.77211  1.0000
  Fe  Fe70      1.0  0.03849  0.91274  0.78245  1.0000
  H   H1071     1.0  0.25844  0.89297  0.93976  1.0000
  H   H1072     1.0  0.20661  0.87142  0.93503  1.0000
  C   C623      1.0  0.19360  0.62946  0.83123  1.0000
  H   H1073     1.0  0.21665  0.56814  0.84130  1.0000
  H   H1074     1.0  0.15419  0.64442  0.81074  1.0000
  Fe  Fe71      1.0  0.44494  0.70107  0.84101  1.0000
  H   H1075     1.0  0.13846  0.77086  0.86369  1.0000
  H   H1076     1.0  0.97687  0.96240  0.77600  1.0000
  H   H1077     1.0  0.45713  0.80224  0.88081  1.0000
  H   H1078     1.0  0.11703  0.64836  0.82175  1.0000
  H   H1079     1.0  0.16746  0.53099  0.92039  1.0000
  C   C624      1.0  0.99797  0.75963  0.77192  1.0000
  H   H1080     1.0  0.46257  0.75534  0.93980  1.0000
  C   C625      1.0  0.11548  0.55765  0.81351  1.0000
  H   H1081     1.0  0.37223  0.72542  0.92400  1.0000
  C   C626      1.0  0.13454  0.48613  0.94256  1.0000
  H   H1082     1.0  0.03662  0.81484  0.80834  1.0000
  H   H1083     1.0  0.38108  0.76070  0.91430  1.0000
  H   H1084     1.0  0.07980  0.76166  0.79540  1.0000
  C   C627      1.0  0.98158  0.96574  0.76187  1.0000
  H   H1085     1.0  0.15337  0.87734  0.96332  1.0000
  C   C628      1.0  0.21701  0.86108  0.94487  1.0000
  H   H1086     1.0  0.16791  0.87140  0.94479  1.0000
  S   S142      1.0  0.21398  0.49290  0.87746  1.0000
  C   C629      1.0  0.46348  0.73745  0.79489  1.0000
  H   H1087     1.0  0.27527  0.70823  0.80762  1.0000
  H   H1088     1.0  0.03014  0.76914  0.91357  1.0000
  S   S143      1.0  0.44992  0.67390  0.86467  1.0000
  H   H1089     1.0  0.96793  0.92065  0.75825  1.0000
  C   C630      1.0  0.11171  0.63661  0.78501  1.0000
  C   C631      1.0  0.45980  0.80780  0.94460  1.0000
  H   H1090     1.0  0.98646  0.93042  0.85201  1.0000
  H   H1091     1.0  0.16989  0.91611  0.92945  1.0000
  H   H1092     1.0  0.08264  0.62308  0.81740  1.0000
  H   H1093     1.0  0.09560  0.77576  0.86997  1.0000
  C   C632      1.0  0.14694  0.62160  0.81492  1.0000
  C   C633      1.0  0.05283  0.80809  0.81522  1.0000
  H   H1094     1.0  0.15341  0.92329  0.94748  1.0000
  C   C634      1.0  0.43021  0.62674  0.76456  1.0000
  C   C635      1.0  0.07969  0.80679  0.84464  1.0000
  H   H1095     1.0  0.11830  0.61783  0.85105  1.0000
  H   H1096     1.0  0.08219  0.51865  0.82253  1.0000
  H   H1097     1.0  0.16738  0.82632  0.95569  1.0000
  H   H1098     1.0  0.11378  0.59572  0.78722  1.0000
  H   H1099     1.0  0.24608  0.69371  0.82141  1.0000
  N   N36       1.0  0.08475  0.81194  0.86424  1.0000
  H   H1100     1.0  0.07222  0.80401  0.90074  1.0000
  H   H1101     1.0  0.00436  0.80773  0.75084  1.0000
  H   H1102     1.0  0.07350  0.78385  0.84247  1.0000
  S   S144      1.0  0.99512  0.82940  0.97591  1.0000
  H   H1103     1.0  0.12756  0.95347  0.96378  1.0000
  H   H1104     1.0  0.23105  0.89223  0.96472  1.0000
  C   C636      1.0  0.14060  0.78936  0.85452  1.0000
  H   H1105     1.0  0.09914  0.81798  0.83765  1.0000
  H   H1106     1.0  0.21463  0.56058  0.93466  1.0000
  H   H1107     1.0  0.45990  0.83208  0.96679  1.0000
  H   H1108     1.0  0.16242  0.79856  0.85045  1.0000
  C   C637      1.0  0.17048  0.83369  0.96940  1.0000
  C   C638      1.0  0.12188  0.88546  0.88584  1.0000
  H   H1109     1.0  0.14194  0.89119  0.87959  1.0000
  C   C639      1.0  0.17365  0.88054  0.95809  1.0000
  C   C640      1.0  0.02885  0.77637  0.89948  1.0000
  H   H1110     1.0  0.42099  0.73004  0.92341  1.0000
  C   C641      1.0  0.09895  0.63327  0.76597  1.0000
  C   C642      1.0  0.10485  0.60732  0.79490  1.0000
  C   C643      1.0  0.05711  0.81596  0.83458  1.0000
  H   H1111     1.0  0.11839  0.84342  0.89296  1.0000
  Fe  Fe72      1.0  0.17689  0.49610  0.86110  1.0000
  H   H1112     1.0  0.07254  0.81896  0.80842  1.0000
  C   C644      1.0  0.17371  0.92597  0.94246  1.0000
  H   H1113     1.0  0.21058  0.91860  0.95102  1.0000
  C   C645      1.0  0.98692  0.94032  0.75676  1.0000
  H   H1114     1.0  0.40123  0.60062  0.79484  1.0000
  H   H1115     1.0  0.22644  0.85786  0.97314  1.0000
  H   H1116     1.0  0.10714  0.62064  0.75863  1.0000
  H   H1117     1.0  0.15099  0.81950  0.87475  1.0000
  H   H1118     1.0  0.10920  0.80087  0.88603  1.0000
  H   H1119     1.0  0.04568  0.78487  0.81414  1.0000
  H   H1120     1.0  0.03659  0.80550  0.84045  1.0000
  H   H1121     1.0  0.01384  0.75831  0.89188  1.0000
  H   H1122     1.0  0.18575  0.86683  0.75062  1.0000
  H   H1123     1.0  0.43695  0.80173  0.94183  1.0000
  C   C646      1.0  0.21655  0.86973  0.96398  1.0000
  H   H1124     1.0  0.41857  0.75678  0.93617  1.0000
  H   H1125     1.0  0.45031  0.64120  0.77102  1.0000
  H   H1126     1.0  0.38613  0.62038  0.76694  1.0000
  S   S145      1.0  0.13148  0.90558  0.98587  1.0000
  H   H1127     1.0  0.14801  0.50879  0.94410  1.0000
  H   H1128     1.0  0.14840  0.85256  0.75330  1.0000
  C   C647      1.0  0.07668  0.81987  0.75024  1.0000
  H   H1129     1.0  0.12719  0.82995  0.96527  1.0000
  S   S146      1.0  0.46317  0.74190  0.85535  1.0000
  H   H1130     1.0  0.97184  0.74332  0.74867  1.0000
  C   C648      1.0  0.97236  0.80101  0.98912  1.0000
  H   H1131     1.0  0.21020  0.50427  0.91733  1.0000
  H   H1132     1.0  0.10500  0.78522  0.98163  1.0000
  H   H1133     1.0  0.45100  0.67575  0.74929  1.0000
  H   H1134     1.0  0.13841  0.78494  0.99002  1.0000
  H   H1135     1.0  0.22397  0.91661  0.98600  1.0000
  H   H1136     1.0  0.10555  0.48863  0.96048  1.0000
  C   C649      1.0  0.98057  0.76364  0.75540  1.0000
  H   H1137     1.0  0.18142  0.82152  0.97734  1.0000
  H   H1138     1.0  0.17255  0.87886  0.99155  1.0000
  H   H1139     1.0  0.42884  0.71095  0.74708  1.0000
  H   H1140     1.0  0.45166  0.60198  0.74416  1.0000
  S   S147      1.0  0.46064  0.69087  0.81660  1.0000
  C   C650      1.0  0.14171  0.94228  0.98961  1.0000
  H   H1141     1.0  0.00418  0.93816  0.76553  1.0000
  C   C651      1.0  0.12723  0.79183  0.97868  1.0000
  H   H1142     1.0  0.34034  0.49514  0.75510  1.0000
  C   C652      1.0  0.14048  0.82395  0.97567  1.0000
  H   H1143     1.0  0.13995  0.83357  0.98813  1.0000
  H   H1144     1.0  0.14018  0.48976  0.90682  1.0000
  H   H1145     1.0  0.00622  0.77892  0.77978  1.0000
  S   S148      1.0  0.18568  0.71717  0.74333  1.0000
  H   H1146     1.0  0.46536  0.77281  0.77709  1.0000
  H   H1147     1.0  0.16167  0.47868  0.89545  1.0000
  H   H1148     1.0  0.39559  0.66148  0.74471  1.0000
  C   C653      1.0  0.99850  0.78838  0.74323  1.0000
  H   H1149     1.0  0.99306  0.94301  0.74291  1.0000
  S   S149      1.0  0.69897  0.44025  0.09284  1.0000
  Fe  Fe73      1.0  0.86063  0.01478  0.21064  1.0000
  S   S150      1.0  0.87938  0.02502  0.18443  1.0000
  H   H1150     1.0  0.60555  0.39110  0.15968  1.0000
  Fe  Fe74      1.0  0.86244  0.07498  0.21411  1.0000
  S   S151      1.0  0.88251  0.08885  0.18805  1.0000
  Fe  Fe75      1.0  0.85109  0.04802  0.17789  1.0000
  S   S152      1.0  0.82297  0.04204  0.15273  1.0000
  Fe  Fe76      1.0  0.90958  0.06481  0.19695  1.0000
  S   S153      1.0  0.82968  0.03505  0.20327  1.0000
  Fe  Fe77      1.0  0.80771  0.05259  0.02573  1.0000
  S   S154      1.0  0.81785  0.09360  0.00969  1.0000
  S   S155      1.0  0.85228  0.11064  0.22453  1.0000
  Fe  Fe78      1.0  0.85465  0.08048  0.05408  1.0000
  S   S156      1.0  0.86834  0.12301  0.03973  1.0000
  S   S157      1.0  0.87956  0.07686  0.07954  1.0000
  Fe  Fe79      1.0  0.82212  0.11380  0.03596  1.0000
  S   S158      1.0  0.80809  0.14921  0.04191  1.0000
  Fe  Fe80      1.0  0.86328  0.09950  0.01506  1.0000
  H   H1151     1.0  0.54977  0.41442  0.17771  1.0000
  S   S159      1.0  0.80906  0.07255  0.05157  1.0000
  S   S160      1.0  0.85249  0.05714  0.02978  1.0000
  Fe  Fe81      1.0  0.70923  0.43243  0.12155  1.0000
  H   H1152     1.0  0.68811  0.39837  0.06152  1.0000
  S   S161      1.0  0.71920  0.39556  0.13379  1.0000
  S   S162      1.0  0.61694  0.41378  0.08763  1.0000
  S   S163      1.0  0.66835  0.42979  0.13036  1.0000
  S   S164      1.0  0.89232  0.05370  0.22391  1.0000
  S   S165      1.0  0.51787  0.31730  0.12717  1.0000
  S   S166      1.0  0.51144  0.19772  0.09383  1.0000
  Fe  Fe82      1.0  0.72463  0.21591  0.13787  1.0000
  S   S167      1.0  0.74266  0.22808  0.11125  1.0000
  S   S168      1.0  0.75384  0.21976  0.16247  1.0000
  Fe  Fe83      1.0  0.66443  0.20083  0.12208  1.0000
  S   S169      1.0  0.67795  0.21080  0.09420  1.0000
  S   S170      1.0  0.62182  0.19089  0.13258  1.0000
  Fe  Fe84      1.0  0.70735  0.18847  0.10198  1.0000
  S   S171      1.0  0.71206  0.15289  0.08762  1.0000
  Fe  Fe85      1.0  0.71218  0.24948  0.10589  1.0000
  S   S172      1.0  0.72340  0.29377  0.09324  1.0000
  S   S173      1.0  0.69075  0.17527  0.12919  1.0000
  S   S174      1.0  0.69731  0.24035  0.13318  1.0000
  C   C654      1.0  0.54439  0.19911  0.10318  1.0000
  C   C655      1.0  0.55552  0.18079  0.09730  1.0000
  C   C656      1.0  0.58043  0.17961  0.10544  1.0000
  C   C657      1.0  0.59446  0.19673  0.11960  1.0000
  C   C658      1.0  0.58390  0.21581  0.12507  1.0000
  C   C659      1.0  0.55925  0.21735  0.11669  1.0000
  H   H1153     1.0  0.54434  0.16678  0.08675  1.0000
  H   H1154     1.0  0.58814  0.16454  0.10126  1.0000
  H   H1155     1.0  0.59457  0.22907  0.13603  1.0000
  H   H1156     1.0  0.55145  0.23222  0.12092  1.0000
  C   C660      1.0  0.59029  0.38552  0.09852  1.0000
  C   C661      1.0  0.59267  0.38003  0.11678  1.0000
  C   C662      1.0  0.57085  0.35814  0.12515  1.0000
  C   C663      1.0  0.54635  0.34132  0.11545  1.0000
  C   C664      1.0  0.54423  0.34619  0.09709  1.0000
  C   C665      1.0  0.56609  0.36823  0.08869  1.0000
  H   H1157     1.0  0.61112  0.39292  0.12452  1.0000
  H   H1158     1.0  0.57286  0.35425  0.13926  1.0000
  H   H1159     1.0  0.52534  0.33367  0.08946  1.0000
  H   H1160     1.0  0.56400  0.37220  0.07455  1.0000
  C   C666      1.0  0.71747  0.36709  0.12140  1.0000
  C   C667      1.0  0.72636  0.37118  0.10422  1.0000
  C   C668      1.0  0.72773  0.34845  0.09564  1.0000
  C   C669      1.0  0.71992  0.32144  0.10406  1.0000
  C   C670      1.0  0.70982  0.31719  0.12092  1.0000
  C   C671      1.0  0.70879  0.33991  0.12956  1.0000
  H   H1161     1.0  0.73319  0.39206  0.09780  1.0000
  H   H1162     1.0  0.73538  0.35195  0.08254  1.0000
  H   H1163     1.0  0.70313  0.29652  0.12743  1.0000
  H   H1164     1.0  0.70153  0.33651  0.14274  1.0000
  S   S175      1.0  0.50338  0.23986  0.13219  1.0000
  C   C672      1.0  0.87265  0.14438  0.08787  1.0000
  H   H1165     1.0  0.58386  0.46620  0.12336  1.0000
  H   H1166     1.0  0.67025  0.11659  0.02965  1.0000
  C   C673      1.0  0.82327  0.19832  0.17692  1.0000
  H   H1167     1.0  0.71191  0.05918  0.05406  1.0000
  H   H1168     1.0  0.85842  0.12704  0.07942  1.0000
  H   H1169     1.0  0.81380  0.21468  0.11446  1.0000
  C   C674      1.0  0.78095  0.14965  0.05446  1.0000
  C   C675      1.0  0.77845  0.17553  0.05636  1.0000
  C   C676      1.0  0.75761  0.17704  0.06643  1.0000
  C   C677      1.0  0.73871  0.15255  0.07459  1.0000
  C   C678      1.0  0.74077  0.12657  0.07231  1.0000
  C   C679      1.0  0.76200  0.12518  0.06259  1.0000
  H   H1170     1.0  0.79289  0.19465  0.05011  1.0000
  H   H1171     1.0  0.75611  0.19714  0.06780  1.0000
  H   H1172     1.0  0.72609  0.10747  0.07840  1.0000
  H   H1173     1.0  0.76398  0.10528  0.06165  1.0000
  C   C680      1.0  0.83909  0.05186  0.13256  1.0000
  C   C681      1.0  0.82229  0.04871  0.11672  1.0000
  C   C682      1.0  0.83443  0.05631  0.10036  1.0000
  C   C683      1.0  0.86353  0.06716  0.09978  1.0000
  C   C684      1.0  0.88034  0.07020  0.11566  1.0000
  C   C685      1.0  0.86818  0.06261  0.13203  1.0000
  H   H1174     1.0  0.79979  0.04016  0.11714  1.0000
  H   H1175     1.0  0.82131  0.05353  0.08821  1.0000
  H   H1176     1.0  0.90288  0.07852  0.11528  1.0000
  H   H1177     1.0  0.88131  0.06509  0.14419  1.0000
  C   C686      1.0  0.73821  0.21270  0.18285  1.0000
  C   C687      1.0  0.75497  0.21546  0.19872  1.0000
  C   C688      1.0  0.74290  0.21001  0.21513  1.0000
  C   C689      1.0  0.71404  0.20216  0.21573  1.0000
  C   C690      1.0  0.69736  0.19939  0.19984  1.0000
  C   C691      1.0  0.70934  0.20439  0.18345  1.0000
  H   H1178     1.0  0.77733  0.22185  0.19834  1.0000
  H   H1179     1.0  0.75592  0.21231  0.22730  1.0000
  H   H1180     1.0  0.67503  0.19332  0.20021  1.0000
  H   H1181     1.0  0.69621  0.20207  0.17128  1.0000
  C   C692      1.0  0.61044  0.45354  0.14308  1.0000
  N   N37       1.0  0.76713  0.31275  0.16905  1.0000
  C   C693      1.0  0.78117  0.30005  0.18342  1.0000
  C   C694      1.0  0.76749  0.30033  0.15170  1.0000
  C   C695      1.0  0.73710  0.30587  0.17264  1.0000
  C   C696      1.0  0.71943  0.27438  0.17746  1.0000
  C   C697      1.0  0.78149  0.30918  0.20249  1.0000
  C   C698      1.0  0.79632  0.31070  0.14360  1.0000
  C   C699      1.0  0.79458  0.29428  0.12730  1.0000
  C   C700      1.0  0.68841  0.26882  0.17763  1.0000
  C   C701      1.0  0.81401  0.11985  0.10125  1.0000
  Fe  Fe86      1.0  0.65880  0.43937  0.10200  1.0000
  H   H1182     1.0  0.77153  0.27650  0.18332  1.0000
  H   H1183     1.0  0.50542  0.36858  0.17649  1.0000
  H   H1184     1.0  0.73580  0.31879  0.18337  1.0000
  H   H1185     1.0  0.72610  0.31193  0.16082  1.0000
  H   H1186     1.0  0.72634  0.26814  0.19079  1.0000
  H   H1187     1.0  0.72143  0.26036  0.16784  1.0000
  H   H1188     1.0  0.51276  0.20207  0.16437  1.0000
  H   H1189     1.0  0.76036  0.30637  0.20600  1.0000
  H   H1190     1.0  0.80352  0.33340  0.13934  1.0000
  H   H1191     1.0  0.81247  0.30788  0.15318  1.0000
  H   H1192     1.0  0.81499  0.30304  0.12117  1.0000
  H   H1193     1.0  0.78966  0.27167  0.13115  1.0000
  H   H1194     1.0  0.77824  0.29593  0.11732  1.0000
  H   H1195     1.0  0.68010  0.27348  0.16430  1.0000
  H   H1196     1.0  0.67645  0.24618  0.18130  1.0000
  H   H1197     1.0  0.68521  0.28198  0.18746  1.0000
  C   C702      1.0  0.82508  0.16635  0.11468  1.0000
  H   H1198     1.0  0.67366  0.05888  0.03938  1.0000
  H   H1199     1.0  0.75470  0.05356  0.06546  1.0000
  Fe  Fe87      1.0  0.48645  0.21741  0.10705  1.0000
  H   H1200     1.0  0.75627  0.08605  0.09393  1.0000
  C   C703      1.0  0.51884  0.35663  0.17544  1.0000
  H   H1201     1.0  0.74575  0.02231  0.05279  1.0000
  C   C704      1.0  0.69421  0.04440  0.00798  1.0000
  H   H1202     1.0  0.53597  0.28660  0.08715  1.0000
  H   H1203     1.0  0.75971  0.27691  0.15321  1.0000
  C   C705      1.0  0.49661  0.14960  0.15544  1.0000
  C   C706      1.0  0.85336  0.13800  0.12422  1.0000
  H   H1204     1.0  0.70020  0.02654  0.04247  1.0000
  C   C707      1.0  0.46771  0.13350  0.12654  1.0000
  C   C708      1.0  0.79114  0.10169  0.11375  1.0000
  H   H1205     1.0  0.50623  0.11354  0.18564  1.0000
  H   H1206     1.0  0.54663  0.25713  0.08767  1.0000
  N   N38       1.0  0.59119  0.42032  0.17069  1.0000
  H   H1207     1.0  0.51245  0.15126  0.12910  1.0000
  H   H1208     1.0  0.51439  0.17512  0.19055  1.0000
  H   H1209     1.0  0.64997  0.25822  0.08082  1.0000
  H   H1210     1.0  0.66352  0.26387  0.10364  1.0000
  H   H1211     1.0  0.62507  0.45989  0.17788  1.0000
  H   H1212     1.0  0.58405  0.43555  0.20703  1.0000
  C   C709      1.0  0.66923  0.09854  0.03894  1.0000
  H   H1213     1.0  0.75083  0.35992  0.15704  1.0000
  H   H1214     1.0  0.84258  0.18537  0.12004  1.0000
  C   C710      1.0  0.60486  0.44022  0.20203  1.0000
  C   C711      1.0  0.54688  0.27638  0.07997  1.0000
  H   H1215     1.0  0.72479  0.02206  0.07044  1.0000
  H   H1216     1.0  0.53530  0.26988  0.06696  1.0000
  H   H1217     1.0  0.60294  0.38662  0.18281  1.0000
  H   H1218     1.0  0.85648  0.10391  0.15421  1.0000
  H   H1219     1.0  0.78155  0.35337  0.18099  1.0000
  H   H1220     1.0  0.80037  0.09188  0.12467  1.0000
  H   H1221     1.0  0.70356  0.46329  0.17285  1.0000
  H   H1222     1.0  0.82329  0.10545  0.09703  1.0000
  H   H1223     1.0  0.88465  0.98169  0.15938  1.0000
  C   C712      1.0  0.50254  0.13058  0.19159  1.0000
  N   N39       1.0  0.52435  0.16601  0.16517  1.0000
  C   C713      1.0  0.52234  0.16048  0.18498  1.0000
  C   C714      1.0  0.53078  0.19707  0.16130  1.0000
  C   C715      1.0  0.54790  0.15974  0.15893  1.0000
  C   C716      1.0  0.54398  0.12834  0.15944  1.0000
  H   H1224     1.0  0.55793  0.36208  0.16564  1.0000
  C   C717      1.0  0.55754  0.21813  0.17113  1.0000
  C   C718      1.0  0.56765  0.12500  0.15062  1.0000
  C   C719      1.0  0.56107  0.24873  0.16655  1.0000
  H   H1225     1.0  0.54353  0.16523  0.19169  1.0000
  H   H1226     1.0  0.53344  0.20247  0.14703  1.0000
  H   H1227     1.0  0.55244  0.16854  0.14522  1.0000
  H   H1228     1.0  0.56773  0.17077  0.16696  1.0000
  H   H1229     1.0  0.52410  0.11500  0.15235  1.0000
  H   H1230     1.0  0.54468  0.12029  0.17335  1.0000
  H   H1231     1.0  0.65978  0.37086  0.05003  1.0000
  H   H1232     1.0  0.62572  0.46129  0.22618  1.0000
  H   H1233     1.0  0.57656  0.21593  0.16726  1.0000
  H   H1234     1.0  0.55666  0.21472  0.18569  1.0000
  C   C720      1.0  0.82259  0.13767  0.23813  1.0000
  H   H1235     1.0  0.58831  0.13766  0.15729  1.0000
  H   H1236     1.0  0.56486  0.10243  0.15144  1.0000
  H   H1237     1.0  0.56760  0.13207  0.13642  1.0000
  H   H1238     1.0  0.54269  0.25238  0.17030  1.0000
  H   H1239     1.0  0.58012  0.26337  0.17385  1.0000
  H   H1240     1.0  0.56343  0.25367  0.15215  1.0000
  H   H1241     1.0  0.92977  0.03741  0.16121  1.0000
  C   C721      1.0  0.64130  0.41916  0.17527  1.0000
  H   H1242     1.0  0.88210  0.13485  0.09881  1.0000
  H   H1243     1.0  0.65282  0.39646  0.06180  1.0000
  H   H1244     1.0  0.95398  0.01086  0.22450  1.0000
  N   N40       1.0  0.75823  0.13207  0.19161  1.0000
  C   C722      1.0  0.77646  0.15790  0.18121  1.0000
  C   C723      1.0  0.73090  0.11813  0.18084  1.0000
  C   C724      1.0  0.75366  0.14134  0.20900  1.0000
  C   C725      1.0  0.77187  0.11112  0.19532  1.0000
  C   C726      1.0  0.78065  0.10140  0.17885  1.0000
  C   C727      1.0  0.80720  0.17272  0.18876  1.0000
  C   C728      1.0  0.73361  0.11785  0.22105  1.0000
  C   C729      1.0  0.71168  0.13492  0.17830  1.0000
  C   C730      1.0  0.68499  0.11909  0.16694  1.0000
  C   C731      1.0  0.79590  0.08182  0.18423  1.0000
  C   C732      1.0  0.89638  0.16382  0.07674  1.0000
  S   S176      1.0  0.69812  0.19642  0.23597  1.0000
  H   H1245     1.0  0.76740  0.17421  0.18024  1.0000
  H   H1246     1.0  0.77673  0.15289  0.16724  1.0000
  H   H1247     1.0  0.73491  0.11440  0.16730  1.0000
  H   H1248     1.0  0.71861  0.09668  0.18655  1.0000
  H   H1249     1.0  0.74610  0.15877  0.20681  1.0000
  H   H1250     1.0  0.77378  0.15056  0.21707  1.0000
  H   H1251     1.0  0.79049  0.11955  0.20486  1.0000
  H   H1252     1.0  0.75746  0.09157  0.20211  1.0000
  H   H1253     1.0  0.79493  0.11958  0.17107  1.0000
  H   H1254     1.0  0.76201  0.08957  0.17010  1.0000
  H   H1255     1.0  0.80807  0.18045  0.20214  1.0000
  H   H1256     1.0  0.81845  0.15830  0.18965  1.0000
  C   C733      1.0  0.94323  0.04108  0.15001  1.0000
  H   H1257     1.0  0.71355  0.10523  0.21386  1.0000
  H   H1258     1.0  0.70523  0.13839  0.19114  1.0000
  H   H1259     1.0  0.72247  0.15575  0.17149  1.0000
  H   H1260     1.0  0.67174  0.13165  0.16539  1.0000
  H   H1261     1.0  0.69009  0.11605  0.15356  1.0000
  H   H1262     1.0  0.67284  0.09819  0.17332  1.0000
  H   H1263     1.0  0.80135  0.07468  0.17221  1.0000
  H   H1264     1.0  0.81560  0.09313  0.19226  1.0000
  H   H1265     1.0  0.78252  0.06290  0.19197  1.0000
  H   H1266     1.0  0.80385  0.12543  0.08887  1.0000
  C   C734      1.0  0.67965  0.45969  0.04581  1.0000
  C   C735      1.0  0.93608  0.16182  0.99600  1.0000
  H   H1267     1.0  0.75321  0.06345  0.11354  1.0000
  C   C736      1.0  0.58599  0.42922  0.15170  1.0000
  H   H1268     1.0  0.47465  0.33133  0.20974  1.0000
  H   H1269     1.0  0.79559  0.33176  0.20387  1.0000
  C   C737      1.0  0.65648  0.39919  0.17478  1.0000
  Fe  Fe88      1.0  0.48812  0.27252  0.11984  1.0000
  H   H1270     1.0  0.78214  0.40300  0.14188  1.0000
  H   H1271     1.0  0.49000  0.12653  0.15822  1.0000
  C   C738      1.0  0.67896  0.99724  0.99342  1.0000
  H   H1272     1.0  0.78155  0.18456  0.11853  1.0000
  N   N41       1.0  0.62473  0.32176  0.09466  1.0000
  C   C739      1.0  0.59337  0.30693  0.09523  1.0000
  C   C740      1.0  0.63659  0.33577  0.11200  1.0000
  C   C741      1.0  0.63066  0.34494  0.08030  1.0000
  C   C742      1.0  0.63872  0.30237  0.09064  1.0000
  C   C743      1.0  0.62527  0.27109  0.09738  1.0000
  C   C744      1.0  0.57696  0.29679  0.07728  1.0000
  C   C745      1.0  0.66188  0.36477  0.07878  1.0000
  C   C746      1.0  0.63190  0.31619  0.12893  1.0000
  C   C747      1.0  0.63944  0.33349  0.14552  1.0000
  C   C748      1.0  0.64419  0.25565  0.09475  1.0000
  C   C749      1.0  0.66579  0.38374  0.06195  1.0000
  H   H1273     1.0  0.58469  0.32118  0.10044  1.0000
  H   H1274     1.0  0.58751  0.28837  0.10467  1.0000
  H   H1275     1.0  0.65963  0.34725  0.11200  1.0000
  H   H1276     1.0  0.62822  0.35219  0.11372  1.0000
  H   H1277     1.0  0.61897  0.35845  0.08209  1.0000
  H   H1278     1.0  0.62306  0.33570  0.06710  1.0000
  H   H1279     1.0  0.63961  0.30160  0.07609  1.0000
  H   H1280     1.0  0.66102  0.31102  0.09589  1.0000
  H   H1281     1.0  0.60494  0.25991  0.08992  1.0000
  H   H1282     1.0  0.62145  0.26910  0.11157  1.0000
  H   H1283     1.0  0.57595  0.31515  0.06900  1.0000
  H   H1284     1.0  0.58712  0.28609  0.06989  1.0000
  H   H1285     1.0  0.67520  0.35255  0.07846  1.0000
  H   H1286     1.0  0.66953  0.37883  0.09013  1.0000
  H   H1287     1.0  0.60989  0.30109  0.12968  1.0000
  H   H1288     1.0  0.64563  0.30423  0.12946  1.0000
  H   H1289     1.0  0.62476  0.34415  0.14623  1.0000
  H   H1290     1.0  0.63786  0.31931  0.15748  1.0000
  H   H1291     1.0  0.66115  0.34976  0.14544  1.0000
  H   H1292     1.0  0.63317  0.23276  0.09794  1.0000
  Fe  Fe89      1.0  0.68939  0.47671  0.13305  1.0000
  H   H1293     1.0  0.84514  0.20872  0.18258  1.0000
  H   H1294     1.0  0.75262  0.30428  0.14145  1.0000
  H   H1295     1.0  0.80340  0.30571  0.18082  1.0000
  C   C750      1.0  0.73723  0.03528  0.05955  1.0000
  H   H1296     1.0  0.49624  0.17586  0.13128  1.0000
  C   C751      1.0  0.67567  0.07661  0.02972  1.0000
  C   C752      1.0  0.49520  0.15425  0.13501  1.0000
  C   C753      1.0  0.71864  0.04550  0.04661  1.0000
  H   H1297     1.0  0.78517  0.20463  0.09785  1.0000
  C   C754      1.0  0.78264  0.34445  0.16833  1.0000
  C   C755      1.0  0.77143  0.36075  0.15371  1.0000
  H   H1298     1.0  0.92260  0.16665  0.00406  1.0000
  S   S177      1.0  0.47285  0.25113  0.09382  1.0000
  H   H1299     1.0  0.57970  0.41102  0.14296  1.0000
  C   C756      1.0  0.60360  0.44618  0.18169  1.0000
  H   H1300     1.0  0.71328  0.01293  0.01276  1.0000
  C   C757      1.0  0.54565  0.37519  0.16663  1.0000
  H   H1301     1.0  0.75137  0.08188  0.03587  1.0000
  H   H1302     1.0  0.49118  0.10560  0.21611  1.0000
  H   H1303     1.0  0.96552  0.02098  0.13781  1.0000
  H   H1304     1.0  0.68437  0.10667  0.05051  1.0000
  C   C758      1.0  0.93178  0.99756  0.22078  1.0000
  H   H1305     1.0  0.76888  0.35187  0.14051  1.0000
  S   S178      1.0  0.77046  0.01072  0.02030  1.0000
  C   C759      1.0  0.73453  0.06257  0.03055  1.0000
  H   H1306     1.0  0.82071  0.18917  0.08948  1.0000
  H   H1307     1.0  0.47322  0.29699  0.20504  1.0000
  H   H1308     1.0  0.71985  0.10417  0.03220  1.0000
  C   C760      1.0  0.56291  0.40186  0.17735  1.0000
  H   H1309     1.0  0.77799  0.98733  0.13368  1.0000
  H   H1310     1.0  0.88800  0.17328  0.06515  1.0000
  H   H1311     1.0  0.77694  0.06488  0.09730  1.0000
  C   C761      1.0  0.79109  0.39190  0.15221  1.0000
  H   H1312     1.0  0.85381  0.11690  0.12233  1.0000
  H   H1313     1.0  0.96088  0.06204  0.15118  1.0000
  C   C762      1.0  0.79230  0.29191  0.21615  1.0000
  C   C763      1.0  0.79649  0.19636  0.10839  1.0000
  H   H1314     1.0  0.80535  0.35024  0.16701  1.0000
  H   H1315     1.0  0.84821  0.15951  0.14680  1.0000
  H   H1316     1.0  0.87179  0.18167  0.09915  1.0000
  H   H1317     1.0  0.75022  0.12965  0.01060  1.0000
  H   H1318     1.0  0.65933  0.06832  0.01877  1.0000
  H   H1319     1.0  0.82377  0.19168  0.16341  1.0000
  H   H1320     1.0  0.81116  0.15699  0.12565  1.0000
  C   C764      1.0  0.95408  0.01755  0.14996  1.0000
  H   H1321     1.0  0.52767  0.12872  0.21590  1.0000
  H   H1322     1.0  0.64786  0.08869  0.04377  1.0000
  H   H1323     1.0  0.90732  0.15140  0.07185  1.0000
  H   H1324     1.0  0.85384  0.12661  0.17028  1.0000
  C   C765      1.0  0.87463  0.97935  0.14572  1.0000
  H   H1325     1.0  0.81191  0.39412  0.14834  1.0000
  H   H1326     1.0  0.64666  0.42838  0.18850  1.0000
  C   C766      1.0  0.70984  0.47494  0.20016  1.0000
  H   H1327     1.0  0.78967  0.15887  0.09499  1.0000
  C   C767      1.0  0.84412  0.13766  0.14315  1.0000
  H   H1328     1.0  0.74749  0.07330  0.99715  1.0000
  H   H1329     1.0  0.65258  0.38970  0.16167  1.0000
  H   H1330     1.0  0.62851  0.44769  0.14273  1.0000
  H   H1331     1.0  0.79340  0.29961  0.22958  1.0000
  H   H1332     1.0  0.78115  0.11437  0.11931  1.0000
  H   H1333     1.0  0.83053  0.98805  0.15416  1.0000
  H   H1334     1.0  0.82161  0.12455  0.14424  1.0000
  H   H1335     1.0  0.79354  0.40218  0.16495  1.0000
  H   H1336     1.0  0.93047  0.04140  0.13752  1.0000
  H   H1337     1.0  0.74600  0.05087  0.02541  1.0000
  H   H1338     1.0  0.64998  0.43663  0.16539  1.0000
  H   H1339     1.0  0.83388  0.15517  0.22931  1.0000
  H   H1340     1.0  0.56805  0.43603  0.15058  1.0000
  C   C768      1.0  0.76804  0.07756  0.10398  1.0000
  H   H1341     1.0  0.91186  0.18098  0.08479  1.0000
  H   H1342     1.0  0.81332  0.21395  0.17599  1.0000
  C   C769      1.0  0.80784  0.17693  0.10043  1.0000
  C   C770      1.0  0.47881  0.31276  0.21545  1.0000
  H   H1343     1.0  0.87571  0.15312  0.12468  1.0000
  H   H1344     1.0  0.61042  0.42172  0.20564  1.0000
  H   H1345     1.0  0.70250  0.10454  0.01103  1.0000
  H   H1346     1.0  0.50158  0.14306  0.21828  1.0000
  C   C771      1.0  0.60918  0.40313  0.17189  1.0000
  H   H1347     1.0  0.84472  0.16564  0.08252  1.0000
  H   H1348     1.0  0.68259  0.05094  0.99665  1.0000
  C   C772      1.0  0.86052  0.12612  0.15688  1.0000
  H   H1349     1.0  0.93008  0.98799  0.20790  1.0000
  C   C773      1.0  0.75884  0.11535  0.00552  1.0000
  H   H1350     1.0  0.93567  0.99729  0.14905  1.0000
  H   H1351     1.0  0.81354  0.29390  0.21330  1.0000
  H   H1352     1.0  0.88334  0.13904  0.15671  1.0000
  H   H1353     1.0  0.64946  0.38205  0.18521  1.0000
  C   C774      1.0  0.85629  0.16086  0.09455  1.0000
  N   N42       1.0  0.83666  0.14592  0.10889  1.0000
  H   H1354     1.0  0.61689  0.47339  0.15023  1.0000
  H   H1355     1.0  0.96237  0.01847  0.17839  1.0000
  H   H1356     1.0  0.53933  0.38109  0.15306  1.0000
  H   H1357     1.0  0.56527  0.39402  0.19121  1.0000
  C   C775      1.0  0.82706  0.11238  0.23831  1.0000
  H   H1358     1.0  0.59137  0.45973  0.17887  1.0000
  H   H1359     1.0  0.81082  0.98878  0.12693  1.0000
  H   H1360     1.0  0.77446  0.11294  0.01564  1.0000
  H   H1361     1.0  0.52384  0.34886  0.18882  1.0000
  H   H1362     1.0  0.67939  0.41114  0.17715  1.0000
  H   H1363     1.0  0.71430  0.14345  0.23167  1.0000
  H   H1364     1.0  0.77970  0.99273  0.10143  1.0000
  H   H1365     1.0  0.74368  0.10336  0.22666  1.0000
  C   C776      1.0  0.73597  0.08582  0.00116  1.0000
  H   H1366     1.0  0.47989  0.15498  0.16038  1.0000
  S   S179      1.0  0.95378  0.08098  0.18771  1.0000
  H   H1367     1.0  0.50692  0.33799  0.16730  1.0000
  H   H1368     1.0  0.67702  0.45890  0.03116  1.0000
  H   H1369     1.0  0.59663  0.44123  0.11582  1.0000
  C   C777      1.0  0.70375  0.02188  0.00154  1.0000
  N   N43       1.0  0.71709  0.07031  0.01579  1.0000
  H   H1370     1.0  0.87471  0.00013  0.14047  1.0000
  H   H1371     1.0  0.69711  0.45317  0.05056  1.0000
  C   C778      1.0  0.60203  0.45996  0.12395  1.0000
  H   H1372     1.0  0.71596  0.45775  0.20491  1.0000
  H   H1373     1.0  0.77788  0.26928  0.21613  1.0000
  C   C779      1.0  0.76091  0.99076  0.00088  1.0000
  C   C780      1.0  0.70497  0.09005  0.02212  1.0000
  H   H1374     1.0  0.91984  0.01139  0.21919  1.0000
  H   H1375     1.0  0.67828  0.03297  0.01757  1.0000
  C   C781      1.0  0.72658  0.13062  0.23650  1.0000
  C   C782      1.0  0.50605  0.12687  0.21172  1.0000
  H   H1376     1.0  0.50145  0.31942  0.21946  1.0000
  H   H1377     1.0  0.78616  0.98314  0.16201  1.0000
  H   H1378     1.0  0.64765  0.46983  0.20791  1.0000
  H   H1379     1.0  0.77142  0.99201  0.19128  1.0000
  H   H1380     1.0  0.48038  0.12762  0.18814  1.0000
  H   H1381     1.0  0.66021  0.44455  0.05160  1.0000
  H   H1382     1.0  0.66329  0.98650  0.00334  1.0000
  C   C783      1.0  0.62624  0.46568  0.21164  1.0000
  S   S180      1.0  0.89368  0.10762  0.99322  1.0000
  H   H1383     1.0  0.79158  0.15050  0.99297  1.0000
  H   H1384     1.0  0.46675  0.13833  0.11204  1.0000
  H   H1385     1.0  0.61981  0.47772  0.11817  1.0000
  C   C784      1.0  0.70269  0.47793  0.18203  1.0000
  Fe  Fe90      1.0  0.85770  0.40579  0.40030  1.0000
  S   S181      1.0  0.89632  0.40809  0.38815  1.0000
  S   S182      1.0  0.84901  0.38241  0.42694  1.0000
  Fe  Fe91      1.0  0.84254  0.44012  0.36941  1.0000
  S   S183      1.0  0.88120  0.44641  0.35592  1.0000
  Fe  Fe92      1.0  0.86938  0.39963  0.36238  1.0000
  S   S184      1.0  0.87038  0.37226  0.34015  1.0000
  Fe  Fe93      1.0  0.90451  0.45410  0.38306  1.0000
  S   S185      1.0  0.83031  0.39331  0.37521  1.0000
  S   S186      1.0  0.86619  0.45177  0.39586  1.0000
  H   H1386     1.0  0.66704  0.45905  0.30068  1.0000
  S   S187      1.0  0.52950  0.03994  0.38836  1.0000
  H   H1387     1.0  0.49164  0.10499  0.26843  1.0000
  S   S188      1.0  0.52950  0.09848  0.36730  1.0000
  H   H1388     1.0  0.78902  0.39895  0.28069  1.0000
  Fe  Fe94      1.0  0.53035  0.05773  0.36003  1.0000
  S   S189      1.0  0.56105  0.05854  0.33997  1.0000
  Fe  Fe95      1.0  0.52538  0.07989  0.39502  1.0000
  S   S190      1.0  0.54881  0.11264  0.41516  1.0000
  N   N44       1.0  0.93989  0.45313  0.45152  1.0000
  H   H1389     1.0  0.81389  0.37099  0.31998  1.0000
  Fe  Fe96      1.0  0.75186  0.15678  0.28081  1.0000
  S   S191      1.0  0.76634  0.19878  0.26595  1.0000
  S   S192      1.0  0.76850  0.12239  0.27727  1.0000
  Fe  Fe97      1.0  0.70879  0.16983  0.30047  1.0000
  S   S193      1.0  0.72068  0.21286  0.28637  1.0000
  S   S194      1.0  0.67633  0.16044  0.32129  1.0000
  Fe  Fe98      1.0  0.72074  0.19069  0.26197  1.0000
  Fe  Fe99      1.0  0.76539  0.21765  0.29178  1.0000
  S   S195      1.0  0.80376  0.25826  0.29839  1.0000
  S   S196      1.0  0.70576  0.14746  0.27555  1.0000
  S   S197      1.0  0.75403  0.17582  0.30715  1.0000
  H   H1390     1.0  0.75430  0.36563  0.33195  1.0000
  H   H1391     1.0  0.83690  0.36116  0.46233  1.0000
  C   C785      1.0  0.80382  0.14063  0.24934  1.0000
  Fe  Fe100     1.0  0.52313  0.41622  0.38179  1.0000
  S   S198      1.0  0.54397  0.40281  0.40623  1.0000
  S   S199      1.0  0.52095  0.39916  0.35502  1.0000
  H   H1392     1.0  0.69466  0.38901  0.48565  1.0000
  C   C786      1.0  0.52649  0.39221  0.42598  1.0000
  H   H1393     1.0  0.81575  0.40588  0.33930  1.0000
  H   H1394     1.0  0.77017  0.38339  0.35214  1.0000
  C   C787      1.0  0.49954  0.37442  0.45789  1.0000
  C   C788      1.0  0.52873  0.38498  0.45814  1.0000
  C   C789      1.0  0.54212  0.39353  0.44220  1.0000
  Fe  Fe101     1.0  0.47794  0.39948  0.35159  1.0000
  H   H1395     1.0  0.85785  0.42169  0.32039  1.0000
  H   H1396     1.0  0.54100  0.38645  0.47060  1.0000
  C   C790      1.0  0.78983  0.11864  0.26133  1.0000
  H   H1397     1.0  0.80030  0.46520  0.27000  1.0000
  H   H1398     1.0  0.48227  0.12113  0.29889  1.0000
  C   C791      1.0  0.53928  0.14335  0.31561  1.0000
  H   H1399     1.0  0.53703  0.22994  0.48929  1.0000
  H   H1400     1.0  0.68719  0.36084  0.45939  1.0000
  H   H1401     1.0  0.68052  0.30363  0.48168  1.0000
  H   H1402     1.0  0.65441  0.47336  0.34257  1.0000
  H   H1403     1.0  0.46846  0.28796  0.32658  1.0000
  C   C792      1.0  0.64374  0.13199  0.32537  1.0000
  C   C793      1.0  0.62532  0.13655  0.33605  1.0000
  C   C794      1.0  0.59975  0.11454  0.34029  1.0000
  C   C795      1.0  0.59249  0.08737  0.33427  1.0000
  C   C796      1.0  0.61073  0.08283  0.32344  1.0000
  C   C797      1.0  0.63614  0.10498  0.31896  1.0000
  H   H1404     1.0  0.63091  0.15736  0.34100  1.0000
  H   H1405     1.0  0.58570  0.11856  0.34827  1.0000
  H   H1406     1.0  0.60532  0.06196  0.31860  1.0000
  H   H1407     1.0  0.65005  0.10102  0.31080  1.0000
  C   C798      1.0  0.54937  0.10403  0.43797  1.0000
  C   C799      1.0  0.54837  0.07756  0.44447  1.0000
  C   C800      1.0  0.54971  0.07172  0.46283  1.0000
  C   C801      1.0  0.55168  0.09218  0.47469  1.0000
  C   C802      1.0  0.55249  0.11854  0.46814  1.0000
  C   C803      1.0  0.55170  0.12456  0.44982  1.0000
  H   H1408     1.0  0.54692  0.06177  0.43537  1.0000
  H   H1409     1.0  0.54923  0.05134  0.46789  1.0000
  H   H1410     1.0  0.55407  0.13441  0.47720  1.0000
  H   H1411     1.0  0.55260  0.14511  0.44481  1.0000
  C   C804      1.0  0.84994  0.33944  0.33002  1.0000
  C   C805      1.0  0.86228  0.33151  0.31691  1.0000
  C   C806      1.0  0.84769  0.30667  0.30773  1.0000
  C   C807      1.0  0.82017  0.28903  0.31124  1.0000
  C   C808      1.0  0.80744  0.29661  0.32447  1.0000
  C   C809      1.0  0.82235  0.32175  0.33389  1.0000
  H   H1412     1.0  0.88346  0.34477  0.31376  1.0000
  H   H1413     1.0  0.85787  0.30120  0.29767  1.0000
  H   H1414     1.0  0.78624  0.28315  0.32743  1.0000
  H   H1415     1.0  0.81250  0.32746  0.34403  1.0000
  C   C810      1.0  0.83597  0.39458  0.44377  1.0000
  C   C811      1.0  0.82898  0.41822  0.44104  1.0000
  C   C812      1.0  0.81633  0.42575  0.45427  1.0000
  C   C813      1.0  0.81080  0.40986  0.47034  1.0000
  C   C814      1.0  0.81892  0.38701  0.47334  1.0000
  C   C815      1.0  0.83140  0.37937  0.46008  1.0000
  H   H1416     1.0  0.83274  0.43035  0.42862  1.0000
  H   H1417     1.0  0.81033  0.44363  0.45192  1.0000
  C   C816      1.0  0.54675  0.12716  0.28793  1.0000
  H   H1418     1.0  0.48173  0.02374  0.29588  1.0000
  C   C817      1.0  0.73162  0.47538  0.37776  1.0000
  H   H1419     1.0  0.59965  0.14496  0.27481  1.0000
  H   H1420     1.0  0.53749  0.11383  0.27636  1.0000
  H   H1421     1.0  0.50039  0.46509  0.47882  1.0000
  N   N45       1.0  0.72933  0.35659  0.43982  1.0000
  C   C818      1.0  0.72918  0.33074  0.45065  1.0000
  C   C819      1.0  0.70248  0.34818  0.42815  1.0000
  C   C820      1.0  0.75463  0.36755  0.42900  1.0000
  C   C821      1.0  0.73080  0.37967  0.45147  1.0000
  C   C822      1.0  0.70873  0.37072  0.46556  1.0000
  C   C823      1.0  0.75389  0.33559  0.46479  1.0000
  C   C824      1.0  0.75763  0.39369  0.41645  1.0000
  C   C825      1.0  0.70035  0.32993  0.41230  1.0000
  C   C826      1.0  0.49065  0.04072  0.30555  1.0000
  C   C827      1.0  0.51864  0.33027  0.37798  1.0000
  H   H1422     1.0  0.92301  0.98661  0.28726  1.0000
  C   C828      1.0  0.77812  0.39756  0.40236  1.0000
  H   H1423     1.0  0.72961  0.31456  0.44192  1.0000
  H   H1424     1.0  0.70932  0.32030  0.45735  1.0000
  H   H1425     1.0  0.68424  0.33597  0.43609  1.0000
  H   H1426     1.0  0.69858  0.36713  0.42282  1.0000
  H   H1427     1.0  0.75548  0.35035  0.42131  1.0000
  H   H1428     1.0  0.77415  0.37415  0.43780  1.0000
  H   H1429     1.0  0.75189  0.38929  0.45839  1.0000
  H   H1430     1.0  0.72838  0.39751  0.44326  1.0000
  C   C829      1.0  0.74965  0.30874  0.47624  1.0000
  C   C830      1.0  0.49453  0.12654  0.27177  1.0000
  H   H1431     1.0  0.77368  0.34129  0.45828  1.0000
  C   C831      1.0  0.47216  0.37911  0.28811  1.0000
  H   H1432     1.0  0.76569  0.41307  0.42427  1.0000
  H   H1433     1.0  0.73751  0.39207  0.40945  1.0000
  H   H1434     1.0  0.71599  0.34204  0.40264  1.0000
  C   C832      1.0  0.53639  0.16732  0.34298  1.0000
  C   C833      1.0  0.79244  0.43610  0.29318  1.0000
  H   H1435     1.0  0.88740  0.45930  0.45377  1.0000
  H   H1436     1.0  0.67061  0.30803  0.39106  1.0000
  C   C834      1.0  0.88800  0.47687  0.31027  1.0000
  H   H1437     1.0  0.51471  0.07028  0.28611  1.0000
  H   H1438     1.0  0.60432  0.46008  0.29593  1.0000
  C   C835      1.0  0.51471  0.47025  0.42348  1.0000
  H   H1439     1.0  0.58117  0.26716  0.48155  1.0000
  C   C836      1.0  0.73586  0.45001  0.38734  1.0000
  H   H1440     1.0  0.79835  0.39776  0.40849  1.0000
  H   H1441     1.0  0.76930  0.38012  0.39299  1.0000
  H   H1442     1.0  0.78222  0.41792  0.39474  1.0000
  N   N46       1.0  0.84867  0.19327  0.29897  1.0000
  C   C837      1.0  0.83846  0.19413  0.27977  1.0000
  C   C838      1.0  0.83583  0.16316  0.30633  1.0000
  C   C839      1.0  0.83776  0.21088  0.30878  1.0000
  C   C840      1.0  0.88025  0.20501  0.30174  1.0000
  C   C841      1.0  0.89665  0.20110  0.28673  1.0000
  C   C842      1.0  0.84553  0.22420  0.27101  1.0000
  C   C843      1.0  0.84270  0.21012  0.32925  1.0000
  C   C844      1.0  0.84427  0.14118  0.29828  1.0000
  C   C845      1.0  0.82795  0.11132  0.30581  1.0000
  C   C846      1.0  0.92745  0.20873  0.29276  1.0000
  C   C847      1.0  0.84250  0.22363  0.25082  1.0000
  H   H1443     1.0  0.81526  0.18285  0.27832  1.0000
  H   H1444     1.0  0.84639  0.18230  0.27163  1.0000
  H   H1445     1.0  0.84167  0.16195  0.32071  1.0000
  H   H1446     1.0  0.81252  0.15548  0.30502  1.0000
  H   H1447     1.0  0.81484  0.20442  0.30562  1.0000
  H   H1448     1.0  0.84745  0.23354  0.30428  1.0000
  H   H1449     1.0  0.88879  0.22824  0.30365  1.0000
  H   H1450     1.0  0.88659  0.19583  0.31431  1.0000
  H   H1451     1.0  0.89592  0.21513  0.27505  1.0000
  H   H1452     1.0  0.88806  0.17923  0.28216  1.0000
  H   H1453     1.0  0.83095  0.23320  0.27511  1.0000
  H   H1454     1.0  0.86710  0.23884  0.27508  1.0000
  H   H1455     1.0  0.82849  0.18954  0.33501  1.0000
  H   H1456     1.0  0.84022  0.14082  0.28372  1.0000
  H   H1457     1.0  0.86674  0.14584  0.30173  1.0000
  H   H1458     1.0  0.80508  0.10523  0.30301  1.0000
  H   H1459     1.0  0.83401  0.09596  0.29954  1.0000
  H   H1460     1.0  0.83257  0.10997  0.32034  1.0000
  H   H1461     1.0  0.70583  0.41180  0.46622  1.0000
  C   C848      1.0  0.48388  0.37254  0.44165  1.0000
  H   H1462     1.0  0.73139  0.40654  0.48228  1.0000
  H   H1463     1.0  0.51948  0.99597  0.44311  1.0000
  H   H1464     1.0  0.90099  0.46797  0.31910  1.0000
  H   H1465     1.0  0.48701  0.33682  0.27901  1.0000
  S   S200      1.0  0.47885  0.41329  0.37936  1.0000
  H   H1466     1.0  0.95542  0.99111  0.29979  1.0000
  H   H1467     1.0  0.55105  0.16513  0.31007  1.0000
  H   H1468     1.0  0.85670  0.21481  0.24591  1.0000
  H   H1469     1.0  0.92220  0.47348  0.47979  1.0000
  H   H1470     1.0  0.81549  0.07045  0.25022  1.0000
  H   H1471     1.0  0.76740  0.31291  0.48641  1.0000
  N   N47       1.0  0.47421  0.44858  0.44468  1.0000
  H   H1472     1.0  0.55500  0.13680  0.32344  1.0000
  H   H1473     1.0  0.51006  0.12495  0.33651  1.0000
  C   C849      1.0  0.49927  0.98293  0.43613  1.0000
  C   C850      1.0  0.83720  0.39131  0.29184  1.0000
  C   C851      1.0  0.81792  0.36220  0.28425  1.0000
  C   C852      1.0  0.83389  0.35131  0.27282  1.0000
  H   H1474     1.0  0.78396  0.37167  0.30698  1.0000
  H   H1475     1.0  0.85330  0.38736  0.30113  1.0000
  H   H1476     1.0  0.79980  0.36344  0.27595  1.0000
  H   H1477     1.0  0.80980  0.34611  0.29515  1.0000
  C   C853      1.0  0.48334  0.25427  0.28022  1.0000
  C   C854      1.0  0.93266  0.43254  0.43686  1.0000
  C   C855      1.0  0.47481  0.98497  0.44474  1.0000
  H   H1478     1.0  0.82057  0.21072  0.24621  1.0000
  H   H1479     1.0  0.51293  0.30786  0.37495  1.0000
  H   H1480     1.0  0.56537  0.09841  0.30111  1.0000
  C   C856      1.0  0.81227  0.08999  0.24982  1.0000
  H   H1481     1.0  0.55803  0.21493  0.47951  1.0000
  C   C857      1.0  0.92498  0.43701  0.46750  1.0000
  C   C858      1.0  0.48384  0.28345  0.27429  1.0000
  H   H1482     1.0  0.47031  0.24551  0.29173  1.0000
  H   H1483     1.0  0.66768  0.42433  0.30353  1.0000
  H   H1484     1.0  0.53390  0.33569  0.38971  1.0000
  C   C859      1.0  0.50186  0.13171  0.29186  1.0000
  H   H1485     1.0  0.93734  0.23096  0.29693  1.0000
  H   H1486     1.0  0.65117  0.32715  0.49000  1.0000
  C   C860      1.0  0.48986  0.44190  0.47796  1.0000
  H   H1487     1.0  0.49230  0.07134  0.43453  1.0000
  Fe  Fe102     1.0  0.48222  0.02191  0.38355  1.0000
  C   C861      1.0  0.50477  0.45658  0.44188  1.0000
  C   C862      1.0  0.86627  0.45383  0.29901  1.0000
  S   S201      1.0  0.54215  0.46159  0.37193  1.0000
  H   H1488     1.0  0.58488  0.13528  0.30562  1.0000
  H   H1489     1.0  0.81494  0.37473  0.48568  1.0000
  H   H1490     1.0  0.52898  0.34385  0.36653  1.0000
  H   H1491     1.0  0.65492  0.30758  0.41131  1.0000
  H   H1492     1.0  0.75181  0.44525  0.38099  1.0000
  C   C863      1.0  0.61185  0.36520  0.48437  1.0000
  H   H1493     1.0  0.47434  0.03822  0.31472  1.0000
  N   N48       1.0  0.62600  0.10624  0.40155  1.0000
  C   C864      1.0  0.60848  0.11939  0.39032  1.0000
  C   C865      1.0  0.61456  0.07492  0.39844  1.0000
  C   C866      1.0  0.62239  0.10947  0.42070  1.0000
  C   C867      1.0  0.65675  0.12019  0.39814  1.0000
  C   C868      1.0  0.66418  0.13204  0.37895  1.0000
  C   C869      1.0  0.61413  0.15040  0.39436  1.0000
  C   C870      1.0  0.63548  0.09409  0.43480  1.0000
  C   C871      1.0  0.61554  0.06638  0.37951  1.0000
  C   C872      1.0  0.60052  0.03444  0.37764  1.0000
  C   C873      1.0  0.69516  0.14006  0.37643  1.0000
  C   C874      1.0  0.60034  0.16391  0.37997  1.0000
  C   C875      1.0  0.63490  0.10326  0.45341  1.0000
  H   H1494     1.0  0.58582  0.10660  0.39179  1.0000
  H   H1495     1.0  0.61101  0.11884  0.37612  1.0000
  H   H1496     1.0  0.62644  0.06445  0.40699  1.0000
  H   H1497     1.0  0.59245  0.06478  0.40220  1.0000
  H   H1498     1.0  0.59973  0.10181  0.42304  1.0000
  H   H1499     1.0  0.63166  0.13219  0.42394  1.0000
  H   H1500     1.0  0.66768  0.13845  0.40679  1.0000
  H   H1501     1.0  0.66714  0.10521  0.40197  1.0000
  H   H1502     1.0  0.65986  0.15141  0.37598  1.0000
  H   H1503     1.0  0.65200  0.11691  0.36874  1.0000
  H   H1504     1.0  0.60527  0.15100  0.40699  1.0000
  H   H1505     1.0  0.63685  0.16365  0.39565  1.0000
  H   H1506     1.0  0.65752  0.09864  0.43230  1.0000
  H   H1507     1.0  0.62328  0.07088  0.43478  1.0000
  H   H1508     1.0  0.60532  0.07660  0.36959  1.0000
  H   H1509     1.0  0.63753  0.07206  0.37641  1.0000
  H   H1510     1.0  0.60180  0.02911  0.36393  1.0000
  H   H1511     1.0  0.61035  0.02287  0.38700  1.0000
  H   H1512     1.0  0.57806  0.02729  0.38010  1.0000
  H   H1513     1.0  0.70043  0.12109  0.37829  1.0000
  H   H1514     1.0  0.69978  0.14905  0.36276  1.0000
  H   H1515     1.0  0.70847  0.15620  0.38591  1.0000
  H   H1516     1.0  0.60873  0.16455  0.36697  1.0000
  H   H1517     1.0  0.57732  0.15183  0.37905  1.0000
  H   H1518     1.0  0.60458  0.18590  0.38335  1.0000
  H   H1519     1.0  0.64784  0.12619  0.45466  1.0000
  H   H1520     1.0  0.61308  0.09897  0.45644  1.0000
  C   C876      1.0  0.47667  0.00933  0.48445  1.0000
  H   H1521     1.0  0.50878  0.03809  0.31319  1.0000
  H   H1522     1.0  0.82036  0.32949  0.26887  1.0000
  H   H1523     1.0  0.49460  0.38340  0.29159  1.0000
  C   C877      1.0  0.51988  0.14551  0.32927  1.0000
  H   H1524     1.0  0.69856  0.45393  0.29714  1.0000
  S   S202      1.0  0.48320  0.03690  0.35464  1.0000
  H   H1525     1.0  0.58988  0.36183  0.47999  1.0000
  H   H1526     1.0  0.55347  0.16192  0.34989  1.0000
  H   H1527     1.0  0.49119  0.32880  0.24973  1.0000
  H   H1528     1.0  0.49932  0.99026  0.42198  1.0000
  H   H1529     1.0  0.60985  0.11851  0.28651  1.0000
  H   H1530     1.0  0.84874  0.40472  0.28066  1.0000
  H   H1531     1.0  0.70255  0.43936  0.32875  1.0000
  H   H1532     1.0  0.47496  0.23958  0.26918  1.0000
  H   H1533     1.0  0.94023  0.44410  0.42412  1.0000
  H   H1534     1.0  0.70388  0.31054  0.41678  1.0000
  H   H1535     1.0  0.77160  0.46338  0.28216  1.0000
  H   H1536     1.0  0.90242  0.42463  0.46370  1.0000
  H   H1537     1.0  0.87784  0.44513  0.29128  1.0000
  H   H1538     1.0  0.74872  0.29136  0.46806  1.0000
  H   H1539     1.0  0.71589  0.43105  0.38714  1.0000
  H   H1540     1.0  0.75634  0.35251  0.47378  1.0000
  C   C878      1.0  0.46711  0.43269  0.46233  1.0000
  H   H1541     1.0  0.47479  0.33190  0.40616  1.0000
  S   S203      1.0  0.49297  0.44414  0.33980  1.0000
  H   H1542     1.0  0.93879  0.20650  0.28165  1.0000
  H   H1543     1.0  0.56471  0.40146  0.44246  1.0000
  H   H1544     1.0  0.88949  0.45106  0.43153  1.0000
  H   H1545     1.0  0.92071  0.98546  0.24745  1.0000
  C   C879      1.0  0.49979  0.06965  0.29578  1.0000
  C   C880      1.0  0.78232  0.45066  0.27740  1.0000
  H   H1546     1.0  0.88433  0.43031  0.49130  1.0000
  H   H1547     1.0  0.66719  0.33955  0.39728  1.0000
  H   H1548     1.0  0.86467  0.21328  0.33337  1.0000
  C   C881      1.0  0.71032  0.39613  0.47546  1.0000
  Fe  Fe103     1.0  0.53662  0.44463  0.34476  1.0000
  C   C882      1.0  0.49731  0.38182  0.42576  1.0000
  C   C883      1.0  0.80631  0.41700  0.28704  1.0000
  H   H1549     1.0  0.80058  0.16011  0.24898  1.0000
  H   H1550     1.0  0.50983  0.43739  0.44392  1.0000
  H   H1551     1.0  0.83972  0.23187  0.35193  1.0000
  C   C884      1.0  0.80393  0.38544  0.31398  1.0000
  H   H1552     1.0  0.81967  0.42855  0.27606  1.0000
  C   C885      1.0  0.68988  0.45213  0.32487  1.0000
  H   H1553     1.0  0.49047  0.30793  0.40507  1.0000
  Fe  Fe104     1.0  0.49730  0.45780  0.36794  1.0000
  H   H1554     1.0  0.85045  0.25449  0.33241  1.0000
  C   C886      1.0  0.80926  0.47675  0.33991  1.0000
  H   H1555     1.0  0.63028  0.29181  0.48382  1.0000
  H   H1556     1.0  0.46948  0.26664  0.38700  1.0000
  C   C887      1.0  0.57221  0.12034  0.29537  1.0000
  N   N49       1.0  0.82287  0.40647  0.30102  1.0000
  H   H1557     1.0  0.78096  0.35689  0.34499  1.0000
  S   S204      1.0  0.56676  0.45439  0.32257  1.0000
  N   N50       1.0  0.52497  0.12347  0.30079  1.0000
  C   C888      1.0  0.77412  0.37428  0.34038  1.0000
  H   H1558     1.0  0.84003  0.36510  0.26069  1.0000
  H   H1559     1.0  0.46910  0.15193  0.26886  1.0000
  C   C889      1.0  0.51306  0.09377  0.30886  1.0000
  C   C890      1.0  0.46827  0.32074  0.24617  1.0000
  C   C891      1.0  0.93031  0.47644  0.44486  1.0000
  H   H1560     1.0  0.50020  0.35836  0.38478  1.0000
  H   H1561     1.0  0.64341  0.09125  0.46333  1.0000
  C   C892      1.0  0.83642  0.23314  0.33729  1.0000
  C   C893      1.0  0.61429  0.47815  0.30414  1.0000
  Fe  Fe105     1.0  0.48278  0.07717  0.36392  1.0000
  H   H1562     1.0  0.50297  0.15171  0.32296  1.0000
  C   C894      1.0  0.79680  0.39735  0.33014  1.0000
  C   C895      1.0  0.49283  0.33581  0.38144  1.0000
  H   H1563     1.0  0.78964  0.41462  0.32645  1.0000
  H   H1564     1.0  0.73005  0.30194  0.48317  1.0000
  H   H1565     1.0  0.47304  0.37137  0.26085  1.0000
  C   C896      1.0  0.84549  0.43039  0.31075  1.0000
  C   C897      1.0  0.89827  0.46758  0.44141  1.0000
  H   H1566     1.0  0.47014  0.39962  0.28480  1.0000
  H   H1567     1.0  0.83660  0.44132  0.31894  1.0000
  H   H1568     1.0  0.84799  0.24549  0.24510  1.0000
  H   H1569     1.0  0.48797  0.11694  0.42972  1.0000
  H   H1570     1.0  0.81431  0.23033  0.33385  1.0000
  H   H1571     1.0  0.49631  0.09139  0.31769  1.0000
  C   C898      1.0  0.79403  0.09324  0.26135  1.0000
  H   H1572     1.0  0.47932  0.33364  0.36905  1.0000
  H   H1573     1.0  0.73737  0.46387  0.35209  1.0000
  H   H1574     1.0  0.71226  0.35540  0.47554  1.0000
  H   H1575     1.0  0.85507  0.46416  0.28976  1.0000
  H   H1576     1.0  0.49017  0.04980  0.47138  1.0000
  H   H1577     1.0  0.48512  0.38070  0.41334  1.0000
  H   H1578     1.0  0.50628  0.43372  0.47631  1.0000
  C   C899      1.0  0.68027  0.44719  0.30535  1.0000
  H   H1579     1.0  0.92953  0.19434  0.30394  1.0000
  C   C900      1.0  0.67146  0.32078  0.40244  1.0000
  H   H1580     1.0  0.54543  0.18881  0.33657  1.0000
  H   H1581     1.0  0.52217  0.16740  0.35300  1.0000
  S   S205      1.0  0.80628  0.45160  0.35767  1.0000
  C   C901      1.0  0.92694  0.45459  0.48359  1.0000
  H   H1582     1.0  0.76546  0.45754  0.33152  1.0000
  H   H1583     1.0  0.51168  0.14188  0.26405  1.0000
  H   H1584     1.0  0.76728  0.43480  0.26834  1.0000
  C   C902      1.0  0.72148  0.46927  0.35808  1.0000
  H   H1585     1.0  0.70244  0.44944  0.35816  1.0000
  C   C903      1.0  0.59163  0.12311  0.28080  1.0000
  H   H1586     1.0  0.50402  0.45541  0.41277  1.0000
  H   H1587     1.0  0.62376  0.38810  0.48642  1.0000
  H   H1588     1.0  0.85298  0.35069  0.28031  1.0000
  H   H1589     1.0  0.90960  0.42148  0.43447  1.0000
  H   H1590     1.0  0.55507  0.14939  0.28241  1.0000
  H   H1591     1.0  0.50493  0.25594  0.28427  1.0000
  H   H1592     1.0  0.62147  0.35895  0.47385  1.0000
  H   H1593     1.0  0.49427  0.29767  0.28535  1.0000
  H   H1594     1.0  0.52925  0.08934  0.31771  1.0000
  H   H1595     1.0  0.58054  0.10784  0.27035  1.0000
  H   H1596     1.0  0.93326  0.42085  0.47259  1.0000
  H   H1597     1.0  0.78336  0.07603  0.27054  1.0000
  H   H1598     1.0  0.80696  0.45299  0.30173  1.0000
  H   H1599     1.0  0.48073  0.07096  0.28874  1.0000
  S   S206      1.0  0.47874  0.06127  0.39223  1.0000
  S   S207      1.0  0.48197  0.36395  0.47759  1.0000
  S   S208      1.0  0.79213  0.41805  0.48580  1.0000
  H   H1600     1.0  0.77372  0.42301  0.30040  1.0000
  H   H1601     1.0  0.50737  0.15483  0.29284  1.0000
  C   C904      1.0  0.46770  0.13077  0.26546  1.0000
  H   H1602     1.0  0.71393  0.11342  0.24566  1.0000
  H   H1603     1.0  0.67106  0.44382  0.33256  1.0000
  H   H1604     1.0  0.49687  0.29093  0.26277  1.0000
  H   H1605     1.0  0.91292  0.37955  0.42195  1.0000
  H   H1606     1.0  0.59838  0.31124  0.48602  1.0000
  H   H1607     1.0  0.94824  0.46135  0.49031  1.0000
  H   H1608     1.0  0.62597  0.47076  0.36672  1.0000
  H   H1609     1.0  0.51851  0.47142  0.45187  1.0000
  H   H1610     1.0  0.47706  0.33557  0.33694  1.0000
  H   H1611     1.0  0.55096  0.45887  0.42472  1.0000
  C   C905      1.0  0.93608  0.38984  0.42413  1.0000
  C   C906      1.0  0.78506  0.47513  0.32942  1.0000
  H   H1612     1.0  0.93552  0.39508  0.45168  1.0000
  C   C907      1.0  0.55651  0.22584  0.49120  1.0000
  H   H1613     1.0  0.94440  0.37302  0.42668  1.0000
  H   H1614     1.0  0.49559  0.00738  0.48012  1.0000
  H   H1615     1.0  0.74595  0.14425  0.24399  1.0000
  H   H1616     1.0  0.94501  0.40235  0.41199  1.0000
  H   H1617     1.0  0.74339  0.45492  0.40134  1.0000
  H   H1618     1.0  0.95710  0.98042  0.26899  1.0000
  C   C908      1.0  0.94419  0.40882  0.43993  1.0000
  H   H1619     1.0  0.49814  0.03025  0.44644  1.0000
  C   C909      1.0  0.47616  0.01572  0.44311  1.0000
  H   H1620     1.0  0.47228  0.01996  0.42870  1.0000
  C   C910      1.0  0.47695  0.07499  0.44210  1.0000
  H   H1621     1.0  0.48726  0.08408  0.45491  1.0000
  H   H1622     1.0  0.66589  0.45760  0.36215  1.0000
  C   C911      1.0  0.47677  0.31711  0.39709  1.0000
  C   C912      1.0  0.66540  0.47754  0.35594  1.0000
  C   C913      1.0  0.46980  0.03144  0.47212  1.0000
  C   C914      1.0  0.54608  0.47807  0.42267  1.0000
  C   C915      1.0  0.46643  0.47398  0.44318  1.0000
  C   C916      1.0  0.46883  0.09754  0.43176  1.0000
  Fe  Fe106     1.0  0.52316  0.15501  0.52434  1.0000
  S   S209      1.0  0.53915  0.15609  0.55266  1.0000
  S   S210      1.0  0.49794  0.18098  0.51399  1.0000
  Fe  Fe107     1.0  0.54961  0.11441  0.51645  1.0000
  S   S211      1.0  0.56848  0.11434  0.54445  1.0000
  C   C917      1.0  0.63291  0.29871  0.51266  1.0000
  Fe  Fe108     1.0  0.52577  0.10889  0.55206  1.0000
  S   S212      1.0  0.50201  0.08114  0.57521  1.0000
  Fe  Fe109     1.0  0.57992  0.16168  0.54208  1.0000
  S   S213      1.0  0.61572  0.19999  0.55398  1.0000
  S   S214      1.0  0.50668  0.10740  0.52425  1.0000
  S   S215      1.0  0.56420  0.16183  0.51357  1.0000
  Fe  Fe110     1.0  0.78005  0.39120  0.51114  1.0000
  S   S216      1.0  0.79542  0.35748  0.52095  1.0000
  Fe  Fe111     1.0  0.74458  0.38146  0.54243  1.0000
  S   S217      1.0  0.75875  0.34794  0.55502  1.0000
  S   S218      1.0  0.71045  0.38697  0.55626  1.0000
  Fe  Fe112     1.0  0.80227  0.37693  0.54750  1.0000
  S   S219      1.0  0.84281  0.37919  0.56355  1.0000
  Fe  Fe113     1.0  0.75096  0.33159  0.52774  1.0000
  S   S220      1.0  0.72857  0.28512  0.52116  1.0000
  S   S221      1.0  0.78862  0.41204  0.53734  1.0000
  S   S222      1.0  0.73500  0.36376  0.51546  1.0000
  Fe  Fe114     1.0  0.51674  0.39366  0.54008  1.0000
  H   H1623     1.0  0.48325  0.16551  0.63776  1.0000
  H   H1624     1.0  0.53774  0.21045  0.54240  1.0000
  Fe  Fe115     1.0  0.56674  0.39122  0.52203  1.0000
  S   S223      1.0  0.54098  0.35001  0.50948  1.0000
  S   S224      1.0  0.61206  0.41592  0.51607  1.0000
  Fe  Fe116     1.0  0.50806  0.36792  0.50361  1.0000
  H   H1625     1.0  0.89990  0.32806  0.62987  1.0000
  Fe  Fe117     1.0  0.52261  0.33700  0.53587  1.0000
  S   S225      1.0  0.52270  0.29666  0.55008  1.0000
  S   S226      1.0  0.53533  0.41034  0.51386  1.0000
  S   S227      1.0  0.55059  0.37747  0.54890  1.0000
  H   H1626     1.0  0.54539  0.25458  0.55702  1.0000
  C   C918      1.0  0.92045  0.42978  0.58456  1.0000
  H   H1627     1.0  0.85160  0.43867  0.56730  1.0000
  C   C919      1.0  0.68244  0.39259  0.54401  1.0000
  C   C920      1.0  0.68599  0.40716  0.52753  1.0000
  C   C921      1.0  0.66421  0.41410  0.51904  1.0000
  C   C922      1.0  0.63845  0.40569  0.52668  1.0000
  C   C923      1.0  0.63447  0.39003  0.54278  1.0000
  C   C924      1.0  0.65658  0.38398  0.55155  1.0000
  H   H1628     1.0  0.70591  0.41411  0.52169  1.0000
  H   H1629     1.0  0.59479  0.45754  0.52915  1.0000
  H   H1630     1.0  0.61472  0.38340  0.54878  1.0000
  H   H1631     1.0  0.65383  0.37297  0.56438  1.0000
  C   C925      1.0  0.50663  0.21436  0.52302  1.0000
  C   C926      1.0  0.93451  0.36686  0.62207  1.0000
  H   H1632     1.0  0.95496  0.46605  0.63878  1.0000
  C   C927      1.0  0.51752  0.26619  0.53858  1.0000
  C   C928      1.0  0.53106  0.24855  0.54543  1.0000
  C   C929      1.0  0.52635  0.22324  0.53736  1.0000
  S   S228      1.0  0.50971  0.42803  0.55438  1.0000
  N   N51       1.0  0.60338  0.29699  0.51330  1.0000
  C   C930      1.0  0.58261  0.45449  0.56328  1.0000
  H   H1633     1.0  0.93948  0.42714  0.58935  1.0000
  C   C931      1.0  0.64530  0.22437  0.54330  1.0000
  C   C932      1.0  0.65601  0.21685  0.52917  1.0000
  C   C933      1.0  0.68131  0.23583  0.52237  1.0000
  C   C934      1.0  0.69581  0.26275  0.52930  1.0000
  C   C935      1.0  0.68449  0.27072  0.54294  1.0000
  C   C936      1.0  0.65959  0.25147  0.55003  1.0000
  H   H1634     1.0  0.64536  0.19601  0.52394  1.0000
  H   H1635     1.0  0.68986  0.22944  0.51183  1.0000
  H   H1636     1.0  0.69538  0.29135  0.54842  1.0000
  H   H1637     1.0  0.65163  0.25739  0.56107  1.0000
  C   C937      1.0  0.87203  0.40949  0.57140  1.0000
  C   C938      1.0  0.89707  0.40656  0.57779  1.0000
  H   H1638     1.0  0.82233  0.35965  0.59869  1.0000
  H   H1639     1.0  0.89843  0.38620  0.57742  1.0000
  C   C939      1.0  0.60668  0.28846  0.54753  1.0000
  C   C940      1.0  0.48152  0.04390  0.57543  1.0000
  C   C941      1.0  0.60471  0.30067  0.56485  1.0000
  H   H1640     1.0  0.82314  0.34295  0.62028  1.0000
  H   H1641     1.0  0.62072  0.32256  0.56600  1.0000
  C   C942      1.0  0.87067  0.43601  0.57202  1.0000
  H   H1642     1.0  0.59602  0.42714  0.58213  1.0000
  C   C943      1.0  0.47361  0.02873  0.55994  1.0000
  H   H1643     1.0  0.57844  0.30464  0.53209  1.0000
  H   H1644     1.0  0.52209  0.22761  0.58319  1.0000
  C   C944      1.0  0.91056  0.33869  0.61774  1.0000
  H   H1645     1.0  0.69742  0.25262  0.58057  1.0000
  H   H1646     1.0  0.47754  0.18727  0.60827  1.0000
  H   H1647     1.0  0.57221  0.43566  0.55509  1.0000
  C   C945      1.0  0.49317  0.23210  0.51601  1.0000
  H   H1648     1.0  0.56164  0.19745  0.59480  1.0000
  H   H1649     1.0  0.51405  0.16494  0.58453  1.0000
  H   H1650     1.0  0.47923  0.12904  0.63951  1.0000
  C   C946      1.0  0.52557  0.20915  0.58961  1.0000
  H   H1651     1.0  0.70863  0.22962  0.59563  1.0000
  H   H1652     1.0  0.90849  0.44968  0.50878  1.0000
  C   C947      1.0  0.82421  0.34087  0.60595  1.0000
  C   C948      1.0  0.80639  0.28786  0.52492  1.0000
  H   H1653     1.0  0.62047  0.43942  0.55230  1.0000
  C   C949      1.0  0.47229  0.02926  0.59159  1.0000
  H   H1654     1.0  0.54939  0.44475  0.59210  1.0000
  C   C950      1.0  0.61284  0.34826  0.50166  1.0000
  C   C951      1.0  0.91891  0.45622  0.58538  1.0000
  H   H1655     1.0  0.52213  0.20771  0.60388  1.0000
  H   H1656     1.0  0.95907  0.39919  0.65752  1.0000
  H   H1657     1.0  0.79334  0.26603  0.52079  1.0000
  H   H1658     1.0  0.60846  0.28746  0.57622  1.0000
  H   H1659     1.0  0.56652  0.47054  0.50472  1.0000
  H   H1660     1.0  0.69889  0.47798  0.54614  1.0000
  H   H1661     1.0  0.56987  0.23494  0.59443  1.0000
  C   C952      1.0  0.48773  0.45570  0.57452  1.0000
  H   H1662     1.0  0.60161  0.46069  0.59071  1.0000
  C   C953      1.0  0.55937  0.42943  0.59130  1.0000
  C   C954      1.0  0.60008  0.30560  0.53130  1.0000
  H   H1663     1.0  0.56672  0.46375  0.56325  1.0000
  H   H1664     1.0  0.79574  0.30196  0.51968  1.0000
  H   H1665     1.0  0.91851  0.32452  0.61175  1.0000
  C   C955      1.0  0.58227  0.26710  0.51091  1.0000
  S   S229      1.0  0.48722  0.35182  0.52927  1.0000
  H   H1666     1.0  0.46851  0.40650  0.49611  1.0000
  N   N52       1.0  0.60870  0.47485  0.55500  1.0000
  H   H1667     1.0  0.96312  0.03699  0.73804  1.0000
  H   H1668     1.0  0.57347  0.31237  0.49971  1.0000
  H   H1669     1.0  0.58361  0.30095  0.56551  1.0000
  H   H1670     1.0  0.66598  0.27508  0.49764  1.0000
  H   H1671     1.0  0.48329  0.22798  0.59040  1.0000
  H   H1672     1.0  0.46791  0.12424  0.60761  1.0000
  H   H1673     1.0  0.95500  0.42405  0.62565  1.0000
  C   C956      1.0  0.48405  0.42950  0.56793  1.0000
  H   H1674     1.0  0.59182  0.26605  0.54780  1.0000
  H   H1675     1.0  0.68862  0.21650  0.57521  1.0000
  C   C957      1.0  0.68071  0.46818  0.55443  1.0000
  H   H1676     1.0  0.94352  0.37678  0.60940  1.0000
  H   H1677     1.0  0.51060  0.18639  0.56608  1.0000
  H   H1678     1.0  0.64787  0.31588  0.52106  1.0000
  C   C958      1.0  0.95659  0.36247  0.63570  1.0000
  H   H1679     1.0  0.60336  0.35557  0.51173  1.0000
  H   H1680     1.0  0.66743  0.42620  0.50659  1.0000
  C   C959      1.0  0.55643  0.21485  0.58809  1.0000
  N   N53       1.0  0.47534  0.17162  0.58216  1.0000
  H   H1681     1.0  0.68719  0.31029  0.50496  1.0000
  H   H1682     1.0  0.61434  0.32799  0.53346  1.0000
  H   H1683     1.0  0.56320  0.42168  0.60492  1.0000
  C   C960      1.0  0.50636  0.18189  0.58021  1.0000
  H   H1684     1.0  0.55933  0.47784  0.53593  1.0000
  C   C961      1.0  0.89381  0.45905  0.57912  1.0000
  H   H1685     1.0  0.48043  0.03959  0.54740  1.0000
  H   H1686     1.0  0.56133  0.21684  0.57399  1.0000
  H   H1687     1.0  0.84487  0.34055  0.60383  1.0000
  H   H1688     1.0  0.50636  0.47416  0.57175  1.0000
  H   H1689     1.0  0.89500  0.34257  0.60807  1.0000
  N   N54       1.0  0.78404  0.27990  0.57364  1.0000
  C   C962      1.0  0.80177  0.30922  0.57985  1.0000
  C   C963      1.0  0.78289  0.28050  0.55368  1.0000
  C   C964      1.0  0.75452  0.27240  0.57881  1.0000
  C   C965      1.0  0.79433  0.25769  0.58172  1.0000
  C   C966      1.0  0.82629  0.26735  0.58664  1.0000
  C   C967      1.0  0.80040  0.31381  0.59967  1.0000
  C   C968      1.0  0.73207  0.24413  0.57196  1.0000
  C   C969      1.0  0.81095  0.28857  0.54510  1.0000
  C   C970      1.0  0.65709  0.47729  0.54707  1.0000
  C   C971      1.0  0.83424  0.24197  0.59124  1.0000
  C   C972      1.0  0.49893  0.25818  0.52359  1.0000
  C   C973      1.0  0.70510  0.23525  0.58147  1.0000
  H   H1690     1.0  0.79543  0.32514  0.57210  1.0000
  H   H1691     1.0  0.82400  0.31569  0.57704  1.0000
  H   H1692     1.0  0.76912  0.25947  0.54859  1.0000
  H   H1693     1.0  0.77338  0.29552  0.54804  1.0000
  H   H1694     1.0  0.74712  0.28948  0.57409  1.0000
  H   H1695     1.0  0.75391  0.27088  0.59346  1.0000
  H   H1696     1.0  0.78404  0.24815  0.59420  1.0000
  H   H1697     1.0  0.78786  0.23967  0.57277  1.0000
  H   H1698     1.0  0.83250  0.28060  0.59838  1.0000
  H   H1699     1.0  0.83918  0.28007  0.57588  1.0000
  H   H1700     1.0  0.78045  0.31593  0.60161  1.0000
  H   H1701     1.0  0.80122  0.29572  0.60824  1.0000
  H   H1702     1.0  0.73958  0.22668  0.57391  1.0000
  H   H1703     1.0  0.72660  0.24656  0.55764  1.0000
  H   H1704     1.0  0.82583  0.31018  0.54852  1.0000
  H   H1705     1.0  0.82034  0.27301  0.54925  1.0000
  H   H1706     1.0  0.96260  0.01043  0.72411  1.0000
  H   H1707     1.0  0.93847  0.43524  0.65293  1.0000
  H   H1708     1.0  0.49365  0.43745  0.50667  1.0000
  H   H1709     1.0  0.82974  0.22862  0.57960  1.0000
  H   H1710     1.0  0.85698  0.24947  0.59517  1.0000
  H   H1711     1.0  0.82247  0.22897  0.60245  1.0000
  H   H1712     1.0  0.62817  0.28905  0.54749  1.0000
  H   H1713     1.0  0.58575  0.25240  0.52141  1.0000
  H   H1714     1.0  0.63445  0.27889  0.51869  1.0000
  H   H1715     1.0  0.92514  0.38015  0.62763  1.0000
  H   H1716     1.0  0.94562  0.35387  0.64803  1.0000
  C   C974      1.0  0.63001  0.46149  0.55696  1.0000
  H   H1717     1.0  0.96175  0.34506  0.63134  1.0000
  H   H1718     1.0  0.48291  0.15354  0.54879  1.0000
  H   H1719     1.0  0.82687  0.29503  0.51897  1.0000
  C   C975      1.0  0.58702  0.44339  0.58242  1.0000
  C   C976      1.0  0.59606  0.31615  0.49956  1.0000
  H   H1720     1.0  0.67379  0.44488  0.55431  1.0000
  H   H1721     1.0  0.63673  0.45955  0.57117  1.0000
  H   H1722     1.0  0.48817  0.27152  0.51826  1.0000
  H   H1723     1.0  0.65287  0.47239  0.53282  1.0000
  H   H1724     1.0  0.50154  0.15238  0.61220  1.0000
  H   H1725     1.0  0.54473  0.41109  0.58373  1.0000
  C   C977      1.0  0.90622  0.43692  0.49714  1.0000
  H   H1726     1.0  0.56078  0.26612  0.51229  1.0000
  H   H1727     1.0  0.63506  0.35318  0.50615  1.0000
  H   H1728     1.0  0.47806  0.22555  0.50479  1.0000
  H   H1729     1.0  0.68755  0.47498  0.56821  1.0000
  C   C978      1.0  0.64519  0.30453  0.49421  1.0000
  H   H1730     1.0  0.91730  0.99662  0.71754  1.0000
  H   H1731     1.0  0.47059  0.24710  0.56110  1.0000
  H   H1732     1.0  0.91023  0.41780  0.50177  1.0000
  C   C979      1.0  0.95866  0.44944  0.64758  1.0000
  H   H1733     1.0  0.47827  0.04070  0.60367  1.0000
  S   S230      1.0  0.55335  0.08423  0.49756  1.0000
  C   C980      1.0  0.67135  0.29801  0.49471  1.0000
  C   C981      1.0  0.46857  0.16709  0.60133  1.0000
  C   C982      1.0  0.47861  0.14595  0.61251  1.0000
  H   H1734     1.0  0.48984  0.00338  0.51193  1.0000
  H   H1735     1.0  0.55521  0.21169  0.50310  1.0000
  H   H1736     1.0  0.47470  0.20132  0.56041  1.0000
  H   H1737     1.0  0.60092  0.24851  0.49344  1.0000
  C   C983      1.0  0.58202  0.25350  0.49335  1.0000
  C   C984      1.0  0.47728  0.43000  0.49567  1.0000
  C   C985      1.0  0.47212  0.14452  0.63186  1.0000
  H   H1738     1.0  0.50036  0.03984  0.50443  1.0000
  C   C986      1.0  0.90990  0.97880  0.72750  1.0000
  H   H1739     1.0  0.87017  0.98329  0.72859  1.0000
  H   H1740     1.0  0.47168  0.12869  0.57881  1.0000
  C   C987      1.0  0.48318  0.01857  0.50359  1.0000
  C   C988      1.0  0.46741  0.45835  0.58456  1.0000
  H   H1741     1.0  0.80372  0.02648  0.82337  1.0000
  H   H1742     1.0  0.91102  0.16998  0.92917  1.0000
  H   H1743     1.0  0.88235  0.12732  0.91497  1.0000
  H   H1744     1.0  0.91723  0.16006  0.89462  1.0000
  H   H1745     1.0  0.88015  0.99914  0.81165  1.0000
  C   C989      1.0  0.85544  0.99167  0.76858  1.0000
  S   S231      1.0  0.92294  0.06566  0.76217  1.0000
  H   H1746     1.0  0.93886  0.10795  0.97423  1.0000
  C   C990      1.0  0.89468  0.12539  0.92738  1.0000
  C   C991      1.0  0.85710  0.98512  0.78673  1.0000
  N   N55       1.0  0.94398  0.16158  0.91828  1.0000
  C   C992      1.0  0.92027  0.15370  0.93042  1.0000
  C   C993      1.0  0.95483  0.15764  0.88602  1.0000
  H   H1747     1.0  0.83589  0.02441  0.81826  1.0000
  H   H1748     1.0  0.92617  0.15739  0.86312  1.0000
  H   H1749     1.0  0.94341  0.10653  0.91761  1.0000
  H   H1750     1.0  0.82491  0.97984  0.83551  1.0000
  C   C994      1.0  0.95940  0.00754  0.76925  1.0000
  C   C995      1.0  0.89917  0.02868  0.79030  1.0000
  C   C996      1.0  0.89751  0.03524  0.77214  1.0000
  C   C997      1.0  0.87523  0.01691  0.76142  1.0000
  H   H1751     1.0  0.95690  0.15224  0.85821  1.0000
  H   H1752     1.0  0.79811  0.98524  0.85811  1.0000
  H   H1753     1.0  0.91600  0.04274  0.79874  1.0000
  H   H1754     1.0  0.83069  0.02881  0.84081  1.0000
  C   C998      1.0  0.95321  0.99962  0.80236  1.0000
  H   H1755     1.0  0.85664  0.09830  0.93977  1.0000
  H   H1756     1.0  0.78348  0.11699  0.98337  1.0000
  C   C999      1.0  0.94521  0.12895  0.97907  1.0000
  H   H1757     1.0  0.94173  0.11182  0.94069  1.0000
  H   H1758     1.0  0.77914  0.99040  0.95891  1.0000
  H   H1759     1.0  0.88630  0.11443  0.95508  1.0000
  H   H1760     1.0  0.77217  0.98918  0.84295  1.0000
  H   H1761     1.0  0.91985  0.98964  0.78225  1.0000
  C   C1000     1.0  0.82011  0.01851  0.82832  1.0000
  C   C1001     1.0  0.95528  0.11819  0.92937  1.0000
  C   C1002     1.0  0.87528  0.11802  0.94252  1.0000
  C   C1003     1.0  0.87886  0.00390  0.79757  1.0000
  H   H1762     1.0  0.92845  0.15366  0.94453  1.0000
  C   C1004     1.0  0.93281  0.15111  0.89994  1.0000
  H   H1763     1.0  0.86812  0.13530  0.94415  1.0000
  H   H1764     1.0  0.90079  0.10736  0.92628  1.0000
  H   H1765     1.0  0.92122  0.12785  0.90022  1.0000
  C   C1005     1.0  0.77621  0.99951  0.98580  1.0000
  H   H1766     1.0  0.87349  0.02213  0.74742  1.0000
  H   H1767     1.0  0.79469  0.01899  0.98578  1.0000
  C   C1006     1.0  0.92147  0.98930  0.74639  1.0000
  N   N56       1.0  0.95211  0.99560  0.75104  1.0000
  Fe  Fe118     1.0  0.96539  0.09290  0.77524  1.0000
  H   H1768     1.0  0.94367  0.20215  0.90865  1.0000
  C   C1007     1.0  0.94074  0.14705  0.86793  1.0000
  C   C1008     1.0  0.95777  0.19354  0.91668  1.0000
  H   H1769     1.0  0.75986  0.13508  0.97902  1.0000
  H   H1770     1.0  0.66887  0.00479  0.98178  1.0000
  H   H1771     1.0  0.94865  0.20380  0.94284  1.0000
  H   H1772     1.0  0.91721  0.00853  0.74786  1.0000
  H   H1773     1.0  0.92909  0.12373  0.86863  1.0000
  H   H1774     1.0  0.71909  0.03079  0.99129  1.0000
  H   H1775     1.0  0.95768  0.02850  0.76892  1.0000
  C   C1009     1.0  0.96207  0.18306  0.99158  1.0000
  H   H1776     1.0  0.96180  0.24810  0.92427  1.0000
  C   C1010     1.0  0.76736  0.98320  0.97057  1.0000
  H   H1777     1.0  0.68645  0.98156  0.98893  1.0000
  C   C1011     1.0  0.92732  0.13464  0.98961  1.0000
  C   C1012     1.0  0.80734  0.98635  0.83120  1.0000
  C   C1013     1.0  0.77430  0.13028  0.98916  1.0000
  H   H1778     1.0  0.93846  0.98725  0.81244  1.0000
  C   C1014     1.0  0.94090  0.98897  0.78399  1.0000
  H   H1779     1.0  0.95681  0.02228  0.80303  1.0000
  H   H1780     1.0  0.72324  0.08872  0.98913  1.0000
  H   H1781     1.0  0.96121  0.23572  0.81145  1.0000
  C   C1015     1.0  0.96573  0.15061  0.92589  1.0000
  H   H1782     1.0  0.91410  0.79866  0.04907  1.0000
  Fe  Fe119     1.0  0.87311  0.78922  0.21200  1.0000
  S   S232      1.0  0.85302  0.79253  0.18478  1.0000
  C   C1016     1.0  0.78761  0.89469  0.15097  1.0000
  Fe  Fe120     1.0  0.92840  0.84084  0.20355  1.0000
  S   S233      1.0  0.91232  0.84593  0.17562  1.0000
  Fe  Fe121     1.0  0.87251  0.84002  0.18776  1.0000
  S   S234      1.0  0.85431  0.87246  0.17782  1.0000
  Fe  Fe122     1.0  0.89467  0.79853  0.17519  1.0000
  S   S235      1.0  0.89877  0.77288  0.15334  1.0000
  S   S236      1.0  0.88902  0.83640  0.21570  1.0000
  S   S237      1.0  0.91421  0.79350  0.20230  1.0000
  Fe  Fe123     1.0  0.86724  0.72669  0.03094  1.0000
  S   S238      1.0  0.85699  0.76510  0.02803  1.0000
  S   S239      1.0  0.90719  0.72741  0.02020  1.0000
  Fe  Fe124     1.0  0.81246  0.69039  0.04921  1.0000
  S   S240      1.0  0.79855  0.72702  0.04661  1.0000
  S   S241      1.0  0.78332  0.65326  0.06621  1.0000
  Fe  Fe125     1.0  0.81364  0.73540  0.01923  1.0000
  C   C1017     1.0  0.95689  0.96621  0.17186  1.0000
  Fe  Fe126     1.0  0.84288  0.75347  0.05562  1.0000
  S   S242      1.0  0.85092  0.78737  0.07508  1.0000
  S   S243      1.0  0.82428  0.69680  0.02079  1.0000
  S   S244      1.0  0.85640  0.71707  0.05957  1.0000
  H   H1783     1.0  0.74098  0.59983  0.03851  1.0000
  C   C1018     1.0  0.93439  0.91703  0.18588  1.0000
  C   C1019     1.0  0.81706  0.60851  0.20783  1.0000
  H   H1784     1.0  0.69382  0.57762  0.07292  1.0000
  S   S245      1.0  0.74720  0.51932  0.07926  1.0000
  C   C1020     1.0  0.69068  0.86718  0.00371  1.0000
  H   H1785     1.0  0.91749  0.78754  0.01496  1.0000
  C   C1021     1.0  0.85755  0.65922  0.09365  1.0000
  C   C1022     1.0  0.92676  0.84311  0.05179  1.0000
  C   C1023     1.0  0.93237  0.75625  0.00860  1.0000
  C   C1024     1.0  0.77364  0.86949  0.01733  1.0000
  N   N57       1.0  0.79565  0.94748  0.15584  1.0000
  C   C1025     1.0  0.88407  0.83182  0.99960  1.0000
  H   H1786     1.0  0.74934  0.95523  0.19584  1.0000
  H   H1787     1.0  0.76582  0.76314  0.01929  1.0000
  H   H1788     1.0  0.82008  0.90864  0.22470  1.0000
  C   C1026     1.0  0.77511  0.61633  0.07021  1.0000
  C   C1027     1.0  0.78650  0.60133  0.06100  1.0000
  C   C1028     1.0  0.77795  0.57176  0.06407  1.0000
  C   C1029     1.0  0.75841  0.55687  0.07663  1.0000
  C   C1030     1.0  0.74766  0.57203  0.08616  1.0000
  C   C1031     1.0  0.75567  0.60144  0.08280  1.0000
  H   H1789     1.0  0.80141  0.61236  0.05124  1.0000
  H   H1790     1.0  0.78649  0.56032  0.05661  1.0000
  H   H1791     1.0  0.73300  0.56101  0.09602  1.0000
  H   H1792     1.0  0.74655  0.61273  0.08991  1.0000
  C   C1032     1.0  0.88679  0.77839  0.13149  1.0000
  C   C1033     1.0  0.88983  0.76288  0.11796  1.0000
  C   C1034     1.0  0.87896  0.76553  0.10059  1.0000
  C   C1035     1.0  0.86537  0.78403  0.09661  1.0000
  C   C1036     1.0  0.86313  0.80020  0.11000  1.0000
  C   C1037     1.0  0.87360  0.79723  0.12744  1.0000
  H   H1793     1.0  0.90024  0.74845  0.12101  1.0000
  H   H1794     1.0  0.88094  0.75316  0.09033  1.0000
  H   H1795     1.0  0.85275  0.81467  0.10697  1.0000
  H   H1796     1.0  0.87126  0.80935  0.13777  1.0000
  C   C1038     1.0  0.85488  0.89910  0.19146  1.0000
  C   C1039     1.0  0.83678  0.89244  0.20513  1.0000
  C   C1040     1.0  0.83436  0.91407  0.21427  1.0000
  C   C1041     1.0  0.84975  0.94263  0.20971  1.0000
  C   C1042     1.0  0.86812  0.94930  0.19618  1.0000
  C   C1043     1.0  0.87033  0.92767  0.18692  1.0000
  H   H1797     1.0  0.87738  0.67833  0.09375  1.0000
  H   H1798     1.0  0.76890  0.87230  0.03089  1.0000
  H   H1799     1.0  0.65641  0.56743  0.06972  1.0000
  H   H1800     1.0  0.88376  0.93308  0.17604  1.0000
  C   C1044     1.0  0.69372  0.49942  0.17590  1.0000
  H   H1801     1.0  0.91012  0.80693  0.07042  1.0000
  C   C1045     1.0  0.78198  0.86633  0.16103  1.0000
  C   C1046     1.0  0.70912  0.49406  0.21215  1.0000
  C   C1047     1.0  0.70131  0.51632  0.20590  1.0000
  C   C1048     1.0  0.69320  0.51869  0.18786  1.0000
  C   C1049     1.0  0.92989  0.72952  0.07045  1.0000
  C   C1050     1.0  0.61361  0.51642  0.04860  1.0000
  H   H1802     1.0  0.70059  0.53108  0.21505  1.0000
  H   H1803     1.0  0.68635  0.53542  0.18317  1.0000
  H   H1804     1.0  0.78081  0.58204  0.19165  1.0000
  H   H1805     1.0  0.83131  0.60270  0.20052  1.0000
  C   C1051     1.0  0.67087  0.53240  0.06899  1.0000
  H   H1806     1.0  0.80525  0.96244  0.03881  1.0000
  C   C1052     1.0  0.67096  0.55898  0.09580  1.0000
  H   H1807     1.0  0.77259  0.58974  0.21265  1.0000
  H   H1808     1.0  0.80704  0.90057  0.14407  1.0000
  H   H1809     1.0  0.75838  0.94952  0.16491  1.0000
  S   S246      1.0  0.85465  0.75668  0.23482  1.0000
  S   S247      1.0  0.84590  0.96920  0.22151  1.0000
  H   H1810     1.0  0.78251  0.82190  0.03138  1.0000
  H   H1811     1.0  0.61446  0.51819  0.06312  1.0000
  H   H1812     1.0  0.88304  0.82659  0.04137  1.0000
  H   H1813     1.0  0.60713  0.49385  0.04565  1.0000
  H   H1814     1.0  0.79923  0.84990  0.04679  1.0000
  H   H1815     1.0  0.81201  0.61863  0.23403  1.0000
  H   H1816     1.0  0.86270  0.64018  0.09532  1.0000
  H   H1817     1.0  0.95028  0.76103  0.05072  1.0000
  H   H1818     1.0  0.72363  0.89975  0.01780  1.0000
  N   N58       1.0  0.77241  0.89347  0.00483  1.0000
  H   H1819     1.0  0.64512  0.55719  0.04228  1.0000
  H   H1820     1.0  0.94307  0.97027  0.18069  1.0000
  C   C1053     1.0  0.94981  0.83270  0.09564  1.0000
  H   H1821     1.0  0.87423  0.61914  0.21215  1.0000
  H   H1822     1.0  0.92258  0.61695  0.21377  1.0000
  H   H1823     1.0  0.76928  0.90919  0.16995  1.0000
  C   C1054     1.0  0.84477  0.95696  0.14553  1.0000
  C   C1055     1.0  0.83993  0.65941  0.10862  1.0000
  H   H1824     1.0  0.76985  0.89109  0.14088  1.0000
  C   C1056     1.0  0.59055  0.52570  0.04033  1.0000
  H   H1825     1.0  0.64378  0.48404  0.05258  1.0000
  C   C1057     1.0  0.72464  0.59678  0.02756  1.0000
  C   C1058     1.0  0.70078  0.63226  0.21885  1.0000
  C   C1059     1.0  0.94643  0.78238  0.07400  1.0000
  H   H1826     1.0  0.76007  0.93413  0.13677  1.0000
  H   H1827     1.0  0.65364  0.51498  0.07556  1.0000
  C   C1060     1.0  0.79014  0.96212  0.18680  1.0000
  H   H1828     1.0  0.78264  0.85069  0.15197  1.0000
  C   C1061     1.0  0.95233  0.80570  0.99824  1.0000
  C   C1062     1.0  0.93256  0.78353  0.00795  1.0000
  H   H1829     1.0  0.81545  0.62788  0.20130  1.0000
  H   H1830     1.0  0.82387  0.87054  0.20824  1.0000
  H   H1831     1.0  0.68712  0.55230  0.10282  1.0000
  H   H1832     1.0  0.69185  0.59015  0.04461  1.0000
  C   C1063     1.0  0.93521  0.75814  0.06083  1.0000
  H   H1833     1.0  0.68026  0.57735  0.02272  1.0000
  H   H1834     1.0  0.72539  0.61796  0.02274  1.0000
  N   N59       1.0  0.66724  0.52941  0.04921  1.0000
  H   H1835     1.0  0.89566  0.82339  0.00987  1.0000
  H   H1836     1.0  0.93568  0.84717  0.03864  1.0000
  C   C1064     1.0  0.76047  0.77038  0.00628  1.0000
  C   C1065     1.0  0.64221  0.53489  0.04104  1.0000
  H   H1837     1.0  0.64997  0.54356  0.09932  1.0000
  H   H1838     1.0  0.86187  0.82440  0.00289  1.0000
  H   H1839     1.0  0.67586  0.86425  0.01401  1.0000
  S   S248      1.0  0.79508  0.74783  0.99325  1.0000
  N   N60       1.0  0.81636  0.68949  0.12121  1.0000
  C   C1066     1.0  0.83504  0.69507  0.13811  1.0000
  C   C1067     1.0  0.83230  0.68567  0.10667  1.0000
  C   C1068     1.0  0.81025  0.71561  0.11634  1.0000
  C   C1069     1.0  0.78885  0.66430  0.12290  1.0000
  C   C1070     1.0  0.78878  0.63996  0.13636  1.0000
  C   C1071     1.0  0.82442  0.70548  0.15350  1.0000
  C   C1072     1.0  0.79541  0.71654  0.09776  1.0000
  S   S249      1.0  0.68146  0.50177  0.15366  1.0000
  C   C1073     1.0  0.76131  0.61401  0.13448  1.0000
  C   C1074     1.0  0.83978  0.70265  0.17120  1.0000
  C   C1075     1.0  0.78377  0.73965  0.09610  1.0000
  H   H1840     1.0  0.85611  0.71161  0.13559  1.0000
  H   H1841     1.0  0.83929  0.67623  0.14295  1.0000
  H   H1842     1.0  0.82003  0.68349  0.09376  1.0000
  H   H1843     1.0  0.85187  0.70485  0.10505  1.0000
  H   H1844     1.0  0.82988  0.73497  0.11709  1.0000
  H   H1845     1.0  0.79692  0.71826  0.12612  1.0000
  H   H1846     1.0  0.77239  0.67095  0.12690  1.0000
  H   H1847     1.0  0.78069  0.65504  0.10971  1.0000
  H   H1848     1.0  0.79111  0.64687  0.15011  1.0000
  H   H1849     1.0  0.80602  0.63313  0.13476  1.0000
  H   H1850     1.0  0.82832  0.72827  0.15108  1.0000
  H   H1851     1.0  0.80162  0.69362  0.15465  1.0000
  H   H1852     1.0  0.77790  0.69602  0.09494  1.0000
  H   H1853     1.0  0.81064  0.72152  0.08743  1.0000
  H   H1854     1.0  0.82061  0.63981  0.10767  1.0000
  H   H1855     1.0  0.74315  0.61967  0.13587  1.0000
  H   H1856     1.0  0.75905  0.60469  0.12143  1.0000
  H   H1857     1.0  0.76120  0.59767  0.14493  1.0000
  H   H1858     1.0  0.83264  0.71160  0.18169  1.0000
  H   H1859     1.0  0.83538  0.68008  0.17484  1.0000
  H   H1860     1.0  0.86271  0.71459  0.17053  1.0000
  H   H1861     1.0  0.76712  0.73499  0.10539  1.0000
  H   H1862     1.0  0.80071  0.76058  0.09890  1.0000
  H   H1863     1.0  0.77468  0.74076  0.08239  1.0000
  H   H1864     1.0  0.92579  0.92528  0.19596  1.0000
  H   H1865     1.0  0.58841  0.52385  0.02573  1.0000
  H   H1866     1.0  0.76103  0.85807  0.16647  1.0000
  H   H1867     1.0  0.68733  0.63224  0.20663  1.0000
  C   C1076     1.0  0.78097  0.92053  0.01444  1.0000
  C   C1077     1.0  0.81214  0.93466  0.02102  1.0000
  H   H1868     1.0  0.78626  0.96108  0.10072  1.0000
  C   C1078     1.0  0.72070  0.87964  0.01184  1.0000
  C   C1079     1.0  0.85974  0.66169  0.22060  1.0000
  C   C1080     1.0  0.66208  0.49918  0.04565  1.0000
  H   H1869     1.0  0.95309  0.73076  0.00040  1.0000
  H   H1870     1.0  0.75706  0.84884  0.01321  1.0000
  H   H1871     1.0  0.67407  0.58002  0.10046  1.0000
  C   C1081     1.0  0.78311  0.94655  0.13704  1.0000
  H   H1872     1.0  0.68601  0.84622  0.99832  1.0000
  H   H1873     1.0  0.85208  0.65887  0.12130  1.0000
  H   H1874     1.0  0.76897  0.91690  0.02638  1.0000
  H   H1875     1.0  0.68722  0.88148  0.99296  1.0000
  H   H1876     1.0  0.81693  0.92166  0.03211  1.0000
  H   H1877     1.0  0.82008  0.83818  0.03424  1.0000
  S   S250      1.0  0.73158  0.47903  0.12687  1.0000
  C   C1082     1.0  0.89790  0.84447  0.04917  1.0000
  H   H1878     1.0  0.72269  0.86458  0.02257  1.0000
  H   H1879     1.0  0.91857  0.90945  0.17459  1.0000
  H   H1880     1.0  0.77525  0.93637  0.00603  1.0000
  H   H1881     1.0  0.82542  0.59200  0.23361  1.0000
  C   C1083     1.0  0.95282  0.75170  0.99987  1.0000
  H   H1882     1.0  0.91519  0.75700  0.05391  1.0000
  H   H1883     1.0  0.72002  0.65202  0.21861  1.0000
  H   H1884     1.0  0.93660  0.94663  0.22504  1.0000
  H   H1885     1.0  0.70675  0.61379  0.21888  1.0000
  H   H1886     1.0  0.88051  0.97111  0.19275  1.0000
  H   H1887     1.0  0.69622  0.53902  0.02849  1.0000
  C   C1084     1.0  0.74118  0.78354  0.00413  1.0000
  C   C1085     1.0  0.69363  0.54867  0.04052  1.0000
  C   C1086     1.0  0.78797  0.58471  0.20587  1.0000
  C   C1087     1.0  0.82743  0.61308  0.22767  1.0000
  H   H1888     1.0  0.77925  0.67098  0.21018  1.0000
  C   C1088     1.0  0.80060  0.84222  0.03377  1.0000
  H   H1889     1.0  0.81189  0.97777  0.18913  1.0000
  C   C1089     1.0  0.69577  0.57877  0.03406  1.0000
  H   H1890     1.0  0.84568  0.65843  0.08063  1.0000
  H   H1891     1.0  0.80568  0.91822  0.17459  1.0000
  C   C1090     1.0  0.96158  0.93958  0.17954  1.0000
  H   H1892     1.0  0.93859  0.89887  0.19216  1.0000
  H   H1893     1.0  0.71253  0.55106  0.04951  1.0000
  C   C1091     1.0  0.82661  0.96535  0.15712  1.0000
  C   C1092     1.0  0.67317  0.56089  0.07576  1.0000
  H   H1894     1.0  0.94002  0.86051  0.06042  1.0000
  H   H1895     1.0  0.89768  0.90585  0.22971  1.0000
  H   H1896     1.0  0.69029  0.52974  0.07442  1.0000
  H   H1897     1.0  0.81393  0.72079  0.20823  1.0000
  H   H1898     1.0  0.82631  0.93761  0.01037  1.0000
  H   H1899     1.0  0.95451  0.85239  0.12064  1.0000
  H   H1900     1.0  0.79119  0.93522  0.12861  1.0000
  H   H1901     1.0  0.88945  0.84368  0.06219  1.0000
  C   C1093     1.0  0.81229  0.70848  0.22056  1.0000
  H   H1902     1.0  0.88710  0.97285  0.13723  1.0000
  C   C1094     1.0  0.93578  0.95481  0.23805  1.0000
  C   C1095     1.0  0.79256  0.68023  0.22175  1.0000
  H   H1903     1.0  0.89655  0.71029  0.20231  1.0000
  H   H1904     1.0  0.78837  0.56435  0.21157  1.0000
  H   H1905     1.0  0.89953  0.86461  0.04200  1.0000
  C   C1096     1.0  0.80111  0.86420  0.01895  1.0000
  C   C1097     1.0  0.78968  0.91781  0.16367  1.0000
  H   H1906     1.0  0.85409  0.85999  0.23180  1.0000
  H   H1907     1.0  0.79800  0.86857  0.17211  1.0000
  H   H1908     1.0  0.72470  0.95855  0.01208  1.0000
  H   H1909     1.0  0.73172  0.78630  0.01556  1.0000
  H   H1910     1.0  0.81975  0.88379  0.02167  1.0000
  H   H1911     1.0  0.67837  0.64863  0.23408  1.0000
  H   H1912     1.0  0.75306  0.95904  0.10756  1.0000
  H   H1913     1.0  0.57026  0.51193  0.04575  1.0000
  H   H1914     1.0  0.94030  0.81134  0.10210  1.0000
  H   H1915     1.0  0.78906  0.94145  0.19282  1.0000
  H   H1916     1.0  0.93275  0.83974  0.09082  1.0000
  H   H1917     1.0  0.89750  0.96268  0.23111  1.0000
  H   H1918     1.0  0.66589  0.61052  0.23443  1.0000
  C   C1098     1.0  0.74232  0.88527  0.99773  1.0000
  C   C1099     1.0  0.92484  0.81375  0.05968  1.0000
  C   C1100     1.0  0.81865  0.96393  0.02790  1.0000
  S   S251      1.0  0.76447  0.62838  0.23830  1.0000
  H   H1919     1.0  0.68962  0.48911  0.06620  1.0000
  H   H1920     1.0  0.62165  0.48484  0.20831  1.0000
  C   C1101     1.0  0.78156  0.96086  0.16665  1.0000
  H   H1921     1.0  0.92123  0.71251  0.06077  1.0000
  Fe  Fe127     1.0  0.71790  0.48695  0.09860  1.0000
  H   H1922     1.0  0.65686  0.49544  0.03124  1.0000
  H   H1923     1.0  0.93067  0.77687  0.08403  1.0000
  H   H1924     1.0  0.83544  0.96478  0.17094  1.0000
  H   H1925     1.0  0.72932  0.58663  0.01657  1.0000
  C   C1102     1.0  0.82950  0.72097  0.23542  1.0000
  H   H1926     1.0  0.86453  0.65993  0.20685  1.0000
  C   C1103     1.0  0.68483  0.63045  0.23512  1.0000
  H   H1927     1.0  0.80358  0.85577  0.00643  1.0000
  H   H1928     1.0  0.84599  0.93678  0.15079  1.0000
  N   N61       1.0  0.95231  0.81180  0.06611  1.0000
  C   C1104     1.0  0.73687  0.96541  0.00057  1.0000
  S   S252      1.0  0.71611  0.48832  0.23495  1.0000
  H   H1929     1.0  0.89356  0.85528  0.99972  1.0000
  S   S253      1.0  0.67654  0.48650  0.10508  1.0000
  H   H1930     1.0  0.70631  0.50377  0.04596  1.0000
  H   H1931     1.0  0.84091  0.97351  0.03300  1.0000
  H   H1932     1.0  0.83650  0.95477  0.13153  1.0000
  H   H1933     1.0  0.91455  0.72522  0.08062  1.0000
  H   H1934     1.0  0.87216  0.60145  0.23306  1.0000
  H   H1935     1.0  0.94378  0.95983  0.15929  1.0000
  H   H1936     1.0  0.59521  0.54792  0.04344  1.0000
  C   C1105     1.0  0.68639  0.48959  0.05158  1.0000
  C   C1106     1.0  0.78991  0.66388  0.23773  1.0000
  H   H1937     1.0  0.64004  0.53186  0.02651  1.0000
  C   C1107     1.0  0.91966  0.97463  0.23516  1.0000
  H   H1938     1.0  0.95850  0.80525  0.03931  1.0000
  C   C1108     1.0  0.77598  0.97172  0.10809  1.0000
  H   H1939     1.0  0.86710  0.71663  0.20893  1.0000
  N   N62       1.0  0.85669  0.63492  0.23153  1.0000
  C   C1109     1.0  0.78813  0.97556  0.12727  1.0000
  H   H1940     1.0  0.83953  0.66454  0.21933  1.0000
  H   H1941     1.0  0.95200  0.82661  0.99764  1.0000
  H   H1942     1.0  0.94972  0.72901  0.07687  1.0000
  C   C1110     1.0  0.87694  0.62280  0.22655  1.0000
  H   H1943     1.0  0.91513  0.65956  0.22102  1.0000
  C   C1111     1.0  0.88683  0.71420  0.21370  1.0000
  H   H1944     1.0  0.96542  0.78129  0.08145  1.0000
  C   C1112     1.0  0.77115  0.97129  0.19676  1.0000
  C   C1113     1.0  0.90843  0.64085  0.23037  1.0000
  C   C1114     1.0  0.88133  0.69017  0.22777  1.0000
  C   C1115     1.0  0.92616  0.62409  0.22756  1.0000
  H   H1945     1.0  0.90132  0.73437  0.21953  1.0000
  H   H1946     1.0  0.94869  0.63773  0.22996  1.0000
  H   H1947     1.0  0.92102  0.60538  0.23693  1.0000
  H   H1948     1.0  0.87306  0.69596  0.23918  1.0000
  H   H1949     1.0  0.90167  0.68931  0.23242  1.0000
  H   H1950     1.0  0.77874  0.97350  0.21095  1.0000
  H   H1951     1.0  0.81510  0.97821  0.01710  1.0000
  H   H1952     1.0  0.81175  0.90084  0.99362  1.0000
  H   H1953     1.0  0.95774  0.96875  0.24176  1.0000
  H   H1954     1.0  0.74663  0.66957  0.27683  1.0000
  H   H1955     1.0  0.67824  0.70577  0.27659  1.0000
  H   H1956     1.0  0.90240  0.94763  0.26684  1.0000
  H   H1957     1.0  0.86829  0.48582  0.43180  1.0000
  H   H1958     1.0  0.93880  0.89924  0.24324  1.0000
  Fe  Fe128     1.0  0.77412  0.54943  0.28269  1.0000
  S   S254      1.0  0.75924  0.58398  0.28673  1.0000
  S   S255      1.0  0.81296  0.54678  0.29759  1.0000
  Fe  Fe129     1.0  0.71583  0.54928  0.28481  1.0000
  S   S256      1.0  0.68691  0.54916  0.30576  1.0000
  Fe  Fe130     1.0  0.75486  0.58889  0.25705  1.0000
  H   H1959     1.0  0.72307  0.64980  0.25105  1.0000
  S   S257      1.0  0.73135  0.51477  0.28263  1.0000
  S   S258      1.0  0.77323  0.55703  0.25313  1.0000
  H   H1960     1.0  0.88139  0.64005  0.28597  1.0000
  H   H1961     1.0  0.94039  0.48653  0.43240  1.0000
  C   C1116     1.0  0.77418  0.56705  0.33522  1.0000
  H   H1962     1.0  0.85535  0.53761  0.32120  1.0000
  H   H1963     1.0  0.90202  0.49382  0.30155  1.0000
  C   C1117     1.0  0.65383  0.52229  0.31051  1.0000
  C   C1118     1.0  0.64003  0.52509  0.32489  1.0000
  C   C1119     1.0  0.61353  0.50450  0.32892  1.0000
  H   H1964     1.0  0.55823  0.49348  0.43284  1.0000
  H   H1965     1.0  0.73971  0.53718  0.32036  1.0000
  C   C1120     1.0  0.64077  0.49870  0.30013  1.0000
  H   H1966     1.0  0.64979  0.54338  0.33293  1.0000
  H   H1967     1.0  0.60309  0.50702  0.33994  1.0000
  C   C1121     1.0  0.88260  0.88140  0.25379  1.0000
  C   C1122     1.0  0.74385  0.51813  0.34710  1.0000
  C   C1123     1.0  0.65028  0.59626  0.28841  1.0000
  H   H1968     1.0  0.84413  0.63150  0.28601  1.0000
  H   H1969     1.0  0.89527  0.86852  0.25324  1.0000
  H   H1970     1.0  0.47535  0.97698  0.45861  1.0000
  H   H1971     1.0  0.50369  0.50385  0.45786  1.0000
  C   C1124     1.0  0.86018  0.62347  0.28321  1.0000
  H   H1972     1.0  0.80524  0.66419  0.26502  1.0000
  H   H1973     1.0  0.47451  0.88567  0.48990  1.0000
  C   C1125     1.0  0.91971  0.93994  0.26868  1.0000
  C   C1126     1.0  0.69504  0.50096  0.35440  1.0000
  H   H1974     1.0  0.76107  0.51187  0.34398  1.0000
  H   H1975     1.0  0.48337  0.53817  0.39658  1.0000
  C   C1127     1.0  0.62463  0.56832  0.28766  1.0000
  H   H1976     1.0  0.83969  0.71411  0.26306  1.0000
  C   C1128     1.0  0.83473  0.49899  0.33658  1.0000
  C   C1129     1.0  0.83569  0.52007  0.32337  1.0000
  C   C1130     1.0  0.81129  0.51898  0.31331  1.0000
  C   C1131     1.0  0.78610  0.49606  0.31614  1.0000
  H   H1977     1.0  0.69643  0.49658  0.32109  1.0000
  H   H1978     1.0  0.64289  0.61286  0.29120  1.0000
  H   H1979     1.0  0.90131  0.50159  0.42173  1.0000
  C   C1132     1.0  0.82662  0.70467  0.25144  1.0000
  C   C1133     1.0  0.74490  0.54347  0.33430  1.0000
  H   H1980     1.0  0.93716  0.49377  0.45422  1.0000
  H   H1981     1.0  0.78969  0.55948  0.33083  1.0000
  H   H1982     1.0  0.51245  0.93525  0.48623  1.0000
  H   H1983     1.0  0.77433  0.58527  0.32637  1.0000
  H   H1984     1.0  0.95964  0.95294  0.28445  1.0000
  C   C1134     1.0  0.85614  0.61477  0.26402  1.0000
  C   C1135     1.0  0.89609  0.91046  0.24361  1.0000
  H   H1985     1.0  0.47034  0.48455  0.42984  1.0000
  C   C1136     1.0  0.71065  0.63078  0.28522  1.0000
  S   S259      1.0  0.71017  0.55646  0.25531  1.0000
  Fe  Fe131     1.0  0.72926  0.52467  0.25326  1.0000
  C   C1137     1.0  0.47357  0.52261  0.45279  1.0000
  H   H1986     1.0  0.70293  0.51025  0.36755  1.0000
  C   C1138     1.0  0.74231  0.64828  0.28300  1.0000
  C   C1139     1.0  0.75933  0.65188  0.30079  1.0000
  H   H1987     1.0  0.67070  0.58483  0.26854  1.0000
  H   H1988     1.0  0.67263  0.65440  0.28300  1.0000
  H   H1989     1.0  0.75205  0.49360  0.37900  1.0000
  H   H1990     1.0  0.78052  0.57448  0.34891  1.0000
  H   H1991     1.0  0.70473  0.63792  0.29713  1.0000
  H   H1992     1.0  0.70928  0.60887  0.28884  1.0000
  C   C1140     1.0  0.89131  0.49278  0.43435  1.0000
  H   H1993     1.0  0.84435  0.84351  0.25320  1.0000
  C   C1141     1.0  0.66497  0.60301  0.27073  1.0000
  H   H1994     1.0  0.71466  0.68694  0.25516  1.0000
  C   C1142     1.0  0.85327  0.86418  0.24579  1.0000
  H   H1995     1.0  0.73012  0.55259  0.33782  1.0000
  H   H1996     1.0  0.47270  0.48790  0.47031  1.0000
  H   H1997     1.0  0.66456  0.59434  0.29972  1.0000
  H   H1998     1.0  0.89861  0.50959  0.44416  1.0000
  H   H1999     1.0  0.66275  0.65154  0.26017  1.0000
  H   H2000     1.0  0.75347  0.66483  0.30945  1.0000
  H   H2001     1.0  0.75575  0.63098  0.30757  1.0000
  H   H2002     1.0  0.78197  0.66283  0.29863  1.0000
  N   N63       1.0  0.69039  0.63051  0.26953  1.0000
  H   H2003     1.0  0.64857  0.60254  0.26017  1.0000
  H   H2004     1.0  0.85351  0.50050  0.34458  1.0000
  H   H2005     1.0  0.48240  0.53770  0.46360  1.0000
  H   H2006     1.0  0.46914  0.89738  0.41046  1.0000
  H   H2007     1.0  0.65644  0.48860  0.38119  1.0000
  H   H2008     1.0  0.76748  0.49454  0.30806  1.0000
  C   C1143     1.0  0.68972  0.70650  0.26482  1.0000
  N   N64       1.0  0.71639  0.49259  0.34696  1.0000
  H   H2009     1.0  0.84441  0.64931  0.25403  1.0000
  H   H2010     1.0  0.75033  0.63709  0.27437  1.0000
  H   H2011     1.0  0.70954  0.61265  0.25256  1.0000
  C   C1144     1.0  0.93657  0.97550  0.29286  1.0000
  C   C1145     1.0  0.94540  0.96275  0.27813  1.0000
  C   C1146     1.0  0.80711  0.67630  0.25259  1.0000
  H   H2012     1.0  0.91241  0.92184  0.27846  1.0000
  H   H2013     1.0  0.88052  0.88402  0.26785  1.0000
  H   H2014     1.0  0.74971  0.52690  0.36050  1.0000
  S   S260      1.0  0.94447  0.49164  0.39235  1.0000
  C   C1147     1.0  0.94309  0.91414  0.25414  1.0000
  H   H2015     1.0  0.60843  0.56998  0.27759  1.0000
  C   C1148     1.0  0.48060  0.49659  0.45715  1.0000
  H   H2016     1.0  0.65086  0.49646  0.28885  1.0000
  H   H2017     1.0  0.64751  0.50740  0.36215  1.0000
  S   S261      1.0  0.48874  0.49486  0.37725  1.0000
  H   H2018     1.0  0.83484  0.59800  0.26227  1.0000
  H   H2019     1.0  0.71816  0.69056  0.27889  1.0000
  H   H2020     1.0  0.69184  0.51816  0.34594  1.0000
  C   C1149     1.0  0.70330  0.63097  0.25244  1.0000
  C   C1150     1.0  0.68081  0.65452  0.26998  1.0000
  H   H2021     1.0  0.71606  0.47972  0.38476  1.0000
  H   H2022     1.0  0.70625  0.72809  0.26326  1.0000
  H   H2023     1.0  0.88053  0.92038  0.24282  1.0000
  H   H2024     1.0  0.88056  0.65708  0.25478  1.0000
  H   H2025     1.0  0.63050  0.55084  0.28433  1.0000
  H   H2026     1.0  0.67504  0.70245  0.25281  1.0000
  C   C1151     1.0  0.60045  0.48085  0.31854  1.0000
  H   H2027     1.0  0.61550  0.56294  0.30075  1.0000
  H   H2028     1.0  0.85787  0.60484  0.29227  1.0000
  C   C1152     1.0  0.70315  0.68479  0.26710  1.0000
  H   H2029     1.0  0.87173  0.60570  0.26215  1.0000
  N   N65       1.0  0.92428  0.93038  0.25135  1.0000
  H   H2030     1.0  0.92509  0.95876  0.30267  1.0000
  H   H2031     1.0  0.55265  0.48788  0.40943  1.0000
  H   H2032     1.0  0.93824  0.90052  0.26650  1.0000
  H   H2033     1.0  0.51082  0.48987  0.42062  1.0000
  H   H2034     1.0  0.49720  0.96058  0.43679  1.0000
  H   H2035     1.0  0.48096  0.94718  0.39932  1.0000
  H   H2036     1.0  0.72656  0.48882  0.32050  1.0000
  C   C1153     1.0  0.64786  0.48674  0.36720  1.0000
  C   C1154     1.0  0.85984  0.64052  0.25102  1.0000
  H   H2037     1.0  0.83924  0.87557  0.24652  1.0000
  H   H2038     1.0  0.87766  0.48646  0.31841  1.0000
  C   C1155     1.0  0.70774  0.48391  0.32799  1.0000
  H   H2039     1.0  0.48278  0.53351  0.44032  1.0000
  H   H2040     1.0  0.50531  0.96479  0.49223  1.0000
  H   H2041     1.0  0.91329  0.64784  0.24416  1.0000
  H   H2042     1.0  0.95932  0.65804  0.55476  1.0000
  Fe  Fe132     1.0  0.51783  0.76582  0.68438  1.0000
  S   S262      1.0  0.53814  0.73438  0.68445  1.0000
  S   S263      1.0  0.51432  0.79002  0.65871  1.0000
  Fe  Fe133     1.0  0.50458  0.75196  0.72304  1.0000
  S   S264      1.0  0.52304  0.71924  0.72569  1.0000
  Fe  Fe134     1.0  0.55853  0.75169  0.71111  1.0000
  S   S265      1.0  0.60302  0.75903  0.72268  1.0000
  Fe  Fe135     1.0  0.50101  0.70504  0.69893  1.0000
  H   H2043     1.0  0.59305  0.50604  0.50360  1.0000
  S   S266      1.0  0.54083  0.78500  0.70976  1.0000
  H   H2044     1.0  0.87022  0.95980  0.71219  1.0000
  H   H2045     1.0  0.63346  0.54678  0.58666  1.0000
  C   C1156     1.0  0.93141  0.77746  0.72833  1.0000
  C   C1157     1.0  0.48391  0.81709  0.63967  1.0000
  H   H2046     1.0  0.59258  0.50054  0.58392  1.0000
  H   H2047     1.0  0.47137  0.53768  0.54937  1.0000
  H   H2048     1.0  0.55727  0.50033  0.50662  1.0000
  H   H2049     1.0  0.96069  0.59102  0.57600  1.0000
  H   H2050     1.0  0.51328  0.94244  0.50932  1.0000
  C   C1158     1.0  0.63299  0.78976  0.72900  1.0000
  C   C1159     1.0  0.63479  0.81730  0.72462  1.0000
  C   C1160     1.0  0.65994  0.84080  0.72862  1.0000
  H   H2051     1.0  0.95335  0.54487  0.63939  1.0000
  H   H2052     1.0  0.62084  0.49253  0.52873  1.0000
  C   C1161     1.0  0.65615  0.78621  0.73823  1.0000
  C   C1162     1.0  0.57950  0.49078  0.53014  1.0000
  C   C1163     1.0  0.47966  0.70153  0.63383  1.0000
  H   H2053     1.0  0.47314  0.52150  0.57106  1.0000
  H   H2054     1.0  0.60049  0.55071  0.58319  1.0000
  C   C1164     1.0  0.95436  0.63788  0.56274  1.0000
  H   H2055     1.0  0.50890  0.65819  0.66890  1.0000
  H   H2056     1.0  0.95901  0.81496  0.71549  1.0000
  H   H2057     1.0  0.94437  0.62006  0.55370  1.0000
  C   C1165     1.0  0.60072  0.51345  0.57176  1.0000
  S   S267      1.0  0.47994  0.73588  0.69750  1.0000
  H   H2058     1.0  0.48499  0.80536  0.68433  1.0000
  C   C1166     1.0  0.46772  0.63529  0.67800  1.0000
  H   H2059     1.0  0.88933  0.77226  0.73363  1.0000
  H   H2060     1.0  0.50387  0.63888  0.72225  1.0000
  H   H2061     1.0  0.91654  0.96193  0.72411  1.0000
  S   S268      1.0  0.94693  0.48594  0.59490  1.0000
  C   C1167     1.0  0.57381  0.49195  0.51004  1.0000
  H   H2062     1.0  0.92360  0.76818  0.71518  1.0000
  H   H2063     1.0  0.95989  0.96568  0.73610  1.0000
  C   C1168     1.0  0.68335  0.83720  0.73752  1.0000
  H   H2064     1.0  0.66474  0.50053  0.54812  1.0000
  H   H2065     1.0  0.62283  0.55837  0.56512  1.0000
  H   H2066     1.0  0.58707  0.51283  0.53440  1.0000
  H   H2067     1.0  0.93111  0.76017  0.73797  1.0000
  C   C1169     1.0  0.50592  0.63593  0.73689  1.0000
  H   H2068     1.0  0.61711  0.82046  0.71779  1.0000
  H   H2069     1.0  0.49921  0.71959  0.63042  1.0000
  H   H2070     1.0  0.66140  0.86194  0.72470  1.0000
  H   H2071     1.0  0.94977  0.57022  0.61147  1.0000
  H   H2072     1.0  0.91032  0.80690  0.72467  1.0000
  C   C1170     1.0  0.48983  0.63944  0.66750  1.0000
  N   N66       1.0  0.60144  0.85187  0.67085  1.0000
  C   C1171     1.0  0.59657  0.86919  0.65496  1.0000
  C   C1172     1.0  0.62963  0.86844  0.67996  1.0000
  C   C1173     1.0  0.59999  0.82416  0.66460  1.0000
  C   C1174     1.0  0.57948  0.84565  0.68393  1.0000
  C   C1175     1.0  0.57492  0.87156  0.68995  1.0000
  C   C1176     1.0  0.56686  0.85714  0.64538  1.0000
  C   C1177     1.0  0.60798  0.80484  0.67879  1.0000
  C   C1178     1.0  0.65546  0.87322  0.66952  1.0000
  C   C1179     1.0  0.68265  0.88867  0.68059  1.0000
  C   C1180     1.0  0.55081  0.86220  0.70213  1.0000
  C   C1181     1.0  0.56385  0.87709  0.63015  1.0000
  C   C1182     1.0  0.60859  0.77899  0.67050  1.0000
  H   H2073     1.0  0.61151  0.87147  0.64482  1.0000
  H   H2074     1.0  0.60121  0.89122  0.65858  1.0000
  H   H2075     1.0  0.63110  0.88981  0.68299  1.0000
  H   H2076     1.0  0.63224  0.85832  0.69310  1.0000
  H   H2077     1.0  0.61315  0.82778  0.65320  1.0000
  H   H2078     1.0  0.57833  0.81123  0.65935  1.0000
  H   H2079     1.0  0.55898  0.83011  0.67868  1.0000
  H   H2080     1.0  0.58493  0.83516  0.69618  1.0000
  H   H2081     1.0  0.56960  0.88372  0.67858  1.0000
  H   H2082     1.0  0.59399  0.88594  0.69736  1.0000
  H   H2083     1.0  0.56261  0.83648  0.63973  1.0000
  H   H2084     1.0  0.55034  0.85413  0.65445  1.0000
  H   H2085     1.0  0.59242  0.79713  0.68898  1.0000
  H   H2086     1.0  0.62895  0.81595  0.68547  1.0000
  H   H2087     1.0  0.65590  0.85295  0.66592  1.0000
  H   H2088     1.0  0.65544  0.88626  0.65722  1.0000
  H   H2089     1.0  0.68378  0.90954  0.68437  1.0000
  H   H2090     1.0  0.68418  0.87584  0.69279  1.0000
  H   H2091     1.0  0.70086  0.89222  0.67282  1.0000
  H   H2092     1.0  0.55526  0.85060  0.71413  1.0000
  H   H2093     1.0  0.54792  0.88102  0.70630  1.0000
  H   H2094     1.0  0.53100  0.84830  0.69510  1.0000
  H   H2095     1.0  0.54245  0.86781  0.62356  1.0000
  H   H2096     1.0  0.56691  0.89790  0.63517  1.0000
  H   H2097     1.0  0.57925  0.88020  0.62020  1.0000
  H   H2098     1.0  0.58822  0.76709  0.66328  1.0000
  H   H2099     1.0  0.62549  0.78551  0.66120  1.0000
  H   H2100     1.0  0.61269  0.76471  0.68108  1.0000
  H   H2101     1.0  0.63327  0.51999  0.55395  1.0000
  C   C1183     1.0  0.61539  0.54423  0.57698  1.0000
  C   C1184     1.0  0.47975  0.81262  0.67129  1.0000
  H   H2102     1.0  0.96228  0.61079  0.59432  1.0000
  H   H2103     1.0  0.58242  0.51182  0.56262  1.0000
  C   C1185     1.0  0.91071  0.78916  0.73382  1.0000
  C   C1186     1.0  0.48753  0.61887  0.65547  1.0000
  H   H2104     1.0  0.58107  0.82249  0.73792  1.0000
  H   H2105     1.0  0.48914  0.67301  0.61916  1.0000
  H   H2106     1.0  0.86911  0.94839  0.73522  1.0000
  H   H2107     1.0  0.48117  0.89210  0.51267  1.0000
  H   H2108     1.0  0.93937  0.63669  0.57257  1.0000
  C   C1187     1.0  0.62120  0.50318  0.56359  1.0000
  C   C1188     1.0  0.49085  0.80743  0.65651  1.0000
  H   H2109     1.0  0.50494  0.62212  0.64763  1.0000
  C   C1189     1.0  0.87790  0.96686  0.72585  1.0000
  C   C1190     1.0  0.96113  0.80114  0.72709  1.0000
  H   H2110     1.0  0.47064  0.47858  0.58958  1.0000
  S   S269      1.0  0.46993  0.65950  0.69422  1.0000
  H   H2111     1.0  0.47579  0.58284  0.60014  1.0000
  H   H2112     1.0  0.63689  0.50315  0.57460  1.0000
  H   H2113     1.0  0.49246  0.81323  0.62816  1.0000
  H   H2114     1.0  0.65510  0.76507  0.74170  1.0000
  H   H2115     1.0  0.48354  0.69236  0.64704  1.0000
  H   H2116     1.0  0.96056  0.52777  0.62178  1.0000
  H   H2117     1.0  0.48659  0.61034  0.58282  1.0000
  H   H2118     1.0  0.50319  0.61370  0.74035  1.0000
  H   H2119     1.0  0.48864  0.66575  0.74205  1.0000
  H   H2120     1.0  0.48173  0.50779  0.55229  1.0000
  C   C1191     1.0  0.50252  0.94265  0.49602  1.0000
  S   S270      1.0  0.71548  0.86731  0.74086  1.0000
  H   H2121     1.0  0.46764  0.68930  0.60682  1.0000
  C   C1192     1.0  0.47118  0.67932  0.61977  1.0000
  C   C1193     1.0  0.47133  0.92395  0.49631  1.0000
  H   H2122     1.0  0.52738  0.65012  0.74158  1.0000
  C   C1194     1.0  0.46778  0.51725  0.55679  1.0000
  H   H2123     1.0  0.95836  0.74798  0.72107  1.0000
  H   H2124     1.0  0.47016  0.64182  0.59819  1.0000
  C   C1195     1.0  0.46872  0.59169  0.58774  1.0000
  H   H2125     1.0  0.89222  0.47926  0.57975  1.0000
  H   H2126     1.0  0.96556  0.81456  0.73878  1.0000
  C   C1196     1.0  0.60187  0.47836  0.53542  1.0000
  H   H2127     1.0  0.47259  0.84077  0.49784  1.0000
  H   H2128     1.0  0.96611  0.76961  0.70153  1.0000
  C   C1197     1.0  0.46674  0.89275  0.50105  1.0000
  C   C1198     1.0  0.68102  0.80970  0.74262  1.0000
  H   H2129     1.0  0.81396  0.89321  0.85956  1.0000
  C   C1199     1.0  0.88389  0.91819  0.79096  1.0000
  Fe  Fe136     1.0  0.79680  0.85348  0.78073  1.0000
  S   S271      1.0  0.79866  0.88895  0.76095  1.0000
  S   S272      1.0  0.82402  0.82779  0.78316  1.0000
  Fe  Fe137     1.0  0.75381  0.86244  0.80210  1.0000
  S   S273      1.0  0.75413  0.89903  0.78425  1.0000
  S   S274      1.0  0.72180  0.85224  0.82250  1.0000
  Fe  Fe138     1.0  0.75103  0.87092  0.76215  1.0000
  C   C1200     1.0  0.49866  0.82031  0.87195  1.0000
  Fe  Fe139     1.0  0.80087  0.91328  0.78500  1.0000
  S   S275      1.0  0.74941  0.83383  0.78017  1.0000
  S   S276      1.0  0.80052  0.87818  0.80456  1.0000
  Fe  Fe140     1.0  0.70166  0.83047  0.95913  1.0000
  S   S277      1.0  0.67434  0.85579  0.95693  1.0000
  H   H2130     1.0  0.95346  0.86621  0.84959  1.0000
  Fe  Fe141     1.0  0.72267  0.85045  0.92269  1.0000
  S   S278      1.0  0.69783  0.87737  0.91799  1.0000
  S   S279      1.0  0.75384  0.84844  0.90457  1.0000
  Fe  Fe142     1.0  0.71184  0.89113  0.94597  1.0000
  H   H2131     1.0  0.90837  0.83021  0.97881  1.0000
  Fe  Fe143     1.0  0.66220  0.83979  0.92911  1.0000
  S   S280      1.0  0.62090  0.83054  0.91201  1.0000
  S   S281      1.0  0.73929  0.86655  0.94968  1.0000
  S   S282      1.0  0.68680  0.81198  0.93226  1.0000
  H   H2132     1.0  0.52210  0.78204  0.92682  1.0000
  C   C1201     1.0  0.74338  0.95778  0.97028  1.0000
  H   H2133     1.0  0.95346  0.89904  0.82091  1.0000
  S   S283      1.0  0.50425  0.72445  0.89954  1.0000
  H   H2134     1.0  0.73335  0.94110  0.79503  1.0000
  C   C1202     1.0  0.58922  0.80016  0.90832  1.0000
  C   C1203     1.0  0.58249  0.77536  0.91902  1.0000
  C   C1204     1.0  0.55661  0.75236  0.91595  1.0000
  C   C1205     1.0  0.53723  0.75360  0.90204  1.0000
  C   C1206     1.0  0.54431  0.77809  0.89102  1.0000
  C   C1207     1.0  0.56999  0.80127  0.89426  1.0000
  H   H2135     1.0  0.59697  0.77408  0.92987  1.0000
  H   H2136     1.0  0.55149  0.73351  0.92453  1.0000
  H   H2137     1.0  0.52987  0.77930  0.88015  1.0000
  H   H2138     1.0  0.57497  0.82027  0.88584  1.0000
  C   C1208     1.0  0.48591  0.79365  0.90152  1.0000
  H   H2139     1.0  0.82989  0.80022  0.96242  1.0000
  H   H2140     1.0  0.52065  0.83179  0.87713  1.0000
  H   H2141     1.0  0.94073  0.76642  0.93058  1.0000
  H   H2142     1.0  0.69879  0.80645  0.74934  1.0000
  C   C1209     1.0  0.74590  0.78885  0.97256  1.0000
  H   H2143     1.0  0.58234  0.69336  0.75485  1.0000
  H   H2144     1.0  0.74021  0.79565  0.95950  1.0000
  H   H2145     1.0  0.81495  0.76771  0.95097  1.0000
  C   C1210     1.0  0.73247  0.85313  0.84511  1.0000
  C   C1211     1.0  0.75529  0.84660  0.85152  1.0000
  C   C1212     1.0  0.76202  0.84566  0.86983  1.0000
  C   C1213     1.0  0.74597  0.85127  0.88173  1.0000
  C   C1214     1.0  0.72361  0.85852  0.87524  1.0000
  C   C1215     1.0  0.71687  0.85939  0.85697  1.0000
  H   H2146     1.0  0.76736  0.84171  0.84239  1.0000
  H   H2147     1.0  0.77937  0.84010  0.87483  1.0000
  H   H2148     1.0  0.71128  0.86306  0.88431  1.0000
  H   H2149     1.0  0.69946  0.86485  0.85201  1.0000
  H   H2150     1.0  0.70759  0.91096  0.80612  1.0000
  H   H2151     1.0  0.89892  0.77699  0.93137  1.0000
  C   C1216     1.0  0.86587  0.72823  0.97787  1.0000
  N   N67       1.0  0.87229  0.77739  0.96323  1.0000
  H   H2152     1.0  0.47265  0.74541  0.92070  1.0000
  H   H2153     1.0  0.71368  0.94184  0.83176  1.0000
  H   H2154     1.0  0.82017  0.79489  0.92206  1.0000
  H   H2155     1.0  0.85150  0.73683  0.95107  1.0000
  H   H2156     1.0  0.91443  0.80634  0.95796  1.0000
  C   C1217     1.0  0.74733  0.94184  0.86126  1.0000
  H   H2157     1.0  0.91924  0.93015  0.80984  1.0000
  C   C1218     1.0  0.73659  0.94550  0.89272  1.0000
  C   C1219     1.0  0.91131  0.85285  0.76238  1.0000
  C   C1220     1.0  0.89583  0.86959  0.75753  1.0000
  C   C1221     1.0  0.86901  0.86228  0.76372  1.0000
  C   C1222     1.0  0.85733  0.83794  0.77461  1.0000
  C   C1223     1.0  0.87271  0.82108  0.77923  1.0000
  C   C1224     1.0  0.89944  0.82841  0.77309  1.0000
  H   H2158     1.0  0.86374  0.80205  0.78747  1.0000
  H   H2159     1.0  0.91069  0.81481  0.77635  1.0000
  N   N68       1.0  0.91052  0.87434  0.82695  1.0000
  C   C1225     1.0  0.91015  0.84512  0.82537  1.0000
  C   C1226     1.0  0.89152  0.87279  0.84117  1.0000
  H   H2160     1.0  0.94334  0.88963  0.86093  1.0000
  H   H2161     1.0  0.83553  0.82772  0.93358  1.0000
  H   H2162     1.0  0.51087  0.79251  0.94579  1.0000
  C   C1227     1.0  0.93342  0.84332  0.81482  1.0000
  H   H2163     1.0  0.91469  0.88482  0.79890  1.0000
  C   C1228     1.0  0.85972  0.85633  0.83659  1.0000
  C   C1229     1.0  0.84313  0.85029  0.85306  1.0000
  H   H2164     1.0  0.77326  0.77148  0.96313  1.0000
  C   C1230     1.0  0.93023  0.81261  0.81402  1.0000
  H   H2165     1.0  0.91287  0.77688  0.97187  1.0000
  H   H2166     1.0  0.88989  0.83107  0.81883  1.0000
  H   H2167     1.0  0.91137  0.83481  0.83866  1.0000
  H   H2168     1.0  0.89722  0.86263  0.85353  1.0000
  H   H2169     1.0  0.89463  0.89433  0.84499  1.0000
  C   C1231     1.0  0.71741  0.93446  0.80499  1.0000
  C   C1232     1.0  0.72812  0.94909  0.98538  1.0000
  H   H2170     1.0  0.58287  0.78026  0.75613  1.0000
  N   N69       1.0  0.76827  0.94581  0.84771  1.0000
  H   H2171     1.0  0.57552  0.84946  0.74888  1.0000
  C   C1233     1.0  0.87191  0.78955  0.98060  1.0000
  H   H2172     1.0  0.93924  0.91645  0.83387  1.0000
  C   C1234     1.0  0.79957  0.91932  0.84066  1.0000
  H   H2173     1.0  0.90822  0.97272  0.75569  1.0000
  C   C1235     1.0  0.48636  0.72101  0.76786  1.0000
  H   H2174     1.0  0.85159  0.86886  0.82684  1.0000
  H   H2175     1.0  0.85529  0.83574  0.83081  1.0000
  H   H2176     1.0  0.82034  0.84123  0.84913  1.0000
  H   H2177     1.0  0.84804  0.83476  0.86221  1.0000
  H   H2178     1.0  0.84815  0.86998  0.86012  1.0000
  S   S284      1.0  0.73217  0.93892  0.95036  1.0000
  H   H2179     1.0  0.94996  0.79919  0.94142  1.0000
  S   S285      1.0  0.83199  0.95455  0.79671  1.0000
  H   H2180     1.0  0.93343  0.80394  0.82751  1.0000
  H   H2181     1.0  0.58207  0.69161  0.77864  1.0000
  H   H2182     1.0  0.90921  0.79927  0.80817  1.0000
  H   H2183     1.0  0.82548  0.69275  0.97944  1.0000
  C   C1236     1.0  0.85475  0.74603  0.96429  1.0000
  C   C1237     1.0  0.90050  0.88368  0.80928  1.0000
  H   H2184     1.0  0.76588  0.93533  0.82014  1.0000
  H   H2185     1.0  0.93816  0.96658  0.78362  1.0000
  H   H2186     1.0  0.85017  0.78249  0.98466  1.0000
  H   H2187     1.0  0.60186  0.74146  0.76690  1.0000
  C   C1238     1.0  0.88588  0.82226  0.98136  1.0000
  H   H2188     1.0  0.88744  0.73083  0.97554  1.0000
  N   N70       1.0  0.46815  0.78545  0.91729  1.0000
  H   H2189     1.0  0.50839  0.80508  0.90573  1.0000
  S   S286      1.0  0.48777  0.76597  0.74537  1.0000
  C   C1239     1.0  0.75192  0.93368  0.83071  1.0000
  H   H2190     1.0  0.49520  0.71459  0.75754  1.0000
  H   H2191     1.0  0.94623  0.81159  0.80576  1.0000
  H   H2192     1.0  0.49694  0.82369  0.92956  1.0000
  H   H2193     1.0  0.93283  0.85228  0.80117  1.0000
  N   N71       1.0  0.65049  0.77555  0.86525  1.0000
  C   C1240     1.0  0.65449  0.75988  0.85037  1.0000
  C   C1241     1.0  0.62545  0.75604  0.87490  1.0000
  C   C1242     1.0  0.64616  0.80138  0.85732  1.0000
  C   C1243     1.0  0.67578  0.78482  0.87824  1.0000
  C   C1244     1.0  0.68416  0.76080  0.88695  1.0000
  C   C1245     1.0  0.68265  0.77425  0.84141  1.0000
  C   C1246     1.0  0.64006  0.81947  0.87049  1.0000
  C   C1247     1.0  0.59651  0.74882  0.86456  1.0000
  C   C1248     1.0  0.57342  0.72538  0.87430  1.0000
  C   C1249     1.0  0.71246  0.77284  0.89747  1.0000
  C   C1250     1.0  0.68337  0.75781  0.82567  1.0000
  C   C1251     1.0  0.63192  0.84245  0.86076  1.0000
  H   H2194     1.0  0.63757  0.75675  0.83970  1.0000
  H   H2195     1.0  0.65234  0.73811  0.85493  1.0000
  H   H2196     1.0  0.62751  0.73561  0.87872  1.0000
  H   H2197     1.0  0.62464  0.76485  0.88772  1.0000
  H   H2198     1.0  0.62900  0.79541  0.84666  1.0000
  H   H2199     1.0  0.66494  0.81587  0.85065  1.0000
  H   H2200     1.0  0.69414  0.80095  0.87189  1.0000
  H   H2201     1.0  0.67233  0.79566  0.88938  1.0000
  H   H2202     1.0  0.68584  0.74696  0.87702  1.0000
  H   H2203     1.0  0.66837  0.74751  0.89625  1.0000
  H   H2204     1.0  0.68599  0.79600  0.83643  1.0000
  H   H2205     1.0  0.70066  0.77542  0.85079  1.0000
  H   H2206     1.0  0.65882  0.83014  0.87946  1.0000
  H   H2207     1.0  0.62265  0.80640  0.87866  1.0000
  H   H2208     1.0  0.59096  0.76762  0.86310  1.0000
  H   H2209     1.0  0.59636  0.74152  0.85119  1.0000
  H   H2210     1.0  0.57360  0.73099  0.88814  1.0000
  H   H2211     1.0  0.55263  0.72235  0.86760  1.0000
  H   H2212     1.0  0.57625  0.70509  0.87445  1.0000
  H   H2213     1.0  0.71774  0.75532  0.90387  1.0000
  H   H2214     1.0  0.72922  0.78558  0.88861  1.0000
  H   H2215     1.0  0.71186  0.78643  0.90796  1.0000
  H   H2216     1.0  0.70369  0.76873  0.81953  1.0000
  H   H2217     1.0  0.68126  0.73602  0.83003  1.0000
  H   H2218     1.0  0.66633  0.75677  0.81547  1.0000
  H   H2219     1.0  0.62839  0.85541  0.87060  1.0000
  H   H2220     1.0  0.64885  0.85655  0.85244  1.0000
  H   H2221     1.0  0.61225  0.83281  0.85232  1.0000
  H   H2222     1.0  0.60629  0.82137  0.79799  1.0000
  S   S287      1.0  0.94383  0.86083  0.75326  1.0000
  C   C1252     1.0  0.76474  0.77521  0.97467  1.0000
  H   H2223     1.0  0.83124  0.90243  0.83908  1.0000
  C   C1253     1.0  0.95689  0.96867  0.75003  1.0000
  H   H2224     1.0  0.80877  0.93545  0.83018  1.0000
  C   C1254     1.0  0.82107  0.80511  0.93460  1.0000
  H   H2225     1.0  0.81078  0.94140  0.95144  1.0000
  H   H2226     1.0  0.83857  0.97764  0.76014  1.0000
  C   C1255     1.0  0.82254  0.91032  0.84930  1.0000
  C   C1256     1.0  0.47617  0.76405  0.92862  1.0000
  N   N72       1.0  0.57302  0.76772  0.78347  1.0000
  C   C1257     1.0  0.55340  0.77019  0.79611  1.0000
  C   C1258     1.0  0.56402  0.73666  0.78019  1.0000
  C   C1259     1.0  0.60338  0.77925  0.79052  1.0000
  C   C1260     1.0  0.61297  0.80422  0.80318  1.0000
  C   C1261     1.0  0.54977  0.75113  0.81331  1.0000
  C   C1262     1.0  0.57884  0.72952  0.76560  1.0000
  C   C1263     1.0  0.64484  0.81710  0.80641  1.0000
  C   C1264     1.0  0.53586  0.76027  0.82715  1.0000
  C   C1265     1.0  0.75925  0.94695  0.88081  1.0000
  H   H2227     1.0  0.53206  0.76466  0.78942  1.0000
  H   H2228     1.0  0.54113  0.72695  0.77655  1.0000
  H   H2229     1.0  0.56753  0.72503  0.79250  1.0000
  H   H2230     1.0  0.60874  0.76239  0.79798  1.0000
  H   H2231     1.0  0.61733  0.78592  0.77930  1.0000
  H   H2232     1.0  0.60400  0.79672  0.81619  1.0000
  H   H2233     1.0  0.53603  0.72889  0.81030  1.0000
  H   H2234     1.0  0.57017  0.75145  0.81919  1.0000
  H   H2235     1.0  0.83336  0.74208  0.96807  1.0000
  H   H2236     1.0  0.89603  0.91796  0.77974  1.0000
  H   H2237     1.0  0.65270  0.80082  0.81187  1.0000
  H   H2238     1.0  0.65491  0.82649  0.79389  1.0000
  H   H2239     1.0  0.65119  0.83415  0.81602  1.0000
  H   H2240     1.0  0.51512  0.75975  0.82172  1.0000
  H   H2241     1.0  0.53247  0.74547  0.83895  1.0000
  H   H2242     1.0  0.54925  0.78193  0.83140  1.0000
  C   C1266     1.0  0.93958  0.89539  0.83195  1.0000
  C   C1267     1.0  0.50665  0.77478  0.93703  1.0000
  H   H2243     1.0  0.73095  0.91989  0.86105  1.0000
  H   H2244     1.0  0.87456  0.81309  0.94548  1.0000
  C   C1268     1.0  0.48019  0.70464  0.78371  1.0000
  H   H2245     1.0  0.88250  0.93917  0.79079  1.0000
  H   H2246     1.0  0.55970  0.79231  0.79994  1.0000
  C   C1269     1.0  0.56942  0.78245  0.76601  1.0000
  H   H2247     1.0  0.79938  0.94234  0.98211  1.0000
  C   C1270     1.0  0.89813  0.91288  0.80856  1.0000
  H   H2248     1.0  0.50773  0.73275  0.94018  1.0000
  H   H2249     1.0  0.78329  0.90082  0.83409  1.0000
  H   H2250     1.0  0.54742  0.77221  0.76029  1.0000
  H   H2251     1.0  0.73607  0.95616  0.85792  1.0000
  H   H2252     1.0  0.57076  0.73476  0.75242  1.0000
  H   H2253     1.0  0.79980  0.80414  0.93647  1.0000
  C   C1271     1.0  0.48434  0.64323  0.74546  1.0000
  H   H2254     1.0  0.72964  0.96314  0.88923  1.0000
  H   H2255     1.0  0.83259  0.92948  0.96695  1.0000
  C   C1272     1.0  0.51187  0.75125  0.94829  1.0000
  H   H2256     1.0  0.77660  0.96796  0.88223  1.0000
  C   C1273     1.0  0.56957  0.82630  0.74837  1.0000
  C   C1274     1.0  0.90225  0.78323  0.96000  1.0000
  C   C1275     1.0  0.57700  0.81466  0.76632  1.0000
  H   H2257     1.0  0.53407  0.75909  0.95359  1.0000
  H   H2258     1.0  0.48787  0.64080  0.76002  1.0000
  H   H2259     1.0  0.89586  0.74579  0.94493  1.0000
  H   H2260     1.0  0.78174  0.87709  0.98196  1.0000
  S   S288      1.0  0.70838  0.80790  0.98498  1.0000
  C   C1276     1.0  0.90672  0.76914  0.94386  1.0000
  C   C1277     1.0  0.83054  0.78986  0.95028  1.0000
  C   C1278     1.0  0.47087  0.83536  0.95444  1.0000
  H   H2261     1.0  0.70911  0.93021  0.98516  1.0000
  H   H2262     1.0  0.87980  0.86761  0.80474  1.0000
  H   H2263     1.0  0.93796  0.94983  0.75366  1.0000
  H   H2264     1.0  0.49366  0.84216  0.95806  1.0000
  H   H2265     1.0  0.85858  0.77993  0.93566  1.0000
  H   H2266     1.0  0.87549  0.83258  0.97151  1.0000
  H   H2267     1.0  0.74136  0.96992  0.82074  1.0000
  C   C1279     1.0  0.86021  0.79071  0.94811  1.0000
  H   H2268     1.0  0.86228  0.90185  0.78919  1.0000
  H   H2269     1.0  0.49312  0.83406  0.86165  1.0000
  H   H2270     1.0  0.77349  0.90996  0.86204  1.0000
  H   H2271     1.0  0.79782  0.97746  0.81822  1.0000
  C   C1280     1.0  0.95395  0.88794  0.84930  1.0000
  H   H2272     1.0  0.88573  0.91446  0.81921  1.0000
  H   H2273     1.0  0.80361  0.90419  0.95416  1.0000
  H   H2274     1.0  0.73984  0.91055  0.83282  1.0000
  C   C1281     1.0  0.77206  0.76581  0.99149  1.0000
  H   H2275     1.0  0.74495  0.94717  0.90678  1.0000
  H   H2276     1.0  0.95448  0.85518  0.82109  1.0000
  C   C1282     1.0  0.46858  0.71270  0.79722  1.0000
  C   C1283     1.0  0.78618  0.92970  0.85456  1.0000
  C   C1284     1.0  0.78977  0.89710  0.98925  1.0000
  H   H2277     1.0  0.83982  0.92860  0.85543  1.0000
  H   H2278     1.0  0.85535  0.68464  0.98712  1.0000
  H   H2279     1.0  0.90447  0.88811  0.74883  1.0000
  C   C1285     1.0  0.57286  0.69796  0.76613  1.0000
  C   C1286     1.0  0.73087  0.94667  0.82286  1.0000
  H   H2280     1.0  0.76713  0.93052  0.88599  1.0000
  H   H2281     1.0  0.96332  0.76833  0.75998  1.0000
  H   H2282     1.0  0.56565  0.81985  0.77624  1.0000
  H   H2283     1.0  0.48441  0.68565  0.78555  1.0000
  H   H2284     1.0  0.59990  0.82593  0.76908  1.0000
  H   H2285     1.0  0.49824  0.74439  0.95958  1.0000
  H   H2286     1.0  0.70099  0.94248  0.80027  1.0000
  H   H2287     1.0  0.84781  0.68904  0.96369  1.0000
  C   C1287     1.0  0.81084  0.92425  0.96122  1.0000
  H   H2288     1.0  0.48448  0.77426  0.89511  1.0000
  H   H2289     1.0  0.80305  0.94242  0.86424  1.0000
  H   H2290     1.0  0.85722  0.87524  0.75986  1.0000
  H   H2291     1.0  0.88266  0.78100  0.99131  1.0000
  C   C1288     1.0  0.79137  0.92171  0.97569  1.0000
  H   H2292     1.0  0.54668  0.81619  0.74492  1.0000
  C   C1289     1.0  0.93782  0.77594  0.94249  1.0000
  H   H2293     1.0  0.77061  0.91814  0.96904  1.0000
  C   C1290     1.0  0.84740  0.69674  0.97689  1.0000
  C   C1291     1.0  0.48088  0.74551  0.76535  1.0000
  H   H2294     1.0  0.48069  0.83311  0.89206  1.0000
  H   H2295     1.0  0.91664  0.79689  0.74746  1.0000
  H   H2296     1.0  0.71827  0.92508  0.89140  1.0000
  H   H2297     1.0  0.54994  0.68531  0.76497  1.0000
  C   C1292     1.0  0.78580  0.97709  0.84555  1.0000
  H   H2298     1.0  0.94632  0.76711  0.95431  1.0000
  C   C1293     1.0  0.46961  0.75381  0.77895  1.0000
  C   C1294     1.0  0.47873  0.81288  0.88681  1.0000
  C   C1295     1.0  0.73369  0.79267  0.98726  1.0000
  H   H2299     1.0  0.49697  0.80088  0.86567  1.0000
  C   C1296     1.0  0.47397  0.81188  0.92701  1.0000
  H   H2300     1.0  0.46683  0.82671  0.91863  1.0000
  H   H2301     1.0  0.86576  0.73437  0.99154  1.0000
  H   H2302     1.0  0.73563  0.86611  0.98979  1.0000
  H   H2303     1.0  0.73988  0.90187  0.98842  1.0000
  H   H2304     1.0  0.46713  0.85238  0.94612  1.0000
  Fe  Fe144     1.0  0.46641  0.71452  0.87919  1.0000
