data_image0
_chemical_formula_structural       FeS2HC2NH2C3H4SH5CH2C4FeHC2H5SH5C2H3C3HCHCH3CSHSCFeSFeSC2HFeCHCHCHCHFeSH10C3H5C2H3SH7FeSHS2HSHFeSHFe2H2FeS2C2FeH3FeS2FeSHFeSFeS3CH3C7H4CFeH2SC2H4C2H2C6H5CH3C6H2C4SHNHNC8H12SH2CH2C2H2CSCH2CH7CHCH3SH5NCH2C2HSHC2HSH2C2H3CH5SH3S2HCHC2HCHC3H5C2H2SHC3H3C3H5NHCH2CHCH3CHC2H12CHC2H3C2H2CH2CFeCH2SC4H2CH4CHNHC2H2FeC2NHCH4CH2NHCH5CH3C2H2C2HCH6C3S2CFeSCSFeSCSCFeS2FeSHFeSFeHS2HSC2HC2HCH5SHC2H2C4H2C6H5C2H4CFeH2CHCH15CNC10H21NC8H3CH18C3HFeH3CHC2SHCH2NCHSH2C2H4CH6CH8C2H3SHC2H3C2HC3H2C2H8SH2C2HC3H8CHCH5CHCHSHSFeSH4SCH2CH3C2H2C3H4CH3CNH4NH3C2H2CH2CHSHC2H2CH2C2H3FeH2SH6C5HC2H7FeNC8HC3H12FeHCH2CHC2HCHSH2SH2C2H2C2HCHCFeSFeS3FeS2FeHCFeSFeHS2C3H2C2HCH2NH2C7H5C3H3CH2C2H6CHCHC2H2CHC2H2CH6CHCHCH2CH2CHCH6CH2SCH2CNCH8CH2C2NC2H2CH3CH9C2H5CH2CHCHC2H6CHSC4H4CNH4C2SCH5C2HNHC2HCHSHSFeSFe2S2FeSFeS3HC2H2C2H3C2H3C6H4CH5C6H2CH2NC12H28CHCHSHCH7C2HCNC6H9S2H4CHSH2CH2CH3CH3CH3NHC2HFeH3CSCH2FeSFeS4FeHC2HFeCHCHCH2C5H2CHCHCH2CH2C3H3C2H6S2NC8HC3H16CH8NH3CHNH2CSHC2H8NCH2C2H5CHCHCHSCH2CSH6CH2CH4CHCHC4HCHCH3C2HC3HCH2SCH2SCSFeS2CFeS2FeS2FeSFeS3H2CHCHCHC2H3C3H2C3H2CH2CH2CHC7H4C2H3CNC9H26NC9NC2H20CH9CHCHCH4CHFeC2HC2SCHCH3CH2CHC2H2CH4CH2CHCH2CH2CH6C2SH3C2HCH4FeCH3C3HCH4CHCH4CH6SFeSFeS4H2FeSH2FeHCH3SFeSHFeS2FeSFeS3C2HFeSCH2CH2C6H6C4H2NHCHSHC2HCHC6H5SH3C3H2CH4NC7H7CH3SC3H3C2H6FeHNC11H13CH3FeCHCH2SFeH2CHCH3SH3CH4CH5CH5CH3C3H2CH2CHCH3C2HCHC2H5C2NCHC2HCHCH2SHSCH3C2H5CH3CH4CHSCHCHCNH2CH2CHSHCHCH5C2H5CH2NHC2Fe2HCSH2SFeSFeSH2C3H2C3H2C2SC2HFeH7CH9CH4CHC3H5CHCH2CHNHCH4CHCH5CH2SH5CH8C2FeH
_chemical_formula_sum              "Fe72 S144 H1152 C648 N36"
_cell_length_a       59.4963
_cell_length_b       59.332
_cell_length_c       29.4876
_cell_angle_alpha    89.9188
_cell_angle_beta     89.9713
_cell_angle_gamma    119.957

_space_group_name_H-M_alt    "P 1"
_space_group_IT_number       1

loop_
  _space_group_symop_operation_xyz
  'x, y, z'

loop_
  _atom_site_type_symbol
  _atom_site_label
  _atom_site_symmetry_multiplicity
  _atom_site_fract_x
  _atom_site_fract_y
  _atom_site_fract_z
  _atom_site_occupancy
  Fe  Fe1       1.0  0.45631  0.28915  0.40806  1.0000
  S   S1        1.0  0.45640  0.25033  0.41634  1.0000
  S   S2        1.0  0.44904  0.30306  0.34079  1.0000
  H   H1        1.0  0.41486  0.22659  0.21172  1.0000
  C   C1        1.0  0.45755  0.19101  0.48604  1.0000
  C   C2        1.0  0.45012  0.22601  0.45847  1.0000
  N   N1        1.0  0.46508  0.26721  0.18356  1.0000
  H   H2        1.0  0.45558  0.23424  0.13958  1.0000
  H   H3        1.0  0.43992  0.05298  0.45411  1.0000
  C   C3        1.0  0.45575  0.28657  0.18669  1.0000
  C   C4        1.0  0.47105  0.26029  0.22966  1.0000
  C   C5        1.0  0.43139  0.27860  0.21616  1.0000
  H   H4        1.0  0.40884  0.29519  0.24311  1.0000
  H   H5        1.0  0.41192  0.02509  0.47765  1.0000
  H   H6        1.0  0.43329  0.27208  0.25043  1.0000
  H   H7        1.0  0.45101  0.29090  0.15245  1.0000
  S   S3        1.0  0.44053  0.31073  0.44814  1.0000
  H   H8        1.0  0.42381  0.30844  0.18894  1.0000
  H   H9        1.0  0.43392  0.21093  0.20735  1.0000
  H   H10       1.0  0.47158  0.30553  0.19911  1.0000
  H   H11       1.0  0.47221  0.27007  0.08785  1.0000
  H   H12       1.0  0.45327  0.24963  0.25057  1.0000
  C   C6        1.0  0.46172  0.21041  0.45374  1.0000
  H   H13       1.0  0.41403  0.26281  0.19920  1.0000
  H   H14       1.0  0.39327  0.20689  0.13826  1.0000
  C   C7        1.0  0.43120  0.03191  0.46174  1.0000
  C   C8        1.0  0.42469  0.22011  0.18754  1.0000
  C   C9        1.0  0.42658  0.30143  0.22229  1.0000
  C   C10       1.0  0.44554  0.24292  0.15864  1.0000
  Fe  Fe2       1.0  0.43711  0.32801  0.38163  1.0000
  H   H15       1.0  0.43525  0.24794  0.13242  1.0000
  C   C11       1.0  0.02514  0.32007  0.48291  1.0000
  C   C12       1.0  0.40390  0.19903  0.15753  1.0000
  H   H16       1.0  0.38973  0.18268  0.17904  1.0000
  H   H17       1.0  0.41277  0.19134  0.13338  1.0000
  H   H18       1.0  0.42869  0.02139  0.42934  1.0000
  H   H19       1.0  0.47408  0.21336  0.42481  1.0000
  H   H20       1.0  0.03133  0.29986  0.42671  1.0000
  S   S4        1.0  0.49410  0.09344  0.48618  1.0000
  H   H21       1.0  0.44314  0.31774  0.24016  1.0000
  H   H22       1.0  0.46809  0.03563  0.47698  1.0000
  H   H23       1.0  0.47870  0.24665  0.22573  1.0000
  H   H24       1.0  0.49567  0.12051  0.39111  1.0000
  H   H25       1.0  0.46663  0.17926  0.48170  1.0000
  C   C13       1.0  0.49051  0.28337  0.25942  1.0000
  C   C14       1.0  0.49391  0.27391  0.30575  1.0000
  H   H26       1.0  0.47503  0.26360  0.32380  1.0000
  H   H27       1.0  0.48432  0.30324  0.10505  1.0000
  H   H28       1.0  0.48336  0.29713  0.26555  1.0000
  C   C15       1.0  0.44895  0.02773  0.49389  1.0000
  C   C16       1.0  0.49005  0.27963  0.15651  1.0000
  C   C17       1.0  0.48800  0.28665  0.10641  1.0000
  H   H29       1.0  0.00785  0.31909  0.46675  1.0000
  C   C18       1.0  0.43397  0.22163  0.49595  1.0000
  H   H30       1.0  0.04427  0.29687  0.48061  1.0000
  C   C19       1.0  0.02792  0.29763  0.46392  1.0000
  H   H31       1.0  0.42442  0.23295  0.49976  1.0000
  H   H32       1.0  0.47785  0.27685  0.50234  1.0000
  H   H33       1.0  0.00982  0.27891  0.47044  1.0000
  C   C20       1.0  0.43749  0.99837  0.50480  1.0000
  S   S5        1.0  0.43554  0.09330  0.54584  1.0000
  H   H34       1.0  0.41664  0.19857  0.55629  1.0000
  S   S6        1.0  0.44635  0.11693  0.64872  1.0000
  C   C21       1.0  0.38627  0.00059  0.57962  1.0000
  Fe  Fe3       1.0  0.43616  0.07831  0.61587  1.0000
  S   S7        1.0  0.40819  0.03828  0.64751  1.0000
  Fe  Fe4       1.0  0.44951  0.13298  0.57752  1.0000
  S   S8        1.0  0.43464  0.16183  0.56496  1.0000
  C   C22       1.0  0.42949  0.20196  0.52791  1.0000
  C   C23       1.0  0.48516  0.18157  0.75030  1.0000
  H   H35       1.0  0.02083  0.31646  0.51951  1.0000
  Fe  Fe5       1.0  0.48807  0.12755  0.64044  1.0000
  C   C24       1.0  0.32773  0.00689  0.61752  1.0000
  H   H36       1.0  0.46472  0.16828  0.76062  1.0000
  C   C25       1.0  0.47965  0.29772  0.56465  1.0000
  H   H37       1.0  0.47208  0.02694  0.58057  1.0000
  C   C26       1.0  0.46123  0.01428  0.66776  1.0000
  H   H38       1.0  0.38967  0.01631  0.55688  1.0000
  C   C27       1.0  0.45442  0.00732  0.58251  1.0000
  H   H39       1.0  0.34807  0.02012  0.60652  1.0000
  Fe  Fe6       1.0  0.47788  0.10521  0.54474  1.0000
  S   S9        1.0  0.47793  0.08838  0.61270  1.0000
  H   H40       1.0  0.48975  0.02063  0.51589  1.0000
  H   H41       1.0  0.44013  0.27587  0.53899  1.0000
  H   H42       1.0  0.48986  0.30066  0.59741  1.0000
  H   H43       1.0  0.48128  0.21622  0.88296  1.0000
  H   H44       1.0  0.44856  0.25779  0.57815  1.0000
  H   H45       1.0  0.43804  0.01125  0.58520  1.0000
  H   H46       1.0  0.48519  0.18970  0.71632  1.0000
  H   H47       1.0  0.44798  0.02240  0.66808  1.0000
  H   H48       1.0  0.47910  0.24388  0.54964  1.0000
  H   H49       1.0  0.49290  0.15931  0.97940  1.0000
  C   C28       1.0  0.39395  0.00610  0.62499  1.0000
  C   C29       1.0  0.44121  0.18646  0.52331  1.0000
  C   C30       1.0  0.45103  0.27720  0.57042  1.0000
  H   H50       1.0  0.44253  0.28286  0.59868  1.0000
  H   H51       1.0  0.48034  0.31640  0.55704  1.0000
  H   H52       1.0  0.47893  0.24890  0.93361  1.0000
  H   H53       1.0  0.47956  0.17981  0.84332  1.0000
  H   H54       1.0  0.31462  0.01021  0.59523  1.0000
  C   C31       1.0  0.49305  0.29142  0.52518  1.0000
  C   C32       1.0  0.47807  0.99918  0.52083  1.0000
  H   H55       1.0  0.49187  0.10766  0.74867  1.0000
  H   H56       1.0  0.48774  0.21398  0.78593  1.0000
  H   H57       1.0  0.49004  0.26296  0.59956  1.0000
  S   S10       1.0  0.49176  0.14547  0.57129  1.0000
  H   H58       1.0  0.45144  0.03941  0.52477  1.0000
  H   H59       1.0  0.49063  0.15729  0.89620  1.0000
  H   H60       1.0  0.32576  0.01185  0.65306  1.0000
  H   H61       1.0  0.47710  0.21005  0.60883  1.0000
  H   H62       1.0  0.45924  0.00433  0.70068  1.0000
  H   H63       1.0  0.48151  0.03046  0.66451  1.0000
  H   H64       1.0  0.49524  0.17017  0.74745  1.0000
  Fe  Fe7       1.0  0.17394  0.57480  0.04623  1.0000
  S   S11       1.0  0.14735  0.58344  0.08916  1.0000
  H   H65       1.0  0.40139  0.59366  0.38100  1.0000
  S   S12       1.0  0.24001  0.54679  0.06801  1.0000
  S   S13       1.0  0.21721  0.59603  0.05259  1.0000
  H   H66       1.0  0.03098  0.51726  0.40439  1.0000
  S   S14       1.0  0.37623  0.57813  0.04809  1.0000
  H   H67       1.0  0.31754  0.40794  0.25626  1.0000
  Fe  Fe8       1.0  0.40327  0.56217  0.05160  1.0000
  S   S15       1.0  0.41132  0.54958  0.11992  1.0000
  H   H68       1.0  0.32050  0.38246  0.22806  1.0000
  Fe  Fe9       1.0  0.13664  0.62373  0.34191  1.0000
  Fe  Fe10      1.0  0.11373  0.61554  0.43791  1.0000
  H   H69       1.0  0.18421  0.58570  0.15694  1.0000
  H   H70       1.0  0.16173  0.57653  0.36313  1.0000
  Fe  Fe11      1.0  0.08919  0.62987  0.36225  1.0000
  S   S16       1.0  0.04933  0.61478  0.32874  1.0000
  S   S17       1.0  0.09731  0.59699  0.37108  1.0000
  C   C33       1.0  0.01842  0.52441  0.39030  1.0000
  C   C34       1.0  0.15991  0.57437  0.50481  1.0000
  Fe  Fe12      1.0  0.21409  0.55824  0.03082  1.0000
  H   H71       1.0  0.26975  0.46191  0.02065  1.0000
  H   H72       1.0  0.48369  0.64316  0.47672  1.0000
  H   H73       1.0  0.36442  0.44000  0.23997  1.0000
  Fe  Fe13      1.0  0.33063  0.46072  0.32489  1.0000
  S   S18       1.0  0.31269  0.42234  0.36229  1.0000
  S   S19       1.0  0.32708  0.46120  0.24798  1.0000
  Fe  Fe14      1.0  0.35154  0.49143  0.41175  1.0000
  S   S20       1.0  0.33595  0.45565  0.45518  1.0000
  H   H74       1.0  0.26109  0.48663  0.02929  1.0000
  Fe  Fe15      1.0  0.35061  0.43947  0.40031  1.0000
  S   S21       1.0  0.37883  0.42449  0.41730  1.0000
  Fe  Fe16      1.0  0.29942  0.44174  0.41392  1.0000
  S   S22       1.0  0.25854  0.42022  0.44590  1.0000
  S   S23       1.0  0.36886  0.47688  0.36018  1.0000
  S   S24       1.0  0.31449  0.47848  0.37313  1.0000
  C   C35       1.0  0.23167  0.42281  0.46725  1.0000
  H   H75       1.0  0.29237  0.60954  0.04339  1.0000
  H   H76       1.0  0.08093  0.54470  0.41148  1.0000
  H   H77       1.0  0.27294  0.50960  0.23380  1.0000
  C   C36       1.0  0.30075  0.62825  0.10876  1.0000
  C   C37       1.0  0.39651  0.35911  0.37734  1.0000
  C   C38       1.0  0.37349  0.35812  0.36254  1.0000
  C   C39       1.0  0.36762  0.37772  0.37453  1.0000
  C   C40       1.0  0.38491  0.39892  0.40100  1.0000
  C   C41       1.0  0.40799  0.39999  0.41557  1.0000
  C   C42       1.0  0.41374  0.38026  0.40400  1.0000
  H   H78       1.0  0.07689  0.51363  0.39496  1.0000
  H   H79       1.0  0.34951  0.37618  0.36393  1.0000
  H   H80       1.0  0.42149  0.41614  0.43626  1.0000
  H   H81       1.0  0.43150  0.38141  0.41575  1.0000
  C   C43       1.0  0.08943  0.53182  0.41393  1.0000
  Fe  Fe17      1.0  0.48130  0.34450  0.44688  1.0000
  H   H82       1.0  0.18916  0.59735  0.23882  1.0000
  H   H83       1.0  0.34249  0.60792  0.02500  1.0000
  S   S25       1.0  0.47733  0.36276  0.38285  1.0000
  C   C44       1.0  0.40496  0.54558  0.45304  1.0000
  C   C45       1.0  0.41935  0.53511  0.43437  1.0000
  H   H84       1.0  0.01769  0.62342  0.22619  1.0000
  H   H85       1.0  0.40999  0.51812  0.41302  1.0000
  H   H86       1.0  0.26608  0.50593  0.10599  1.0000
  H   H87       1.0  0.43526  0.46167  0.22009  1.0000
  C   C46       1.0  0.01806  0.60151  0.35416  1.0000
  C   C47       1.0  0.01384  0.61219  0.39329  1.0000
  H   H88       1.0  0.24526  0.47506  0.12890  1.0000
  H   H89       1.0  0.03011  0.62836  0.40986  1.0000
  C   C48       1.0  0.38744  0.52512  0.15503  1.0000
  C   C49       1.0  0.36513  0.50407  0.13695  1.0000
  C   C50       1.0  0.34720  0.48430  0.16577  1.0000
  C   C51       1.0  0.35091  0.48583  0.21300  1.0000
  C   C52       1.0  0.37319  0.50692  0.23111  1.0000
  C   C53       1.0  0.39153  0.52629  0.20214  1.0000
  H   H90       1.0  0.36206  0.50271  0.10065  1.0000
  H   H91       1.0  0.33048  0.46767  0.15124  1.0000
  H   H92       1.0  0.37635  0.50831  0.26736  1.0000
  H   H93       1.0  0.40887  0.54242  0.21632  1.0000
  H   H94       1.0  0.45626  0.40325  0.26912  1.0000
  C   C54       1.0  0.28667  0.54958  0.05511  1.0000
  H   H95       1.0  0.42756  0.58644  0.38152  1.0000
  H   H96       1.0  0.28991  0.55474  0.09053  1.0000
  H   H97       1.0  0.39189  0.44309  0.32496  1.0000
  C   C55       1.0  0.15091  0.59036  0.14791  1.0000
  C   C56       1.0  0.13350  0.59638  0.16953  1.0000
  C   C57       1.0  0.13611  0.60278  0.21594  1.0000
  C   C58       1.0  0.15626  0.60328  0.24107  1.0000
  C   C59       1.0  0.17357  0.59708  0.21955  1.0000
  C   C60       1.0  0.17087  0.59054  0.17319  1.0000
  H   H98       1.0  0.11796  0.59622  0.15020  1.0000
  H   H99       1.0  0.12263  0.60745  0.23217  1.0000
  C   C61       1.0  0.19265  0.65325  0.01523  1.0000
  C   C62       1.0  0.04981  0.34675  0.47298  1.0000
  C   C63       1.0  0.18717  0.66138  0.06214  1.0000
  C   C64       1.0  0.35576  0.65165  0.07605  1.0000
  S   S26       1.0  0.42008  0.65265  0.03733  1.0000
  H   H100      1.0  0.45707  0.53845  0.42912  1.0000
  N   N2        1.0  0.46584  0.66088  0.43731  1.0000
  H   H101      1.0  0.15356  0.60400  0.47582  1.0000
  N   N3        1.0  0.15637  0.53832  0.37932  1.0000
  C   C65       1.0  0.17224  0.56767  0.37933  1.0000
  C   C66       1.0  0.13038  0.52927  0.40200  1.0000
  C   C67       1.0  0.17103  0.52839  0.40720  1.0000
  C   C68       1.0  0.15309  0.52732  0.33212  1.0000
  C   C69       1.0  0.19891  0.57993  0.35494  1.0000
  C   C70       1.0  0.15609  0.49897  0.41980  1.0000
  C   C71       1.0  0.21493  0.60913  0.36423  1.0000
  C   C72       1.0  0.17356  0.49127  0.44565  1.0000
  H   H102      1.0  0.17542  0.57494  0.41477  1.0000
  H   H103      1.0  0.11647  0.50878  0.39229  1.0000
  H   H104      1.0  0.13247  0.52910  0.43959  1.0000
  H   H105      1.0  0.17767  0.53934  0.43975  1.0000
  H   H106      1.0  0.18890  0.53180  0.38932  1.0000
  H   H107      1.0  0.17226  0.53187  0.31798  1.0000
  H   H108      1.0  0.14149  0.50575  0.33293  1.0000
  H   H109      1.0  0.21070  0.57130  0.36626  1.0000
  H   H110      1.0  0.19602  0.57721  0.31769  1.0000
  H   H111      1.0  0.14896  0.48657  0.38918  1.0000
  H   H112      1.0  0.13923  0.49426  0.44200  1.0000
  H   H113      1.0  0.23338  0.61764  0.34481  1.0000
  S   S27       1.0  0.17029  0.53594  0.03029  1.0000
  H   H114      1.0  0.42431  0.63491  0.43122  1.0000
  H   H115      1.0  0.18076  0.50268  0.47747  1.0000
  C   C73       1.0  0.26118  0.46969  0.04525  1.0000
  H   H116      1.0  0.43614  0.40120  0.31634  1.0000
  H   H117      1.0  0.16045  0.66099  0.22750  1.0000
  C   C74       1.0  0.26583  0.53215  0.18327  1.0000
  C   C75       1.0  0.32295  0.39268  0.26078  1.0000
  H   H118      1.0  0.29055  0.48254  0.22571  1.0000
  H   H119      1.0  0.48635  0.62818  0.40195  1.0000
  C   C76       1.0  0.25939  0.43036  0.22334  1.0000
  S   S28       1.0  0.40293  0.33375  0.36107  1.0000
  C   C77       1.0  0.26356  0.54498  0.03463  1.0000
  H   H120      1.0  0.39700  0.46879  0.28859  1.0000
  H   H121      1.0  0.40997  0.43892  0.18513  1.0000
  C   C78       1.0  0.41411  0.45249  0.21412  1.0000
  H   H122      1.0  0.35199  0.41368  0.31100  1.0000
  H   H123      1.0  0.48870  0.35794  0.23454  1.0000
  H   H124      1.0  0.39773  0.48322  0.48052  1.0000
  H   H125      1.0  0.09767  0.38411  0.44787  1.0000
  H   H126      1.0  0.16223  0.65354  0.14586  1.0000
  H   H127      1.0  0.01905  0.38811  0.44977  1.0000
  H   H128      1.0  0.39982  0.40987  0.30255  1.0000
  C   C79       1.0  0.30910  0.61807  0.06734  1.0000
  H   H129      1.0  0.35988  0.34183  0.34220  1.0000
  C   C80       1.0  0.25550  0.45069  0.19815  1.0000
  H   H130      1.0  0.01196  0.35580  0.43589  1.0000
  H   H131      1.0  0.11566  0.54984  0.35821  1.0000
  H   H132      1.0  0.42263  0.50438  0.14529  1.0000
  S   S29       1.0  0.10407  0.64748  0.43142  1.0000
  H   H133      1.0  0.31437  0.54036  0.22501  1.0000
  H   H134      1.0  0.30955  0.37839  0.28610  1.0000
  H   H135      1.0  0.23069  0.52364  0.22026  1.0000
  H   H136      1.0  0.45506  0.49940  0.36301  1.0000
  H   H137      1.0  0.29552  0.64295  0.09786  1.0000
  N   N4        1.0  0.28032  0.49818  0.16805  1.0000
  C   C81       1.0  0.02085  0.54721  0.41928  1.0000
  H   H138      1.0  0.31109  0.60130  0.07864  1.0000
  H   H139      1.0  0.44577  0.48118  0.28594  1.0000
  C   C82       1.0  0.40459  0.41580  0.26635  1.0000
  C   C83       1.0  0.35087  0.40459  0.27765  1.0000
  H   H140      1.0  0.39191  0.39801  0.24617  1.0000
  S   S30       1.0  0.10105  0.58982  0.49974  1.0000
  H   H141      1.0  0.22607  0.64994  0.07838  1.0000
  C   C84       1.0  0.25117  0.53953  0.21721  1.0000
  C   C85       1.0  0.30558  0.54753  0.03006  1.0000
  H   H142      1.0  0.19039  0.49457  0.42447  1.0000
  S   S31       1.0  0.12821  0.65597  0.32841  1.0000
  H   H143      1.0  0.24047  0.41216  0.22740  1.0000
  H   H144      1.0  0.34470  0.61980  0.12607  1.0000
  C   C86       1.0  0.42042  0.59870  0.36571  1.0000
  C   C87       1.0  0.42641  0.48870  0.15656  1.0000
  H   H145      1.0  0.04911  0.59558  0.46087  1.0000
  H   H146      1.0  0.44727  0.49776  0.16553  1.0000
  H   H147      1.0  0.36250  0.56582  0.21799  1.0000
  C   C88       1.0  0.26571  0.50699  0.19828  1.0000
  H   H148      1.0  0.32292  0.55039  0.04660  1.0000
  H   H149      1.0  0.01205  0.55699  0.40006  1.0000
  H   H150      1.0  0.32887  0.52019  0.22021  1.0000
  H   H151      1.0  0.35467  0.38829  0.28282  1.0000
  H   H152      1.0  0.34641  0.57265  0.17258  1.0000
  S   S32       1.0  0.49099  0.58104  0.48617  1.0000
  H   H153      1.0  0.25120  0.55730  0.20523  1.0000
  H   H154      1.0  0.16246  0.47033  0.45487  1.0000
  H   H155      1.0  0.45864  0.63126  0.35707  1.0000
  S   S33       1.0  0.16061  0.61140  0.29933  1.0000
  S   S34       1.0  0.15390  0.63907  0.41042  1.0000
  H   H156      1.0  0.43333  0.63905  0.35297  1.0000
  C   C89       1.0  0.44600  0.54665  0.44350  1.0000
  H   H157      1.0  0.05849  0.39184  0.43477  1.0000
  C   C90       1.0  0.37028  0.42493  0.24330  1.0000
  C   C91       1.0  0.23840  0.66386  0.14630  1.0000
  H   H158      1.0  0.43727  0.45606  0.32851  1.0000
  C   C92       1.0  0.44379  0.57882  0.49052  1.0000
  H   H159      1.0  0.20424  0.61914  0.35365  1.0000
  C   C93       1.0  0.24562  0.64301  0.15594  1.0000
  C   C94       1.0  0.34993  0.55753  0.18770  1.0000
  C   C95       1.0  0.32429  0.53364  0.20144  1.0000
  H   H160      1.0  0.26060  0.54355  0.25104  1.0000
  H   H161      1.0  0.21959  0.61273  0.40091  1.0000
  H   H162      1.0  0.38889  0.46681  0.18665  1.0000
  H   H163      1.0  0.13502  0.50769  0.24554  1.0000
  H   H164      1.0  0.42189  0.38038  0.26763  1.0000
  C   C96       1.0  0.40370  0.45468  0.29560  1.0000
  C   C97       1.0  0.09635  0.40134  0.45852  1.0000
  H   H165      1.0  0.44765  0.44013  0.26978  1.0000
  H   H166      1.0  0.02600  0.51674  0.32160  1.0000
  S   S35       1.0  0.37148  0.53130  0.44367  1.0000
  H   H167      1.0  0.14715  0.55718  0.29799  1.0000
  C   C98       1.0  0.43687  0.40015  0.27881  1.0000
  C   C99       1.0  0.21794  0.65513  0.10783  1.0000
  C   C100      1.0  0.27727  0.60604  0.13245  1.0000
  H   H168      1.0  0.17969  0.58308  0.49282  1.0000
  H   H169      1.0  0.13242  0.53493  0.22488  1.0000
  H   H170      1.0  0.42183  0.47845  0.37974  1.0000
  C   C101      1.0  0.06790  0.39419  0.46838  1.0000
  C   C102      1.0  0.13944  0.53596  0.29725  1.0000
  C   C103      1.0  0.11690  0.54566  0.39433  1.0000
  H   H171      1.0  0.12784  0.56464  0.41190  1.0000
  H   H172      1.0  0.36652  0.41515  0.20965  1.0000
  H   H173      1.0  0.20995  0.46439  0.49919  1.0000
  H   H174      1.0  0.06851  0.41155  0.48440  1.0000
  H   H175      1.0  0.28582  0.54892  0.18048  1.0000
  N   N5        1.0  0.39876  0.43731  0.25515  1.0000
  H   H176      1.0  0.08985  0.52713  0.45026  1.0000
  C   C104      1.0  0.43190  0.46983  0.31327  1.0000
  H   H177      1.0  0.04194  0.56175  0.42033  1.0000
  H   H178      1.0  0.16377  0.53947  0.23921  1.0000
  C   C105      1.0  0.41379  0.48169  0.49666  1.0000
  H   H179      1.0  0.20812  0.38116  0.47069  1.0000
  C   C106      1.0  0.40930  0.47458  0.19746  1.0000
  H   H180      1.0  0.29742  0.49258  0.07879  1.0000
  H   H181      1.0  0.01411  0.49450  0.46595  1.0000
  H   H182      1.0  0.41393  0.48930  0.22437  1.0000
  C   C107      1.0  0.14293  0.52898  0.24887  1.0000
  H   H183      1.0  0.11829  0.52578  0.30425  1.0000
  C   C108      1.0  0.01115  0.56478  0.48651  1.0000
  C   C109      1.0  0.43250  0.42103  0.25694  1.0000
  H   H184      1.0  0.43545  0.42063  0.21978  1.0000
  H   H185      1.0  0.24091  0.45431  0.05253  1.0000
  H   H186      1.0  0.00729  0.60083  0.17966  1.0000
  H   H187      1.0  0.27271  0.42581  0.20413  1.0000
  H   H188      1.0  0.31876  0.51247  0.14005  1.0000
  H   H189      1.0  0.30754  0.53481  0.13636  1.0000
  H   H190      1.0  0.05011  0.34940  0.43551  1.0000
  H   H191      1.0  0.36044  0.55226  0.16260  1.0000
  H   H192      1.0  0.26762  0.43751  0.25762  1.0000
  H   H193      1.0  0.24178  0.45409  0.21840  1.0000
  H   H194      1.0  0.26005  0.59814  0.10998  1.0000
  H   H195      1.0  0.12904  0.42724  0.41637  1.0000
  C   C110      1.0  0.14522  0.58631  0.49547  1.0000
  H   H196      1.0  0.42203  0.47504  0.12782  1.0000
  C   C111      1.0  0.20883  0.39949  0.47686  1.0000
  C   C112      1.0  0.27732  0.47792  0.08870  1.0000
  H   H197      1.0  0.27743  0.46060  0.10263  1.0000
  H   H198      1.0  0.42987  0.50357  0.33747  1.0000
  H   H199      1.0  0.27282  0.61322  0.16401  1.0000
  C   C113      1.0  0.26615  0.48941  0.12343  1.0000
  C   C114      1.0  0.02742  0.53324  0.34162  1.0000
  H   H200      1.0  0.24640  0.44213  0.16507  1.0000
  H   H201      1.0  0.04790  0.54928  0.34102  1.0000
  C   C115      1.0  0.10843  0.42191  0.42119  1.0000
  H   H202      1.0  0.24493  0.49162  0.20044  1.0000
  H   H203      1.0  0.44222  0.61909  0.44367  1.0000
  C   C116      1.0  0.30763  0.51989  0.15905  1.0000
  Fe  Fe18      1.0  0.48944  0.33724  0.34609  1.0000
  C   C117      1.0  0.45815  0.56824  0.47230  1.0000
  H   H204      1.0  0.25609  0.52928  0.15004  1.0000
  H   H205      1.0  0.29492  0.47137  0.17295  1.0000
  S   S36       1.0  0.43637  0.59807  0.02064  1.0000
  C   C118      1.0  0.28170  0.47628  0.19146  1.0000
  C   C119      1.0  0.43473  0.48895  0.35060  1.0000
  C   C120      1.0  0.32838  0.65792  0.02156  1.0000
  C   C121      1.0  0.36184  0.63392  0.10628  1.0000
  H   H206      1.0  0.00358  0.62935  0.17667  1.0000
  H   H207      1.0  0.28112  0.59012  0.14164  1.0000
  C   C122      1.0  0.23202  0.44640  0.47556  1.0000
  H   H208      1.0  0.25977  0.64557  0.03492  1.0000
  H   H209      1.0  0.37688  0.66000  0.16437  1.0000
  H   H210      1.0  0.25350  0.63896  0.12486  1.0000
  H   H211      1.0  0.18741  0.65617  0.49155  1.0000
  C   C123      1.0  0.41738  0.56781  0.48024  1.0000
  H   H212      1.0  0.17156  0.64323  0.07811  1.0000
  N   N6        1.0  0.33342  0.63785  0.04345  1.0000
  H   H213      1.0  0.31639  0.63724  0.13437  1.0000
  C   C124      1.0  0.01709  0.50367  0.49968  1.0000
  C   C125      1.0  0.44016  0.62754  0.37243  1.0000
  H   H214      1.0  0.41756  0.59413  0.32893  1.0000
  H   H215      1.0  0.20069  0.63643  0.11820  1.0000
  Fe  Fe19      1.0  0.40832  0.61240  0.01225  1.0000
  C   C126      1.0  0.44275  0.63515  0.42337  1.0000
  C   C127      1.0  0.38337  0.65005  0.14021  1.0000
  N   N7        1.0  0.00979  0.54064  0.46664  1.0000
  H   H216      1.0  0.19969  0.63922  0.01922  1.0000
  C   C128      1.0  0.18679  0.39938  0.49419  1.0000
  H   H217      1.0  0.36848  0.62290  0.08519  1.0000
  H   H218      1.0  0.24944  0.46461  0.46818  1.0000
  H   H219      1.0  0.38836  0.63710  0.15964  1.0000
  H   H220      1.0  0.22839  0.62477  0.16769  1.0000
  C   C129      1.0  0.20967  0.44628  0.49345  1.0000
  H   H221      1.0  0.10781  0.43970  0.43073  1.0000
  H   H222      1.0  0.09803  0.41425  0.38862  1.0000
  N   N8        1.0  0.05216  0.37026  0.49731  1.0000
  H   H223      1.0  0.40637  0.57618  0.49421  1.0000
  C   C130      1.0  0.00269  0.61397  0.19938  1.0000
  H   H224      1.0  0.26065  0.64988  0.18285  1.0000
  H   H225      1.0  0.01508  0.54007  0.32522  1.0000
  H   H226      1.0  0.18594  0.64952  0.17702  1.0000
  H   H227      1.0  0.21056  0.64974  0.42796  1.0000
  H   H228      1.0  0.00098  0.57199  0.46437  1.0000
  C   C131      1.0  0.01088  0.36801  0.46326  1.0000
  H   H229      1.0  0.04656  0.54385  0.48593  1.0000
  H   H230      1.0  0.41055  0.46185  0.49022  1.0000
  H   H231      1.0  0.43249  0.49593  0.48071  1.0000
  C   C132      1.0  0.48881  0.65771  0.44916  1.0000
  C   C133      1.0  0.18687  0.42260  0.50300  1.0000
  H   H232      1.0  0.02632  0.61733  0.49472  1.0000
  H   H233      1.0  0.99957  0.57241  0.30231  1.0000
  C   C134      1.0  0.03880  0.58841  0.49368  1.0000
  C   C135      1.0  0.02576  0.53306  0.49643  1.0000
  H   H234      1.0  0.99813  0.50817  0.38850  1.0000
  C   C136      1.0  0.99653  0.58086  0.33253  1.0000
  H   H235      1.0  0.48939  0.36280  0.15055  1.0000
  H   H236      1.0  0.16949  0.38096  0.50107  1.0000
  H   H237      1.0  0.37391  0.66454  0.05719  1.0000
  H   H238      1.0  0.06715  0.34481  0.48030  1.0000
  H   H239      1.0  0.10839  0.40970  0.48923  1.0000
  H   H240      1.0  0.49306  0.41291  0.44683  1.0000
  C   C137      1.0  0.34060  0.62385  0.00878  1.0000
  C   C138      1.0  0.18081  0.66401  0.16468  1.0000
  C   C139      1.0  0.26954  0.66461  0.01967  1.0000
  S   S37       1.0  0.17506  0.58496  0.97262  1.0000
  S   S38       1.0  0.21837  0.56745  0.95640  1.0000
  C   C140      1.0  0.37958  0.62099  0.80961  1.0000
  Fe  Fe20      1.0  0.17493  0.54794  0.95655  1.0000
  S   S39       1.0  0.14769  0.52552  0.89839  1.0000
  C   C141      1.0  0.10943  0.55279  0.53834  1.0000
  S   S40       1.0  0.32524  0.53857  0.95190  1.0000
  Fe  Fe21      1.0  0.42228  0.57914  0.95250  1.0000
  S   S41       1.0  0.45439  0.58480  0.90336  1.0000
  C   C142      1.0  0.40365  0.64143  0.83464  1.0000
  S   S42       1.0  0.39626  0.59606  0.94228  1.0000
  C   C143      1.0  0.30159  0.54097  0.98411  1.0000
  Fe  Fe22      1.0  0.14359  0.46731  0.65711  1.0000
  S   S43       1.0  0.11721  0.42840  0.62438  1.0000
  S   S44       1.0  0.16500  0.47266  0.72371  1.0000
  Fe  Fe23      1.0  0.14593  0.49665  0.57125  1.0000
  S   S45       1.0  0.12015  0.46035  0.53236  1.0000
  H   H241      1.0  0.21464  0.42552  0.58079  1.0000
  Fe  Fe24      1.0  0.09539  0.44739  0.59578  1.0000
  S   S46       1.0  0.05197  0.43397  0.58536  1.0000
  Fe  Fe25      1.0  0.14406  0.44462  0.56373  1.0000
  H   H242      1.0  0.04044  0.50790  0.55964  1.0000
  S   S47       1.0  0.12038  0.48544  0.63276  1.0000
  S   S48       1.0  0.17117  0.48181  0.59820  1.0000
  H   H243      1.0  0.08620  0.37817  0.53662  1.0000
  S   S49       1.0  0.15762  0.41981  0.52570  1.0000
  C   C144      1.0  0.23408  0.41094  0.62390  1.0000
  C   C145      1.0  0.44393  0.64965  0.51703  1.0000
  H   H244      1.0  0.26815  0.46956  0.65111  1.0000
  C   C146      1.0  0.25015  0.46407  0.67088  1.0000
  C   C147      1.0  0.16802  0.64021  0.98649  1.0000
  H   H245      1.0  0.15021  0.64148  0.53293  1.0000
  C   C148      1.0  0.47866  0.65622  0.95216  1.0000
  H   H246      1.0  0.11540  0.52243  0.56572  1.0000
  H   H247      1.0  0.47111  0.51167  0.69424  1.0000
  H   H248      1.0  0.25195  0.48278  0.68264  1.0000
  H   H249      1.0  0.36021  0.63707  0.99467  1.0000
  H   H250      1.0  0.21455  0.62002  0.59299  1.0000
  S   S50       1.0  0.48810  0.63040  0.57509  1.0000
  H   H251      1.0  0.15174  0.41391  0.70068  1.0000
  C   C149      1.0  0.01977  0.40777  0.59640  1.0000
  C   C150      1.0  0.01487  0.38396  0.61481  1.0000
  H   H252      1.0  0.47464  0.63594  0.94801  1.0000
  H   H253      1.0  0.03089  0.38171  0.62600  1.0000
  C   C151      1.0  0.45562  0.58947  0.84378  1.0000
  C   C152      1.0  0.43359  0.58417  0.81865  1.0000
  C   C153      1.0  0.43549  0.58830  0.77136  1.0000
  C   C154      1.0  0.47944  0.59875  0.82107  1.0000
  H   H254      1.0  0.41511  0.57681  0.83567  1.0000
  H   H255      1.0  0.41836  0.58422  0.75223  1.0000
  C   C155      1.0  0.15364  0.51168  0.84978  1.0000
  C   C156      1.0  0.17349  0.50556  0.84833  1.0000
  C   C157      1.0  0.17690  0.49382  0.80935  1.0000
  C   C158      1.0  0.16058  0.48819  0.77147  1.0000
  C   C159      1.0  0.14097  0.49463  0.77273  1.0000
  C   C160      1.0  0.13743  0.50614  0.81181  1.0000
  H   H256      1.0  0.18579  0.50927  0.87762  1.0000
  H   H257      1.0  0.19201  0.48876  0.80882  1.0000
  H   H258      1.0  0.12820  0.49030  0.74395  1.0000
  H   H259      1.0  0.12186  0.51056  0.81278  1.0000
  H   H260      1.0  0.43968  0.65330  0.90209  1.0000
  C   C161      1.0  0.27837  0.53621  0.96353  1.0000
  C   C162      1.0  0.48138  0.60306  0.77383  1.0000
  H   H261      1.0  0.27505  0.53088  0.92808  1.0000
  H   H262      1.0  0.37907  0.60200  0.80940  1.0000
  H   H263      1.0  0.21617  0.47976  0.64034  1.0000
  H   H264      1.0  0.15818  0.38724  0.69463  1.0000
  C   C163      1.0  0.11992  0.57549  0.51204  1.0000
  Fe  Fe26      1.0  0.36628  0.56009  0.97887  1.0000
  H   H265      1.0  0.34878  0.62181  0.91362  1.0000
  H   H266      1.0  0.40221  0.63432  0.86976  1.0000
  C   C164      1.0  0.14908  0.55113  0.52949  1.0000
  H   H267      1.0  0.02981  0.47816  0.52853  1.0000
  C   C165      1.0  0.32111  0.61099  0.96916  1.0000
  H   H268      1.0  0.00090  0.56014  0.51983  1.0000
  H   H269      1.0  0.23418  0.63774  0.84654  1.0000
  H   H270      1.0  0.45026  0.63328  0.87593  1.0000
  H   H271      1.0  0.20468  0.41900  0.69025  1.0000
  H   H272      1.0  0.13609  0.39011  0.65654  1.0000
  H   H273      1.0  0.20641  0.45987  0.59082  1.0000
  H   H274      1.0  0.31427  0.62372  0.95471  1.0000
  H   H275      1.0  0.28272  0.48549  0.74555  1.0000
  H   H276      1.0  0.29294  0.46562  0.71503  1.0000
  H   H277      1.0  0.23667  0.44978  0.73992  1.0000
  H   H278      1.0  0.16773  0.62815  0.58235  1.0000
  H   H279      1.0  0.11116  0.64536  0.53614  1.0000
  H   H280      1.0  0.21828  0.39817  0.64745  1.0000
  H   H281      1.0  0.05052  0.58330  0.51609  1.0000
  H   H282      1.0  0.30922  0.64854  0.00416  1.0000
  C   C166      1.0  0.19502  0.61667  0.60231  1.0000
  N   N9        1.0  0.22081  0.60127  0.81091  1.0000
  C   C167      1.0  0.19674  0.58986  0.84015  1.0000
  C   C168      1.0  0.24047  0.59550  0.83234  1.0000
  C   C169      1.0  0.23236  0.63051  0.81111  1.0000
  C   C170      1.0  0.21522  0.59163  0.76240  1.0000
  C   C171      1.0  0.19199  0.56370  0.75443  1.0000
  C   C172      1.0  0.17683  0.59854  0.82741  1.0000
  C   C173      1.0  0.23260  0.56653  0.83717  1.0000
  C   C174      1.0  0.25404  0.56355  0.86023  1.0000
  C   C175      1.0  0.19173  0.55459  0.70585  1.0000
  C   C176      1.0  0.14967  0.57975  0.84525  1.0000
  H   H283      1.0  0.20210  0.59533  0.87636  1.0000
  H   H284      1.0  0.18665  0.56832  0.84035  1.0000
  H   H285      1.0  0.25867  0.60428  0.81214  1.0000
  H   H286      1.0  0.24584  0.60454  0.86671  1.0000
  H   H287      1.0  0.37940  0.62723  0.77413  1.0000
  H   H288      1.0  0.23282  0.59274  0.74687  1.0000
  H   H289      1.0  0.17330  0.56317  0.76012  1.0000
  H   H290      1.0  0.19229  0.54918  0.77753  1.0000
  H   H291      1.0  0.17550  0.60017  0.79015  1.0000
  H   H292      1.0  0.25067  0.48179  0.55980  1.0000
  H   H293      1.0  0.21477  0.55586  0.85776  1.0000
  H   H294      1.0  0.22958  0.55733  0.80337  1.0000
  H   H295      1.0  0.25918  0.57336  0.89373  1.0000
  H   H296      1.0  0.24724  0.54257  0.86561  1.0000
  H   H297      1.0  0.27172  0.57194  0.83867  1.0000
  H   H298      1.0  0.20937  0.55323  0.69907  1.0000
  H   H299      1.0  0.17453  0.53494  0.70098  1.0000
  H   H300      1.0  0.19057  0.56809  0.68105  1.0000
  H   H301      1.0  0.13636  0.58721  0.83700  1.0000
  H   H302      1.0  0.14199  0.56033  0.82931  1.0000
  H   H303      1.0  0.14995  0.57766  0.88261  1.0000
  N   N10       1.0  0.42238  0.52191  0.60738  1.0000
  C   C177      1.0  0.44804  0.52508  0.62259  1.0000
  C   C178      1.0  0.41804  0.51345  0.55830  1.0000
  C   C179      1.0  0.42464  0.54844  0.60942  1.0000
  C   C180      1.0  0.39989  0.50327  0.63682  1.0000
  C   C181      1.0  0.40126  0.47990  0.65774  1.0000
  C   C182      1.0  0.45759  0.53761  0.67007  1.0000
  C   C183      1.0  0.40017  0.54990  0.59571  1.0000
  C   C184      1.0  0.25935  0.64669  0.78838  1.0000
  H   H304      1.0  0.42180  0.59158  0.58133  1.0000
  H   H305      1.0  0.36940  0.46945  0.70527  1.0000
  H   H306      1.0  0.26355  0.50097  0.61024  1.0000
  C   C185      1.0  0.40483  0.57751  0.60175  1.0000
  H   H307      1.0  0.46360  0.53744  0.59785  1.0000
  H   H308      1.0  0.44764  0.50622  0.62246  1.0000
  H   H309      1.0  0.40031  0.51271  0.54463  1.0000
  H   H310      1.0  0.43442  0.52805  0.53721  1.0000
  H   H311      1.0  0.44130  0.56269  0.58828  1.0000
  H   H312      1.0  0.42889  0.55607  0.64459  1.0000
  H   H313      1.0  0.39758  0.51372  0.66627  1.0000
  H   H314      1.0  0.38143  0.49549  0.61739  1.0000
  H   H315      1.0  0.41596  0.48664  0.68514  1.0000
  H   H316      1.0  0.40662  0.46956  0.63269  1.0000
  H   H317      1.0  0.46602  0.55898  0.66763  1.0000
  H   H318      1.0  0.44156  0.53034  0.69515  1.0000
  H   H319      1.0  0.38324  0.53670  0.61698  1.0000
  H   H320      1.0  0.39487  0.54456  0.55984  1.0000
  H   H321      1.0  0.19479  0.62123  0.63878  1.0000
  H   H322      1.0  0.49544  0.54035  0.66453  1.0000
  H   H323      1.0  0.17248  0.63489  0.95292  1.0000
  H   H324      1.0  0.18075  0.59573  0.59710  1.0000
  C   C186      1.0  0.05406  0.35205  0.57679  1.0000
  C   C187      1.0  0.24599  0.49062  0.58881  1.0000
  C   C188      1.0  0.03765  0.61106  0.51592  1.0000
  H   H325      1.0  0.12560  0.65095  0.59153  1.0000
  Fe  Fe27      1.0  0.21805  0.60342  0.97802  1.0000
  H   H326      1.0  0.03359  0.34604  0.58438  1.0000
  H   H327      1.0  0.48536  0.33349  0.66484  1.0000
  H   H328      1.0  0.40845  0.58335  0.63799  1.0000
  C   C189      1.0  0.47881  0.53277  0.68852  1.0000
  H   H329      1.0  0.01354  0.35121  0.52727  1.0000
  C   C190      1.0  0.45939  0.59793  0.74879  1.0000
  C   C191      1.0  0.24024  0.51115  0.56953  1.0000
  S   S51       1.0  0.46079  0.60403  0.68968  1.0000
  H   H330      1.0  0.18307  0.61797  0.84241  1.0000
  C   C192      1.0  0.37524  0.46013  0.67865  1.0000
  H   H331      1.0  0.24672  0.43020  0.70934  1.0000
  H   H332      1.0  0.06799  0.37634  0.63737  1.0000
  N   N11       1.0  0.22650  0.44960  0.64087  1.0000
  C   C193      1.0  0.06891  0.35982  0.62164  1.0000
  H   H333      1.0  0.45185  0.63649  0.52154  1.0000
  S   S52       1.0  0.16741  0.53583  0.53763  1.0000
  H   H334      1.0  0.38750  0.57837  0.59030  1.0000
  H   H335      1.0  0.02865  0.60541  0.55009  1.0000
  C   C194      1.0  0.22237  0.46952  0.61595  1.0000
  C   C195      1.0  0.15438  0.40127  0.67598  1.0000
  H   H336      1.0  0.21106  0.60462  0.74103  1.0000
  H   H337      1.0  0.24920  0.40577  0.55946  1.0000
  H   H338      1.0  0.08954  0.36544  0.61623  1.0000
  H   H339      1.0  0.17766  0.40439  0.61831  1.0000
  C   C196      1.0  0.33346  0.60391  0.93037  1.0000
  H   H340      1.0  0.17143  0.43098  0.62559  1.0000
  H   H341      1.0  0.99871  0.45529  0.82110  1.0000
  H   H342      1.0  0.31845  0.59195  0.90492  1.0000
  H   H343      1.0  0.25307  0.41887  0.64129  1.0000
  H   H344      1.0  0.24837  0.44592  0.58543  1.0000
  H   H345      1.0  0.00183  0.42855  0.56852  1.0000
  C   C197      1.0  0.25942  0.53834  0.98868  1.0000
  H   H346      1.0  0.40267  0.65013  0.94413  1.0000
  H   H347      1.0  0.20001  0.44614  0.69419  1.0000
  H   H348      1.0  0.05525  0.33514  0.56377  1.0000
  H   H349      1.0  0.36186  0.61830  0.82709  1.0000
  H   H350      1.0  0.34231  0.59257  0.94325  1.0000
  H   H351      1.0  0.25969  0.63890  0.75435  1.0000
  H   H352      1.0  0.42763  0.62656  0.80808  1.0000
  H   H353      1.0  0.39562  0.47092  0.56157  1.0000
  C   C198      1.0  0.15283  0.66124  0.53525  1.0000
  C   C199      1.0  0.25111  0.45040  0.71523  1.0000
  H   H354      1.0  0.21480  0.38410  0.56799  1.0000
  H   H355      1.0  0.18817  0.62769  0.53707  1.0000
  H   H356      1.0  0.06010  0.34313  0.64560  1.0000
  S   S53       1.0  0.39138  0.54159  0.98414  1.0000
  H   H357      1.0  0.37693  0.44404  0.69448  1.0000
  C   C200      1.0  0.20259  0.43339  0.66939  1.0000
  C   C201      1.0  0.03702  0.49935  0.52510  1.0000
  H   H358      1.0  0.27768  0.45543  0.76983  1.0000
  H   H359      1.0  0.24139  0.53418  0.97278  1.0000
  H   H360      1.0  0.21919  0.63600  0.79370  1.0000
  C   C202      1.0  0.17663  0.41777  0.64338  1.0000
  C   C203      1.0  0.23403  0.39393  0.58495  1.0000
  H   H361      1.0  0.40292  0.65974  0.83510  1.0000
  C   C204      1.0  0.23069  0.43353  0.60587  1.0000
  C   C205      1.0  0.18772  0.63323  0.57270  1.0000
  C   C206      1.0  0.27779  0.46522  0.73761  1.0000
  H   H362      1.0  0.35996  0.45173  0.65215  1.0000
  H   H363      1.0  0.06840  0.39251  0.55866  1.0000
  C   C207      1.0  0.12382  0.54032  0.54637  1.0000
  C   C208      1.0  0.44513  0.66227  0.56279  1.0000
  H   H364      1.0  0.23632  0.52135  0.59733  1.0000
  H   H365      1.0  0.42314  0.63741  0.50784  1.0000
  H   H366      1.0  0.46296  0.65611  0.97277  1.0000
  H   H367      1.0  0.49208  0.35520  0.61743  1.0000
  H   H368      1.0  0.09001  0.54462  0.55188  1.0000
  H   H369      1.0  0.02568  0.53906  0.53225  1.0000
  H   H370      1.0  0.30381  0.59297  0.98134  1.0000
  H   H371      1.0  0.43387  0.64695  0.58838  1.0000
  S   S54       1.0  0.24274  0.64127  0.94142  1.0000
  H   H372      1.0  0.43042  0.48391  0.56171  1.0000
  H   H373      1.0  0.23800  0.37874  0.59826  1.0000
  C   C209      1.0  0.42878  0.64576  0.81102  1.0000
  C   C210      1.0  0.41447  0.48629  0.54774  1.0000
  H   H374      1.0  0.25722  0.52575  0.54979  1.0000
  C   C211      1.0  0.06620  0.37463  0.54199  1.0000
  C   C212      1.0  0.20664  0.66257  0.58004  1.0000
  C   C213      1.0  0.45480  0.65386  0.87930  1.0000
  H   H375      1.0  0.22320  0.50210  0.54657  1.0000
  H   H376      1.0  0.00565  0.43327  0.85209  1.0000
  H   H377      1.0  0.48050  0.65125  0.81441  1.0000
  H   H378      1.0  0.45966  0.64652  0.74249  1.0000
  H   H379      1.0  0.48594  0.54307  0.72139  1.0000
  H   H380      1.0  0.05764  0.62782  0.51968  1.0000
  H   H381      1.0  0.00290  0.43095  0.79123  1.0000
  H   H382      1.0  0.45300  0.59549  0.51242  1.0000
  C   C214      1.0  0.12833  0.65889  0.55657  1.0000
  H   H383      1.0  0.27461  0.64651  0.80982  1.0000
  C   C215      1.0  0.99843  0.41032  0.58283  1.0000
  H   H384      1.0  0.16032  0.65363  0.98095  1.0000
  H   H385      1.0  0.02913  0.38535  0.52621  1.0000
  H   H386      1.0  0.99852  0.49317  0.51877  1.0000
  H   H387      1.0  0.42767  0.65148  0.77568  1.0000
  H   H388      1.0  0.15293  0.62219  0.00337  1.0000
  C   C216      1.0  0.02627  0.36835  0.50601  1.0000
  H   H389      1.0  0.05565  0.50825  0.50626  1.0000
  C   C217      1.0  0.47576  0.83998  0.16739  1.0000
  H   H390      1.0  0.19515  0.69801  0.12268  1.0000
  S   S55       1.0  0.39528  0.75836  0.03426  1.0000
  H   H391      1.0  0.45898  0.90735  0.29906  1.0000
  S   S56       1.0  0.32427  0.73711  0.05687  1.0000
  Fe  Fe28      1.0  0.41791  0.80204  0.03517  1.0000
  S   S57       1.0  0.45069  0.82665  0.08508  1.0000
  H   H392      1.0  0.47529  0.70222  0.03644  1.0000
  H   H393      1.0  0.23372  0.66484  0.50156  1.0000
  H   H394      1.0  0.41334  0.74347  0.16136  1.0000
  H   H395      1.0  0.47720  0.67502  0.36820  1.0000
  S   S58       1.0  0.18039  0.71076  0.40928  1.0000
  C   C218      1.0  0.43131  0.82743  0.47762  1.0000
  H   H396      1.0  0.21149  0.70962  0.02528  1.0000
  H   H397      1.0  0.43919  0.81799  0.45689  1.0000
  C   C219      1.0  0.22471  0.75025  0.44874  1.0000
  H   H398      1.0  0.39199  0.80307  0.45453  1.0000
  H   H399      1.0  0.46147  0.78859  0.02959  1.0000
  H   H400      1.0  0.22393  0.72869  0.07609  1.0000
  C   C220      1.0  0.39443  0.83131  0.50275  1.0000
  C   C221      1.0  0.22604  0.67030  0.43253  1.0000
  H   H401      1.0  0.19392  0.68630  0.22748  1.0000
  H   H402      1.0  0.24841  0.75365  0.00945  1.0000
  C   C222      1.0  0.45319  0.82209  0.14404  1.0000
  C   C223      1.0  0.43749  0.79696  0.21378  1.0000
  C   C224      1.0  0.43388  0.80076  0.16772  1.0000
  H   H403      1.0  0.42258  0.78015  0.23156  1.0000
  H   H404      1.0  0.41632  0.78701  0.15030  1.0000
  H   H405      1.0  0.39253  0.86557  0.42301  1.0000
  H   H406      1.0  0.23445  0.74853  0.41907  1.0000
  C   C225      1.0  0.40366  0.85044  0.17117  1.0000
  H   H407      1.0  0.44579  0.75341  0.07540  1.0000
  H   H408      1.0  0.43084  0.70389  0.05474  1.0000
  H   H409      1.0  0.40726  0.71096  0.17119  1.0000
  C   C226      1.0  0.28724  0.68614  0.04527  1.0000
  N   N12       1.0  0.48582  0.77090  0.09661  1.0000
  H   H410      1.0  0.25650  0.68187  0.13693  1.0000
  H   H411      1.0  0.29086  0.68364  0.08033  1.0000
  H   H412      1.0  0.23094  0.66744  0.17836  1.0000
  H   H413      1.0  0.40539  0.72115  0.11434  1.0000
  N   N13       1.0  0.21012  0.67468  0.09364  1.0000
  H   H414      1.0  0.49078  0.85662  0.14942  1.0000
  H   H415      1.0  0.45407  0.74224  0.17442  1.0000
  H   H416      1.0  0.25987  0.78218  0.47702  1.0000
  C   C227      1.0  0.41592  0.72759  0.14714  1.0000
  C   C228      1.0  0.20331  0.67579  0.50074  1.0000
  H   H417      1.0  0.38378  0.77984  0.36543  1.0000
  H   H418      1.0  0.41220  0.78501  0.39603  1.0000
  C   C229      1.0  0.19774  0.73358  0.45348  1.0000
  H   H419      1.0  0.47336  0.74276  0.04183  1.0000
  H   H420      1.0  0.24100  0.68992  0.04367  1.0000
  C   C230      1.0  0.46020  0.81465  0.23698  1.0000
  H   H421      1.0  0.38224  0.84152  0.17344  1.0000
  S   S59       1.0  0.46371  0.80841  0.29475  1.0000
  H   H422      1.0  0.48018  0.78983  0.18104  1.0000
  C   C231      1.0  0.22803  0.71814  0.04923  1.0000
  C   C232      1.0  0.45736  0.75986  0.10700  1.0000
  H   H423      1.0  0.45379  0.77531  0.12027  1.0000
  H   H424      1.0  0.49154  0.81005  0.09240  1.0000
  C   C233      1.0  0.49514  0.79642  0.07191  1.0000
  H   H425      1.0  0.44583  0.71990  0.12760  1.0000
  H   H426      1.0  0.16475  0.72394  0.49594  1.0000
  C   C234      1.0  0.42440  0.69953  0.02006  1.0000
  C   C235      1.0  0.44473  0.73674  0.14059  1.0000
  H   H427      1.0  0.47637  0.68655  0.49552  1.0000
  H   H428      1.0  0.43676  0.98897  0.47182  1.0000
  H   H429      1.0  0.21965  0.69733  0.15546  1.0000
  Fe  Fe29      1.0  0.49390  0.83185  0.34937  1.0000
  H   H430      1.0  0.17819  0.67370  0.05644  1.0000
  H   H431      1.0  0.40830  0.84220  0.14108  1.0000
  S   S60       1.0  0.48721  0.81105  0.41676  1.0000
  H   H432      1.0  0.38755  0.88694  0.38554  1.0000
  H   H433      1.0  0.43556  0.85310  0.20887  1.0000
  H   H434      1.0  0.41145  0.90307  0.49412  1.0000
  H   H435      1.0  0.36044  0.85632  0.40363  1.0000
  H   H436      1.0  0.15423  0.66864  0.50009  1.0000
  H   H437      1.0  0.41261  0.87177  0.16613  1.0000
  C   C236      1.0  0.45865  0.67040  0.47955  1.0000
  C   C237      1.0  0.23923  0.76941  0.48162  1.0000
  C   C238      1.0  0.47923  0.83638  0.21364  1.0000
  C   C239      1.0  0.20243  0.68492  0.13401  1.0000
  C   C240      1.0  0.46312  0.89455  0.27752  1.0000
  H   H438      1.0  0.41054  0.77999  0.33573  1.0000
  C   C241      1.0  0.40471  0.81906  0.47627  1.0000
  C   C242      1.0  0.23301  0.69712  0.07049  1.0000
  H   H439      1.0  0.24927  0.70761  0.09475  1.0000
  H   H440      1.0  0.26925  0.74735  0.04524  1.0000
  H   H441      1.0  0.49396  0.83582  0.02182  1.0000
  H   H442      1.0  0.45484  0.68270  0.39303  1.0000
  H   H443      1.0  0.35287  0.66511  0.09837  1.0000
  H   H444      1.0  0.17003  0.69055  0.19626  1.0000
  H   H445      1.0  0.22119  0.68305  0.41199  1.0000
  Fe  Fe30      1.0  0.14399  0.67049  0.39914  1.0000
  N   N14       1.0  0.42018  0.85305  0.30035  1.0000
  C   C243      1.0  0.40991  0.82460  0.31023  1.0000
  C   C244      1.0  0.40797  0.85527  0.25700  1.0000
  C   C245      1.0  0.44933  0.86630  0.29617  1.0000
  C   C246      1.0  0.41372  0.86605  0.33808  1.0000
  C   C247      1.0  0.38476  0.85266  0.35258  1.0000
  C   C248      1.0  0.41774  0.81835  0.35665  1.0000
  C   C249      1.0  0.30097  0.71079  0.02513  1.0000
  C   C250      1.0  0.41438  0.84455  0.21382  1.0000
  H   H446      1.0  0.45685  0.89520  0.24236  1.0000
  C   C251      1.0  0.38123  0.86633  0.39362  1.0000
  C   C252      1.0  0.40523  0.78898  0.36372  1.0000
  C   C253      1.0  0.18549  0.73629  0.49195  1.0000
  H   H447      1.0  0.41690  0.81598  0.28424  1.0000
  H   H448      1.0  0.38838  0.81340  0.30740  1.0000
  H   H449      1.0  0.38646  0.84442  0.26009  1.0000
  H   H450      1.0  0.41316  0.87582  0.25071  1.0000
  H   H451      1.0  0.45517  0.85474  0.27469  1.0000
  H   H452      1.0  0.45810  0.86707  0.32979  1.0000
  H   H453      1.0  0.42551  0.86820  0.36885  1.0000
  H   H454      1.0  0.41929  0.88630  0.32829  1.0000
  H   H455      1.0  0.37711  0.83205  0.36238  1.0000
  H   H456      1.0  0.37264  0.85331  0.32461  1.0000
  H   H457      1.0  0.43906  0.82691  0.35903  1.0000
  H   H458      1.0  0.41147  0.82617  0.38482  1.0000
  Fe  Fe31      1.0  0.36101  0.76318  0.01774  1.0000
  H   H459      1.0  0.47616  0.99089  0.48626  1.0000
  C   C254      1.0  0.25188  0.73817  0.02292  1.0000
  H   H460      1.0  0.40549  0.82310  0.21609  1.0000
  H   H461      1.0  0.48193  0.72920  0.36628  1.0000
  C   C255      1.0  0.17611  0.67635  0.20641  1.0000
  H   H462      1.0  0.40111  0.66484  0.12236  1.0000
  C   C256      1.0  0.49253  0.90602  0.27634  1.0000
  C   C257      1.0  0.47229  0.68099  0.40059  1.0000
  H   H463      1.0  0.41813  0.94697  0.48289  1.0000
  C   C258      1.0  0.49507  0.70867  0.41083  1.0000
  H   H464      1.0  0.44619  0.67890  0.47085  1.0000
  S   S61       1.0  0.38317  0.80688  0.02322  1.0000
  H   H465      1.0  0.24510  0.69820  0.48514  1.0000
  H   H466      1.0  0.24460  0.67251  0.41979  1.0000
  S   S62       1.0  0.36138  0.82133  0.49739  1.0000
  H   H467      1.0  0.48129  0.72097  0.11420  1.0000
  H   H468      1.0  0.32675  0.67051  0.04782  1.0000
  C   C259      1.0  0.48226  0.79462  0.02513  1.0000
  C   C260      1.0  0.22875  0.67791  0.48259  1.0000
  H   H469      1.0  0.19967  0.68948  0.48043  1.0000
  H   H470      1.0  0.44859  0.94796  0.49282  1.0000
  C   C261      1.0  0.49003  0.75301  0.06541  1.0000
  C   C262      1.0  0.49544  0.73239  0.08748  1.0000
  H   H471      1.0  0.49113  0.71692  0.44151  1.0000
  C   C263      1.0  0.49482  0.71324  0.05211  1.0000
  H   H472      1.0  0.42792  0.73697  0.00713  1.0000
  C   C264      1.0  0.38373  0.79945  0.66516  1.0000
  Fe  Fe32      1.0  0.39070  0.80617  0.94807  1.0000
  S   S63       1.0  0.39197  0.83579  0.89684  1.0000
  Fe  Fe33      1.0  0.40181  0.76163  0.95887  1.0000
  S   S64       1.0  0.41087  0.73544  0.91631  1.0000
  S   S65       1.0  0.36561  0.76285  0.94211  1.0000
  S   S66       1.0  0.42742  0.80495  0.96038  1.0000
  Fe  Fe34      1.0  0.32833  0.83229  0.64856  1.0000
  S   S67       1.0  0.30279  0.84964  0.63421  1.0000
  S   S68       1.0  0.32843  0.80968  0.71124  1.0000
  Fe  Fe35      1.0  0.34291  0.83497  0.54897  1.0000
  H   H473      1.0  0.40285  0.86102  0.55232  1.0000
  C   C265      1.0  0.38881  0.98521  0.65417  1.0000
  Fe  Fe36      1.0  0.33576  0.87818  0.58898  1.0000
  S   S69       1.0  0.35054  0.92134  0.57142  1.0000
  Fe  Fe37      1.0  0.28787  0.82267  0.57356  1.0000
  H   H474      1.0  0.33585  0.97689  0.63609  1.0000
  S   S70       1.0  0.36207  0.86223  0.60722  1.0000
  S   S71       1.0  0.31132  0.80395  0.59088  1.0000
  C   C266      1.0  0.36814  0.95373  0.59316  1.0000
  C   C267      1.0  0.37318  0.97459  0.56407  1.0000
  C   C268      1.0  0.37641  0.95927  0.63827  1.0000
  H   H475      1.0  0.27654  0.92745  0.55987  1.0000
  H   H476      1.0  0.37274  0.94356  0.66122  1.0000
  C   C269      1.0  0.30488  0.92895  0.66297  1.0000
  C   C270      1.0  0.42256  0.71811  0.99349  1.0000
  H   H477      1.0  0.36820  0.68811  0.00477  1.0000
  C   C271      1.0  0.29652  0.71397  0.97965  1.0000
  H   H478      1.0  0.32246  0.68462  0.95068  1.0000
  H   H479      1.0  0.31002  0.88414  0.73355  1.0000
  N   N15       1.0  0.28582  0.93106  0.63159  1.0000
  H   H480      1.0  0.35545  0.75681  0.60705  1.0000
  H   H481      1.0  0.24940  0.75425  0.64737  1.0000
  C   C272      1.0  0.40868  0.66922  0.95751  1.0000
  C   C273      1.0  0.37427  0.82828  0.84522  1.0000
  C   C274      1.0  0.35725  0.80262  0.83214  1.0000
  C   C275      1.0  0.34347  0.79743  0.79105  1.0000
  C   C276      1.0  0.34652  0.81776  0.76244  1.0000
  C   C277      1.0  0.36370  0.84347  0.77522  1.0000
  C   C278      1.0  0.37751  0.84866  0.81640  1.0000
  H   H482      1.0  0.35457  0.78676  0.85389  1.0000
  H   H483      1.0  0.33020  0.77749  0.78153  1.0000
  H   H484      1.0  0.36610  0.85931  0.75377  1.0000
  H   H485      1.0  0.39060  0.86858  0.82629  1.0000
  H   H486      1.0  0.46835  0.98768  0.62979  1.0000
  C   C279      1.0  0.40677  0.68788  0.93088  1.0000
  C   C280      1.0  0.41378  0.71235  0.94894  1.0000
  C   C281      1.0  0.47677  0.66744  0.80589  1.0000
  H   H487      1.0  0.39920  0.68322  0.89679  1.0000
  H   H488      1.0  0.44459  0.95681  0.57625  1.0000
  H   H489      1.0  0.27180  0.86487  0.52602  1.0000
  C   C282      1.0  0.27837  0.69254  0.95437  1.0000
  H   H490      1.0  0.30702  0.73299  0.96399  1.0000
  H   H491      1.0  0.27497  0.69514  0.91921  1.0000
  C   C283      1.0  0.28739  0.92218  0.58433  1.0000
  C   C284      1.0  0.40500  0.79453  0.75005  1.0000
  H   H492      1.0  0.40843  0.77687  0.81242  1.0000
  H   H493      1.0  0.28161  0.90241  0.71775  1.0000
  H   H494      1.0  0.40170  0.82846  0.75093  1.0000
  H   H495      1.0  0.26682  0.68376  0.81672  1.0000
  H   H496      1.0  0.42000  0.89754  0.64506  1.0000
  H   H497      1.0  0.44828  0.73789  0.78218  1.0000
  C   C285      1.0  0.31758  0.90235  0.71342  1.0000
  H   H498      1.0  0.39992  0.88979  0.69533  1.0000
  C   C286      1.0  0.41530  0.91598  0.52386  1.0000
  H   H499      1.0  0.20963  0.72626  0.60690  1.0000
  C   C287      1.0  0.21036  0.89946  0.64379  1.0000
  C   C288      1.0  0.22486  0.70830  0.55979  1.0000
  H   H500      1.0  0.20737  0.67024  0.99575  1.0000
  H   H501      1.0  0.24380  0.70888  0.55700  1.0000
  C   C289      1.0  0.43144  0.82814  0.65216  1.0000
  H   H502      1.0  0.26603  0.73917  0.62132  1.0000
  C   C290      1.0  0.17748  0.68036  0.56240  1.0000
  C   C291      1.0  0.45862  0.81145  0.61478  1.0000
  H   H503      1.0  0.43600  0.69159  0.77790  1.0000
  H   H504      1.0  0.19525  0.90056  0.62338  1.0000
  C   C292      1.0  0.25868  0.91620  0.65083  1.0000
  H   H505      1.0  0.34585  0.77374  0.56767  1.0000
  H   H506      1.0  0.43411  0.91296  0.69837  1.0000
  H   H507      1.0  0.28083  0.96230  0.60415  1.0000
  H   H508      1.0  0.47648  0.83033  0.62156  1.0000
  H   H509      1.0  0.29793  0.89724  0.51406  1.0000
  H   H510      1.0  0.38348  0.78264  0.75200  1.0000
  C   C293      1.0  0.34936  0.67642  0.98738  1.0000
  H   H511      1.0  0.43106  0.72049  0.83233  1.0000
  C   C294      1.0  0.41934  0.89453  0.68235  1.0000
  H   H512      1.0  0.46553  0.67363  0.57474  1.0000
  C   C295      1.0  0.25073  0.74445  0.61624  1.0000
  H   H513      1.0  0.39139  0.80149  0.59145  1.0000
  H   H514      1.0  0.45139  0.81212  0.58032  1.0000
  C   C296      1.0  0.47422  0.66647  0.75339  1.0000
  H   H515      1.0  0.28454  0.88588  0.66928  1.0000
  H   H516      1.0  0.34298  0.70921  0.99169  1.0000
  C   C297      1.0  0.34211  0.69525  0.96590  1.0000
  H   H517      1.0  0.17926  0.69970  0.55627  1.0000
  C   C298      1.0  0.37573  0.79900  0.61492  1.0000
  H   H518      1.0  0.12948  0.67816  0.55738  1.0000
  H   H519      1.0  0.40361  0.85021  0.63625  1.0000
  H   H520      1.0  0.43706  0.80712  0.79789  1.0000
  H   H521      1.0  0.46371  0.79581  0.61529  1.0000
  H   H522      1.0  0.40883  0.80710  0.82067  1.0000
  H   H523      1.0  0.28630  0.68648  0.76798  1.0000
  C   C299      1.0  0.41296  0.82179  0.73023  1.0000
  H   H524      1.0  0.25244  0.89534  0.65563  1.0000
  H   H525      1.0  0.42937  0.83322  0.61668  1.0000
  S   S72       1.0  0.24391  0.79772  0.56050  1.0000
  C   C300      1.0  0.41552  0.79663  0.79812  1.0000
  H   H526      1.0  0.33515  0.76981  0.62584  1.0000
  H   H527      1.0  0.36719  0.79676  0.68675  1.0000
  C   C301      1.0  0.22688  0.77263  0.51945  1.0000
  N   N16       1.0  0.20267  0.68115  0.55061  1.0000
  C   C302      1.0  0.43780  0.80588  0.65049  1.0000
  H   H528      1.0  0.31230  0.94461  0.68911  1.0000
  H   H529      1.0  0.44560  0.80423  0.68372  1.0000
  H   H530      1.0  0.38488  0.78159  0.67064  1.0000
  H   H531      1.0  0.43371  0.83530  0.73870  1.0000
  H   H532      1.0  0.38506  0.84213  0.68705  1.0000
  H   H533      1.0  0.42536  0.87151  0.73150  1.0000
  H   H534      1.0  0.41198  0.78382  0.72916  1.0000
  H   H535      1.0  0.42065  0.78698  0.64159  1.0000
  C   C303      1.0  0.26662  0.67519  0.78309  1.0000
  H   H536      1.0  0.39449  0.98916  0.68943  1.0000
  H   H537      1.0  0.23646  0.90994  0.58754  1.0000
  C   C304      1.0  0.43561  0.96294  0.54961  1.0000
  C   C305      1.0  0.45299  0.70478  0.79877  1.0000
  N   N17       1.0  0.40825  0.82347  0.68016  1.0000
  C   C306      1.0  0.40423  0.84647  0.67306  1.0000
  C   C307      1.0  0.42503  0.87275  0.69396  1.0000
  H   H538      1.0  0.44467  0.87866  0.68086  1.0000
  H   H539      1.0  0.37098  0.81454  0.60817  1.0000
  C   C308      1.0  0.35155  0.77317  0.60336  1.0000
  H   H540      1.0  0.44932  0.84542  0.66481  1.0000
  H   H541      1.0  0.22039  0.70646  0.63491  1.0000
  H   H542      1.0  0.22543  0.72211  0.53350  1.0000
  C   C309      1.0  0.44937  0.72757  0.81282  1.0000
  H   H543      1.0  0.25265  0.67698  0.76051  1.0000
  H   H544      1.0  0.30776  0.93272  0.57185  1.0000
  H   H545      1.0  0.36672  0.97062  0.52920  1.0000
  H   H546      1.0  0.43479  0.97817  0.63602  1.0000
  H   H547      1.0  0.28996  0.96603  0.66242  1.0000
  H   H548      1.0  0.32494  0.97519  0.57862  1.0000
  H   H549      1.0  0.44987  0.87530  0.55624  1.0000
  H   H550      1.0  0.25837  0.92359  0.68545  1.0000
  H   H551      1.0  0.48349  0.78049  0.00219  1.0000
  C   C310      1.0  0.43725  0.85960  0.53388  1.0000
  C   C311      1.0  0.29325  0.95941  0.62893  1.0000
  H   H552      1.0  0.44196  0.68937  0.86704  1.0000
  H   H553      1.0  0.33123  0.90249  0.68752  1.0000
  H   H554      1.0  0.35609  0.70642  0.93855  1.0000
  H   H555      1.0  0.32227  0.93221  0.64362  1.0000
  H   H556      1.0  0.19007  0.75812  0.55334  1.0000
  C   C312      1.0  0.29505  0.90342  0.69059  1.0000
  H   H557      1.0  0.25846  0.88030  0.59207  1.0000
  H   H558      1.0  0.32826  0.91919  0.73653  1.0000
  C   C313      1.0  0.45617  0.69102  0.84086  1.0000
  H   H559      1.0  0.20583  0.87887  0.64441  1.0000
  C   C314      1.0  0.41068  0.85148  0.53190  1.0000
  H   H560      1.0  0.46797  0.67989  0.74020  1.0000
  C   C315      1.0  0.22457  0.72025  0.60657  1.0000
  C   C316      1.0  0.32166  0.97869  0.61432  1.0000
  H   H561      1.0  0.29203  0.88845  0.59626  1.0000
  H   H562      1.0  0.25646  0.75840  0.58760  1.0000
  H   H563      1.0  0.17324  0.67652  0.59930  1.0000
  H   H564      1.0  0.20965  0.90582  0.67893  1.0000
  H   H565      1.0  0.41641  0.95846  0.56372  1.0000
  H   H566      1.0  0.22673  0.66605  0.57613  1.0000
  C   C317      1.0  0.23704  0.91693  0.62262  1.0000
  H   H567      1.0  0.23995  0.93690  0.62122  1.0000
  S   S73       1.0  0.31861  0.85227  0.52753  1.0000
  C   C318      1.0  0.27831  0.89295  0.57871  1.0000
  C   C319      1.0  0.49538  0.82097  0.00101  1.0000
  C   C320      1.0  0.27815  0.88590  0.52884  1.0000
  C   C321      1.0  0.19993  0.75580  0.52443  1.0000
  H   H568      1.0  0.48596  0.68918  0.91223  1.0000
  H   H569      1.0  0.47542  0.70505  0.85524  1.0000
  H   H570      1.0  0.48504  0.97053  0.55678  1.0000
  H   H571      1.0  0.25590  0.72878  0.99388  1.0000
  C   C322      1.0  0.41767  0.67517  0.00210  1.0000
  N   N18       1.0  0.45176  0.99177  0.54002  1.0000
  H   H572      1.0  0.42671  0.91188  0.54898  1.0000
  H   H573      1.0  0.46588  0.74164  0.83400  1.0000
  H   H574      1.0  0.43687  0.67537  0.56011  1.0000
  H   H575      1.0  0.47081  0.71290  0.77769  1.0000
  C   C323      1.0  0.45445  0.99489  0.62894  1.0000
  C   C324      1.0  0.48073  0.66873  0.90588  1.0000
  S   S74       1.0  0.48085  0.85813  0.50925  1.0000
  C   C325      1.0  0.26492  0.66781  0.97426  1.0000
  H   H576      1.0  0.39635  0.91129  0.53912  1.0000
  H   H577      1.0  0.48560  0.81927  0.96809  1.0000
  H   H578      1.0  0.41696  0.99050  0.51532  1.0000
  H   H579      1.0  0.35194  0.66559  0.95919  1.0000
  H   H580      1.0  0.20496  0.66622  0.61646  1.0000
  C   C326      1.0  0.49511  0.99168  0.54952  1.0000
  C   C327      1.0  0.43023  0.94446  0.50878  1.0000
  H   H581      1.0  0.49486  0.68569  0.81509  1.0000
  N   N19       1.0  0.45407  0.66488  0.83333  1.0000
  H   H582      1.0  0.26449  0.88969  0.50910  1.0000
  C   C328      1.0  0.44762  0.84775  0.50636  1.0000
  C   C329      1.0  0.53123  0.13076  0.35447  1.0000
  H   H583      1.0  0.50749  0.29085  0.32666  1.0000
  C   C330      1.0  0.68390  0.30719  0.08416  1.0000
  H   H584      1.0  0.72149  0.29942  0.12633  1.0000
  S   S75       1.0  0.55995  0.15554  0.01512  1.0000
  H   H585      1.0  0.52111  0.27377  0.40201  1.0000
  S   S76       1.0  0.59993  0.13457  0.08840  1.0000
  Fe  Fe38      1.0  0.63468  0.13109  0.43829  1.0000
  S   S77       1.0  0.65364  0.10956  0.46621  1.0000
  Fe  Fe39      1.0  0.59937  0.16163  0.03331  1.0000
  Fe  Fe40      1.0  0.65402  0.13243  0.34203  1.0000
  S   S78       1.0  0.67471  0.11070  0.36309  1.0000
  S   S79       1.0  0.65858  0.15683  0.27882  1.0000
  Fe  Fe41      1.0  0.63807  0.08434  0.40341  1.0000
  S   S80       1.0  0.61234  0.03992  0.41660  1.0000
  Fe  Fe42      1.0  0.68843  0.13737  0.42471  1.0000
  S   S81       1.0  0.73049  0.15919  0.45179  1.0000
  S   S82       1.0  0.61705  0.10502  0.37828  1.0000
  S   S83       1.0  0.67007  0.15999  0.40096  1.0000
  H   H586      1.0  0.52959  0.11215  0.36597  1.0000
  C   C331      1.0  0.77443  0.19920  0.49241  1.0000
  C   C332      1.0  0.64205  0.30563  0.08800  1.0000
  H   H587      1.0  0.70306  0.31609  0.06681  1.0000
  H   H588      1.0  0.57654  0.10095  0.44007  1.0000
  C   C333      1.0  0.60256  0.00708  0.40007  1.0000
  C   C334      1.0  0.73961  0.20825  0.48055  1.0000
  H   H589      1.0  0.55075  0.29653  0.00641  1.0000
  H   H590      1.0  0.55745  0.07474  0.33847  1.0000
  H   H591      1.0  0.64130  0.30515  0.12569  1.0000
  C   C335      1.0  0.62312  0.31481  0.07157  1.0000
  C   C336      1.0  0.74908  0.19093  0.47677  1.0000
  H   H592      1.0  0.70533  0.28857  0.18028  1.0000
  H   H593      1.0  0.69055  0.26953  0.13019  1.0000
  H   H594      1.0  0.72020  0.20235  0.46896  1.0000
  C   C337      1.0  0.61645  0.14126  0.14125  1.0000
  C   C338      1.0  0.63484  0.16651  0.15443  1.0000
  C   C339      1.0  0.64748  0.17081  0.19666  1.0000
  C   C340      1.0  0.64174  0.15003  0.22638  1.0000
  C   C341      1.0  0.62329  0.12480  0.21338  1.0000
  C   C342      1.0  0.61080  0.12047  0.17098  1.0000
  H   H595      1.0  0.63943  0.18265  0.13190  1.0000
  H   H596      1.0  0.66182  0.19039  0.20629  1.0000
  H   H597      1.0  0.61883  0.10859  0.23566  1.0000
  H   H598      1.0  0.59665  0.10086  0.16105  1.0000
  C   C343      1.0  0.58350  0.16073  0.22922  1.0000
  H   H599      1.0  0.67313  0.28692  0.07097  1.0000
  H   H600      1.0  0.69203  0.15351  0.15866  1.0000
  H   H601      1.0  0.55941  0.16964  0.18514  1.0000
  H   H602      1.0  0.54239  0.25698  0.04950  1.0000
  H   H603      1.0  0.71102  0.26756  0.05804  1.0000
  C   C344      1.0  0.56731  0.10988  0.45844  1.0000
  C   C345      1.0  0.56015  0.15234  0.35421  1.0000
  C   C346      1.0  0.51322  0.29480  0.08061  1.0000
  C   C347      1.0  0.54047  0.28536  0.41818  1.0000
  C   C348      1.0  0.56594  0.15530  0.27141  1.0000
  C   C349      1.0  0.54014  0.09778  0.45971  1.0000
  H   H604      1.0  0.54584  0.06268  0.28222  1.0000
  H   H605      1.0  0.58013  0.08305  0.29186  1.0000
  C   C350      1.0  0.68816  0.30494  0.13553  1.0000
  H   H606      1.0  0.56191  0.17170  0.27394  1.0000
  H   H607      1.0  0.50473  0.29820  0.17227  1.0000
  N   N20       1.0  0.74111  0.18122  0.29525  1.0000
  C   C351      1.0  0.72635  0.19395  0.31300  1.0000
  C   C352      1.0  0.72427  0.16048  0.26144  1.0000
  C   C353      1.0  0.74562  0.16774  0.33488  1.0000
  C   C354      1.0  0.76704  0.20043  0.27472  1.0000
  C   C355      1.0  0.76905  0.22484  0.25114  1.0000
  C   C356      1.0  0.73877  0.21229  0.35422  1.0000
  C   C357      1.0  0.75795  0.15072  0.32367  1.0000
  C   C358      1.0  0.71692  0.16968  0.21760  1.0000
  C   C359      1.0  0.69782  0.14648  0.18897  1.0000
  C   C360      1.0  0.79441  0.23974  0.22460  1.0000
  C   C361      1.0  0.72714  0.22986  0.36150  1.0000
  C   C362      1.0  0.76606  0.14239  0.36690  1.0000
  H   H608      1.0  0.70665  0.17878  0.32408  1.0000
  H   H609      1.0  0.72278  0.20479  0.28601  1.0000
  H   H610      1.0  0.73401  0.14979  0.24932  1.0000
  H   H611      1.0  0.70591  0.14573  0.27822  1.0000
  H   H612      1.0  0.72704  0.15510  0.35299  1.0000
  H   H613      1.0  0.75855  0.18226  0.36040  1.0000
  H   H614      1.0  0.78251  0.20812  0.30112  1.0000
  H   H615      1.0  0.77311  0.19036  0.24986  1.0000
  H   H616      1.0  0.76872  0.23836  0.27673  1.0000
  H   H617      1.0  0.75288  0.21994  0.22741  1.0000
  H   H618      1.0  0.73493  0.20043  0.38540  1.0000
  H   H619      1.0  0.76010  0.22463  0.35053  1.0000
  H   H620      1.0  0.77536  0.16140  0.30187  1.0000
  H   H621      1.0  0.74372  0.13260  0.30614  1.0000
  H   H622      1.0  0.70767  0.18149  0.22499  1.0000
  H   H623      1.0  0.73442  0.18115  0.19635  1.0000
  H   H624      1.0  0.52849  0.07967  0.44184  1.0000
  H   H625      1.0  0.68001  0.13362  0.20869  1.0000
  H   H626      1.0  0.55310  0.30146  0.39478  1.0000
  H   H627      1.0  0.79566  0.25742  0.20915  1.0000
  H   H628      1.0  0.81133  0.24586  0.24744  1.0000
  H   H629      1.0  0.79523  0.22746  0.19695  1.0000
  H   H630      1.0  0.73568  0.24180  0.39244  1.0000
  H   H631      1.0  0.73140  0.24309  0.33206  1.0000
  H   H632      1.0  0.70581  0.21797  0.36629  1.0000
  H   H633      1.0  0.77483  0.13026  0.35805  1.0000
  H   H634      1.0  0.78055  0.15964  0.38619  1.0000
  H   H635      1.0  0.74890  0.13071  0.38893  1.0000
  C   C363      1.0  0.55544  0.26340  0.02076  1.0000
  H   H636      1.0  0.55340  0.13657  0.18060  1.0000
  C   C364      1.0  0.67129  0.32587  0.02164  1.0000
  H   H637      1.0  0.49870  0.26673  0.15661  1.0000
  S   S84       1.0  0.56147  0.22153  0.03903  1.0000
  H   H638      1.0  0.60173  0.30756  0.13509  1.0000
  C   C365      1.0  0.58236  0.13332  0.48139  1.0000
  H   H639      1.0  0.63098  0.01683  0.34743  1.0000
  H   H640      1.0  0.50191  0.26064  0.30210  1.0000
  H   H641      1.0  0.58205  0.16308  0.15584  1.0000
  H   H642      1.0  0.52992  0.30936  0.45562  1.0000
  H   H643      1.0  0.66936  0.29462  0.15376  1.0000
  H   H644      1.0  0.50363  0.25948  0.47830  1.0000
  H   H645      1.0  0.52983  0.31152  0.09749  1.0000
  C   C366      1.0  0.70225  0.28967  0.14340  1.0000
  C   C367      1.0  0.51556  0.13745  0.38740  1.0000
  H   H646      1.0  0.52185  0.12776  0.32095  1.0000
  C   C368      1.0  0.70870  0.27111  0.02288  1.0000
  N   N21       1.0  0.57679  0.15205  0.31571  1.0000
  C   C369      1.0  0.60358  0.17548  0.32143  1.0000
  C   C370      1.0  0.57906  0.12778  0.31731  1.0000
  C   C371      1.0  0.55823  0.10356  0.29138  1.0000
  C   C372      1.0  0.61709  0.17783  0.36763  1.0000
  C   C373      1.0  0.56063  0.07960  0.30175  1.0000
  C   C374      1.0  0.64511  0.20028  0.36694  1.0000
  H   H647      1.0  0.56768  0.15013  0.38748  1.0000
  H   H648      1.0  0.61702  0.17546  0.29508  1.0000
  H   H649      1.0  0.59809  0.13169  0.30322  1.0000
  H   H650      1.0  0.57908  0.12194  0.35322  1.0000
  H   H651      1.0  0.56071  0.10688  0.25421  1.0000
  H   H652      1.0  0.53830  0.09885  0.30019  1.0000
  H   H653      1.0  0.59158  0.14751  0.22848  1.0000
  H   H654      1.0  0.61728  0.15967  0.37582  1.0000
  H   H655      1.0  0.60714  0.18200  0.39549  1.0000
  S   S85       1.0  0.75084  0.31929  0.03620  1.0000
  S   S86       1.0  0.61631  0.14898  0.48115  1.0000
  H   H656      1.0  0.51709  0.27835  0.07851  1.0000
  H   H657      1.0  0.65406  0.20193  0.40073  1.0000
  H   H658      1.0  0.65662  0.19673  0.34118  1.0000
  H   H659      1.0  0.64582  0.21894  0.35925  1.0000
  C   C375      1.0  0.56766  0.24938  0.00808  1.0000
  H   H660      1.0  0.61821  0.30980  0.03527  1.0000
  S   S87       1.0  0.61823  0.20539  0.03385  1.0000
  H   H661      1.0  0.58880  0.28012  0.09686  1.0000
  H   H662      1.0  0.51167  0.30086  0.04561  1.0000
  C   C376      1.0  0.56856  0.15727  0.18518  1.0000
  H   H663      1.0  0.70682  0.13497  0.17745  1.0000
  H   H664      1.0  0.59995  0.18107  0.22985  1.0000
  C   C377      1.0  0.75533  0.23339  0.49908  1.0000
  H   H665      1.0  0.55771  0.30864  0.47751  1.0000
  H   H666      1.0  0.54693  0.13801  0.26361  1.0000
  H   H667      1.0  0.74773  0.24654  0.50141  1.0000
  C   C378      1.0  0.53792  0.29660  0.46326  1.0000
  H   H668      1.0  0.60297  0.19378  0.31622  1.0000
  H   H669      1.0  0.63361  0.28486  0.07778  1.0000
  H   H670      1.0  0.56111  0.17160  0.35529  1.0000
  C   C379      1.0  0.52804  0.10883  0.48471  1.0000
  H   H671      1.0  0.58415  0.30742  0.08536  1.0000
  H   H672      1.0  0.50999  0.29398  0.24357  1.0000
  H   H673      1.0  0.67482  0.23334  0.01335  1.0000
  N   N22       1.0  0.66981  0.32163  0.07222  1.0000
  H   H674      1.0  0.54915  0.27277  0.42344  1.0000
  C   C380      1.0  0.59792  0.30162  0.09895  1.0000
  C   C381      1.0  0.52078  0.27469  0.49700  1.0000
  H   H675      1.0  0.78208  0.18610  0.48985  1.0000
  Fe  Fe43      1.0  0.57962  0.19904  0.01021  1.0000
  H   H676      1.0  0.51405  0.15425  0.37454  1.0000
  H   H677      1.0  0.70011  0.32435  0.15117  1.0000
  H   H678      1.0  0.52477  0.14237  0.42138  1.0000
  C   C382      1.0  0.61491  0.00117  0.36542  1.0000
  S   S88       1.0  0.49718  0.32245  0.41086  1.0000
  C   C383      1.0  0.57023  0.14461  0.50548  1.0000
  H   H679      1.0  0.50265  0.30913  0.50384  1.0000
  H   H680      1.0  0.81907  0.26510  0.81780  1.0000
  Fe  Fe44      1.0  0.62513  0.20268  0.95945  1.0000
  S   S89       1.0  0.65991  0.23199  0.91949  1.0000
  Fe  Fe45      1.0  0.57113  0.15665  0.94171  1.0000
  S   S90       1.0  0.54108  0.12828  0.89132  1.0000
  S   S91       1.0  0.58783  0.19961  0.93605  1.0000
  S   S92       1.0  0.60921  0.15934  0.95980  1.0000
  S   S93       1.0  0.86053  0.29740  0.63021  1.0000
  Fe  Fe46      1.0  0.83712  0.30328  0.57565  1.0000
  H   H681      1.0  0.56775  0.16371  0.60464  1.0000
  C   C384      1.0  0.63695  0.12283  0.57959  1.0000
  C   C385      1.0  0.51464  0.25011  0.91242  1.0000
  H   H682      1.0  0.55788  0.12331  0.59572  1.0000
  Fe  Fe47      1.0  0.85422  0.32535  0.67259  1.0000
  C   C386      1.0  0.55947  0.11364  0.62679  1.0000
  H   H683      1.0  0.53007  0.30076  0.60277  1.0000
  C   C387      1.0  0.78066  0.24165  0.51488  1.0000
  H   H684      1.0  0.56964  0.15245  0.68342  1.0000
  C   C388      1.0  0.58761  0.11852  0.69340  1.0000
  H   H685      1.0  0.63789  0.28802  0.00120  1.0000
  H   H686      1.0  0.80939  0.23010  0.52337  1.0000
  C   C389      1.0  0.69088  0.21485  0.83389  1.0000
  C   C390      1.0  0.58654  0.15604  0.66230  1.0000
  C   C391      1.0  0.53599  0.13535  0.83493  1.0000
  C   C392      1.0  0.55359  0.15845  0.81304  1.0000
  C   C393      1.0  0.54889  0.16325  0.76816  1.0000
  H   H687      1.0  0.67776  0.22299  0.82961  1.0000
  H   H688      1.0  0.50011  0.09908  0.82781  1.0000
  C   C394      1.0  0.49692  0.25836  0.56775  1.0000
  H   H689      1.0  0.57097  0.17244  0.83058  1.0000
  C   C395      1.0  0.53465  0.30286  0.56584  1.0000
  H   H690      1.0  0.62431  0.15634  0.62504  1.0000
  C   C396      1.0  0.61896  0.11818  0.61981  1.0000
  H   H691      1.0  0.74173  0.30391  0.83979  1.0000
  H   H692      1.0  0.50733  0.21309  0.62717  1.0000
  C   C397      1.0  0.58869  0.27961  0.94592  1.0000
  H   H693      1.0  0.67959  0.19362  0.82714  1.0000
  H   H694      1.0  0.60137  0.28569  0.91667  1.0000
  C   C398      1.0  0.68542  0.25590  0.95182  1.0000
  C   C399      1.0  0.70331  0.27947  0.93132  1.0000
  C   C400      1.0  0.72353  0.29906  0.95684  1.0000
  H   H695      1.0  0.70125  0.28272  0.89584  1.0000
  H   H696      1.0  0.55603  0.09639  0.79812  1.0000
  H   H697      1.0  0.54418  0.24441  0.82829  1.0000
  C   C401      1.0  0.72620  0.29496  0.00277  1.0000
  C   C402      1.0  0.52662  0.14504  0.74459  1.0000
  H   H698      1.0  0.50060  0.00267  0.58180  1.0000
  H   H699      1.0  0.79327  0.26983  0.64365  1.0000
  H   H700      1.0  0.58993  0.10940  0.78575  1.0000
  H   H701      1.0  0.83425  0.32100  0.84242  1.0000
  H   H702      1.0  0.52426  0.05160  0.57923  1.0000
  H   H703      1.0  0.50825  0.14192  0.95756  1.0000
  S   S94       1.0  0.52201  0.15211  0.68793  1.0000
  S   S95       1.0  0.84461  0.31876  0.74785  1.0000
  N   N23       1.0  0.75541  0.27281  0.78428  1.0000
  C   C403      1.0  0.75383  0.26123  0.73791  1.0000
  C   C404      1.0  0.72983  0.25770  0.80932  1.0000
  C   C405      1.0  0.76060  0.30027  0.77717  1.0000
  C   C406      1.0  0.77740  0.27438  0.81204  1.0000
  C   C407      1.0  0.77707  0.24854  0.82082  1.0000
  C   C408      1.0  0.77910  0.27405  0.70914  1.0000
  C   C409      1.0  0.58678  0.17317  0.62220  1.0000
  C   C410      1.0  0.71376  0.22789  0.80107  1.0000
  H   H704      1.0  0.60721  0.13116  0.70832  1.0000
  C   C411      1.0  0.80274  0.25363  0.84161  1.0000
  C   C412      1.0  0.77472  0.26090  0.66285  1.0000
  C   C413      1.0  0.59153  0.19954  0.63908  1.0000
  H   H705      1.0  0.73824  0.26169  0.71764  1.0000
  H   H706      1.0  0.74809  0.24040  0.74024  1.0000
  H   H707      1.0  0.73289  0.26094  0.84662  1.0000
  H   H708      1.0  0.71644  0.26503  0.79996  1.0000
  H   H709      1.0  0.65239  0.14359  0.57750  1.0000
  H   H710      1.0  0.74634  0.30027  0.75264  1.0000
  H   H711      1.0  0.79624  0.28819  0.79606  1.0000
  H   H712      1.0  0.77799  0.28269  0.84609  1.0000
  H   H713      1.0  0.77419  0.23735  0.78922  1.0000
  H   H714      1.0  0.76148  0.23653  0.84541  1.0000
  H   H715      1.0  0.54733  0.10259  0.71875  1.0000
  H   H716      1.0  0.79457  0.27202  0.72635  1.0000
  H   H717      1.0  0.64960  0.31827  0.93496  1.0000
  H   H718      1.0  0.53420  0.26551  0.90149  1.0000
  H   H719      1.0  0.70567  0.22402  0.76613  1.0000
  H   H720      1.0  0.72551  0.21832  0.80498  1.0000
  C   C414      1.0  0.76005  0.31499  0.82041  1.0000
  H   H721      1.0  0.55684  0.07554  0.63851  1.0000
  H   H722      1.0  0.63051  0.12181  0.65133  1.0000
  H   H723      1.0  0.80195  0.23485  0.84856  1.0000
  H   H724      1.0  0.76784  0.23982  0.66672  1.0000
  H   H725      1.0  0.76038  0.26348  0.64270  1.0000
  H   H726      1.0  0.60408  0.16802  0.68345  1.0000
  H   H727      1.0  0.53148  0.25774  0.59408  1.0000
  H   H728      1.0  0.80647  0.26446  0.87402  1.0000
  N   N24       1.0  0.51185  0.28254  0.53902  1.0000
  H   H729      1.0  0.58810  0.25170  0.80287  1.0000
  H   H730      1.0  0.59458  0.24755  0.96156  1.0000
  H   H731      1.0  0.52785  0.17490  0.97728  1.0000
  C   C415      1.0  0.51161  0.24396  0.58191  1.0000
  H   H732      1.0  0.50833  0.27871  0.94690  1.0000
  N   N25       1.0  0.58511  0.13065  0.64991  1.0000
  H   H733      1.0  0.57091  0.13256  0.74520  1.0000
  H   H734      1.0  0.55762  0.20357  0.86310  1.0000
  C   C416      1.0  0.56026  0.28580  0.99663  1.0000
  S   S96       1.0  0.58101  0.32010  0.92566  1.0000
  H   H735      1.0  0.68059  0.31942  0.93098  1.0000
  C   C417      1.0  0.56755  0.11379  0.73131  1.0000
  C   C418      1.0  0.57667  0.29372  0.95886  1.0000
  H   H736      1.0  0.77638  0.31889  0.84326  1.0000
  H   H737      1.0  0.57618  0.19691  0.66355  1.0000
  H   H738      1.0  0.54957  0.20686  0.80543  1.0000
  H   H739      1.0  0.62566  0.11724  0.54755  1.0000
  H   H740      1.0  0.55147  0.29960  0.56250  1.0000
  H   H741      1.0  0.56583  0.07905  0.76017  1.0000
  H   H742      1.0  0.52314  0.08048  0.56468  1.0000
  H   H743      1.0  0.56781  0.08919  0.58238  1.0000
  N   N26       1.0  0.51492  0.21250  0.86834  1.0000
  C   C419      1.0  0.50905  0.12189  0.76637  1.0000
  H   H744      1.0  0.59105  0.21117  0.60994  1.0000
  H   H745      1.0  0.55397  0.24275  0.88415  1.0000
  C   C420      1.0  0.50959  0.17120  0.91169  1.0000
  C   C421      1.0  0.66004  0.30748  0.94194  1.0000
  H   H746      1.0  0.69778  0.21774  0.86957  1.0000
  H   H747      1.0  0.52502  0.17047  0.89209  1.0000
  H   H748      1.0  0.53081  0.21126  0.93441  1.0000
  H   H749      1.0  0.54301  0.11109  0.64839  1.0000
  H   H750      1.0  0.58647  0.09960  0.68700  1.0000
  C   C422      1.0  0.57010  0.09870  0.77112  1.0000
  H   H751      1.0  0.56273  0.18112  0.75149  1.0000
  C   C423      1.0  0.52689  0.07023  0.59260  1.0000
  H   H752      1.0  0.50329  0.23968  0.84359  1.0000
  C   C424      1.0  0.60746  0.13663  0.61809  1.0000
  H   H753      1.0  0.51265  0.06596  0.62019  1.0000
  S   S97       1.0  0.82888  0.32916  0.62086  1.0000
  C   C425      1.0  0.58641  0.23730  0.82870  1.0000
  H   H754      1.0  0.59665  0.22721  0.81599  1.0000
  H   H755      1.0  0.51295  0.23286  0.55269  1.0000
  C   C426      1.0  0.55443  0.08670  0.61069  1.0000
  S   S98       1.0  0.79958  0.27396  0.53754  1.0000
  H   H756      1.0  0.65088  0.28921  0.92183  1.0000
  H   H757      1.0  0.60382  0.09739  0.61947  1.0000
  H   H758      1.0  0.78009  0.31274  0.76180  1.0000
  H   H759      1.0  0.60218  0.17691  0.59716  1.0000
  H   H760      1.0  0.73715  0.31717  0.94084  1.0000
  H   H761      1.0  0.59605  0.24758  0.86055  1.0000
  C   C427      1.0  0.51378  0.11708  0.81126  1.0000
  H   H762      1.0  0.60184  0.13755  0.58232  1.0000
  H   H763      1.0  0.64628  0.11072  0.58321  1.0000
  C   C428      1.0  0.55795  0.21730  0.83762  1.0000
  H   H764      1.0  0.50808  0.17956  0.82653  1.0000
  H   H765      1.0  0.61079  0.21046  0.65571  1.0000
  H   H766      1.0  0.93068  0.33062  0.76507  1.0000
  H   H767      1.0  0.58186  0.16300  0.52243  1.0000
  C   C429      1.0  0.58453  0.25774  0.97092  1.0000
  H   H768      1.0  0.78624  0.29496  0.70283  1.0000
  C   C430      1.0  0.54282  0.23044  0.85490  1.0000
  H   H769      1.0  0.51655  0.24198  0.94514  1.0000
  C   C431      1.0  0.79003  0.22423  0.51154  1.0000
  C   C432      1.0  0.65857  0.30084  0.99232  1.0000
  C   C433      1.0  0.50964  0.16129  0.95947  1.0000
  C   C434      1.0  0.68818  0.25172  0.99763  1.0000
  H   H770      1.0  0.90829  0.32820  0.72111  1.0000
  C   C435      1.0  0.51336  0.19907  0.91318  1.0000
  H   H771      1.0  0.51863  0.21705  0.77154  1.0000
  C   C436      1.0  0.50231  0.22893  0.87508  1.0000
  H   H772      1.0  0.53391  0.14100  0.52659  1.0000
  H   H773      1.0  0.66877  0.28967  0.99695  1.0000
  H   H774      1.0  0.53160  0.01981  0.51718  1.0000
  C   C437      1.0  0.49998  0.19268  0.83198  1.0000
  C   C438      1.0  0.54312  0.13223  0.50770  1.0000
  H   H775      1.0  0.49654  0.23405  0.65106  1.0000
  C   C439      1.0  0.49888  0.20358  0.78464  1.0000
  C   C440      1.0  0.49723  0.22415  0.61960  1.0000
  C   C441      1.0  0.49855  0.26325  0.92093  1.0000
  H   H776      1.0  0.49674  0.27243  0.88932  1.0000
  C   C442      1.0  0.52032  0.99861  0.52462  1.0000
  H   H777      1.0  0.49666  0.19685  0.93386  1.0000
  H   H778      1.0  0.53265  0.26568  0.50592  1.0000
  S   S99       1.0  0.77429  0.39170  0.04399  1.0000
  C   C443      1.0  0.71139  0.36593  0.08787  1.0000
  H   H779      1.0  0.52280  0.41578  0.42491  1.0000
  H   H780      1.0  0.52813  0.49571  0.48408  1.0000
  S   S100      1.0  0.84600  0.43187  0.08988  1.0000
  C   C444      1.0  0.70364  0.43327  0.05266  1.0000
  S   S101      1.0  0.65231  0.41490  0.07050  1.0000
  Fe  Fe48      1.0  0.55777  0.37237  0.03521  1.0000
  S   S102      1.0  0.52311  0.36249  0.08101  1.0000
  S   S103      1.0  0.58416  0.35565  0.04242  1.0000
  C   C445      1.0  0.93537  0.50120  0.43863  1.0000
  Fe  Fe49      1.0  0.85792  0.51066  0.30888  1.0000
  S   S104      1.0  0.86217  0.54145  0.35867  1.0000
  S   S105      1.0  0.84758  0.51202  0.23506  1.0000
  Fe  Fe50      1.0  0.86590  0.47934  0.38201  1.0000
  S   S106      1.0  0.87062  0.50728  0.43710  1.0000
  S   S107      1.0  0.86697  0.44210  0.38823  1.0000
  Fe  Fe51      1.0  0.83649  0.50830  0.40570  1.0000
  S   S108      1.0  0.79780  0.49649  0.44239  1.0000
  Fe  Fe52      1.0  0.89600  0.53798  0.38599  1.0000
  S   S109      1.0  0.93506  0.57183  0.40936  1.0000
  S   S110      1.0  0.83041  0.47794  0.35354  1.0000
  S   S111      1.0  0.89316  0.50959  0.33302  1.0000
  H   H781      1.0  0.96131  0.54133  0.45228  1.0000
  H   H782      1.0  0.77340  0.38401  0.19441  1.0000
  C   C446      1.0  0.67809  0.41394  0.04344  1.0000
  H   H783      1.0  0.50447  0.66114  0.37990  1.0000
  C   C447      1.0  0.78305  0.37213  0.19565  1.0000
  H   H784      1.0  0.60782  0.42261  0.34296  1.0000
  C   C448      1.0  0.75427  0.49387  0.48113  1.0000
  H   H785      1.0  0.65509  0.56982  0.48189  1.0000
  C   C449      1.0  0.96683  0.58236  0.38785  1.0000
  C   C450      1.0  0.97115  0.57103  0.34971  1.0000
  H   H786      1.0  0.55583  0.35271  0.14208  1.0000
  H   H787      1.0  0.95489  0.55483  0.33342  1.0000
  H   H788      1.0  0.60621  0.50698  0.40937  1.0000
  C   C451      1.0  0.62607  0.36496  0.16777  1.0000
  C   C452      1.0  0.98837  0.60287  0.40966  1.0000
  C   C453      1.0  0.72182  0.38989  0.11840  1.0000
  H   H789      1.0  0.92509  0.62068  0.28950  1.0000
  H   H790      1.0  0.74387  0.45004  0.03347  1.0000
  C   C454      1.0  0.98235  0.35807  0.47450  1.0000
  C   C455      1.0  0.86913  0.43159  0.44288  1.0000
  C   C456      1.0  0.87361  0.44751  0.48060  1.0000
  H   H791      1.0  0.81118  0.35819  0.40440  1.0000
  H   H792      1.0  0.87669  0.46689  0.47628  1.0000
  C   C457      1.0  0.52291  0.35841  0.14058  1.0000
  H   H793      1.0  0.56769  0.50245  0.45310  1.0000
  H   H794      1.0  0.51285  0.46125  0.44033  1.0000
  C   C458      1.0  0.51039  0.42487  0.42532  1.0000
  H   H795      1.0  0.76179  0.35159  0.13511  1.0000
  H   H796      1.0  0.74441  0.47409  0.46876  1.0000
  C   C459      1.0  0.91343  0.60069  0.30342  1.0000
  H   H797      1.0  0.81690  0.41057  0.46295  1.0000
  C   C460      1.0  0.61373  0.50407  0.44200  1.0000
  C   C461      1.0  0.84608  0.45445  0.12913  1.0000
  C   C462      1.0  0.86337  0.46219  0.16586  1.0000
  C   C463      1.0  0.86363  0.47942  0.19886  1.0000
  C   C464      1.0  0.84703  0.48962  0.19483  1.0000
  C   C465      1.0  0.83021  0.48246  0.15744  1.0000
  C   C466      1.0  0.82944  0.46463  0.12501  1.0000
  H   H798      1.0  0.87639  0.45450  0.16907  1.0000
  H   H799      1.0  0.87663  0.48475  0.22746  1.0000
  H   H800      1.0  0.81744  0.49043  0.15387  1.0000
  H   H801      1.0  0.81615  0.45893  0.09670  1.0000
  C   C467      1.0  0.88530  0.55584  0.09426  1.0000
  C   C468      1.0  0.86578  0.39722  0.49247  1.0000
  H   H802      1.0  0.92229  0.50568  0.41858  1.0000
  H   H803      1.0  0.78437  0.34114  0.36593  1.0000
  H   H804      1.0  0.70739  0.44822  0.07734  1.0000
  C   C469      1.0  0.95431  0.58553  0.18538  1.0000
  N   N27       1.0  0.81505  0.39704  0.26124  1.0000
  C   C470      1.0  0.81149  0.38882  0.21208  1.0000
  C   C471      1.0  0.84291  0.41775  0.26824  1.0000
  C   C472      1.0  0.80794  0.37350  0.29053  1.0000
  C   C473      1.0  0.79786  0.40800  0.27411  1.0000
  C   C474      1.0  0.80205  0.43207  0.24654  1.0000
  C   C475      1.0  0.81496  0.37893  0.34166  1.0000
  C   C476      1.0  0.86343  0.40934  0.25995  1.0000
  C   C477      1.0  0.89083  0.43195  0.26837  1.0000
  C   C478      1.0  0.78055  0.43844  0.25566  1.0000
  H   H805      1.0  0.63138  0.33607  0.07506  1.0000
  H   H806      1.0  0.82131  0.37740  0.20497  1.0000
  H   H807      1.0  0.82133  0.40603  0.18915  1.0000
  H   H808      1.0  0.84807  0.43430  0.24504  1.0000
  H   H809      1.0  0.84572  0.42629  0.30266  1.0000
  H   H810      1.0  0.81714  0.36243  0.27741  1.0000
  H   H811      1.0  0.80491  0.42803  0.42967  1.0000
  H   H812      1.0  0.77704  0.39269  0.27226  1.0000
  H   H813      1.0  0.80109  0.41446  0.31007  1.0000
  H   H814      1.0  0.80271  0.42932  0.20951  1.0000
  H   H815      1.0  0.82058  0.44928  0.25697  1.0000
  H   H816      1.0  0.80591  0.38938  0.35754  1.0000
  H   H817      1.0  0.83622  0.39076  0.34640  1.0000
  H   H818      1.0  0.86035  0.39314  0.28266  1.0000
  H   H819      1.0  0.86271  0.40305  0.22430  1.0000
  H   H820      1.0  0.89291  0.43882  0.30396  1.0000
  H   H821      1.0  0.90516  0.42549  0.26227  1.0000
  H   H822      1.0  0.89522  0.44835  0.24502  1.0000
  H   H823      1.0  0.77941  0.44186  0.29242  1.0000
  H   H824      1.0  0.78488  0.45646  0.23699  1.0000
  H   H825      1.0  0.76156  0.42236  0.24386  1.0000
  H   H826      1.0  0.86208  0.39416  0.41973  1.0000
  H   H827      1.0  0.97916  0.50076  0.45463  1.0000
  H   H828      1.0  0.92227  0.59915  0.21583  1.0000
  H   H829      1.0  0.81099  0.46113  0.48974  1.0000
  H   H830      1.0  0.78405  0.39401  0.44278  1.0000
  N   N28       1.0  0.61500  0.42278  0.19990  1.0000
  C   C479      1.0  0.61918  0.42381  0.25060  1.0000
  C   C480      1.0  0.63717  0.44621  0.17687  1.0000
  C   C481      1.0  0.59045  0.42387  0.19180  1.0000
  C   C482      1.0  0.61141  0.39793  0.17936  1.0000
  C   C483      1.0  0.63338  0.39164  0.18729  1.0000
  C   C484      1.0  0.59740  0.40138  0.27885  1.0000
  C   C485      1.0  0.58339  0.42495  0.14146  1.0000
  C   C486      1.0  0.66461  0.45757  0.19807  1.0000
  C   C487      1.0  0.68552  0.47701  0.16596  1.0000
  N   N29       1.0  0.92760  0.56614  0.20256  1.0000
  C   C488      1.0  0.60462  0.40383  0.32908  1.0000
  C   C489      1.0  0.56050  0.42974  0.13778  1.0000
  H   H831      1.0  0.62172  0.44247  0.26419  1.0000
  H   H832      1.0  0.63740  0.42396  0.25907  1.0000
  H   H833      1.0  0.63849  0.44185  0.14050  1.0000
  H   H834      1.0  0.63346  0.46288  0.17624  1.0000
  H   H835      1.0  0.59159  0.44098  0.20964  1.0000
  H   H836      1.0  0.57327  0.40645  0.20614  1.0000
  H   H837      1.0  0.59308  0.38112  0.19148  1.0000
  H   H838      1.0  0.60919  0.39814  0.14191  1.0000
  H   H839      1.0  0.63746  0.39132  0.22387  1.0000
  H   H840      1.0  0.65126  0.40605  0.16955  1.0000
  H   H841      1.0  0.57893  0.40168  0.27682  1.0000
  H   H842      1.0  0.59393  0.38215  0.26714  1.0000
  H   H843      1.0  0.57758  0.40612  0.12462  1.0000
  H   H844      1.0  0.59980  0.44062  0.12227  1.0000
  H   H845      1.0  0.66563  0.46799  0.22999  1.0000
  H   H846      1.0  0.66959  0.44241  0.20637  1.0000
  H   H847      1.0  0.70485  0.48533  0.18235  1.0000
  H   H848      1.0  0.68589  0.46716  0.13413  1.0000
  H   H849      1.0  0.68187  0.49315  0.15753  1.0000
  H   H850      1.0  0.52171  0.63670  0.45391  1.0000
  C   C490      1.0  0.68185  0.34778  0.09540  1.0000
  H   H851      1.0  0.92444  0.51627  0.17874  1.0000
  H   H852      1.0  0.92273  0.58658  0.11488  1.0000
  H   H853      1.0  0.58852  0.38780  0.34843  1.0000
  H   H854      1.0  0.89448  0.56847  0.22767  1.0000
  H   H855      1.0  0.55480  0.42871  0.10163  1.0000
  H   H856      1.0  0.54350  0.41472  0.15691  1.0000
  H   H857      1.0  0.56585  0.44929  0.15111  1.0000
  H   H858      1.0  0.77171  0.35526  0.21834  1.0000
  H   H859      1.0  0.89302  0.54597  0.07247  1.0000
  C   C491      1.0  0.52159  0.35211  0.23594  1.0000
  H   H860      1.0  0.93511  0.48399  0.42323  1.0000
  C   C492      1.0  0.94016  0.50988  0.23949  1.0000
  H   H861      1.0  0.93883  0.55219  0.26159  1.0000
  C   C493      1.0  0.50317  0.35651  0.21449  1.0000
  H   H862      1.0  0.71529  0.37275  0.05217  1.0000
  H   H863      1.0  0.94675  0.49784  0.22128  1.0000
  H   H864      1.0  0.97295  0.61266  0.24164  1.0000
  H   H865      1.0  0.97290  0.33776  0.48745  1.0000
  C   C494      1.0  0.52564  0.45270  0.44305  1.0000
  H   H866      1.0  0.72061  0.38418  0.15459  1.0000
  Fe  Fe53      1.0  0.81724  0.41300  0.03191  1.0000
  C   C495      1.0  0.86546  0.40653  0.44882  1.0000
  C   C496      1.0  0.67333  0.39467  0.01144  1.0000
  H   H867      1.0  0.89126  0.53716  0.17321  1.0000
  C   C497      1.0  0.93787  0.52837  0.20607  1.0000
  C   C498      1.0  0.90470  0.57153  0.13156  1.0000
  S   S112      1.0  0.59008  0.41363  0.02606  1.0000
  C   C499      1.0  0.54119  0.35386  0.16208  1.0000
  H   H868      1.0  0.77206  0.41873  0.49237  1.0000
  C   C500      1.0  0.92167  0.58253  0.28191  1.0000
  H   H869      1.0  0.98531  0.61182  0.43919  1.0000
  H   H870      1.0  0.58631  0.51552  0.50262  1.0000
  H   H871      1.0  0.74245  0.40366  0.11000  1.0000
  C   C501      1.0  0.91033  0.55353  0.16195  1.0000
  H   H872      1.0  0.78670  0.35968  0.28877  1.0000
  H   H873      1.0  0.95450  0.52103  0.26644  1.0000
  C   C502      1.0  0.67640  0.57830  0.47823  1.0000
  H   H874      1.0  0.62225  0.36445  0.13077  1.0000
  C   C503      1.0  0.57287  0.40581  0.47001  1.0000
  C   C504      1.0  0.80578  0.35364  0.36810  1.0000
  H   H875      1.0  0.90734  0.53086  0.24155  1.0000
  H   H876      1.0  0.91876  0.54474  0.13916  1.0000
  C   C505      1.0  0.96278  0.52477  0.43832  1.0000
  H   H877      1.0  0.67801  0.34534  0.13255  1.0000
  H   H878      1.0  0.89250  0.59346  0.29723  1.0000
  H   H879      1.0  0.88161  0.56900  0.07268  1.0000
  H   H880      1.0  0.79428  0.37784  0.12428  1.0000
  C   C506      1.0  0.79979  0.41281  0.45604  1.0000
  H   H881      1.0  0.62646  0.49576  0.43478  1.0000
  H   H882      1.0  0.62555  0.52315  0.45898  1.0000
  C   C507      1.0  0.98158  0.51950  0.46691  1.0000
  H   H883      1.0  0.81366  0.54839  0.48116  1.0000
  C   C508      1.0  0.54602  0.38873  0.47132  1.0000
  H   H884      1.0  0.86656  0.54093  0.10935  1.0000
  H   H885      1.0  0.54253  0.46356  0.42023  1.0000
  C   C509      1.0  0.79088  0.41986  0.49969  1.0000
  H   H886      1.0  0.96921  0.52897  0.40248  1.0000
  H   H887      1.0  0.98060  0.37061  0.50056  1.0000
  C   C510      1.0  0.78093  0.51001  0.47191  1.0000
  H   H888      1.0  0.54459  0.44184  0.49453  1.0000
  H   H889      1.0  0.62242  0.40248  0.33405  1.0000
  H   H890      1.0  0.95383  0.60173  0.16724  1.0000
  H   H891      1.0  0.91664  0.60150  0.34066  1.0000
  H   H892      1.0  0.66258  0.33801  0.01203  1.0000
  H   H893      1.0  0.97665  0.58421  0.24435  1.0000
  C   C511      1.0  0.92750  0.54462  0.23007  1.0000
  C   C512      1.0  0.78206  0.36167  0.14789  1.0000
  S   S113      1.0  0.52275  0.34948  0.29560  1.0000
  H   H894      1.0  0.92110  0.49670  0.25548  1.0000
  H   H895      1.0  0.53614  0.37740  0.44166  1.0000
  H   H896      1.0  0.71064  0.40009  0.11340  1.0000
  C   C513      1.0  0.50013  0.64881  0.41050  1.0000
  C   C514      1.0  0.72431  0.43419  0.02816  1.0000
  H   H897      1.0  0.67267  0.35908  0.08352  1.0000
  C   C515      1.0  0.97595  0.59861  0.22146  1.0000
  H   H898      1.0  0.96080  0.57644  0.15934  1.0000
  H   H899      1.0  0.95739  0.54101  0.19135  1.0000
  H   H900      1.0  0.91045  0.56331  0.29875  1.0000
  H   H901      1.0  0.89622  0.58138  0.15133  1.0000
  Fe  Fe54      1.0  0.61606  0.39633  0.02825  1.0000
  C   C516      1.0  0.91611  0.57951  0.23009  1.0000
  H   H902      1.0  0.94234  0.59014  0.29005  1.0000
  H   H903      1.0  0.58362  0.40751  0.43935  1.0000
  H   H904      1.0  0.78918  0.34756  0.14794  1.0000
  C   C517      1.0  0.52539  0.65014  0.42508  1.0000
  C   C518      1.0  0.50368  0.35935  0.16693  1.0000
  C   C519      1.0  0.59142  0.48547  0.47267  1.0000
  H   H905      1.0  0.58068  0.46665  0.45455  1.0000
  C   C520      1.0  0.54039  0.35055  0.20947  1.0000
  H   H906      1.0  0.50375  0.42494  0.39014  1.0000
  H   H907      1.0  0.53335  0.64406  0.39655  1.0000
  H   H908      1.0  0.60852  0.34941  0.18495  1.0000
  H   H909      1.0  0.81517  0.34283  0.35484  1.0000
  C   C521      1.0  0.57365  0.49681  0.48496  1.0000
  H   H910      1.0  0.86262  0.37775  0.49696  1.0000
  C   C522      1.0  0.53422  0.45308  0.49285  1.0000
  H   H911      1.0  0.64232  0.36107  0.17281  1.0000
  H   H912      1.0  0.68380  0.59396  0.45225  1.0000
  H   H913      1.0  0.55438  0.34669  0.22585  1.0000
  H   H914      1.0  0.68026  0.56279  0.46637  1.0000
  C   C523      1.0  0.79322  0.53566  0.48778  1.0000
  H   H915      1.0  0.97190  0.35844  0.44359  1.0000
  H   H916      1.0  0.92774  0.49638  0.47382  1.0000
  H   H917      1.0  0.69191  0.33714  0.01048  1.0000
  H   H918      1.0  0.72268  0.35615  0.09542  1.0000
  H   H919      1.0  0.97413  0.51561  0.50243  1.0000
  H   H920      1.0  0.60010  0.48240  0.50369  1.0000
  S   S114      1.0  0.61924  0.44267  0.50425  1.0000
  Fe  Fe55      1.0  0.77137  0.40651  0.97571  1.0000
  S   S115      1.0  0.74391  0.42059  0.95614  1.0000
  Fe  Fe56      1.0  0.81095  0.39510  0.93200  1.0000
  S   S116      1.0  0.82996  0.40118  0.86252  1.0000
  S   S117      1.0  0.76751  0.37222  0.93745  1.0000
  S   S118      1.0  0.81450  0.43078  0.96609  1.0000
  S   S119      1.0  0.61608  0.39173  0.95287  1.0000
  H   H921      1.0  0.93473  0.37574  0.70762  1.0000
  H   H922      1.0  0.70312  0.65715  0.62368  1.0000
  Fe  Fe57      1.0  0.58720  0.40540  0.95109  1.0000
  S   S120      1.0  0.58809  0.43473  0.90005  1.0000
  H   H923      1.0  0.58504  0.34648  0.57010  1.0000
  H   H924      1.0  0.96105  0.41964  0.75525  1.0000
  Fe  Fe58      1.0  0.86569  0.36222  0.59323  1.0000
  H   H925      1.0  0.52681  0.41595  0.72511  1.0000
  C   C524      1.0  0.81357  0.42015  0.60383  1.0000
  H   H926      1.0  0.66472  0.59337  0.62196  1.0000
  H   H927      1.0  0.82214  0.39562  0.64680  1.0000
  H   H928      1.0  0.74555  0.33841  0.78837  1.0000
  S   S121      1.0  0.89046  0.36033  0.64847  1.0000
  Fe  Fe59      1.0  0.63830  0.47372  0.55744  1.0000
  S   S122      1.0  0.65996  0.51481  0.53264  1.0000
  H   H929      1.0  0.91461  0.41825  0.83573  1.0000
  Fe  Fe60      1.0  0.65505  0.48942  0.65492  1.0000
  S   S123      1.0  0.67811  0.53220  0.63669  1.0000
  S   S124      1.0  0.65655  0.46940  0.72015  1.0000
  Fe  Fe61      1.0  0.64323  0.52422  0.59368  1.0000
  S   S125      1.0  0.62399  0.54813  0.57232  1.0000
  Fe  Fe62      1.0  0.69269  0.51924  0.57660  1.0000
  S   S126      1.0  0.73534  0.54129  0.55358  1.0000
  S   S127      1.0  0.61945  0.48222  0.61573  1.0000
  S   S128      1.0  0.67187  0.47742  0.59752  1.0000
  C   C525      1.0  0.89501  0.38883  0.90783  1.0000
  C   C526      1.0  0.55035  0.45948  0.64048  1.0000
  H   H930      1.0  0.53256  0.37478  0.81259  1.0000
  Fe  Fe63      1.0  0.55005  0.63029  0.61241  1.0000
  S   S129      1.0  0.58273  0.62396  0.64001  1.0000
  C   C527      1.0  0.81104  0.44764  0.51603  1.0000
  H   H931      1.0  0.66313  0.60109  0.54477  1.0000
  H   H932      1.0  0.53410  0.40006  0.57915  1.0000
  C   C528      1.0  0.57187  0.41870  0.54751  1.0000
  H   H933      1.0  0.74418  0.49549  0.75116  1.0000
  H   H934      1.0  0.58185  0.43009  0.57699  1.0000
  C   C529      1.0  0.61095  0.56763  0.59291  1.0000
  C   C530      1.0  0.60184  0.57901  0.56129  1.0000
  C   C531      1.0  0.59183  0.59505  0.57534  1.0000
  C   C532      1.0  0.59151  0.60068  0.62135  1.0000
  C   C533      1.0  0.60080  0.58944  0.65302  1.0000
  C   C534      1.0  0.61004  0.57269  0.63903  1.0000
  H   H935      1.0  0.52928  0.47446  0.60485  1.0000
  H   H936      1.0  0.58523  0.60385  0.55041  1.0000
  H   H937      1.0  0.52724  0.39154  0.66000  1.0000
  H   H938      1.0  0.61684  0.56408  0.66391  1.0000
  H   H939      1.0  0.89185  0.38565  0.73466  1.0000
  H   H940      1.0  0.53695  0.54768  0.56648  1.0000
  C   C535      1.0  0.77903  0.44300  0.57667  1.0000
  C   C536      1.0  0.75239  0.52866  0.52201  1.0000
  C   C537      1.0  0.54650  0.51887  0.54259  1.0000
  C   C538      1.0  0.93647  0.36794  0.74064  1.0000
  H   H941      1.0  0.73521  0.52033  0.75445  1.0000
  H   H942      1.0  0.71108  0.48749  0.74044  1.0000
  N   N30       1.0  0.92257  0.39725  0.78393  1.0000
  H   H943      1.0  0.78760  0.50691  0.90486  1.0000
  C   C539      1.0  0.96791  0.36512  0.60285  1.0000
  H   H944      1.0  0.76405  0.35215  0.83943  1.0000
  S   S130      1.0  0.86997  0.40198  0.58533  1.0000
  H   H945      1.0  0.53214  0.35644  0.71287  1.0000
  C   C540      1.0  0.68624  0.60327  0.62275  1.0000
  C   C541      1.0  0.95062  0.41823  0.78747  1.0000
  H   H946      1.0  0.79846  0.48529  0.88442  1.0000
  C   C542      1.0  0.52429  0.36924  0.72230  1.0000
  H   H947      1.0  0.77938  0.47727  0.93543  1.0000
  C   C543      1.0  0.60784  0.44476  0.85086  1.0000
  C   C544      1.0  0.62032  0.43151  0.83578  1.0000
  C   C545      1.0  0.63489  0.43920  0.79540  1.0000
  C   C546      1.0  0.63692  0.46000  0.76938  1.0000
  C   C547      1.0  0.62424  0.47314  0.78416  1.0000
  C   C548      1.0  0.60997  0.46566  0.82499  1.0000
  H   H948      1.0  0.61856  0.41523  0.85511  1.0000
  H   H949      1.0  0.64443  0.42879  0.78393  1.0000
  H   H950      1.0  0.62586  0.48935  0.76468  1.0000
  H   H951      1.0  0.60038  0.47605  0.83648  1.0000
  H   H952      1.0  0.65499  0.62497  0.62798  1.0000
  S   S131      1.0  0.87302  0.33747  0.54437  1.0000
  H   H953      1.0  0.90931  0.40888  0.91877  1.0000
  H   H954      1.0  0.58380  0.38034  0.77612  1.0000
  H   H955      1.0  0.69035  0.38099  0.96168  1.0000
  C   C549      1.0  0.83205  0.37700  0.83092  1.0000
  C   C550      1.0  0.83666  0.38060  0.78398  1.0000
  C   C551      1.0  0.83979  0.36250  0.75795  1.0000
  H   H956      1.0  0.77997  0.66455  0.57056  1.0000
  H   H957      1.0  0.95959  0.42012  0.85972  1.0000
  C   C552      1.0  0.83060  0.35510  0.85165  1.0000
  H   H958      1.0  0.83781  0.39750  0.76769  1.0000
  H   H959      1.0  0.61840  0.41588  0.69546  1.0000
  H   H960      1.0  0.96366  0.39592  0.82935  1.0000
  H   H961      1.0  0.88658  0.39055  0.81461  1.0000
  N   N31       1.0  0.54432  0.39328  0.74674  1.0000
  C   C553      1.0  0.55050  0.38527  0.79159  1.0000
  C   C554      1.0  0.53199  0.40968  0.75706  1.0000
  C   C555      1.0  0.56876  0.40918  0.71912  1.0000
  C   C556      1.0  0.57662  0.39412  0.68546  1.0000
  C   C557      1.0  0.54878  0.43502  0.78426  1.0000
  C   C558      1.0  0.60418  0.41125  0.66767  1.0000
  C   C559      1.0  0.53589  0.45174  0.78669  1.0000
  H   H962      1.0  0.56403  0.40259  0.81164  1.0000
  H   H963      1.0  0.56725  0.42403  0.69826  1.0000
  H   H964      1.0  0.58550  0.42075  0.74212  1.0000
  H   H965      1.0  0.56350  0.38757  0.65567  1.0000
  H   H966      1.0  0.57572  0.37673  0.70106  1.0000
  H   H967      1.0  0.56801  0.44687  0.76803  1.0000
  H   H968      1.0  0.55145  0.43061  0.81977  1.0000
  C   C560      1.0  0.68989  0.58891  0.52369  1.0000
  H   H969      1.0  0.69023  0.62532  0.51415  1.0000
  H   H970      1.0  0.89577  0.42642  0.77120  1.0000
  H   H971      1.0  0.57516  0.37062  0.57130  1.0000
  S   S132      1.0  0.49837  0.36604  0.51235  1.0000
  C   C561      1.0  0.90834  0.42711  0.74279  1.0000
  C   C562      1.0  0.74013  0.50303  0.50605  1.0000
  C   C563      1.0  0.69407  0.39533  0.98757  1.0000
  H   H972      1.0  0.64352  0.36869  0.85108  1.0000
  H   H973      1.0  0.67171  0.48374  0.96184  1.0000
  H   H974      1.0  0.71969  0.49028  0.51267  1.0000
  C   C564      1.0  0.56908  0.35011  0.57987  1.0000
  C   C565      1.0  0.71952  0.41544  0.99510  1.0000
  H   H975      1.0  0.53370  0.45802  0.75227  1.0000
  H   H976      1.0  0.60094  0.59383  0.68865  1.0000
  H   H977      1.0  0.92348  0.40485  0.71159  1.0000
  H   H978      1.0  0.84830  0.42865  0.64226  1.0000
  H   H979      1.0  0.76931  0.42151  0.57477  1.0000
  H   H980      1.0  0.51604  0.34695  0.63494  1.0000
  Fe  Fe64      1.0  0.50641  0.60907  0.54486  1.0000
  H   H981      1.0  0.84273  0.45905  0.59004  1.0000
  N   N32       1.0  0.70855  0.45711  0.87156  1.0000
  C   C566      1.0  0.71113  0.46440  0.82205  1.0000
  C   C567      1.0  0.69907  0.42836  0.87516  1.0000
  C   C568      1.0  0.68982  0.46398  0.89343  1.0000
  C   C569      1.0  0.73424  0.47164  0.89593  1.0000
  C   C570      1.0  0.75759  0.47144  0.87277  1.0000
  C   C571      1.0  0.72233  0.49375  0.81180  1.0000
  C   C572      1.0  0.68174  0.45429  0.94289  1.0000
  C   C573      1.0  0.67154  0.40991  0.85616  1.0000
  C   C574      1.0  0.66252  0.38150  0.86752  1.0000
  C   C575      1.0  0.78221  0.48618  0.90122  1.0000
  C   C576      1.0  0.72856  0.49952  0.76138  1.0000
  H   H982      1.0  0.49988  0.61042  0.75689  1.0000
  H   H983      1.0  0.69184  0.45432  0.80520  1.0000
  H   H984      1.0  0.72287  0.45737  0.80388  1.0000
  H   H985      1.0  0.71243  0.42342  0.85701  1.0000
  H   H986      1.0  0.69964  0.42286  0.91090  1.0000
  H   H987      1.0  0.67194  0.45684  0.87268  1.0000
  H   H988      1.0  0.69830  0.48547  0.89422  1.0000
  H   H989      1.0  0.73969  0.49228  0.90179  1.0000
  H   H990      1.0  0.73261  0.46342  0.93056  1.0000
  H   H991      1.0  0.76176  0.48094  0.83900  1.0000
  H   H992      1.0  0.75381  0.45128  0.86839  1.0000
  H   H993      1.0  0.70788  0.49966  0.82092  1.0000
  H   H994      1.0  0.74042  0.50616  0.83085  1.0000
  C   C577      1.0  0.50078  0.35099  0.64729  1.0000
  H   H995      1.0  0.67210  0.43282  0.94503  1.0000
  H   H996      1.0  0.65701  0.41430  0.87061  1.0000
  H   H997      1.0  0.67146  0.41163  0.81870  1.0000
  Fe  Fe65      1.0  0.89588  0.33354  0.60241  1.0000
  C   C578      1.0  0.91139  0.40256  0.74187  1.0000
  H   H998      1.0  0.68241  0.57235  0.54774  1.0000
  C   C579      1.0  0.56378  0.36853  0.78964  1.0000
  H   H999      1.0  0.67677  0.37596  0.85530  1.0000
  H   H1000     1.0  0.56581  0.34742  0.61704  1.0000
  S   S133      1.0  0.55243  0.36542  0.95965  1.0000
  Fe  Fe66      1.0  0.58174  0.35235  0.96646  1.0000
  H   H1001     1.0  0.73264  0.63905  0.54439  1.0000
  H   H1002     1.0  0.64487  0.45389  0.94004  1.0000
  C   C580      1.0  0.77903  0.54488  0.51258  1.0000
  H   H1003     1.0  0.65266  0.62939  0.56795  1.0000
  C   C581      1.0  0.51251  0.37438  0.67913  1.0000
  H   H1004     1.0  0.51503  0.47877  0.53536  1.0000
  H   H1005     1.0  0.82718  0.35222  0.88780  1.0000
  H   H1006     1.0  0.54816  0.46940  0.80719  1.0000
  S   S134      1.0  0.51088  0.59422  0.61201  1.0000
  H   H1007     1.0  0.52345  0.44317  0.58564  1.0000
  H   H1008     1.0  0.87624  0.41206  0.69455  1.0000
  H   H1009     1.0  0.79241  0.40760  0.60881  1.0000
  C   C582      1.0  0.96608  0.41566  0.82735  1.0000
  H   H1010     1.0  0.77742  0.44718  0.61301  1.0000
  H   H1011     1.0  0.85800  0.50242  0.58956  1.0000
  H   H1012     1.0  0.57503  0.49543  0.57307  1.0000
  H   H1013     1.0  0.65987  0.37827  0.90470  1.0000
  C   C583      1.0  0.90715  0.39782  0.82438  1.0000
  H   H1014     1.0  0.81971  0.41344  0.57356  1.0000
  H   H1015     1.0  0.87729  0.54130  0.54064  1.0000
  H   H1016     1.0  0.49656  0.60276  0.84021  1.0000
  H   H1017     1.0  0.89886  0.35596  0.77188  1.0000
  H   H1018     1.0  0.60666  0.42964  0.65318  1.0000
  C   C584      1.0  0.74548  0.65732  0.60856  1.0000
  H   H1019     1.0  0.81318  0.49082  0.59602  1.0000
  H   H1020     1.0  0.87636  0.38801  0.90010  1.0000
  H   H1021     1.0  0.69074  0.58745  0.61688  1.0000
  H   H1022     1.0  0.95663  0.39153  0.57507  1.0000
  H   H1023     1.0  0.55901  0.44693  0.63454  1.0000
  C   C585      1.0  0.68456  0.61046  0.54154  1.0000
  H   H1024     1.0  0.70106  0.65981  0.56440  1.0000
  H   H1025     1.0  0.60841  0.40088  0.64064  1.0000
  H   H1026     1.0  0.76700  0.47156  0.56049  1.0000
  C   C586      1.0  0.92867  0.33946  0.73322  1.0000
  C   C587      1.0  0.52710  0.52835  0.54963  1.0000
  C   C588      1.0  0.76268  0.34123  0.80802  1.0000
  H   H1027     1.0  0.76681  0.45294  0.51241  1.0000
  H   H1028     1.0  0.72244  0.44113  0.53757  1.0000
  C   C589      1.0  0.87000  0.41307  0.53019  1.0000
  H   H1029     1.0  0.56953  0.46466  0.55611  1.0000
  H   H1030     1.0  0.72766  0.41384  0.54329  1.0000
  C   C590      1.0  0.82689  0.41625  0.64503  1.0000
  H   H1031     1.0  0.56554  0.47869  0.65349  1.0000
  C   C591      1.0  0.83457  0.33744  0.82584  1.0000
  H   H1032     1.0  0.84310  0.36535  0.72177  1.0000
  H   H1033     1.0  0.54649  0.34601  0.85138  1.0000
  H   H1034     1.0  0.80916  0.49052  0.53636  1.0000
  C   C592      1.0  0.73350  0.43357  0.55632  1.0000
  C   C593      1.0  0.56601  0.35931  0.83703  1.0000
  H   H1035     1.0  0.89130  0.36026  0.85904  1.0000
  C   C594      1.0  0.81818  0.48468  0.56360  1.0000
  H   H1036     1.0  0.51654  0.44080  0.80317  1.0000
  C   C595      1.0  0.53863  0.46281  0.59665  1.0000
  C   C596      1.0  0.83924  0.34109  0.77894  1.0000
  H   H1037     1.0  0.90796  0.43088  0.66907  1.0000
  H   H1038     1.0  0.95224  0.43760  0.79149  1.0000
  H   H1039     1.0  0.57652  0.37608  0.86030  1.0000
  H   H1040     1.0  0.85510  0.49354  0.53072  1.0000
  H   H1041     1.0  0.52953  0.33726  0.56348  1.0000
  C   C597      1.0  0.89586  0.42933  0.69894  1.0000
  C   C598      1.0  0.76255  0.45188  0.54922  1.0000
  N   N33       1.0  0.80721  0.45554  0.56295  1.0000
  C   C599      1.0  0.97269  0.38931  0.58653  1.0000
  H   H1042     1.0  0.69886  0.46262  0.96565  1.0000
  C   C600      1.0  0.84798  0.50162  0.55729  1.0000
  C   C601      1.0  0.85586  0.52956  0.54414  1.0000
  H   H1043     1.0  0.55283  0.35095  0.76846  1.0000
  C   C602      1.0  0.54497  0.40157  0.54884  1.0000
  H   H1044     1.0  0.78051  0.35311  0.78770  1.0000
  C   C603      1.0  0.82166  0.44918  0.59814  1.0000
  H   H1045     1.0  0.78879  0.56474  0.52460  1.0000
  H   H1046     1.0  0.82023  0.42106  0.67687  1.0000
  S   S135      1.0  0.93623  0.33689  0.60243  1.0000
  H   H1047     1.0  0.71090  0.59628  0.51847  1.0000
  S   S136      1.0  0.54634  0.64424  0.54276  1.0000
  C   C604      1.0  0.67895  0.59189  0.70643  1.0000
  H   H1048     1.0  0.53494  0.45013  0.66657  1.0000
  H   H1049     1.0  0.82012  0.45682  0.63186  1.0000
  H   H1050     1.0  0.89383  0.44694  0.70009  1.0000
  C   C605      1.0  0.87404  0.43826  0.52418  1.0000
  C   C606      1.0  0.66405  0.63850  0.59905  1.0000
  H   H1051     1.0  0.72847  0.43233  0.59287  1.0000
  H   H1052     1.0  0.51346  0.39800  0.77605  1.0000
  H   H1053     1.0  0.92392  0.38287  0.87581  1.0000
  H   H1054     1.0  0.60276  0.57567  0.52547  1.0000
  H   H1055     1.0  0.67976  0.57386  0.70014  1.0000
  C   C607      1.0  0.53204  0.38670  0.51062  1.0000
  H   H1056     1.0  0.87752  0.45062  0.55332  1.0000
  H   H1057     1.0  0.65845  0.58734  0.70501  1.0000
  H   H1058     1.0  0.95726  0.37858  0.75049  1.0000
  C   C608      1.0  0.90514  0.38111  0.86642  1.0000
  H   H1059     1.0  0.84951  0.53857  0.57046  1.0000
  H   H1060     1.0  0.92457  0.36377  0.80971  1.0000
  H   H1061     1.0  0.68645  0.59894  0.74109  1.0000
  H   H1062     1.0  0.89177  0.37527  0.93633  1.0000
  C   C609      1.0  0.55974  0.47635  0.55956  1.0000
  H   H1063     1.0  0.92746  0.44508  0.74602  1.0000
  S   S137      1.0  0.53538  0.65477  0.64768  1.0000
  C   C610      1.0  0.69537  0.61288  0.67165  1.0000
  H   H1064     1.0  0.57692  0.34864  0.83529  1.0000
  C   C611      1.0  0.53372  0.49216  0.51819  1.0000
  H   H1065     1.0  0.50775  0.35705  0.74545  1.0000
  C   C612      1.0  0.91962  0.37056  0.77828  1.0000
  N   N34       1.0  0.69771  0.62338  0.58554  1.0000
  H   H1066     1.0  0.98583  0.34419  0.63008  1.0000
  H   H1067     1.0  0.69392  0.63028  0.68005  1.0000
  C   C613      1.0  0.69284  0.64578  0.59318  1.0000
  H   H1068     1.0  0.94140  0.33818  0.70698  1.0000
  H   H1069     1.0  0.55432  0.51815  0.57632  1.0000
  C   C614      1.0  0.98922  0.36271  0.61722  1.0000
  H   H1070     1.0  0.51079  0.51461  0.57159  1.0000
  S   S138      1.0  0.81742  0.37922  0.99703  1.0000
  H   H1071     1.0  0.73070  0.61721  0.58744  1.0000
  C   C615      1.0  0.66267  0.46223  0.96124  1.0000
  H   H1072     1.0  0.64093  0.65676  0.61211  1.0000
  C   C616      1.0  0.72647  0.63319  0.58026  1.0000
  H   H1073     1.0  0.50643  0.65951  0.74138  1.0000
  H   H1074     1.0  0.71570  0.61730  0.67599  1.0000
  H   H1075     1.0  0.83061  0.44969  0.51329  1.0000
  H   H1076     1.0  0.54835  0.33609  0.51754  1.0000
  H   H1077     1.0  0.78733  0.40477  0.52523  1.0000
  C   C617      1.0  0.99508  0.43502  0.82248  1.0000
  C   C618      1.0  0.66174  0.66257  0.60864  1.0000
  H   H1078     1.0  0.84705  0.52993  0.51109  1.0000
  H   H1079     1.0  0.73984  0.65553  0.64467  1.0000
  H   H1080     1.0  0.77387  0.64498  0.62118  1.0000
  H   H1081     1.0  0.65365  0.37958  0.00440  1.0000
  H   H1082     1.0  0.51610  0.44130  0.51263  1.0000
  C   C619      1.0  0.58579  0.42099  0.50788  1.0000
  H   H1083     1.0  0.65695  0.45478  0.99640  1.0000
  H   H1084     1.0  0.56258  0.53364  0.52159  1.0000
  N   N35       1.0  0.55032  0.47962  0.51387  1.0000
  H   H1085     1.0  0.51935  0.53046  0.51659  1.0000
  C   C620      1.0  0.77308  0.66179  0.60626  1.0000
  C   C621      1.0  0.54428  0.33188  0.55409  1.0000
  Fe  Fe67      1.0  0.49606  0.61890  0.64301  1.0000
  Fe  Fe68      1.0  0.77411  0.35917  0.00502  1.0000
  H   H1086     1.0  0.49679  0.37836  0.68903  1.0000
  C   C622      1.0  0.61389  0.94854  0.49576  1.0000
  S   S139      1.0  0.53626  0.84408  0.34750  1.0000
  H   H1087     1.0  0.49680  0.85016  0.23098  1.0000
  H   H1088     1.0  0.51506  0.74217  0.10309  1.0000
  S   S140      1.0  0.54061  0.86287  0.45204  1.0000
  Fe  Fe69      1.0  0.54310  0.88085  0.38351  1.0000
  S   S141      1.0  0.57602  0.92127  0.36061  1.0000
  Fe  Fe70      1.0  0.52997  0.82505  0.41670  1.0000
  S   S142      1.0  0.54844  0.79937  0.43071  1.0000
  H   H1089     1.0  0.50027  0.90736  0.31111  1.0000
  H   H1090     1.0  0.49622  0.75824  0.15819  1.0000
  C   C623      1.0  0.54095  0.77199  0.46677  1.0000
  C   C624      1.0  0.55498  0.75876  0.46142  1.0000
  C   C625      1.0  0.50187  0.77644  0.13909  1.0000
  H   H1091     1.0  0.56988  0.76528  0.43563  1.0000
  H   H1092     1.0  0.62367  0.91934  0.35176  1.0000
  C   C626      1.0  0.57310  0.95995  0.41117  1.0000
  C   C627      1.0  0.58552  0.95408  0.37659  1.0000
  C   C628      1.0  0.60653  0.97494  0.35401  1.0000
  H   H1093     1.0  0.55695  0.94431  0.42903  1.0000
  H   H1094     1.0  0.61634  0.97082  0.32717  1.0000
  C   C629      1.0  0.61055  0.87347  0.47039  1.0000
  C   C630      1.0  0.51403  0.79668  0.21769  1.0000
  S   S143      1.0  0.50096  0.86947  0.38090  1.0000
  C   C631      1.0  0.65234  0.90738  0.43947  1.0000
  C   C632      1.0  0.69781  0.94490  0.42375  1.0000
  H   H1095     1.0  0.50713  0.76455  0.04294  1.0000
  Fe  Fe71      1.0  0.49813  0.84983  0.44760  1.0000
  H   H1096     1.0  0.61847  0.86754  0.38292  1.0000
  H   H1097     1.0  0.51316  0.81102  0.24077  1.0000
  H   H1098     1.0  0.65905  0.89595  0.41936  1.0000
  H   H1099     1.0  0.53473  0.80274  0.21175  1.0000
  H   H1100     1.0  0.58993  0.88333  0.30679  1.0000
  H   H1101     1.0  0.70449  0.94213  0.45741  1.0000
  H   H1102     1.0  0.61956  0.90124  0.27520  1.0000
  C   C633      1.0  0.61372  0.88310  0.38946  1.0000
  H   H1103     1.0  0.59402  0.94320  0.48454  1.0000
  H   H1104     1.0  0.51657  0.80634  0.06680  1.0000
  H   H1105     1.0  0.51338  0.70834  0.41577  1.0000
  H   H1106     1.0  0.49777  0.89388  0.25504  1.0000
  H   H1107     1.0  0.70153  0.93357  0.39783  1.0000
  H   H1108     1.0  0.59212  0.87347  0.38815  1.0000
  H   H1109     1.0  0.50478  0.67602  0.46381  1.0000
  H   H1110     1.0  0.63665  0.85726  0.46077  1.0000
  H   H1111     1.0  0.66355  0.94044  0.39164  1.0000
  C   C634      1.0  0.61568  0.85036  0.46512  1.0000
  H   H1112     1.0  0.58912  0.86509  0.47025  1.0000
  H   H1113     1.0  0.52267  0.78444  0.12990  1.0000
  H   H1114     1.0  0.64560  0.90701  0.34303  1.0000
  H   H1115     1.0  0.62824  0.96450  0.47379  1.0000
  C   C635      1.0  0.50054  0.79569  0.17302  1.0000
  H   H1116     1.0  0.70926  0.96585  0.41461  1.0000
  C   C636      1.0  0.54994  0.73711  0.48896  1.0000
  C   C637      1.0  0.61046  0.88802  0.30460  1.0000
  C   C638      1.0  0.61381  0.91409  0.44452  1.0000
  H   H1117     1.0  0.50415  0.77740  0.23476  1.0000
  H   H1118     1.0  0.59271  0.90477  0.43733  1.0000
  H   H1119     1.0  0.57188  0.99032  0.44977  1.0000
  H   H1120     1.0  0.62279  0.93084  0.42081  1.0000
  H   H1121     1.0  0.61108  0.86985  0.29870  1.0000
  C   C639      1.0  0.62497  0.90148  0.34801  1.0000
  H   H1122     1.0  0.66664  0.94919  0.45001  1.0000
  C   C640      1.0  0.66898  0.93644  0.42527  1.0000
  H   H1123     1.0  0.61710  0.88124  0.50515  1.0000
  H   H1124     1.0  0.60504  0.83823  0.43546  1.0000
  C   C641      1.0  0.61758  0.92484  0.49354  1.0000
  H   H1125     1.0  0.51618  0.98763  0.49229  1.0000
  N   N36       1.0  0.62321  0.89509  0.43568  1.0000
  H   H1126     1.0  0.56096  0.72730  0.48414  1.0000
  C   C642      1.0  0.58165  0.98618  0.42289  1.0000
  H   H1127     1.0  0.65805  0.90641  0.47511  1.0000
  H   H1128     1.0  0.51034  0.81572  0.15891  1.0000
  H   H1129     1.0  0.54006  0.67024  0.43520  1.0000
  H   H1130     1.0  0.60861  0.81538  0.50090  1.0000
  C   C643      1.0  0.49939  0.72728  0.37157  1.0000
  H   H1131     1.0  0.50945  0.72365  0.02512  1.0000
  C   C644      1.0  0.52178  0.76317  0.50049  1.0000
  H   H1132     1.0  0.50398  0.72035  0.33982  1.0000
  H   H1133     1.0  0.50192  0.92593  0.26166  1.0000
  H   H1134     1.0  0.49920  0.69903  0.06860  1.0000
  H   H1135     1.0  0.51597  0.74686  0.37952  1.0000
  H   H1136     1.0  0.51080  0.77301  0.50536  1.0000
  C   C645      1.0  0.53098  0.72848  0.52301  1.0000
  H   H1137     1.0  0.51613  0.82758  0.99428  1.0000
  H   H1138     1.0  0.58505  0.82519  0.51239  1.0000
  S   S144      1.0  0.52374  0.70130  0.55939  1.0000
  H   H1139     1.0  0.49723  0.66736  0.97083  1.0000
  H   H1140     1.0  0.51506  0.69343  0.73857  1.0000
  H   H1141     1.0  0.49686  0.66860  0.88719  1.0000
  H   H1142     1.0  0.63706  0.93035  0.50695  1.0000
  H   H1143     1.0  0.53245  0.99347  0.54608  1.0000
  C   C646      1.0  0.51699  0.74175  0.52845  1.0000
  H   H1144     1.0  0.78638  0.67951  0.62578  1.0000
  H   H1145     1.0  0.61709  0.84288  0.53737  1.0000
  H   H1146     1.0  0.67171  0.67195  0.64082  1.0000
  H   H1147     1.0  0.61652  0.95577  0.53116  1.0000
  H   H1148     1.0  0.60285  0.90977  0.51638  1.0000
  H   H1149     1.0  0.74596  0.67502  0.59476  1.0000
  H   H1150     1.0  0.50229  0.73540  0.55457  1.0000
  H   H1151     1.0  0.67016  0.67679  0.58037  1.0000
  C   C647      1.0  0.49985  0.67321  0.73042  1.0000
  C   C648      1.0  0.60604  0.83247  0.50661  1.0000
  Fe  Fe72      1.0  0.52805  0.66544  0.57720  1.0000
  H   H1152     1.0  0.49713  0.67153  0.69305  1.0000
