data_image0
_chemical_formula_structural       H2CFeS2H3CH2SHS2HSH3SFeSC2FeCHFeSCSHSHC2SHC2H8C10H15C6H3CH3C7H4C3H3NC3HCSH3CHC2HCH4FeC2H2C2HCH2CH5SCH7SH7CHFeHCHFeHCHCHFeCH6C2NCSH4CHCH2CS2HCHCFeCFeSC2HCHCNH2CH2CHCH14CH3CHC2S2C2HCH2C2H2SH2CSH2CFeH2SCH3CHCH2SHC2NH2SC2H4CH3CH3C2H3CHSCH2CH3CHCH5NHFeCSFeSFeHS2FeS2FeS2FeSFeS3C2FeSHFeSHCNSHSFeCH2SH2CHSC2HC3SCHCH4C3H3CHC6H4C6H4C6H4C3H3C6H4C2HCHNC11H26CHNCH6CHCHCH2CH4C2H6FeH3C2H4CH5CH3C2SHCHCHCHSHCH4CH2CH4CH2CH5CH13CH2CH4CH3CHCH5C2HSHCH4CHCH10CNCHC2H3CH4CH3SHC3H2FeHC3HC4HCH9CH4SNHC4HC5H9NCH9C2H7NC6HC4H5SHCH6CSH3CH5CHSCHC3H3CHFeSFeSFeS2HCFeS2FeSFeHCHFeS2FeS2FeSFeS3HSCFeS2FeSFeS3H2FeSCHS2HCH10CH2C7H4C6H4CH4C6H4C6HSH3C2H3C2HCH2C2H5CHNC7H17CSH2NC11H27C2HC3SCH5CH3NC12H18CH9SHCHCH3CH2CH3CH6CH6NH2FeH2NC2HC3HCNC2SH2FeHSHCH5C2H11NHCHCHSCNC8HFeC2H8S2H4C2HC2HCHC2H2CH5C3HCHCHCHSCH7CHC2SCSH6C2HCFeHNC3H3C3H2CH5CH3CHCH4CH4C3H5CH2CH3CHFeH4CH2CH6C3HC2H4CH2FeSHCHFeHFeS2FeH2S2FeHSFeCSHSHS2FeS2FeS2FeSFeHS2FeS2FeS2FeSFeS3C3H2C6H4C2H3C6H4CHSH2CH3C6H5C2H6SHC6H4CH4CH2CH2CNC6HCHC2H3FeCH7CH4CH7NHC4SHCHCHCH3CH13CH4CH2SH2SNC12H28NC8SC3H16C2H10FeCH2CNH3CH2CH3CHCHNH4CH2SH5CH2C5HNH2NC10HCH10C2H12CHFeHCHCHC3HCHSHC4H3C2H2C5H3C2H4C2H3NC4H2C3H2CH7CHCH5C2HCH3CH4C2HNH5CHCHCHCH4CHCHC2HC2H3CH3FeH5C2H4C4H3CSCHCHCH2FeS2C3H2CFe2S2HFeCSFeS2FeHS3FeS2FeS2FeSFeS3C3HC2HCHC6H4C8H3C2NCH2C6H4NCSC2HFeCH2C6H2CH4NH3CH2CH3CSHCH2C2HNHNHCH2CH6CH5C2H3CH6CH2SH5FeHSCH2C2SH6CH4SH2CHCH5CHC2H5CH2CNC12H32CH3CH2CH2CH3CHCH12CSH3CSCH2C3H9CHCHSCH2SC2H5C2HCHSCH4CHCHSH2CH2C2H2CH4CHCHC2H3CH2NH2CHSH3CFeCHCH4CHCSCHC2HCHCFe2CS2HSFeSHFeSFeS3CSCFeSFeSFeS2FeS2FeSFeHS2FeS2FeS2FeSFeS3FeS2FeSHFeSFeS3C6H5CH3SH4C2HC2HC2H2SH4C2HCH2C2HC9H4C6H4CH4CHC7H5C2HNHNC12H31C2H5CHFeH3FeH7C2H2CHSHC2HNC12H30CHC2H3CHCH6SCH2C3H2NC3HC2HCH3C3NC5HC3HSCH19CHC2H2CHCHC3HCH2CHC2H2CH4SHNH6CH5CH4SCHCH3CHC2HCH3CH2CH4CH2SH4NC8HCHC2H5C2H6FeHCH3C2HNH5C2HC2HCH3CH3C2H2C2H4CH4CHC2H3C2H9C2HCH4CHFeH2FeCH3C3H4C2H2CH5C4H2CSHS2FeSHCSH2SH3FeSHSHC3SH2CFeCSH6SCS2CHFeCHCSH2C2H3CSHNHCSH4CH2FeH2CH4C2HSNSHCH2CHC3H5C7H4C6H5CH2CSH2C7H4SH2CH5SNC9HC2H16CH3CHSH5NC12H16FeHCH5CH4C3HCFeHC4HCHSHCSH2S2HCH2CH4CHCH2CH2C3H3CH4CHCH4SFeCSHC2SH4CH3CFeCNC2HCFeCHC3H4CH2CH4C2H4C2HC3H3CHCNCH9C3HFeH4SHNHFeH2C2H5CFeCH2CHFeCHC3HC2HNHCHFeHCHC2H8FeCH3CH2CHNC2SCH6CHCHC2HCHC2H3CH4FeCH3CFeSHSFeS2FeS2FeSFeS3H2SFeNSHCS2H2SCSCHCHC8H2C3HC6H4C6H4C6H5C2HC6H5CHCHCH7C2HNHCH6CH2CH6SH9C4H11NCHC2HC2H2C2H2CH3CH5SH3SH8CHCH9CH6S2C2H2CH2CH7NCH2CHCH3CHCHCH2CH3FeH2FeH3CH6C2HC3H6C2H2CH2CHNC9H20SH2CH6CHFeCH3NC10H2NHCH8CFeH2CSH2CHC2H3Fe2H3CFeS2FeSHFeSFeS2CFeS2FeS2FeSFeS3CFeSHCH5FeS2CFeSFeHS2H2SFeSHC2H2CH2C2H4C3H2FeHCHC7H4C6H4C6H4SCHFeCHCH3CH3CSH3C6H4CFeH6C2HC2H5C2H2SCH6C2H2CH3CH7CH2CH5CH3C2NC5HC3HC2H9CSCH9CHCSH3NC10H19CH2C3SC2H2CHCH3CSH2C3H3C3H6CH7C3H2NHCH11SH3C2H4CHC2H4CHCHFeH2CH6S2H3CH4NH2CH3C2H3SCH4FeN2HSH2SHCHCH2NC11H4CHCH5CHCH2CHCHCH2CH2CH2CH2CH3CH3SHFeS2HCSH2FeCS3FeSH3SHFeS2FeSCFeSFeS3FeS2FeS2FeSFeS4FeS2FeSFeSHSC7H5C2H2C2H4C6H5C2H6CHCHC6H4C3H2C4H2C6H5CH3NH2CSHCHCH3FeSH3C2H5CHFeC2HC2H6NH2CH2C2H2NC12H27CHCHC2H2CH2CH3C2H2CHCH2C2FeHNC7H2CH4C2H6CH12NC4SC4HC2H8C2H10CH7CNHC3HC3HCH4C2H11CH2CH3FeH2C2HCHCHSH2CH2SH4CNHC4H3CHCH7C2H7NC6H12CHCH5CH2C2HCH2C2FeH2SHCSH3CHCHC2H4CHC2HCSHFeH3CH2CH3NHCH3CH5CH3CH3CH2CH2SH2CHC2H2CHCHFeSHFeSHFeSFeSHSFeS2FeS2FeSFeS3HCH2CH4CH2C2H2CNH2C6H4C6H5C7H6CSHCFeH5CH2CHC2HCHC2H6CSH3CHSHC4H8CHCHCH2C2H4CHC2H2C3HCH2SCNH3CH3CHCHSH2CH2FeC3H4CHCHC2HCH2NCH4CHCH3SH9CHCH5CH2CH3CH3C2H3NCH7CH2CHC2H2CH4CH4CH5C3H8CHCH5CHC3HNHC2H2SNHC2H4CH4CH3NCHC2H2SHNH2CHCFeC3H2SH6CHC2HFeNSH2CFeSHSCH2FeSH3Fe2S2FeS2FeSFeS3FeS2FeS2FeSFeS3FeS2FeS2FeHFeCS2H4C2HCH2CHCH3C2H4CHC6H4C2H2C6H4CH2C7H4CSH3C6H5CH6CH9CHNC11H24NCHC5HC2H2CHCH10CH2CHCH10CH2C2H5CH2CH4CHCH4CHCH4CHCHCH5CH5C4HCNC6H9CH6CHCHSH6C2HCH2CHSH2SCH3SC2H4CH3CH6SHCH7SH3C2HSH2CHCNC2H3C2H2CH2C4H6C5NSHCH4CH4C2HCH2FeH3CH2CHCHCHC2HC3HCH2CHNC8HC2H14CH2CH3CNFeCH3CHNH2CH2CH2SHCH2C4H2CH2C2H2FeHSHSHCSCHFeSCSH3FeSCNHFeS2FeS2FeSFeS3FeS2FeS2FeSFeS3FeCSFe2SCH2S2HCNC2HCH2CH3C2H2CHC4HC7H4C6H4C6H5CHCH2CHC6H4CH3CHC2HFeH2CH4CH2CH3CHCSCH3C2HCH4C2H2CHCH2CH4C2H4N2H6CH5SC2H9CH7C5HCHCHC3HCH3CHCH2C3H2CH10C2HCSH2CH7CHCNC12H21CH10SH3CH3CH2C2HCH3CH3CHSHCH3C2H2FeHCH2CHNC12H24CH2CHC2H2CH5SNHCH2NHCH2SH2SHCH7CH4CH4SH2SHCH4CH4CHCH2CHC2H3C2H2FeHCNSCHFeSHC2FeSHFeSHFeSFeS3HFeS2FeS2FeSFeS3C2H2C10H6C2H2C7H4CHC3HCH6SH3C7H7CH2CNCHCH4CFeH2C3H2SH2CH3CH4CHCHCHCH4CH2CHSNCH3CHCHCH6CHCH11C2H3NHCH4CHC2H6CH2CHCH4CH2CHC3H5CHC2H4FeCHC5H2CNCHC5H3C2HCH15C2H5NCH5C2H4CH2C2HC4HCH6C2SH3CH5CH2CH2CH3FeH2CHC2SHCH7C2H2NC3HNCHCH2NH4C2H3C3H2CH8CHCH2CH4C2HCHCFeHS2C2S2FeSFeCHSFeSHCFeS2FeS2FeSFeS3FeSHFeS2FeSFeS3FeS2FeS2FeSFeS2HNC2SHC2H2C6H4C6H4C3H4C2H2C5SHFeC6H4CFeCHC2H4NH2C6H10CHC2H2SCHNC11H25C4H11C4HC2HNC12H26CHC2H5C2H4C2S2H3SH3CH3CH5C3H3CHCHNCH6CH6CNH2CHSHSH4CH3SH4FeC2H2CSCNC12H28NC12H31CHCH4CH4CH2CH4CSHCH2CHCHCH6C2H4CH5CH7SHCH2CHC2H4CHC5HC2H4CH6CH7CSCH2CH3FeC3H3CNH3C2HCHFeC3H2CHCHCH2CFeSHFeHSCHFe2SCHFeSCSFeS2FeS2FeSFeS3FeS2HS2FeSFeSHSHS2FeHC2H4C3H4CH2C2NH2C7H2C6H4CHC6H6C6H8CHFeH6C6H2SH2NHCHSH6C2H3C3H3C2HCHCH2C2H2CH3CNCHCFeH3CSH7FeCH6CSH3NC12H28NC4HC2H2CH15CH3SH4C2H4C3H4C5HNH2C2HCH5C3H4CHC3H4CNC4H2C3H2CH8CH11C2HCH4NC6HC4H6CH6SH12CH4CH4C4HCH7CH2CH4C2H5FeHCHCHCHCHCH3S2CH7C3HSC3H4FeHCHCHC2H2NH3SFeHCH2C2H2SCH4FeCSH4SHFeS2FeS2FeSFeS3HSH2CHFeS2H4FeS2FeCFeS2H2SH5CHFeNH2C6H4C6H6C4HCHC7H5NC8H4CHCHC2H3NC10H18CH4CH4CFeH4CH5C2H5SHC2HCH2CH2CH2C2HSHCHCHSH2SCH4C2SCHC3H7FeH2SHSH9CH3CH2CHCHNC3HC2NC2H2CH3CHC3H5C2HCH2CH2CH9C2H3CH2C2H2C2H4CH2CFeH2FeH3CH9CHCH2SCFeSHNH2CSH3FeSH2FeSH2CHSH2SHS3H3S2HCFeS3H4FeSHCSHCH7SH5SC2HC6H4CH2C6HC7H5CH5SFeH3C3H4C8H6FeH4C2HCHC2H3CH2CNHCHSH5CFeNHCHC4H4CFeH2C3HC2SC2NH2CH4CH3C2HCH2FeSH9C2FeH3CHSHC2H3CNC12H34CH3CH6CHC2HC2H2CHNCHNC11H18FeHCH5SH3C4HCHCH3C2HCSH3C2HSCSCHC2HSCH2CH2CSHCHSCHNH6CFeC2HCH3CH2CHS2FeSH3SCHCFeSHFeS2FeSH2S2FeS2FeCSFeHS2FeS2FeS2FeSFeS3FeS2FeS2FeSFeS3HC2FeH2C6H5C2H7C2H6CH4C5HC7H4C6H6C2HC2HC8H5C3H2CH2C3H2CHCH2C4HCHC2HSH4CNC12H23SCH3CHNH4C2HCHC3H4NC12H28C2H3CH4NH3CH3C2H3C2H3C2H2FeSNHCH6SH4C3H2CH2C2SHC2HC2H8C3HCH9CH6C2HC2H8CH2CH4NH3FeH6C2H2CH2CHC3H3CHC2H5CHCHCHFeH2CH4NCHCHCHCHCH2C3HCH2CHNCHCNFeH5CHCH2CHCH3SH6CHC2H5CH2CH4NCH2FeHC2H2CHCH2CH2CHCHCH3SH2C2SH3CH3CH3C2HCH2S2FeSH3CFeSH2FeS2FeS2FeSFeS3HCFeS2FeHSFeHFeS2H2C6H4C6H7CHCHC3HCH4CH3C6H5FeSH2CHCH5CH3FeH4CH2CH6C2HC4HCH4C4H4SCH3NSHSH2NC5HCH2NHC2H21C2H4NC12H32CHCH3C2H5SHFeHCHCH2SC3SCHCHCH6SH4CH3CH2C2H2CNC12H7CH9C2HC2H2C2HCSH2C2H3C2HCH2SC2H2CHCHSHCNCH10CH4CH4CHCNHCH3CH2C2H2CHC2H2SH2CH3CHCHFeSFeHSHCS2HSH2FeSHS2CHFeS2FeS2FeHFeCS2FeS2FeS2FeSFeS3FeS2FeSHFe2S3H3CH2CH2C6H4C6H4C2H6NHCSCH2CH3C8H5FeSHCHC2H2C6H4CH2C3H2C3H8CH2C2HNHC3HC2HC2H4CH2CH8C2HNC12H30NC10NC3H9CH5SH4CH8FeH3CHCH3SHC2H4NHCH3CH4NH4CH2CNC12H28C2H2CH2C5H3CH3CH2CH2CHSC2HCH2CH5CHC2H2SC2HCHCH2C3HCH4C3H3CH8C2HSHFeCH2C2HCH7CH2C2H6SCHC5FeSFeSCFeSFeS2C2FeSHCHSCSCH3CS2FeS2FeSCFeSFeS3FeS2FeS2FeSFeS2HCHC8H5CH2C6H11CHC2FeH2C2H3CHCHC2H3C6H4C5H3C4H3CNC2HC2H2C3H5SH5CNHCH8CH2CH4FeCHNC12H28NC4H2C2H2CH6CHC2H4SFeNH5NC6HC4H13C2H11CHCNC12H19CH7CFeH4SHCSCSHCHFeSHCHC2H2SH2CH4SHC2H4SH5CH3CH9CH4SCH4CHCH2SHC6H3CH2SHFeH3CH2CHCH2C3HCH2CSH2CH2C2HCH2NHNC2H2CH3CH5C2H2CH3C3H2C3HCH7C2HCH2CH3S2CFeH2CH2SH3S2CFeC2H2SFeS2CFeSFeSFeS2FeS2FeSFeS3FeSH2CSFeS2CH3SHCHCH6CHC6H4C3H3C6H4C6H4CH2NHC8H7C2H3C2H2C2H3SHC2HCHCHSC2H6C3HCH2CHCH2CHC2H2C2H3CNC12H25CHSCHFeHCH3CH7CH2SHFeHCH4SHC2H11CH3SH2SH6C3HNH8CH3CH2CH2C2HC2H3CH2C2H3C2HCH2CHCH2NC12H28C4H9CSNFeSC2SHNH4C2H3CHCHC2HCH3CHCNFeCHFeH7FeHSHSHSH4SNSHC3H5CFeSHCHSH2C3H7NH5CHCHC2S2H2CHC7H6SH4C6H4FeH2CH2CHC2NSH2NC6H4CH9CHCH3C2HSHCH2C3H3CHFeCH2CH5CH4FeH2NHC4HC4NH8FeCH6CHCH5CHNC12H15CHCH7CH2C2SCHCHCH2CHC2SC3HCHSH12CH2CHCSH4CH4C2HSC2HCH2CHCNH4CH3C2H3C2SHC3H2CFeSHCHCH4C2FeH2C2H5CSHSCHCH4CH3C3H11C2H2CH4SH8C3H6CH4C
_chemical_formula_sum              "H6144 C3456 Fe384 S768 N192"
_cell_length_a       73.4582
_cell_length_b       73.6211
_cell_length_c       73.7882
_cell_angle_alpha    78.0236
_cell_angle_beta     78.0504
_cell_angle_gamma    78.0291

_space_group_name_H-M_alt    "P 1"
_space_group_IT_number       1

loop_
  _space_group_symop_operation_xyz
  'x, y, z'

loop_
  _atom_site_type_symbol
  _atom_site_label
  _atom_site_symmetry_multiplicity
  _atom_site_fract_x
  _atom_site_fract_y
  _atom_site_fract_z
  _atom_site_occupancy
  H   H1        1.0  0.00568  0.00338  0.22868  1.0000
  H   H2        1.0  0.20722  0.20776  0.97584  1.0000
  C   C1        1.0  0.99866  0.19054  0.20424  1.0000
  Fe  Fe1       1.0  0.07784  0.45091  0.23979  1.0000
  S   S1        1.0  0.06021  0.42704  0.24798  1.0000
  S   S2        1.0  0.10886  0.44117  0.23998  1.0000
  H   H3        1.0  0.16527  0.19379  0.00879  1.0000
  H   H4        1.0  0.15758  0.43138  0.23154  1.0000
  H   H5        1.0  0.06816  0.22655  0.02715  1.0000
  C   C2        1.0  0.99832  0.23327  0.20102  1.0000
  H   H6        1.0  0.19032  0.19307  0.00584  1.0000
  H   H7        1.0  0.09674  0.44335  0.18975  1.0000
  S   S3        1.0  0.00507  0.39285  0.21183  1.0000
  H   H8        1.0  0.12264  0.03059  0.25887  1.0000
  S   S4        1.0  0.00485  0.29938  0.25693  1.0000
  S   S5        1.0  0.00380  0.33878  0.21208  1.0000
  H   H9        1.0  0.12543  0.01617  0.22222  1.0000
  S   S6        1.0  0.01061  0.06187  0.21945  1.0000
  H   H10       1.0  0.18313  0.26083  0.97165  1.0000
  H   H11       1.0  0.06632  0.01304  0.29477  1.0000
  H   H12       1.0  0.15780  0.31908  0.96771  1.0000
  S   S7        1.0  0.99711  0.25615  0.06435  1.0000
  Fe  Fe2       1.0  0.21272  0.35556  0.98875  1.0000
  S   S8        1.0  0.20395  0.37071  0.01451  1.0000
  C   C3        1.0  0.07178  0.02492  0.28471  1.0000
  C   C4        1.0  0.15443  0.26732  0.96631  1.0000
  Fe  Fe3       1.0  0.07584  0.22592  0.97731  1.0000
  C   C5        1.0  0.01084  0.17128  0.20232  1.0000
  H   H13       1.0  0.21170  0.47041  0.19581  1.0000
  Fe  Fe4       1.0  0.20611  0.32222  0.97181  1.0000
  S   S9        1.0  0.09951  0.23123  0.98947  1.0000
  C   C6        1.0  0.17120  0.27184  0.96938  1.0000
  S   S10       1.0  0.13512  0.18379  0.99341  1.0000
  H   H14       1.0  0.12044  0.41734  0.19923  1.0000
  S   S11       1.0  0.04715  0.22036  0.99453  1.0000
  H   H15       1.0  0.09758  0.17651  0.03353  1.0000
  C   C7        1.0  0.01843  0.25298  0.14095  1.0000
  C   C8        1.0  0.09226  0.40315  0.17448  1.0000
  S   S12       1.0  0.09280  0.19990  0.96646  1.0000
  H   H16       1.0  0.08780  0.20668  0.07188  1.0000
  C   C9        1.0  0.11735  0.42263  0.16356  1.0000
  C   C10       1.0  0.17388  0.45496  0.14399  1.0000
  H   H17       1.0  0.15539  0.43330  0.25586  1.0000
  H   H18       1.0  0.18993  0.22832  0.97289  1.0000
  H   H19       1.0  0.04352  0.04142  0.28662  1.0000
  H   H20       1.0  0.00044  0.15232  0.15999  1.0000
  H   H21       1.0  0.13378  0.11372  0.97170  1.0000
  H   H22       1.0  0.07137  0.02258  0.27049  1.0000
  H   H23       1.0  0.10400  0.03053  0.21560  1.0000
  H   H24       1.0  0.07791  0.43891  0.15771  1.0000
  C   C11       1.0  0.12972  0.12914  0.96704  1.0000
  C   C12       1.0  0.08359  0.25545  0.03227  1.0000
  C   C13       1.0  0.99855  0.26176  0.21550  1.0000
  C   C14       1.0  0.15657  0.97486  0.17510  1.0000
  C   C15       1.0  0.01058  0.24613  0.04482  1.0000
  C   C16       1.0  0.00825  0.22883  0.04143  1.0000
  C   C17       1.0  0.01945  0.22125  0.02588  1.0000
  C   C18       1.0  0.03326  0.23075  0.01370  1.0000
  C   C19       1.0  0.03556  0.24807  0.01707  1.0000
  C   C20       1.0  0.02424  0.25572  0.03252  1.0000
  H   H25       1.0  0.99795  0.22125  0.05089  1.0000
  H   H26       1.0  0.01756  0.20785  0.02337  1.0000
  H   H27       1.0  0.04596  0.25564  0.00770  1.0000
  H   H28       1.0  0.02612  0.26915  0.03499  1.0000
  H   H29       1.0  0.07677  0.15835  0.02448  1.0000
  H   H30       1.0  0.05729  0.46963  0.16101  1.0000
  H   H31       1.0  0.11720  0.15344  0.98060  1.0000
  H   H32       1.0  0.03292  0.25637  0.13669  1.0000
  H   H33       1.0  0.02854  0.97696  0.24124  1.0000
  H   H34       1.0  0.14970  0.97928  0.18831  1.0000
  H   H35       1.0  0.07202  0.18113  0.08920  1.0000
  H   H36       1.0  0.07000  0.17832  0.00670  1.0000
  H   H37       1.0  0.09573  0.01103  0.24601  1.0000
  H   H38       1.0  0.01055  0.26475  0.28280  1.0000
  H   H39       1.0  0.99334  0.22923  0.15650  1.0000
  C   C21       1.0  0.04807  0.00838  0.24539  1.0000
  C   C22       1.0  0.05002  0.01410  0.22590  1.0000
  C   C23       1.0  0.03850  0.03055  0.21823  1.0000
  C   C24       1.0  0.02502  0.04152  0.22991  1.0000
  C   C25       1.0  0.02323  0.03591  0.24942  1.0000
  C   C26       1.0  0.03465  0.01939  0.25710  1.0000
  H   H40       1.0  0.06026  0.00577  0.21673  1.0000
  H   H41       1.0  0.04006  0.03479  0.20312  1.0000
  H   H42       1.0  0.01304  0.04428  0.25859  1.0000
  C   C27       1.0  0.22915  0.03436  0.03705  1.0000
  H   H43       1.0  0.98201  0.00150  0.28065  1.0000
  H   H44       1.0  0.98376  0.02988  0.25406  1.0000
  H   H45       1.0  0.11939  0.40256  0.23250  1.0000
  C   C28       1.0  0.12343  0.00817  0.29221  1.0000
  C   C29       1.0  0.04519  0.41770  0.23737  1.0000
  C   C30       1.0  0.03884  0.42691  0.22066  1.0000
  C   C31       1.0  0.02671  0.41904  0.21304  1.0000
  C   C32       1.0  0.02064  0.40192  0.22203  1.0000
  C   C33       1.0  0.02709  0.39268  0.23869  1.0000
  C   C34       1.0  0.03925  0.40053  0.24628  1.0000
  H   H46       1.0  0.04297  0.44026  0.21386  1.0000
  H   H47       1.0  0.02178  0.42639  0.20020  1.0000
  H   H48       1.0  0.02261  0.37953  0.24581  1.0000
  H   H49       1.0  0.04398  0.39329  0.25925  1.0000
  C   C35       1.0  0.13927  0.46706  0.28615  1.0000
  C   C36       1.0  0.20424  0.39346  0.04007  1.0000
  C   C37       1.0  0.21200  0.40521  0.04832  1.0000
  H   H50       1.0  0.01405  0.26087  0.21090  1.0000
  H   H51       1.0  0.19085  0.38928  0.04682  1.0000
  H   H52       1.0  0.20456  0.40989  0.06125  1.0000
  N   N1        1.0  0.10803  0.01129  0.28052  1.0000
  C   C38       1.0  0.17705  0.20132  0.00135  1.0000
  C   C39       1.0  0.16502  0.44851  0.16234  1.0000
  C   C40       1.0  0.07698  0.22198  0.03840  1.0000
  H   H53       1.0  0.09905  0.15661  0.09622  1.0000
  C   C41       1.0  0.17834  0.20325  0.98010  1.0000
  S   S13       1.0  0.98493  0.18054  0.13121  1.0000
  H   H54       1.0  0.15138  0.42621  0.13956  1.0000
  H   H55       1.0  0.12881  0.39399  0.15722  1.0000
  H   H56       1.0  0.00478  0.00240  0.25336  1.0000
  C   C42       1.0  0.16450  0.15478  0.98686  1.0000
  H   H57       1.0  0.18653  0.44656  0.13757  1.0000
  C   C43       1.0  0.11069  0.39259  0.23077  1.0000
  C   C44       1.0  0.09196  0.02610  0.28745  1.0000
  H   H58       1.0  0.06556  0.38630  0.16495  1.0000
  C   C45       1.0  0.00130  0.99543  0.24290  1.0000
  H   H59       1.0  0.12203  0.39471  0.19335  1.0000
  H   H60       1.0  0.15822  0.40206  0.13609  1.0000
  H   H61       1.0  0.98769  0.03200  0.28647  1.0000
  H   H62       1.0  0.10004  0.38848  0.17763  1.0000
  Fe  Fe5       1.0  0.11673  0.20665  0.97670  1.0000
  C   C46       1.0  0.10145  0.16954  0.08586  1.0000
  C   C47       1.0  0.99613  0.23651  0.16718  1.0000
  H   H63       1.0  0.19385  0.45661  0.17893  1.0000
  H   H64       1.0  0.08280  0.26797  0.03878  1.0000
  C   C48       1.0  0.03887  0.19664  0.07200  1.0000
  C   C49       1.0  0.11659  0.01764  0.26031  1.0000
  H   H65       1.0  0.99964  0.23622  0.99306  1.0000
  C   C50       1.0  0.01650  0.24080  0.16051  1.0000
  H   H66       1.0  0.11391  0.98247  0.27558  1.0000
  H   H67       1.0  0.09098  0.45647  0.15912  1.0000
  C   C51       1.0  0.18375  0.97298  0.14978  1.0000
  H   H68       1.0  0.10099  0.38932  0.24427  1.0000
  H   H69       1.0  0.01851  0.20535  0.18393  1.0000
  H   H70       1.0  0.22453  0.43646  0.28841  1.0000
  H   H71       1.0  0.04376  0.22316  0.05599  1.0000
  H   H72       1.0  0.00559  0.09917  0.17712  1.0000
  S   S14       1.0  0.13856  0.45045  0.19418  1.0000
  C   C52       1.0  0.99373  0.29254  0.28014  1.0000
  H   H73       1.0  0.00086  0.19974  0.17404  1.0000
  H   H74       1.0  0.01299  0.19335  0.09197  1.0000
  H   H75       1.0  0.12859  0.00663  0.25559  1.0000
  H   H76       1.0  0.01490  0.21743  0.08169  1.0000
  H   H77       1.0  0.06854  0.40298  0.19890  1.0000
  H   H78       1.0  0.02603  0.17198  0.20098  1.0000
  H   H79       1.0  0.02865  0.20497  0.09956  1.0000
  S   S15       1.0  0.12191  0.45542  0.28267  1.0000
  H   H80       1.0  0.02034  0.24864  0.17006  1.0000
  H   H81       1.0  0.00156  0.19480  0.21677  1.0000
  H   H82       1.0  0.02689  0.22758  0.15974  1.0000
  H   H83       1.0  0.03229  0.19448  0.06050  1.0000
  H   H84       1.0  0.98369  0.18863  0.20695  1.0000
  H   H85       1.0  0.09170  0.39007  0.21362  1.0000
  H   H86       1.0  0.09497  0.04043  0.28073  1.0000
  C   C53       1.0  0.07637  0.23960  0.04720  1.0000
  H   H87       1.0  0.98865  0.25679  0.97881  1.0000
  Fe  Fe6       1.0  0.99000  0.32583  0.24066  1.0000
  H   H88       1.0  0.00195  0.08673  0.15988  1.0000
  C   C54       1.0  0.99911  0.27421  0.28958  1.0000
  H   H89       1.0  0.99412  0.22546  0.21539  1.0000
  Fe  Fe7       1.0  0.20717  0.46848  0.09914  1.0000
  H   H90       1.0  0.09104  0.19611  0.01558  1.0000
  C   C55       1.0  0.08593  0.18430  0.02601  1.0000
  H   H91       1.0  0.19465  0.44985  0.21799  1.0000
  C   C56       1.0  0.05239  0.21121  0.06407  1.0000
  H   H92       1.0  0.09412  0.16633  0.00492  1.0000
  Fe  Fe8       1.0  0.99053  0.36670  0.22115  1.0000
  C   C57       1.0  0.02292  0.20358  0.08721  1.0000
  H   H93       1.0  0.18041  0.18898  0.97678  1.0000
  H   H94       1.0  0.11352  0.16563  0.07472  1.0000
  H   H95       1.0  0.09852  0.25095  0.02589  1.0000
  H   H96       1.0  0.00365  0.22704  0.28480  1.0000
  H   H97       1.0  0.15348  0.46450  0.23597  1.0000
  H   H98       1.0  0.09174  0.21843  0.03099  1.0000
  C   C58       1.0  0.19448  0.21394  0.96923  1.0000
  C   C59       1.0  0.16760  0.45565  0.23619  1.0000
  N   N2        1.0  0.07091  0.20488  0.05176  1.0000
  C   C60       1.0  0.99002  0.25436  0.20184  1.0000
  S   S16       1.0  0.19445  0.29513  0.97334  1.0000
  H   H99       1.0  0.12236  0.03819  0.29332  1.0000
  H   H100      1.0  0.05111  0.45170  0.18068  1.0000
  H   H101      1.0  0.21994  0.17019  0.98850  1.0000
  H   H102      1.0  0.05500  0.21685  0.07602  1.0000
  C   C61       1.0  0.14864  0.45927  0.17092  1.0000
  H   H103      1.0  0.09067  0.99373  0.27405  1.0000
  C   C62       1.0  0.10208  0.99249  0.28219  1.0000
  H   H104      1.0  0.08532  0.23625  0.05824  1.0000
  H   H105      1.0  0.20566  0.46408  0.23710  1.0000
  C   C63       1.0  0.06828  0.19144  0.03996  1.0000
  S   S17       1.0  0.22399  0.32425  0.99266  1.0000
  S   S18       1.0  0.19278  0.35292  0.96991  1.0000
  H   H106      1.0  0.07733  0.43152  0.19594  1.0000
  C   C64       1.0  0.11193  0.40763  0.19644  1.0000
  H   H107      1.0  0.07481  0.25965  0.02100  1.0000
  C   C65       1.0  0.08362  0.17807  0.07737  1.0000
  Fe  Fe9       1.0  0.98723  0.08146  0.23509  1.0000
  C   C66       1.0  0.09911  0.40119  0.21512  1.0000
  Fe  Fe10      1.0  0.11395  0.46342  0.21454  1.0000
  S   S19       1.0  0.98423  0.23371  0.11757  1.0000
  C   C67       1.0  0.19498  0.47177  0.17491  1.0000
  C   C68       1.0  0.17271  0.29054  0.96964  1.0000
  H   H108      1.0  0.21116  0.97551  0.19376  1.0000
  C   C69       1.0  0.07112  0.40325  0.18356  1.0000
  H   H109      1.0  0.08053  0.16725  0.07057  1.0000
  C   C70       1.0  0.15704  0.30470  0.96715  1.0000
  N   N3        1.0  0.10223  0.41682  0.17984  1.0000
  H   H110      1.0  0.10511  0.17968  0.09322  1.0000
  H   H111      1.0  0.17100  0.43515  0.16996  1.0000
  C   C71       1.0  0.13399  0.40683  0.15816  1.0000
  H   H112      1.0  0.22521  0.04631  0.08507  1.0000
  H   H113      1.0  0.98622  0.13888  0.19244  1.0000
  C   C72       1.0  0.06397  0.38636  0.18023  1.0000
  H   H114      1.0  0.17423  0.21544  0.00552  1.0000
  C   C73       1.0  0.14595  0.41329  0.13923  1.0000
  H   H115      1.0  0.11111  0.42875  0.15064  1.0000
  H   H116      1.0  0.09256  0.40579  0.15900  1.0000
  H   H117      1.0  0.06214  0.41614  0.17737  1.0000
  H   H118      1.0  0.00820  0.26644  0.14096  1.0000
  H   H119      1.0  0.07179  0.37297  0.18707  1.0000
  H   H120      1.0  0.04874  0.38717  0.18648  1.0000
  H   H121      1.0  0.16422  0.15194  0.00190  1.0000
  H   H122      1.0  0.17833  0.42551  0.24275  1.0000
  H   H123      1.0  0.00701  0.24128  0.26159  1.0000
  H   H124      1.0  0.01591  0.24539  0.13043  1.0000
  H   H125      1.0  0.17483  0.45287  0.20694  1.0000
  H   H126      1.0  0.13751  0.41626  0.12775  1.0000
  H   H127      1.0  0.12012  0.37934  0.22760  1.0000
  H   H128      1.0  0.12361  0.43406  0.16653  1.0000
  C   C74       1.0  0.16463  0.43517  0.24186  1.0000
  H   H129      1.0  0.03301  0.01506  0.27219  1.0000
  H   H130      1.0  0.06329  0.17872  0.04878  1.0000
  H   H131      1.0  0.99279  0.26347  0.18793  1.0000
  C   C75       1.0  0.08626  0.19648  0.06334  1.0000
  H   H132      1.0  0.20861  0.46785  0.14662  1.0000
  C   C76       1.0  0.15162  0.16967  0.97899  1.0000
  C   C77       1.0  0.18064  0.45889  0.21675  1.0000
  S   S20       1.0  0.11301  0.97965  0.22598  1.0000
  S   S21       1.0  0.22147  0.43818  0.10422  1.0000
  C   C78       1.0  0.12058  0.13786  0.98450  1.0000
  C   C79       1.0  0.16625  0.47212  0.13390  1.0000
  H   H133      1.0  0.04618  0.18274  0.07812  1.0000
  C   C80       1.0  0.11384  0.02785  0.22583  1.0000
  H   H134      1.0  0.06175  0.24526  0.05352  1.0000
  H   H135      1.0  0.09244  0.03543  0.24857  1.0000
  C   C81       1.0  0.98576  0.15716  0.16539  1.0000
  C   C82       1.0  0.08069  0.44737  0.16733  1.0000
  H   H136      1.0  0.18703  0.13143  0.98151  1.0000
  H   H137      1.0  0.22612  0.44832  0.26437  1.0000
  S   S22       1.0  0.20626  0.97847  0.13972  1.0000
  H   H138      1.0  0.99222  0.27680  0.21587  1.0000
  H   H139      1.0  0.01400  0.23142  0.19893  1.0000
  C   C83       1.0  0.21374  0.38685  0.02339  1.0000
  S   S23       1.0  0.07632  0.47160  0.25899  1.0000
  H   H140      1.0  0.11993  0.04077  0.22446  1.0000
  H   H141      1.0  0.00687  0.16080  0.21499  1.0000
  C   C84       1.0  0.10308  0.02279  0.24577  1.0000
  Fe  Fe11      1.0  0.10777  0.46339  0.25690  1.0000
  H   H142      1.0  0.06423  0.46909  0.18313  1.0000
  H   H143      1.0  0.10023  0.19397  0.05403  1.0000
  S   S24       1.0  0.08283  0.47218  0.21326  1.0000
  C   C85       1.0  0.08910  0.43462  0.18430  1.0000
  H   H144      1.0  0.08873  0.41321  0.21978  1.0000
  H   H145      1.0  0.14349  0.40314  0.16879  1.0000
  H   H146      1.0  0.19262  0.97465  0.06187  1.0000
  C   C86       1.0  0.08132  0.17098  0.01491  1.0000
  H   H147      1.0  0.06206  0.05518  0.27765  1.0000
  C   C87       1.0  0.17751  0.14328  0.97535  1.0000
  H   H148      1.0  0.21828  0.99493  0.16695  1.0000
  H   H149      1.0  0.05688  0.19827  0.03163  1.0000
  S   S25       1.0  0.06154  0.98732  0.25580  1.0000
  H   H150      1.0  0.00986  0.21596  0.26428  1.0000
  C   C88       1.0  0.00156  0.22856  0.27002  1.0000
  C   C89       1.0  0.13300  0.02533  0.29136  1.0000
  N   N4        1.0  0.99220  0.22502  0.18660  1.0000
  H   H151      1.0  0.13056  0.13450  0.99465  1.0000
  H   H152      1.0  0.98618  0.25014  0.16599  1.0000
  S   S26       1.0  0.98805  0.11082  0.23950  1.0000
  C   C90       1.0  0.23127  0.44721  0.27774  1.0000
  C   C91       1.0  0.98670  0.24262  0.98691  1.0000
  H   H153      1.0  0.17380  0.45897  0.24736  1.0000
  H   H154      1.0  0.16453  0.21109  0.97649  1.0000
  H   H155      1.0  0.18186  0.98584  0.17398  1.0000
  H   H156      1.0  0.98390  0.02893  0.22333  1.0000
  C   C92       1.0  0.99503  0.09307  0.17254  1.0000
  H   H157      1.0  0.19059  0.97767  0.29495  1.0000
  H   H158      1.0  0.14250  0.02813  0.27766  1.0000
  H   H159      1.0  0.99037  0.08187  0.18413  1.0000
  C   C93       1.0  0.23103  0.39251  0.01489  1.0000
  H   H160      1.0  0.99567  0.25365  0.22992  1.0000
  H   H161      1.0  0.22689  0.46110  0.28243  1.0000
  H   H162      1.0  0.98497  0.23379  0.97707  1.0000
  C   C94       1.0  0.17479  0.97854  0.16698  1.0000
  C   C95       1.0  0.01334  0.97575  0.24416  1.0000
  H   H163      1.0  0.13489  0.99654  0.28804  1.0000
  H   H164      1.0  0.15357  0.25290  0.96601  1.0000
  H   H165      1.0  0.98413  0.11965  0.15728  1.0000
  C   C96       1.0  0.00308  0.20527  0.18625  1.0000
  H   H166      1.0  0.22733  0.01120  0.06050  1.0000
  S   S27       1.0  0.23130  0.11211  0.97564  1.0000
  C   C97       1.0  0.23009  0.15850  0.99486  1.0000
  H   H167      1.0  0.10747  0.13226  0.99144  1.0000
  H   H168      1.0  0.22483  0.46551  0.16249  1.0000
  C   C98       1.0  0.06222  0.46021  0.17352  1.0000
  H   H169      1.0  0.18320  0.97503  0.26430  1.0000
  H   H170      1.0  0.00866  0.16635  0.18982  1.0000
  H   H171      1.0  0.22196  0.14895  0.00571  1.0000
  C   C99       1.0  0.05786  0.04292  0.28812  1.0000
  H   H172      1.0  0.22083  0.04478  0.04523  1.0000
  C   C100      1.0  0.22959  0.41038  0.04015  1.0000
  H   H173      1.0  0.22668  0.03330  0.10843  1.0000
  H   H174      1.0  0.22340  0.36472  0.06703  1.0000
  H   H175      1.0  0.07177  0.97314  0.29633  1.0000
  H   H176      1.0  0.20708  0.11989  0.40161  1.0000
  H   H177      1.0  0.21101  0.43173  0.62967  1.0000
  N   N5        1.0  0.17946  0.22948  0.43614  1.0000
  H   H178      1.0  0.15967  0.25319  0.44546  1.0000
  Fe  Fe12      1.0  0.19646  0.31540  0.48563  1.0000
  C   C101      1.0  0.05831  0.30700  0.56454  1.0000
  S   S28       1.0  0.18664  0.28844  0.48420  1.0000
  Fe  Fe13      1.0  0.19706  0.34201  0.51248  1.0000
  S   S29       1.0  0.17934  0.35170  0.53908  1.0000
  Fe  Fe14      1.0  0.20404  0.35601  0.46975  1.0000
  H   H179      1.0  0.16333  0.42281  0.40491  1.0000
  S   S30       1.0  0.18006  0.34392  0.48982  1.0000
  S   S31       1.0  0.21170  0.31244  0.50985  1.0000
  Fe  Fe15      1.0  0.10061  0.24952  0.46932  1.0000
  S   S32       1.0  0.11392  0.22424  0.48778  1.0000
  S   S33       1.0  0.11025  0.27795  0.46350  1.0000
  Fe  Fe16      1.0  0.07139  0.22829  0.46128  1.0000
  S   S34       1.0  0.08286  0.20148  0.47965  1.0000
  S   S35       1.0  0.04467  0.23358  0.44772  1.0000
  Fe  Fe17      1.0  0.08406  0.22015  0.50010  1.0000
  S   S36       1.0  0.07372  0.21267  0.53174  1.0000
  Fe  Fe18      1.0  0.11172  0.20806  0.46581  1.0000
  S   S37       1.0  0.13791  0.18990  0.45206  1.0000
  S   S38       1.0  0.07077  0.24641  0.48284  1.0000
  S   S39       1.0  0.10017  0.23387  0.44633  1.0000
  C   C102      1.0  0.14770  0.46048  0.30226  1.0000
  C   C103      1.0  0.14910  0.23617  0.42114  1.0000
  Fe  Fe19      1.0  0.21113  0.10051  0.48228  1.0000
  S   S40       1.0  0.18090  0.11325  0.49332  1.0000
  H   H180      1.0  0.19632  0.44012  0.40123  1.0000
  Fe  Fe20      1.0  0.21681  0.98837  0.36749  1.0000
  S   S41       1.0  0.20865  0.00263  0.39396  1.0000
  H   H181      1.0  0.02922  0.28753  0.37161  1.0000
  C   C104      1.0  0.20744  0.35108  0.55932  1.0000
  N   N6        1.0  0.19376  0.42489  0.58020  1.0000
  S   S42       1.0  0.20720  0.99992  0.33943  1.0000
  H   H182      1.0  0.18413  0.05728  0.46726  1.0000
  S   S43       1.0  0.01697  0.20174  0.38493  1.0000
  Fe  Fe21      1.0  0.21359  0.45808  0.35441  1.0000
  C   C105      1.0  0.11914  0.33787  0.42196  1.0000
  H   H183      1.0  0.16349  0.31957  0.53442  1.0000
  H   H184      1.0  0.22365  0.41807  0.56925  1.0000
  S   S44       1.0  0.99109  0.21962  0.34166  1.0000
  H   H185      1.0  0.00977  0.24855  0.34785  1.0000
  H   H186      1.0  0.21844  0.10066  0.41699  1.0000
  C   C106      1.0  0.13447  0.26023  0.60485  1.0000
  H   H187      1.0  0.17463  0.41260  0.56943  1.0000
  S   S45       1.0  0.08405  0.25974  0.59124  1.0000
  C   C107      1.0  0.15009  0.28851  0.60203  1.0000
  C   C108      1.0  0.15743  0.42669  0.59100  1.0000
  H   H188      1.0  0.15929  0.07463  0.44788  1.0000
  C   C109      1.0  0.13714  0.34082  0.42745  1.0000
  C   C110      1.0  0.17053  0.22817  0.41984  1.0000
  C   C111      1.0  0.19684  0.41554  0.42328  1.0000
  S   S46       1.0  0.19526  0.38446  0.45126  1.0000
  C   C112      1.0  0.14159  0.41533  0.59331  1.0000
  H   H189      1.0  0.14292  0.21711  0.40511  1.0000
  C   C113      1.0  0.17026  0.31228  0.59739  1.0000
  H   H190      1.0  0.15856  0.28687  0.43320  1.0000
  H   H191      1.0  0.16181  0.32306  0.62421  1.0000
  H   H192      1.0  0.17728  0.23580  0.40639  1.0000
  H   H193      1.0  0.03304  0.30806  0.55401  1.0000
  C   C114      1.0  0.22870  0.39580  0.54455  1.0000
  C   C115      1.0  0.98934  0.26789  0.30751  1.0000
  C   C116      1.0  0.17184  0.31145  0.61821  1.0000
  H   H194      1.0  0.22760  0.10751  0.37385  1.0000
  H   H195      1.0  0.04464  0.27579  0.39972  1.0000
  H   H196      1.0  0.03775  0.24788  0.32494  1.0000
  C   C117      1.0  0.21576  0.43324  0.59932  1.0000
  H   H197      1.0  0.14323  0.42030  0.39562  1.0000
  C   C118      1.0  0.03734  0.22423  0.43035  1.0000
  C   C119      1.0  0.01839  0.22940  0.42759  1.0000
  C   C120      1.0  0.01186  0.22256  0.41397  1.0000
  C   C121      1.0  0.02429  0.21065  0.40261  1.0000
  C   C122      1.0  0.04326  0.20557  0.40528  1.0000
  C   C123      1.0  0.04974  0.21223  0.41906  1.0000
  H   H198      1.0  0.00861  0.23860  0.43624  1.0000
  H   H199      1.0  0.99717  0.22633  0.41245  1.0000
  H   H200      1.0  0.05302  0.19629  0.39670  1.0000
  H   H201      1.0  0.06434  0.20810  0.42092  1.0000
  C   C124      1.0  0.07670  0.22578  0.54821  1.0000
  C   C125      1.0  0.07046  0.21992  0.56750  1.0000
  C   C126      1.0  0.07283  0.22993  0.58098  1.0000
  C   C127      1.0  0.08129  0.24601  0.57521  1.0000
  C   C128      1.0  0.08756  0.25180  0.55593  1.0000
  C   C129      1.0  0.08533  0.24173  0.54249  1.0000
  H   H202      1.0  0.06382  0.20753  0.57205  1.0000
  H   H203      1.0  0.06808  0.22524  0.59579  1.0000
  H   H204      1.0  0.09410  0.26424  0.55132  1.0000
  H   H205      1.0  0.09016  0.24642  0.52769  1.0000
  C   C130      1.0  0.14971  0.16866  0.46374  1.0000
  C   C131      1.0  0.14081  0.15865  0.48021  1.0000
  C   C132      1.0  0.15054  0.14173  0.48915  1.0000
  C   C133      1.0  0.16925  0.13464  0.48166  1.0000
  C   C134      1.0  0.17814  0.14462  0.46508  1.0000
  C   C135      1.0  0.16835  0.16149  0.45610  1.0000
  H   H206      1.0  0.12622  0.16371  0.48564  1.0000
  H   H207      1.0  0.14345  0.13394  0.50179  1.0000
  H   H208      1.0  0.19251  0.13931  0.45914  1.0000
  H   H209      1.0  0.17526  0.16898  0.44317  1.0000
  C   C136      1.0  0.18823  0.35566  0.55814  1.0000
  C   C137      1.0  0.17543  0.36311  0.57284  1.0000
  C   C138      1.0  0.18163  0.36547  0.58888  1.0000
  H   H210      1.0  0.14075  0.22960  0.43414  1.0000
  H   H211      1.0  0.16058  0.36686  0.57190  1.0000
  H   H212      1.0  0.17155  0.37067  0.60036  1.0000
  C   C139      1.0  0.13044  0.28094  0.47136  1.0000
  C   C140      1.0  0.13448  0.29916  0.46938  1.0000
  C   C141      1.0  0.15130  0.30189  0.47400  1.0000
  C   C142      1.0  0.16417  0.28633  0.48062  1.0000
  C   C143      1.0  0.15978  0.26820  0.48326  1.0000
  C   C144      1.0  0.14299  0.26549  0.47869  1.0000
  H   H213      1.0  0.12456  0.31113  0.46412  1.0000
  H   H214      1.0  0.15447  0.31591  0.47214  1.0000
  H   H215      1.0  0.16961  0.25620  0.48862  1.0000
  H   H216      1.0  0.14001  0.25145  0.48027  1.0000
  C   C145      1.0  0.17511  0.24915  0.44061  1.0000
  C   C146      1.0  0.20171  0.42524  0.40482  1.0000
  H   H217      1.0  0.05753  0.21725  0.33301  1.0000
  C   C147      1.0  0.20350  0.39612  0.42823  1.0000
  H   H218      1.0  0.18182  0.24974  0.45264  1.0000
  N   N7        1.0  0.12652  0.18307  0.54842  1.0000
  C   C148      1.0  0.12876  0.20040  0.53361  1.0000
  C   C149      1.0  0.11153  0.17347  0.54494  1.0000
  C   C150      1.0  0.11985  0.18956  0.56724  1.0000
  C   C151      1.0  0.14500  0.16964  0.54937  1.0000
  C   C152      1.0  0.15444  0.16102  0.53155  1.0000
  C   C153      1.0  0.14233  0.21287  0.53625  1.0000
  C   C154      1.0  0.11241  0.17484  0.58405  1.0000
  C   C155      1.0  0.11039  0.17333  0.52419  1.0000
  C   C156      1.0  0.09626  0.16120  0.52303  1.0000
  C   C157      1.0  0.17466  0.15098  0.53287  1.0000
  C   C158      1.0  0.14284  0.23019  0.52073  1.0000
  H   H219      1.0  0.18507  0.43707  0.60568  1.0000
  H   H220      1.0  0.11469  0.20954  0.53295  1.0000
  H   H221      1.0  0.13365  0.19672  0.51938  1.0000
  H   H222      1.0  0.11302  0.15864  0.55256  1.0000
  H   H223      1.0  0.09720  0.18058  0.55078  1.0000
  H   H224      1.0  0.10832  0.20204  0.56609  1.0000
  H   H225      1.0  0.13144  0.19434  0.57162  1.0000
  H   H226      1.0  0.15538  0.17647  0.55338  1.0000
  H   H227      1.0  0.14308  0.15737  0.56080  1.0000
  H   H228      1.0  0.15510  0.17177  0.51861  1.0000
  H   H229      1.0  0.14653  0.15020  0.53015  1.0000
  H   H230      1.0  0.13767  0.21824  0.54973  1.0000
  H   H231      1.0  0.15693  0.20487  0.53579  1.0000
  H   H232      1.0  0.00132  0.30901  0.33840  1.0000
  H   H233      1.0  0.09966  0.17043  0.58168  1.0000
  H   H234      1.0  0.10565  0.18777  0.51688  1.0000
  H   H235      1.0  0.12412  0.16798  0.51618  1.0000
  H   H236      1.0  0.08197  0.16659  0.53041  1.0000
  H   H237      1.0  0.09535  0.16177  0.50808  1.0000
  H   H238      1.0  0.10078  0.14629  0.52934  1.0000
  H   H239      1.0  0.17488  0.13963  0.54541  1.0000
  H   H240      1.0  0.18073  0.14442  0.52015  1.0000
  H   H241      1.0  0.18364  0.16112  0.53363  1.0000
  H   H242      1.0  0.12856  0.23900  0.52093  1.0000
  H   H243      1.0  0.15260  0.23891  0.52291  1.0000
  H   H244      1.0  0.14786  0.22592  0.50675  1.0000
  C   C159      1.0  0.03465  0.27479  0.36489  1.0000
  H   H245      1.0  0.01790  0.32984  0.31309  1.0000
  N   N8        1.0  0.15497  0.36721  0.42940  1.0000
  C   C160      1.0  0.14002  0.36158  0.42143  1.0000
  H   H246      1.0  0.10143  0.17244  0.61399  1.0000
  H   H247      1.0  0.16979  0.45996  0.58540  1.0000
  H   H248      1.0  0.15758  0.43002  0.60495  1.0000
  H   H249      1.0  0.05249  0.24926  0.34106  1.0000
  H   H250      1.0  0.00568  0.22972  0.61766  1.0000
  H   H251      1.0  0.12222  0.25542  0.60183  1.0000
  C   C161      1.0  0.99462  0.26659  0.38548  1.0000
  H   H252      1.0  0.14415  0.11583  0.40807  1.0000
  C   C162      1.0  0.13172  0.37409  0.45990  1.0000
  H   H253      1.0  0.18073  0.30306  0.56086  1.0000
  C   C163      1.0  0.18169  0.26477  0.42453  1.0000
  H   H254      1.0  0.05950  0.25301  0.40177  1.0000
  H   H255      1.0  0.20822  0.07746  0.40295  1.0000
  C   C164      1.0  0.20945  0.40533  0.55367  1.0000
  H   H256      1.0  0.13066  0.35434  0.48651  1.0000
  H   H257      1.0  0.00332  0.26897  0.39508  1.0000
  H   H258      1.0  0.13405  0.25732  0.62031  1.0000
  H   H259      1.0  0.17860  0.38991  0.39898  1.0000
  C   C165      1.0  0.22187  0.23871  0.50921  1.0000
  C   C166      1.0  0.15105  0.36406  0.45063  1.0000
  H   H260      1.0  0.19293  0.46521  0.58242  1.0000
  H   H261      1.0  0.18212  0.30178  0.59167  1.0000
  H   H262      1.0  0.12006  0.34977  0.62570  1.0000
  H   H263      1.0  0.15414  0.32794  0.56746  1.0000
  H   H264      1.0  0.11773  0.32275  0.42613  1.0000
  H   H265      1.0  0.14895  0.30143  0.54004  1.0000
  Fe  Fe22      1.0  0.07530  0.25886  0.62293  1.0000
  H   H266      1.0  0.16587  0.28536  0.56637  1.0000
  H   H267      1.0  0.04896  0.21696  0.35775  1.0000
  H   H268      1.0  0.13385  0.31693  0.61942  1.0000
  C   C167      1.0  0.17425  0.28430  0.42981  1.0000
  C   C168      1.0  0.21488  0.44184  0.61670  1.0000
  H   H269      1.0  0.98377  0.32665  0.56152  1.0000
  H   H270      1.0  0.14473  0.10826  0.43260  1.0000
  H   H271      1.0  0.13024  0.38961  0.45566  1.0000
  H   H272      1.0  0.17345  0.32612  0.58936  1.0000
  C   C169      1.0  0.02195  0.31433  0.31384  1.0000
  H   H273      1.0  0.03740  0.31099  0.30882  1.0000
  H   H274      1.0  0.11972  0.28866  0.60395  1.0000
  H   H275      1.0  0.13411  0.34791  0.58385  1.0000
  H   H276      1.0  0.06425  0.31621  0.55170  1.0000
  H   H277      1.0  0.15192  0.34892  0.45676  1.0000
  C   C170      1.0  0.02210  0.25080  0.35319  1.0000
  H   H278      1.0  0.19733  0.26295  0.42179  1.0000
  H   H279      1.0  0.14456  0.40151  0.60259  1.0000
  H   H280      1.0  0.21743  0.34534  0.54808  1.0000
  C   C171      1.0  0.04235  0.25843  0.37994  1.0000
  C   C172      1.0  0.18285  0.46151  0.57504  1.0000
  S   S47       1.0  0.20947  0.36487  0.60936  1.0000
  H   H281      1.0  0.17401  0.29562  0.53216  1.0000
  C   C173      1.0  0.05378  0.26515  0.39159  1.0000
  H   H282      1.0  0.12329  0.16210  0.58645  1.0000
  C   C174      1.0  0.01674  0.30441  0.33410  1.0000
  H   H283      1.0  0.02181  0.24134  0.36702  1.0000
  C   C175      1.0  0.00020  0.27740  0.36542  1.0000
  H   H284      1.0  0.22709  0.39036  0.53210  1.0000
  S   S48       1.0  0.21916  0.32736  0.46363  1.0000
  H   H285      1.0  0.98956  0.27657  0.35697  1.0000
  C   C176      1.0  0.14151  0.23251  0.40469  1.0000
  H   H286      1.0  0.05179  0.24702  0.37309  1.0000
  H   H287      1.0  0.20229  0.30159  0.61512  1.0000
  H   H288      1.0  0.23122  0.22717  0.48383  1.0000
  H   H289      1.0  0.22722  0.42071  0.59950  1.0000
  C   C177      1.0  0.13516  0.32114  0.60390  1.0000
  H   H290      1.0  0.14634  0.25164  0.42079  1.0000
  H   H291      1.0  0.13715  0.31334  0.57040  1.0000
  C   C178      1.0  0.15467  0.38812  0.42255  1.0000
  H   H292      1.0  0.17952  0.05317  0.42400  1.0000
  H   H293      1.0  0.13593  0.33624  0.44282  1.0000
  H   H294      1.0  0.04731  0.27829  0.35449  1.0000
  H   H295      1.0  0.22368  0.19998  0.48338  1.0000
  C   C179      1.0  0.21977  0.39612  0.39591  1.0000
  H   H296      1.0  0.16890  0.29786  0.62694  1.0000
  H   H297      1.0  0.13375  0.28337  0.58197  1.0000
  C   C180      1.0  0.21370  0.10480  0.40323  1.0000
  H   H298      1.0  0.16209  0.09640  0.45404  1.0000
  H   H299      1.0  0.19695  0.32445  0.41006  1.0000
  H   H300      1.0  0.13997  0.41283  0.57944  1.0000
  H   H301      1.0  0.14091  0.37483  0.48600  1.0000
  H   H302      1.0  0.15369  0.43989  0.58113  1.0000
  C   C181      1.0  0.16631  0.30050  0.56105  1.0000
  H   H303      1.0  0.99612  0.25132  0.38552  1.0000
  H   H304      1.0  0.03602  0.27945  0.32755  1.0000
  H   H305      1.0  0.18436  0.33932  0.44754  1.0000
  H   H306      1.0  0.17663  0.26464  0.41142  1.0000
  H   H307      1.0  0.18532  0.36535  0.42257  1.0000
  H   H308      1.0  0.14327  0.36399  0.40583  1.0000
  H   H309      1.0  0.20308  0.46798  0.42589  1.0000
  H   H310      1.0  0.20416  0.41749  0.54331  1.0000
  H   H311      1.0  0.14916  0.23899  0.39106  1.0000
  H   H312      1.0  0.13999  0.39605  0.42495  1.0000
  H   H313      1.0  0.13658  0.01917  0.32084  1.0000
  H   H314      1.0  0.18769  0.42312  0.43377  1.0000
  H   H315      1.0  0.20690  0.21637  0.40374  1.0000
  C   C182      1.0  0.21524  0.38650  0.41448  1.0000
  H   H316      1.0  0.05176  0.28855  0.54891  1.0000
  H   H317      1.0  0.05722  0.04561  0.30253  1.0000
  C   C183      1.0  0.16292  0.30458  0.54071  1.0000
  H   H318      1.0  0.14762  0.25208  0.59797  1.0000
  H   H319      1.0  0.14910  0.33156  0.42018  1.0000
  H   H320      1.0  0.16136  0.05714  0.38908  1.0000
  H   H321      1.0  0.14816  0.28606  0.61766  1.0000
  C   C184      1.0  0.19939  0.32719  0.42353  1.0000
  H   H322      1.0  0.17071  0.32789  0.43752  1.0000
  H   H323      1.0  0.10650  0.34631  0.42932  1.0000
  H   H324      1.0  0.15726  0.38764  0.39208  1.0000
  C   C185      1.0  0.02146  0.28269  0.33551  1.0000
  H   H325      1.0  0.22756  0.24111  0.52118  1.0000
  C   C186      1.0  0.13529  0.34265  0.59885  1.0000
  H   H326      1.0  0.16346  0.27898  0.59763  1.0000
  H   H327      1.0  0.12617  0.37082  0.42480  1.0000
  H   H328      1.0  0.12794  0.14092  0.42614  1.0000
  H   H329      1.0  0.16226  0.36865  0.45584  1.0000
  H   H330      1.0  0.17868  0.29528  0.41785  1.0000
  C   C187      1.0  0.15862  0.41551  0.39542  1.0000
  C   C188      1.0  0.18126  0.33734  0.43405  1.0000
  H   H331      1.0  0.05144  0.31586  0.57540  1.0000
  S   S49       1.0  0.22441  0.10694  0.45203  1.0000
  H   H332      1.0  0.11574  0.37698  0.48772  1.0000
  C   C189      1.0  0.19681  0.42709  0.59918  1.0000
  H   H333      1.0  0.19640  0.41351  0.60922  1.0000
  H   H334      1.0  0.10822  0.97584  0.30929  1.0000
  H   H335      1.0  0.17563  0.12135  0.40036  1.0000
  H   H336      1.0  0.14865  0.14807  0.41076  1.0000
  C   C190      1.0  0.15146  0.31334  0.57324  1.0000
  H   H337      1.0  0.22852  0.38845  0.38529  1.0000
  C   C191      1.0  0.11870  0.35356  0.61063  1.0000
  H   H338      1.0  0.22048  0.37158  0.41804  1.0000
  H   H339      1.0  0.99152  0.28233  0.56841  1.0000
  H   H340      1.0  0.15002  0.05162  0.41338  1.0000
  H   H341      1.0  0.11963  0.34193  0.40652  1.0000
  H   H342      1.0  0.19092  0.05825  0.39984  1.0000
  H   H343      1.0  0.11993  0.36924  0.45604  1.0000
  H   H344      1.0  0.17837  0.11996  0.42399  1.0000
  H   H345      1.0  0.03317  0.21549  0.34246  1.0000
  H   H346      1.0  0.21974  0.44365  0.58665  1.0000
  H   H347      1.0  0.16345  0.06956  0.48048  1.0000
  C   C192      1.0  0.12968  0.36975  0.48133  1.0000
  N   N9        1.0  0.15174  0.30884  0.59410  1.0000
  C   C193      1.0  0.17667  0.41559  0.58295  1.0000
  H   H348      1.0  0.16270  0.39374  0.43081  1.0000
  C   C194      1.0  0.21372  0.35392  0.57515  1.0000
  C   C195      1.0  0.21071  0.41160  0.57216  1.0000
  H   H349      1.0  0.12172  0.31900  0.60064  1.0000
  H   H350      1.0  0.11784  0.00359  0.30732  1.0000
  H   H351      1.0  0.01433  0.30996  0.30437  1.0000
  C   C196      1.0  0.16117  0.46970  0.30591  1.0000
  H   H352      1.0  0.20423  0.45499  0.61669  1.0000
  H   H353      1.0  0.18471  0.07948  0.47396  1.0000
  H   H354      1.0  0.20778  0.24038  0.40465  1.0000
  H   H355      1.0  0.19698  0.09569  0.38694  1.0000
  C   C197      1.0  0.20086  0.36117  0.58997  1.0000
  H   H356      1.0  0.19493  0.09299  0.43911  1.0000
  H   H357      1.0  0.21567  0.25264  0.50177  1.0000
  H   H358      1.0  0.03101  0.25201  0.38981  1.0000
  S   S50       1.0  0.22268  0.46435  0.32288  1.0000
  H   H359      1.0  0.17967  0.18431  0.48075  1.0000
  C   C198      1.0  0.21298  0.41551  0.39093  1.0000
  C   C199      1.0  0.19165  0.31341  0.62005  1.0000
  C   C200      1.0  0.04014  0.24345  0.33974  1.0000
  H   H360      1.0  0.16732  0.46469  0.31854  1.0000
  H   H361      1.0  0.17894  0.40175  0.59243  1.0000
  Fe  Fe23      1.0  0.98933  0.20870  0.37290  1.0000
  H   H362      1.0  0.06578  0.27130  0.38240  1.0000
  C   C201      1.0  0.00303  0.28954  0.56966  1.0000
  C   C202      1.0  0.16299  0.39413  0.40146  1.0000
  C   C203      1.0  0.10685  0.18311  0.60220  1.0000
  H   H363      1.0  0.00681  0.29791  0.55554  1.0000
  C   C204      1.0  0.20060  0.22252  0.43245  1.0000
  C   C205      1.0  0.17110  0.21651  0.45311  1.0000
  C   C206      1.0  0.17914  0.21453  0.47143  1.0000
  C   C207      1.0  0.21106  0.22561  0.41180  1.0000
  H   H364      1.0  0.14879  0.14012  0.43568  1.0000
  C   C208      1.0  0.17310  0.19776  0.48585  1.0000
  H   H365      1.0  0.17280  0.21316  0.41794  1.0000
  H   H366      1.0  0.20779  0.22882  0.44092  1.0000
  H   H367      1.0  0.20383  0.20697  0.43721  1.0000
  H   H368      1.0  0.17288  0.20213  0.44969  1.0000
  H   H369      1.0  0.15565  0.22119  0.45704  1.0000
  H   H370      1.0  0.17366  0.22740  0.47777  1.0000
  H   H371      1.0  0.19475  0.21244  0.46895  1.0000
  H   H372      1.0  0.12628  0.23876  0.40573  1.0000
  H   H373      1.0  0.14361  0.44830  0.31208  1.0000
  C   C209      1.0  0.04520  0.22198  0.34350  1.0000
  H   H374      1.0  0.17768  0.19744  0.49936  1.0000
  H   H375      1.0  0.15749  0.19882  0.48838  1.0000
  H   H376      1.0  0.11872  0.36893  0.60621  1.0000
  H   H377      1.0  0.16620  0.41956  0.38091  1.0000
  S   S51       1.0  0.21821  0.42664  0.36705  1.0000
  N   N10       1.0  0.01961  0.27497  0.57524  1.0000
  H   H378      1.0  0.21078  0.33579  0.42062  1.0000
  C   C210      1.0  0.02642  0.26156  0.56120  1.0000
  C   C211      1.0  0.01273  0.26372  0.59413  1.0000
  C   C212      1.0  0.03558  0.28391  0.57740  1.0000
  C   C213      1.0  0.17443  0.35687  0.42249  1.0000
  H   H379      1.0  0.17569  0.35527  0.40757  1.0000
  C   C214      1.0  0.02691  0.24643  0.60172  1.0000
  C   C215      1.0  0.02451  0.26961  0.54034  1.0000
  C   C216      1.0  0.03517  0.25572  0.52739  1.0000
  C   C217      1.0  0.21816  0.01847  0.40349  1.0000
  C   C218      1.0  0.13349  0.28131  0.59733  1.0000
  H   H380      1.0  0.21205  0.03577  0.44463  1.0000
  H   H381      1.0  0.21358  0.39855  0.58265  1.0000
  H   H382      1.0  0.20411  0.31348  0.43229  1.0000
  H   H383      1.0  0.04146  0.25495  0.56162  1.0000
  H   H384      1.0  0.01843  0.24958  0.56507  1.0000
  H   H385      1.0  0.19531  0.32693  0.61175  1.0000
  H   H386      1.0  0.22017  0.99923  0.58318  1.0000
  H   H387      1.0  0.03136  0.29169  0.58945  1.0000
  H   H388      1.0  0.04759  0.27286  0.58118  1.0000
  N   N11       1.0  0.01984  0.27120  0.35515  1.0000
  C   C219      1.0  0.04404  0.29700  0.55984  1.0000
  H   H389      1.0  0.08698  0.99284  0.31150  1.0000
  H   H390      1.0  0.12805  0.42326  0.59973  1.0000
  H   H391      1.0  0.03926  0.25101  0.60477  1.0000
  H   H392      1.0  0.03203  0.23654  0.59158  1.0000
  H   H393      1.0  0.00939  0.27228  0.53884  1.0000
  H   H394      1.0  0.02997  0.28301  0.53516  1.0000
  H   H395      1.0  0.05061  0.25403  0.52692  1.0000
  H   H396      1.0  0.03074  0.24171  0.53223  1.0000
  H   H397      1.0  0.03227  0.26113  0.51287  1.0000
  C   C220      1.0  0.19169  0.44334  0.56656  1.0000
  C   C221      1.0  0.22714  0.01185  0.57945  1.0000
  H   H398      1.0  0.02446  0.30924  0.34314  1.0000
  H   H399      1.0  0.11923  0.18722  0.60577  1.0000
  H   H400      1.0  0.19560  0.07033  0.43465  1.0000
  H   H401      1.0  0.14834  0.34610  0.60154  1.0000
  H   H402      1.0  0.09554  0.19568  0.60073  1.0000
  H   H403      1.0  0.10506  0.35049  0.60884  1.0000
  H   H404      1.0  0.22887  0.44526  0.61682  1.0000
  N   N12       1.0  0.18166  0.09278  0.41557  1.0000
  C   C222      1.0  0.16941  0.08174  0.40956  1.0000
  C   C223      1.0  0.17236  0.11326  0.41485  1.0000
  C   C224      1.0  0.19995  0.09200  0.40160  1.0000
  C   C225      1.0  0.18635  0.08433  0.43485  1.0000
  C   C226      1.0  0.16940  0.08229  0.45108  1.0000
  C   C227      1.0  0.17735  0.06045  0.40967  1.0000
  H   H405      1.0  0.21758  0.18248  0.46100  1.0000
  C   C228      1.0  0.15046  0.11763  0.41991  1.0000
  C   C229      1.0  0.14362  0.13793  0.42329  1.0000
  C   C230      1.0  0.17591  0.07141  0.46925  1.0000
  C   C231      1.0  0.16374  0.05070  0.40358  1.0000
  H   H406      1.0  0.16995  0.03555  0.40370  1.0000
  H   H407      1.0  0.16666  0.08819  0.39510  1.0000
  H   H408      1.0  0.15528  0.08245  0.41854  1.0000
  H   H409      1.0  0.01201  0.27878  0.32745  1.0000
  H   H410      1.0  0.99330  0.25362  0.31447  1.0000
  S   S52       1.0  0.22014  0.35549  0.49279  1.0000
  H   H411      1.0  0.18329  0.44249  0.55588  1.0000
  C   C232      1.0  0.21112  0.02117  0.42221  1.0000
  H   H412      1.0  0.19982  0.39488  0.55663  1.0000
  H   H413      1.0  0.21047  0.23017  0.51466  1.0000
  H   H414      1.0  0.00893  0.27271  0.60518  1.0000
  H   H415      1.0  0.99815  0.29240  0.36706  1.0000
  H   H416      1.0  0.18007  0.28566  0.44211  1.0000
  H   H417      1.0  0.99959  0.25860  0.59366  1.0000
  C   C233      1.0  0.21763  0.03401  0.43023  1.0000
  S   S53       1.0  0.22137  0.06901  0.48456  1.0000
  H   H418      1.0  0.07015  0.29657  0.56977  1.0000
  H   H419      1.0  0.20569  0.44596  0.55826  1.0000
  H   H420      1.0  0.20051  0.01325  0.43060  1.0000
  C   C234      1.0  0.01770  0.23540  0.62004  1.0000
  H   H421      1.0  0.22536  0.01880  0.56489  1.0000
  H   H422      1.0  0.22861  0.35044  0.57596  1.0000
  H   H423      1.0  0.22314  0.16643  0.48187  1.0000
  H   H424      1.0  0.22012  0.02196  0.58910  1.0000
  H   H425      1.0  0.00504  0.31187  0.58474  1.0000
  C   C235      1.0  0.99431  0.30403  0.58303  1.0000
  H   H426      1.0  0.02824  0.22339  0.62538  1.0000
  S   S54       1.0  0.06992  0.28782  0.63081  1.0000
  C   C236      1.0  0.09567  0.98264  0.30266  1.0000
  H   H427      1.0  0.98809  0.29703  0.59707  1.0000
  C   C237      1.0  0.23119  0.04459  0.41955  1.0000
  C   C238      1.0  0.23137  0.10294  0.38812  1.0000
  C   C239      1.0  0.22893  0.17625  0.46943  1.0000
  H   H428      1.0  0.09093  0.02571  0.30281  1.0000
  H   H429      1.0  0.01255  0.24453  0.63094  1.0000
  H   H430      1.0  0.15232  0.03378  0.30545  1.0000
  C   C240      1.0  0.14528  0.02151  0.30660  1.0000
  H   H431      1.0  0.15640  0.00890  0.30495  1.0000
  Fe  Fe24      1.0  0.19134  0.37620  0.67686  1.0000
  S   S55       1.0  0.16212  0.39357  0.68077  1.0000
  Fe  Fe25      1.0  0.15472  0.37419  0.66421  1.0000
  S   S56       1.0  0.12617  0.36447  0.67021  1.0000
  Fe  Fe26      1.0  0.17200  0.41029  0.65256  1.0000
  S   S57       1.0  0.16212  0.39260  0.63626  1.0000
  S   S58       1.0  0.18315  0.35541  0.66257  1.0000
  H   H432      1.0  0.23137  0.08941  0.67627  1.0000
  C   C241      1.0  0.18534  0.11821  0.86487  1.0000
  Fe  Fe27      1.0  0.07241  0.23956  0.66440  1.0000
  S   S59       1.0  0.06757  0.26686  0.67464  1.0000
  S   S60       1.0  0.07195  0.21246  0.68565  1.0000
  Fe  Fe28      1.0  0.04754  0.27688  0.65393  1.0000
  S   S61       1.0  0.01967  0.29333  0.66625  1.0000
  Fe  Fe29      1.0  0.09028  0.27527  0.65076  1.0000
  H   H433      1.0  0.19639  0.20492  0.91354  1.0000
  C   C242      1.0  0.00448  0.24437  0.70842  1.0000
  H   H434      1.0  0.14378  0.13961  0.89484  1.0000
  Fe  Fe30      1.0  0.07008  0.18560  0.79318  1.0000
  S   S62       1.0  0.04334  0.19663  0.81141  1.0000
  S   S63       1.0  0.08280  0.20762  0.77023  1.0000
  Fe  Fe31      1.0  0.07043  0.14586  0.81553  1.0000
  S   S64       1.0  0.04325  0.15432  0.83488  1.0000
  S   S65       1.0  0.08408  0.11523  0.82199  1.0000
  Fe  Fe32      1.0  0.03280  0.17083  0.80862  1.0000
  S   S66       1.0  0.00394  0.17647  0.79918  1.0000
  Fe  Fe33      1.0  0.05628  0.17918  0.83600  1.0000
  S   S67       1.0  0.05217  0.19060  0.86357  1.0000
  S   S68       1.0  0.05917  0.16064  0.78913  1.0000
  S   S69       1.0  0.08390  0.16981  0.81795  1.0000
  H   H435      1.0  0.00260  0.16907  0.75509  1.0000
  S   S70       1.0  0.22053  0.01561  0.81928  1.0000
  C   C243      1.0  0.98883  0.16062  0.79863  1.0000
  Fe  Fe34      1.0  0.18563  0.05847  0.79911  1.0000
  S   S71       1.0  0.17773  0.03961  0.82634  1.0000
  S   S72       1.0  0.16852  0.08554  0.78633  1.0000
  Fe  Fe35      1.0  0.20619  0.04118  0.83239  1.0000
  S   S73       1.0  0.20323  0.04695  0.86233  1.0000
  Fe  Fe36      1.0  0.19257  0.01560  0.81127  1.0000
  S   S74       1.0  0.18072  0.98837  0.81687  1.0000
  S   S75       1.0  0.21322  0.06145  0.80568  1.0000
  S   S76       1.0  0.19790  0.03439  0.78336  1.0000
  H   H436      1.0  0.22386  0.15052  0.94478  1.0000
  H   H437      1.0  0.04002  0.28928  0.72280  1.0000
  Fe  Fe37      1.0  0.10171  0.21902  0.93956  1.0000
  S   S77       1.0  0.10809  0.20835  0.91129  1.0000
  C   C244      1.0  0.12389  0.27659  0.70471  1.0000
  H   H438      1.0  0.10521  0.98531  0.77358  1.0000
  S   S78       1.0  0.12725  0.22403  0.94931  1.0000
  S   S79       1.0  0.08317  0.24497  0.94943  1.0000
  H   H439      1.0  0.12010  0.32299  0.90823  1.0000
  C   C245      1.0  0.21160  0.05744  0.89291  1.0000
  H   H440      1.0  0.02694  0.14009  0.72025  1.0000
  H   H441      1.0  0.05031  0.31668  0.76648  1.0000
  H   H442      1.0  0.23138  0.43212  0.69918  1.0000
  H   H443      1.0  0.05675  0.31854  0.66275  1.0000
  H   H444      1.0  0.16557  0.16503  0.93306  1.0000
  H   H445      1.0  0.18853  0.23005  0.91086  1.0000
  H   H446      1.0  0.12287  0.26982  0.69290  1.0000
  H   H447      1.0  0.00938  0.11933  0.75343  1.0000
  H   H448      1.0  0.09052  0.27135  0.72931  1.0000
  H   H449      1.0  0.03848  0.24690  0.76068  1.0000
  C   C246      1.0  0.17825  0.98458  0.78077  1.0000
  H   H450      1.0  0.20738  0.12422  0.82087  1.0000
  H   H451      1.0  0.18335  0.99781  0.77587  1.0000
  C   C247      1.0  0.23036  0.98598  0.75931  1.0000
  C   C248      1.0  0.06808  0.19490  0.87684  1.0000
  C   C249      1.0  0.08771  0.19018  0.87194  1.0000
  C   C250      1.0  0.09970  0.19448  0.88257  1.0000
  C   C251      1.0  0.09226  0.20321  0.89846  1.0000
  C   C252      1.0  0.07264  0.20771  0.90348  1.0000
  C   C253      1.0  0.06067  0.20368  0.89266  1.0000
  H   H452      1.0  0.09360  0.18306  0.86009  1.0000
  H   H453      1.0  0.11484  0.19094  0.87854  1.0000
  H   H454      1.0  0.06667  0.21442  0.91563  1.0000
  H   H455      1.0  0.04552  0.20736  0.89664  1.0000
  C   C254      1.0  0.10796  0.10778  0.81273  1.0000
  C   C255      1.0  0.11759  0.11882  0.79751  1.0000
  C   C256      1.0  0.13626  0.11190  0.78966  1.0000
  C   C257      1.0  0.14543  0.09402  0.79708  1.0000
  C   C258      1.0  0.13594  0.08318  0.81256  1.0000
  C   C259      1.0  0.11724  0.09004  0.82035  1.0000
  H   H456      1.0  0.11053  0.13249  0.79153  1.0000
  H   H457      1.0  0.14354  0.12034  0.77765  1.0000
  H   H458      1.0  0.14293  0.06945  0.81836  1.0000
  H   H459      1.0  0.10985  0.08150  0.83218  1.0000
  C   C260      1.0  0.17610  0.97682  0.79992  1.0000
  H   H460      1.0  0.11049  0.46988  0.65194  1.0000
  H   H461      1.0  0.01174  0.24467  0.84591  1.0000
  H   H462      1.0  0.20775  0.35393  0.85783  1.0000
  H   H463      1.0  0.00317  0.13658  0.81538  1.0000
  C   C261      1.0  0.07559  0.21138  0.70890  1.0000
  C   C262      1.0  0.08195  0.22583  0.71423  1.0000
  C   C263      1.0  0.08457  0.22433  0.73293  1.0000
  C   C264      1.0  0.08030  0.20868  0.74659  1.0000
  C   C265      1.0  0.07427  0.19415  0.74114  1.0000
  C   C266      1.0  0.07215  0.19542  0.72236  1.0000
  H   H464      1.0  0.08527  0.23791  0.70386  1.0000
  H   H465      1.0  0.09005  0.23523  0.73680  1.0000
  H   H466      1.0  0.07153  0.18179  0.75135  1.0000
  H   H467      1.0  0.06784  0.18398  0.71816  1.0000
  C   C267      1.0  0.12363  0.34265  0.66531  1.0000
  C   C268      1.0  0.13908  0.32811  0.66294  1.0000
  C   C269      1.0  0.13653  0.31080  0.65944  1.0000
  C   C270      1.0  0.11867  0.30799  0.65772  1.0000
  C   C271      1.0  0.10325  0.32259  0.65981  1.0000
  C   C272      1.0  0.10566  0.33971  0.66396  1.0000
  H   H468      1.0  0.15247  0.37019  0.95536  1.0000
  S   S80       1.0  0.22911  0.32735  0.94688  1.0000
  H   H469      1.0  0.08955  0.32072  0.65814  1.0000
  H   H470      1.0  0.09365  0.35092  0.66568  1.0000
  H   H471      1.0  0.02478  0.26322  0.74463  1.0000
  C   C273      1.0  0.99787  0.29366  0.65954  1.0000
  C   C274      1.0  0.21352  0.30404  0.91506  1.0000
  H   H472      1.0  0.05650  0.27130  0.71299  1.0000
  H   H473      1.0  0.20922  0.32797  0.89332  1.0000
  H   H474      1.0  0.10518  0.12373  0.95864  1.0000
  C   C275      1.0  0.16676  0.45757  0.65918  1.0000
  C   C276      1.0  0.16355  0.45152  0.67864  1.0000
  H   H475      1.0  0.21449  0.26692  0.94629  1.0000
  C   C277      1.0  0.22756  0.16486  0.94093  1.0000
  H   H476      1.0  0.16193  0.43704  0.68428  1.0000
  H   H477      1.0  0.99780  0.13584  0.76831  1.0000
  C   C278      1.0  0.99668  0.28480  0.64491  1.0000
  C   C279      1.0  0.13906  0.33071  0.92345  1.0000
  H   H478      1.0  0.04794  0.33059  0.72462  1.0000
  H   H479      1.0  0.13617  0.28409  0.70028  1.0000
  H   H480      1.0  0.18839  0.37315  0.85366  1.0000
  H   H481      1.0  0.14937  0.17750  0.90234  1.0000
  H   H482      1.0  0.20406  0.00469  0.69298  1.0000
  C   C280      1.0  0.20211  0.00908  0.70688  1.0000
  H   H483      1.0  0.16382  0.07902  0.90529  1.0000
  N   N13       1.0  0.18065  0.10812  0.85104  1.0000
  C   C281      1.0  0.19832  0.09890  0.83957  1.0000
  C   C282      1.0  0.16959  0.09298  0.86186  1.0000
  C   C283      1.0  0.16938  0.12224  0.83780  1.0000
  C   C284      1.0  0.14965  0.13183  0.84686  1.0000
  C   C285      1.0  0.16064  0.08329  0.84995  1.0000
  C   C286      1.0  0.15023  0.06797  0.86240  1.0000
  C   C287      1.0  0.13850  0.14358  0.83180  1.0000
  H   H484      1.0  0.19467  0.09340  0.82807  1.0000
  H   H485      1.0  0.20542  0.08626  0.84823  1.0000
  H   H486      1.0  0.17883  0.08154  0.86982  1.0000
  H   H487      1.0  0.15820  0.09855  0.87281  1.0000
  H   H488      1.0  0.16756  0.11566  0.82610  1.0000
  H   H489      1.0  0.17221  0.12417  0.87374  1.0000
  H   H490      1.0  0.19080  0.09490  0.88820  1.0000
  H   H491      1.0  0.15119  0.14141  0.85604  1.0000
  H   H492      1.0  0.14097  0.12141  0.85540  1.0000
  H   H493      1.0  0.15023  0.09351  0.84237  1.0000
  H   H494      1.0  0.17164  0.07661  0.83946  1.0000
  H   H495      1.0  0.16019  0.05681  0.86976  1.0000
  H   H496      1.0  0.13877  0.07408  0.87295  1.0000
  H   H497      1.0  0.14383  0.06138  0.85359  1.0000
  H   H498      1.0  0.14631  0.15460  0.82290  1.0000
  H   H499      1.0  0.12461  0.15058  0.83859  1.0000
  H   H500      1.0  0.15515  0.16925  0.88016  1.0000
  C   C288      1.0  0.22335  0.23671  0.94703  1.0000
  S   S81       1.0  0.21104  0.36602  0.69851  1.0000
  H   H501      1.0  0.03893  0.12152  0.73478  1.0000
  H   H502      1.0  0.17583  0.20210  0.94632  1.0000
  N   N14       1.0  0.12477  0.02070  0.79987  1.0000
  C   C289      1.0  0.14072  0.03100  0.78959  1.0000
  C   C290      1.0  0.12826  0.01226  0.81959  1.0000
  C   C291      1.0  0.12544  0.00454  0.78985  1.0000
  C   C292      1.0  0.10554  0.03310  0.80015  1.0000
  C   C293      1.0  0.10450  0.05430  0.80068  1.0000
  C   C294      1.0  0.14101  0.03752  0.76813  1.0000
  C   C295      1.0  0.04829  0.32578  0.67434  1.0000
  C   C296      1.0  0.12886  0.02613  0.83251  1.0000
  C   C297      1.0  0.13584  0.01558  0.85062  1.0000
  C   C298      1.0  0.08408  0.06448  0.80427  1.0000
  C   C299      1.0  0.15223  0.05354  0.76009  1.0000
  H   H503      1.0  0.00261  0.23336  0.72107  1.0000
  H   H504      1.0  0.15463  0.02188  0.79137  1.0000
  H   H505      1.0  0.14076  0.04350  0.79576  1.0000
  H   H506      1.0  0.11703  0.00413  0.82736  1.0000
  H   H507      1.0  0.14169  0.00191  0.81899  1.0000
  H   H508      1.0  0.13993  0.99612  0.78803  1.0000
  H   H509      1.0  0.12227  0.00994  0.77540  1.0000
  H   H510      1.0  0.09956  0.03282  0.78753  1.0000
  H   H511      1.0  0.09533  0.02740  0.81234  1.0000
  H   H512      1.0  0.11145  0.06154  0.78707  1.0000
  H   H513      1.0  0.11159  0.05626  0.81174  1.0000
  H   H514      1.0  0.14770  0.02551  0.76065  1.0000
  H   H515      1.0  0.12652  0.04242  0.76488  1.0000
  H   H516      1.0  0.09728  0.99796  0.80370  1.0000
  H   H517      1.0  0.19017  0.12452  0.89971  1.0000
  H   H518      1.0  0.13842  0.03627  0.82572  1.0000
  H   H519      1.0  0.11444  0.03395  0.83663  1.0000
  H   H520      1.0  0.15051  0.00786  0.84738  1.0000
  H   H521      1.0  0.13588  0.02578  0.85978  1.0000
  H   H522      1.0  0.12651  0.00540  0.85841  1.0000
  H   H523      1.0  0.07668  0.05849  0.81826  1.0000
  H   H524      1.0  0.08391  0.07965  0.80411  1.0000
  H   H525      1.0  0.07638  0.06338  0.79318  1.0000
  H   H526      1.0  0.15234  0.05759  0.74472  1.0000
  H   H527      1.0  0.14575  0.06613  0.76675  1.0000
  H   H528      1.0  0.16705  0.04909  0.76244  1.0000
  H   H529      1.0  0.16821  0.08208  0.92748  1.0000
  C   C300      1.0  0.99160  0.14182  0.80764  1.0000
  C   C301      1.0  0.13697  0.11060  0.93418  1.0000
  H   H530      1.0  0.03239  0.20688  0.74510  1.0000
  C   C302      1.0  0.16245  0.46422  0.69086  1.0000
  C   C303      1.0  0.05439  0.28099  0.72327  1.0000
  C   C304      1.0  0.15613  0.38019  0.94219  1.0000
  S   S82       1.0  0.05117  0.24898  0.64465  1.0000
  C   C305      1.0  0.13710  0.14505  0.92423  1.0000
  H   H531      1.0  0.04380  0.24544  0.73607  1.0000
  H   H532      1.0  0.04229  0.29983  0.69143  1.0000
  H   H533      1.0  0.16990  0.21386  0.89671  1.0000
  H   H534      1.0  0.19858  0.43905  0.69490  1.0000
  H   H535      1.0  0.14274  0.13498  0.96073  1.0000
  C   C306      1.0  0.15210  0.17334  0.95957  1.0000
  H   H536      1.0  0.06679  0.26026  0.74586  1.0000
  H   H537      1.0  0.19196  0.13061  0.85737  1.0000
  H   H538      1.0  0.20113  0.42516  0.66712  1.0000
  N   N15       1.0  0.07787  0.24292  0.82690  1.0000
  C   C307      1.0  0.07727  0.24810  0.80611  1.0000
  C   C308      1.0  0.06114  0.23357  0.83644  1.0000
  C   C309      1.0  0.07739  0.26060  0.83445  1.0000
  C   C310      1.0  0.09571  0.22943  0.83066  1.0000
  C   C311      1.0  0.09965  0.21112  0.82222  1.0000
  C   C312      1.0  0.09511  0.25490  0.79349  1.0000
  C   C313      1.0  0.07459  0.25848  0.85622  1.0000
  C   C314      1.0  0.04142  0.24596  0.83528  1.0000
  C   C315      1.0  0.02571  0.23558  0.84692  1.0000
  C   C316      1.0  0.11930  0.19993  0.82444  1.0000
  C   C317      1.0  0.09273  0.25990  0.77286  1.0000
  C   C318      1.0  0.07509  0.27705  0.86212  1.0000
  H   H539      1.0  0.06514  0.25959  0.80350  1.0000
  H   H540      1.0  0.07444  0.23608  0.80066  1.0000
  H   H541      1.0  0.06129  0.22098  0.83026  1.0000
  H   H542      1.0  0.06206  0.22801  0.85147  1.0000
  H   H543      1.0  0.06617  0.27208  0.82942  1.0000
  H   H544      1.0  0.09081  0.26615  0.82879  1.0000
  H   H545      1.0  0.10823  0.23659  0.82579  1.0000
  H   H546      1.0  0.09531  0.22472  0.84605  1.0000
  H   H547      1.0  0.09886  0.21389  0.80703  1.0000
  H   H548      1.0  0.08916  0.20210  0.82971  1.0000
  H   H549      1.0  0.09778  0.26763  0.79763  1.0000
  H   H550      1.0  0.10781  0.24380  0.79440  1.0000
  H   H551      1.0  0.08586  0.24774  0.86205  1.0000
  H   H552      1.0  0.06076  0.25433  0.86300  1.0000
  H   H553      1.0  0.03998  0.25925  0.84067  1.0000
  H   H554      1.0  0.03892  0.24948  0.82053  1.0000
  H   H555      1.0  0.02599  0.22241  0.84167  1.0000
  H   H556      1.0  0.02735  0.23192  0.86196  1.0000
  C   C319      1.0  0.17331  0.97538  0.76799  1.0000
  H   H557      1.0  0.13036  0.20812  0.81633  1.0000
  H   H558      1.0  0.12091  0.19646  0.83947  1.0000
  H   H559      1.0  0.12137  0.18658  0.81893  1.0000
  H   H560      1.0  0.10554  0.26493  0.76410  1.0000
  H   H561      1.0  0.09083  0.24728  0.76789  1.0000
  H   H562      1.0  0.08033  0.27121  0.77104  1.0000
  H   H563      1.0  0.06362  0.28824  0.85720  1.0000
  H   H564      1.0  0.07301  0.27513  0.87772  1.0000
  H   H565      1.0  0.08895  0.28161  0.85632  1.0000
  S   S83       1.0  0.11659  0.28607  0.65273  1.0000
  H   H566      1.0  0.19961  0.45621  0.75571  1.0000
  C   C320      1.0  0.11091  0.97725  0.78628  1.0000
  H   H567      1.0  0.03504  0.23770  0.70605  1.0000
  C   C321      1.0  0.06845  0.30539  0.73216  1.0000
  H   H568      1.0  0.19917  0.17847  0.93916  1.0000
  H   H569      1.0  0.21899  0.11628  0.84103  1.0000
  H   H570      1.0  0.11178  0.32185  0.93308  1.0000
  C   C322      1.0  0.21930  0.38434  0.88025  1.0000
  H   H571      1.0  0.07199  0.29631  0.74544  1.0000
  H   H572      1.0  0.02468  0.20050  0.72599  1.0000
  C   C323      1.0  0.04959  0.31888  0.73667  1.0000
  H   H573      1.0  0.22194  0.04352  0.74940  1.0000
  H   H574      1.0  0.08911  0.27109  0.70566  1.0000
  H   H575      1.0  0.21110  0.12872  0.88256  1.0000
  C   C324      1.0  0.22682  0.25698  0.94047  1.0000
  H   H576      1.0  0.18695  0.01494  0.71103  1.0000
  H   H577      1.0  0.03766  0.31924  0.70385  1.0000
  H   H578      1.0  0.19254  0.35308  0.84197  1.0000
  H   H579      1.0  0.15153  0.14024  0.92783  1.0000
  H   H580      1.0  0.00434  0.25792  0.71284  1.0000
  H   H581      1.0  0.17051  0.38321  0.94143  1.0000
  C   C325      1.0  0.22937  0.98390  0.71656  1.0000
  H   H582      1.0  0.13743  0.33741  0.93597  1.0000
  H   H583      1.0  0.10836  0.14769  0.95265  1.0000
  H   H584      1.0  0.99665  0.14560  0.72567  1.0000
  H   H585      1.0  0.05430  0.33832  0.67477  1.0000
  H   H586      1.0  0.20646  0.33351  0.91640  1.0000
  H   H587      1.0  0.13147  0.15815  0.93038  1.0000
  N   N16       1.0  0.12503  0.13005  0.93289  1.0000
  H   H588      1.0  0.15806  0.11271  0.90845  1.0000
  H   H589      1.0  0.14216  0.18466  0.95338  1.0000
  Fe  Fe38      1.0  0.19086  0.37483  0.63542  1.0000
  H   H590      1.0  0.20879  0.39694  0.88129  1.0000
  H   H591      1.0  0.02562  0.22521  0.69260  1.0000
  N   N17       1.0  0.02260  0.14399  0.74924  1.0000
  C   C326      1.0  0.03250  0.13832  0.76608  1.0000
  C   C327      1.0  0.01622  0.16515  0.74566  1.0000
  H   H592      1.0  0.22896  0.42353  0.87554  1.0000
  C   C328      1.0  0.03493  0.13712  0.73207  1.0000
  C   C329      1.0  0.05308  0.14565  0.72401  1.0000
  C   C330      1.0  0.03704  0.11690  0.77375  1.0000
  H   H593      1.0  0.06115  0.33566  0.75123  1.0000
  C   C331      1.0  0.02933  0.17754  0.74937  1.0000
  N   N18       1.0  0.06933  0.29348  0.71759  1.0000
  C   C332      1.0  0.06542  0.13561  0.70840  1.0000
  C   C333      1.0  0.04784  0.11320  0.79016  1.0000
  S   S84       1.0  0.22755  0.41277  0.75554  1.0000
  H   H594      1.0  0.02372  0.14500  0.77796  1.0000
  H   H595      1.0  0.04597  0.14374  0.76314  1.0000
  Fe  Fe39      1.0  0.21692  0.35795  0.94597  1.0000
  H   H596      1.0  0.17458  0.98165  0.75327  1.0000
  S   S85       1.0  0.22115  0.08049  0.95519  1.0000
  H   H597      1.0  0.07640  0.29843  0.68698  1.0000
  C   C334      1.0  0.22298  0.39947  0.73994  1.0000
  H   H598      1.0  0.03727  0.31155  0.73974  1.0000
  H   H599      1.0  0.06182  0.14453  0.73489  1.0000
  H   H600      1.0  0.04923  0.16065  0.71761  1.0000
  H   H601      1.0  0.21853  0.97827  0.76559  1.0000
  H   H602      1.0  0.04585  0.10912  0.76275  1.0000
  C   C335      1.0  0.21336  0.11159  0.83026  1.0000
  C   C336      1.0  0.08836  0.28068  0.71579  1.0000
  H   H603      1.0  0.02876  0.17632  0.76468  1.0000
  H   H604      1.0  0.04419  0.17327  0.74328  1.0000
  H   H605      1.0  0.11098  0.34450  0.91788  1.0000
  H   H606      1.0  0.10790  0.29729  0.72100  1.0000
  H   H607      1.0  0.07430  0.13772  0.91064  1.0000
  H   H608      1.0  0.05752  0.13662  0.69680  1.0000
  H   H609      1.0  0.07808  0.14237  0.70258  1.0000
  H   H610      1.0  0.07022  0.12054  0.71400  1.0000
  H   H611      1.0  0.03967  0.12083  0.80161  1.0000
  H   H612      1.0  0.05021  0.09790  0.79597  1.0000
  H   H613      1.0  0.22229  0.42334  0.84363  1.0000
  N   N19       1.0  0.22493  0.46224  0.69893  1.0000
  H   H614      1.0  0.21490  0.44558  0.72557  1.0000
  C   C337      1.0  0.02417  0.23897  0.69719  1.0000
  H   H615      1.0  0.12581  0.15952  0.89856  1.0000
  C   C338      1.0  0.06781  0.30579  0.69851  1.0000
  H   H616      1.0  0.22150  0.20232  0.92775  1.0000
  S   S86       1.0  0.21199  0.37784  0.91876  1.0000
  C   C339      1.0  0.22365  0.37212  0.89670  1.0000
  N   N20       1.0  0.16974  0.34363  0.90768  1.0000
  C   C340      1.0  0.16914  0.35313  0.92414  1.0000
  C   C341      1.0  0.18164  0.32427  0.91100  1.0000
  C   C342      1.0  0.17809  0.35549  0.88989  1.0000
  C   C343      1.0  0.22542  0.43607  0.84737  1.0000
  C   C344      1.0  0.20813  0.99225  0.72170  1.0000
  C   C345      1.0  0.15523  0.37206  0.92501  1.0000
  C   C346      1.0  0.18012  0.34750  0.87153  1.0000
  C   C347      1.0  0.15703  0.08360  0.91888  1.0000
  H   H617      1.0  0.22895  0.30405  0.91253  1.0000
  Fe  Fe40      1.0  0.21726  0.11206  0.95142  1.0000
  C   C348      1.0  0.22732  0.44541  0.68943  1.0000
  C   C349      1.0  0.19295  0.35762  0.85530  1.0000
  H   H618      1.0  0.18333  0.35609  0.92420  1.0000
  H   H619      1.0  0.16583  0.34353  0.93773  1.0000
  H   H620      1.0  0.17719  0.31689  0.92558  1.0000
  H   H621      1.0  0.17927  0.31510  0.90177  1.0000
  H   H622      1.0  0.19203  0.35832  0.89119  1.0000
  H   H623      1.0  0.16924  0.36968  0.88756  1.0000
  H   H624      1.0  0.21183  0.44495  0.85229  1.0000
  H   H625      1.0  0.98375  0.11584  0.73851  1.0000
  S   S87       1.0  0.19177  0.13144  0.94130  1.0000
  S   S88       1.0  0.09677  0.24682  0.64190  1.0000
  H   H626      1.0  0.15875  0.38273  0.91243  1.0000
  H   H627      1.0  0.11688  0.98142  0.81208  1.0000
  H   H628      1.0  0.16605  0.34952  0.86735  1.0000
  H   H629      1.0  0.18609  0.33226  0.87318  1.0000
  C   C350      1.0  0.98895  0.24638  0.69636  1.0000
  C   C351      1.0  0.21084  0.45955  0.71688  1.0000
  H   H630      1.0  0.15294  0.33011  0.66411  1.0000
  C   C352      1.0  0.11605  0.13293  0.95270  1.0000
  C   C353      1.0  0.21537  0.37936  0.71421  1.0000
  H   H631      1.0  0.20360  0.45563  0.67360  1.0000
  C   C354      1.0  0.21426  0.42681  0.67133  1.0000
  H   H632      1.0  0.09948  0.16164  0.92077  1.0000
  C   C355      1.0  0.21859  0.05371  0.87455  1.0000
  C   C356      1.0  0.04783  0.31220  0.69309  1.0000
  H   H633      1.0  0.20484  0.99694  0.73548  1.0000
  H   H634      1.0  0.19723  0.05593  0.89927  1.0000
  C   C357      1.0  0.03914  0.25536  0.74629  1.0000
  H   H635      1.0  0.16009  0.45935  0.70590  1.0000
  H   H636      1.0  0.19882  0.41977  0.73239  1.0000
  H   H637      1.0  0.19242  0.40230  0.70963  1.0000
  H   H638      1.0  0.17725  0.13387  0.83073  1.0000
  H   H639      1.0  0.22018  0.46825  0.77858  1.0000
  C   C358      1.0  0.15389  0.16471  0.89563  1.0000
  C   C359      1.0  0.20788  0.40663  0.72997  1.0000
  C   C360      1.0  0.19815  0.10592  0.87875  1.0000
  H   H640      1.0  0.13585  0.13442  0.82272  1.0000
  C   C361      1.0  0.20414  0.39670  0.71711  1.0000
  H   H641      1.0  0.14044  0.37016  0.92608  1.0000
  C   C362      1.0  0.21029  0.17924  0.94693  1.0000
  H   H642      1.0  0.14857  0.10954  0.94217  1.0000
  C   C363      1.0  0.04927  0.32772  0.75376  1.0000
  H   H643      1.0  0.98217  0.31012  0.68047  1.0000
  S   S89       1.0  0.20154  0.39388  0.64942  1.0000
  C   C364      1.0  0.16524  0.16208  0.94808  1.0000
  H   H644      1.0  0.14641  0.31594  0.92652  1.0000
  H   H645      1.0  0.02384  0.11095  0.77914  1.0000
  H   H646      1.0  0.03369  0.33061  0.67130  1.0000
  H   H647      1.0  0.14850  0.29952  0.65806  1.0000
  H   H648      1.0  0.11477  0.12979  0.90734  1.0000
  H   H649      1.0  0.12639  0.26551  0.71712  1.0000
  H   H650      1.0  0.06182  0.11777  0.78544  1.0000
  C   C365      1.0  0.00527  0.13473  0.75372  1.0000
  H   H651      1.0  0.15561  0.22619  0.91477  1.0000
  C   C366      1.0  0.17762  0.14675  0.95596  1.0000
  C   C367      1.0  0.19388  0.46995  0.74756  1.0000
  S   S90       1.0  0.16771  0.44219  0.64335  1.0000
  C   C368      1.0  0.13935  0.15157  0.90257  1.0000
  S   S91       1.0  0.11756  0.27694  0.95862  1.0000
  H   H652      1.0  0.22893  0.99668  0.78489  1.0000
  H   H653      1.0  0.21079  0.29371  0.90734  1.0000
  H   H654      1.0  0.12361  0.46121  0.67098  1.0000
  H   H655      1.0  0.08427  0.14734  0.93710  1.0000
  H   H656      1.0  0.10452  0.30174  0.69697  1.0000
  H   H657      1.0  0.14594  0.39360  0.94266  1.0000
  C   C369      1.0  0.23032  0.37212  0.72433  1.0000
  C   C370      1.0  0.11180  0.99046  0.79944  1.0000
  H   H658      1.0  0.07408  0.31868  0.69707  1.0000
  C   C371      1.0  0.05311  0.26893  0.74329  1.0000
  Fe  Fe41      1.0  0.10837  0.24841  0.96115  1.0000
  H   H659      1.0  0.21052  0.02033  0.70554  1.0000
  N   N21       1.0  0.19933  0.21499  0.94804  1.0000
  C   C372      1.0  0.11928  0.33005  0.92037  1.0000
  C   C373      1.0  0.20603  0.23353  0.93976  1.0000
  C   C374      1.0  0.22845  0.38034  0.86243  1.0000
  H   H660      1.0  0.08931  0.15244  0.89400  1.0000
  H   H661      1.0  0.07942  0.31457  0.72755  1.0000
  H   H662      1.0  0.19421  0.24549  0.94229  1.0000
  C   C375      1.0  0.16705  0.21409  0.91205  1.0000
  C   C376      1.0  0.18496  0.21620  0.91832  1.0000
  C   C377      1.0  0.08096  0.15042  0.90843  1.0000
  H   H663      1.0  0.03580  0.33769  0.75640  1.0000
  H   H664      1.0  0.01340  0.16997  0.73101  1.0000
  C   C378      1.0  0.20960  0.44277  0.68268  1.0000
  H   H665      1.0  0.16217  0.20076  0.91950  1.0000
  H   H666      1.0  0.06957  0.16287  0.90967  1.0000
  H   H667      1.0  0.02694  0.24996  0.68464  1.0000
  H   H668      1.0  0.23041  0.07438  0.75437  1.0000
  H   H669      1.0  0.00938  0.27738  0.63751  1.0000
  C   C379      1.0  0.20324  0.32378  0.90837  1.0000
  H   H670      1.0  0.22140  0.04394  0.71600  1.0000
  H   H671      1.0  0.21993  0.41329  0.67983  1.0000
  H   H672      1.0  0.12820  0.09990  0.94223  1.0000
  C   C380      1.0  0.99026  0.14283  0.74071  1.0000
  H   H673      1.0  0.19672  0.45933  0.71371  1.0000
  C   C381      1.0  0.02324  0.19833  0.74154  1.0000
  H   H674      1.0  0.04820  0.27813  0.75414  1.0000
  H   H675      1.0  0.10218  0.11830  0.92797  1.0000
  H   H676      1.0  0.19926  0.98156  0.72219  1.0000
  H   H677      1.0  0.99198  0.23350  0.68995  1.0000
  C   C382      1.0  0.10589  0.29065  0.70951  1.0000
  H   H678      1.0  0.15109  0.33372  0.89424  1.0000
  H   H679      1.0  0.22933  0.26050  0.92488  1.0000
  H   H680      1.0  0.16797  0.15742  0.89892  1.0000
  H   H681      1.0  0.22149  0.23391  0.96260  1.0000
  C   C383      1.0  0.18201  0.21499  0.93999  1.0000
  C   C384      1.0  0.10926  0.13082  0.92232  1.0000
  C   C385      1.0  0.09352  0.14851  0.92308  1.0000
  H   H682      1.0  0.21028  0.23499  0.92425  1.0000
  H   H683      1.0  0.14161  0.35558  0.90171  1.0000
  H   H684      1.0  0.20556  0.17473  0.96210  1.0000
  H   H685      1.0  0.21161  0.09887  0.87130  1.0000
  H   H686      1.0  0.00839  0.20331  0.74782  1.0000
  C   C386      1.0  0.15024  0.34155  0.90585  1.0000
  H   H687      1.0  0.17074  0.22696  0.94380  1.0000
  H   H688      1.0  0.14682  0.07413  0.92621  1.0000
  C   C387      1.0  0.20311  0.11773  0.89121  1.0000
  H   H689      1.0  0.13697  0.10505  0.90580  1.0000
  H   H690      1.0  0.99137  0.25812  0.68434  1.0000
  H   H691      1.0  0.20880  0.29973  0.93038  1.0000
  C   C388      1.0  0.14702  0.10411  0.91541  1.0000
  H   H692      1.0  0.22474  0.43005  0.65845  1.0000
  Fe  Fe42      1.0  0.22505  0.03595  0.79188  1.0000
  H   H693      1.0  0.22564  0.09592  0.76369  1.0000
  H   H694      1.0  0.22566  0.09738  0.80630  1.0000
  H   H695      1.0  0.17993  0.46913  0.74443  1.0000
  H   H696      1.0  0.21215  0.10848  0.90104  1.0000
  C   C389      1.0  0.21523  0.19929  0.94293  1.0000
  H   H697      1.0  0.21758  0.06552  0.91741  1.0000
  H   H698      1.0  0.22466  0.00042  0.75264  1.0000
  C   C390      1.0  0.22311  0.06290  0.90324  1.0000
  H   H699      1.0  0.23058  0.97888  0.70302  1.0000
  H   H700      1.0  0.23073  0.11023  0.68584  1.0000
  H   H701      1.0  0.22484  0.38966  0.84982  1.0000
  H   H702      1.0  0.98193  0.15631  0.74455  1.0000
  H   H703      1.0  0.22705  0.19848  0.95053  1.0000
  H   H704      1.0  0.19218  0.31329  0.63501  1.0000
  C   C391      1.0  0.23014  0.10091  0.81844  1.0000
  C   C392      1.0  0.13878  0.28151  0.96364  1.0000
  C   C393      1.0  0.14016  0.30014  0.96436  1.0000
  H   H705      1.0  0.12801  0.31114  0.96281  1.0000
  C   C394      1.0  0.16420  0.50974  0.19170  1.0000
  C   C395      1.0  0.05927  0.95432  0.18096  1.0000
  H   H706      1.0  0.01653  0.53757  0.26128  1.0000
  H   H707      1.0  0.00616  0.77894  0.22232  1.0000
  H   H708      1.0  0.98606  0.79230  0.23506  1.0000
  H   H709      1.0  0.01020  0.96745  0.25849  1.0000
  C   C396      1.0  0.14461  0.48280  0.27350  1.0000
  H   H710      1.0  0.13019  0.92603  0.11358  1.0000
  H   H711      1.0  0.14859  0.95408  0.14114  1.0000
  Fe  Fe43      1.0  0.08349  0.49227  0.23260  1.0000
  S   S92       1.0  0.06674  0.52212  0.23121  1.0000
  H   H712      1.0  0.16710  0.73511  0.97505  1.0000
  C   C397      1.0  0.21822  0.92284  0.02377  1.0000
  H   H713      1.0  0.21020  0.57281  0.06709  1.0000
  Fe  Fe44      1.0  0.09170  0.63311  0.29715  1.0000
  H   H714      1.0  0.21273  0.48862  0.15328  1.0000
  Fe  Fe45      1.0  0.10465  0.92754  0.23691  1.0000
  S   S93       1.0  0.08731  0.95049  0.21943  1.0000
  S   S94       1.0  0.10431  0.89612  0.23903  1.0000
  Fe  Fe46      1.0  0.12829  0.95525  0.24412  1.0000
  H   H715      1.0  0.17390  0.50958  0.17802  1.0000
  H   H716      1.0  0.18608  0.59317  0.28780  1.0000
  S   S95       1.0  0.10187  0.94460  0.25993  1.0000
  S   S96       1.0  0.13259  0.93609  0.22288  1.0000
  Fe  Fe47      1.0  0.08322  0.61143  0.26898  1.0000
  H   H717      1.0  0.18208  0.95106  0.20107  1.0000
  S   S97       1.0  0.09853  0.58489  0.25736  1.0000
  Fe  Fe48      1.0  0.07523  0.65474  0.26220  1.0000
  C   C398      1.0  0.17312  0.89662  0.12936  1.0000
  S   S98       1.0  0.07643  0.67841  0.23697  1.0000
  H   H718      1.0  0.13980  0.61898  0.27687  1.0000
  S   S99       1.0  0.15366  0.96138  0.25405  1.0000
  H   H719      1.0  0.18698  0.53616  0.12324  1.0000
  S   S100      1.0  0.10139  0.63327  0.26619  1.0000
  S   S101      1.0  0.05770  0.63286  0.26253  1.0000
  Fe  Fe49      1.0  0.19050  0.82992  0.05212  1.0000
  S   S102      1.0  0.18630  0.80592  0.07618  1.0000
  S   S103      1.0  0.18905  0.86053  0.05545  1.0000
  Fe  Fe50      1.0  0.18738  0.80611  0.02289  1.0000
  S   S104      1.0  0.18235  0.78086  0.04506  1.0000
  S   S105      1.0  0.19236  0.80496  0.99155  1.0000
  Fe  Fe51      1.0  0.16347  0.80161  0.06232  1.0000
  S   S106      1.0  0.13365  0.79907  0.07716  1.0000
  Fe  Fe52      1.0  0.20561  0.78723  0.05692  1.0000
  H   H720      1.0  0.09150  0.78441  0.26784  1.0000
  S   S107      1.0  0.16652  0.82643  0.03907  1.0000
  S   S108      1.0  0.21179  0.81162  0.03388  1.0000
  Fe  Fe53      1.0  0.05311  0.82928  0.19969  1.0000
  S   S109      1.0  0.07450  0.80423  0.20877  1.0000
  S   S110      1.0  0.04940  0.85916  0.20596  1.0000
  Fe  Fe54      1.0  0.03694  0.80670  0.17762  1.0000
  S   S111      1.0  0.05784  0.78036  0.18437  1.0000
  S   S112      1.0  0.01555  0.80931  0.15843  1.0000
  Fe  Fe55      1.0  0.05130  0.78711  0.21354  1.0000
  S   S113      1.0  0.04572  0.76512  0.23968  1.0000
  Fe  Fe56      1.0  0.07927  0.79955  0.17886  1.0000
  S   S114      1.0  0.10991  0.79218  0.16553  1.0000
  S   S115      1.0  0.02916  0.81261  0.20714  1.0000
  S   S116      1.0  0.05913  0.82542  0.16939  1.0000
  C   C399      1.0  0.17833  0.79424  0.98154  1.0000
  C   C400      1.0  0.15985  0.79227  0.99011  1.0000
  C   C401      1.0  0.14877  0.78444  0.98133  1.0000
  H   H721      1.0  0.15397  0.79710  0.00333  1.0000
  H   H722      1.0  0.13439  0.78317  0.98795  1.0000
  C   C402      1.0  0.12767  0.79880  0.10160  1.0000
  C   C403      1.0  0.14121  0.79257  0.11335  1.0000
  C   C404      1.0  0.13565  0.79103  0.13296  1.0000
  C   C405      1.0  0.11657  0.79583  0.14087  1.0000
  C   C406      1.0  0.10316  0.80282  0.12908  1.0000
  C   C407      1.0  0.10871  0.80416  0.10950  1.0000
  H   H723      1.0  0.15585  0.78830  0.10739  1.0000
  H   H724      1.0  0.14609  0.78564  0.14203  1.0000
  H   H725      1.0  0.08847  0.80682  0.13506  1.0000
  H   H726      1.0  0.09832  0.80931  0.10035  1.0000
  C   C408      1.0  0.99807  0.77862  0.17576  1.0000
  C   C409      1.0  0.99960  0.79361  0.16071  1.0000
  H   H727      1.0  0.18670  0.83879  0.09601  1.0000
  H   H728      1.0  0.00681  0.77642  0.18642  1.0000
  H   H729      1.0  0.02797  0.70241  0.24080  1.0000
  C   C410      1.0  0.06668  0.70218  0.23824  1.0000
  C   C411      1.0  0.06569  0.71510  0.22143  1.0000
  C   C412      1.0  0.05909  0.73438  0.22172  1.0000
  C   C413      1.0  0.05327  0.74088  0.23884  1.0000
  C   C414      1.0  0.05376  0.72789  0.25570  1.0000
  C   C415      1.0  0.06041  0.70856  0.25542  1.0000
  H   H730      1.0  0.07034  0.71019  0.20811  1.0000
  H   H731      1.0  0.05861  0.74418  0.20868  1.0000
  H   H732      1.0  0.04921  0.73282  0.26902  1.0000
  H   H733      1.0  0.06104  0.69868  0.26845  1.0000
  C   C416      1.0  0.17825  0.97197  0.29456  1.0000
  H   H734      1.0  0.01930  0.69101  0.20615  1.0000
  S   S117      1.0  0.12352  0.96306  0.17468  1.0000
  H   H735      1.0  0.17246  0.55472  0.25951  1.0000
  H   H736      1.0  0.20494  0.79809  0.11458  1.0000
  C   C417      1.0  0.21806  0.96121  0.19086  1.0000
  H   H737      1.0  0.13225  0.94899  0.11705  1.0000
  H   H738      1.0  0.20027  0.74444  0.06610  1.0000
  H   H739      1.0  0.19491  0.74659  0.97693  1.0000
  C   C418      1.0  0.06490  0.86899  0.21529  1.0000
  C   C419      1.0  0.08191  0.85855  0.22026  1.0000
  C   C420      1.0  0.09379  0.86707  0.22747  1.0000
  C   C421      1.0  0.08897  0.88614  0.22961  1.0000
  C   C422      1.0  0.07208  0.89661  0.22445  1.0000
  C   C423      1.0  0.06011  0.88806  0.21741  1.0000
  H   H740      1.0  0.08580  0.84389  0.21872  1.0000
  H   H741      1.0  0.10678  0.85881  0.23150  1.0000
  H   H742      1.0  0.06808  0.91123  0.22617  1.0000
  H   H743      1.0  0.04698  0.89626  0.21365  1.0000
  H   H744      1.0  0.20530  0.93009  0.01789  1.0000
  C   C424      1.0  0.19590  0.88917  0.07036  1.0000
  C   C425      1.0  0.20154  0.87012  0.06832  1.0000
  H   H745      1.0  0.04786  0.95275  0.17388  1.0000
  H   H746      1.0  0.18414  0.89757  0.06406  1.0000
  H   H747      1.0  0.18422  0.96626  0.21665  1.0000
  H   H748      1.0  0.13239  0.52793  0.27441  1.0000
  H   H749      1.0  0.13815  0.48801  0.26110  1.0000
  H   H750      1.0  0.01087  0.74367  0.22958  1.0000
  S   S118      1.0  0.21722  0.95398  0.09251  1.0000
  H   H751      1.0  0.99586  0.55220  0.28792  1.0000
  C   C426      1.0  0.07573  0.53994  0.23766  1.0000
  C   C427      1.0  0.06339  0.55622  0.24249  1.0000
  C   C428      1.0  0.07008  0.57024  0.24850  1.0000
  C   C429      1.0  0.08930  0.56833  0.24907  1.0000
  C   C430      1.0  0.10174  0.55254  0.24323  1.0000
  C   C431      1.0  0.09497  0.53825  0.23794  1.0000
  H   H752      1.0  0.04860  0.55784  0.24168  1.0000
  H   H753      1.0  0.06050  0.58259  0.25244  1.0000
  H   H754      1.0  0.11674  0.55129  0.24273  1.0000
  H   H755      1.0  0.10468  0.52606  0.23378  1.0000
  C   C432      1.0  0.00140  0.72266  0.26309  1.0000
  H   H756      1.0  0.98991  0.74575  0.22054  1.0000
  H   H757      1.0  0.04689  0.74558  0.08281  1.0000
  H   H758      1.0  0.99465  0.73334  0.27223  1.0000
  H   H759      1.0  0.22120  0.84474  0.07512  1.0000
  C   C433      1.0  0.98644  0.59200  0.28340  1.0000
  H   H760      1.0  0.12137  0.55202  0.27209  1.0000
  H   H761      1.0  0.13987  0.52532  0.05892  1.0000
  C   C434      1.0  0.02609  0.68850  0.21877  1.0000
  H   H762      1.0  0.16489  0.61619  0.26884  1.0000
  H   H763      1.0  0.21050  0.52427  0.11490  1.0000
  C   C435      1.0  0.15313  0.60858  0.27611  1.0000
  N   N22       1.0  0.16603  0.84839  0.11918  1.0000
  C   C436      1.0  0.15310  0.85636  0.10490  1.0000
  C   C437      1.0  0.17537  0.86369  0.12238  1.0000
  C   C438      1.0  0.18128  0.83356  0.11106  1.0000
  C   C439      1.0  0.15583  0.83878  0.13740  1.0000
  C   C440      1.0  0.13933  0.85118  0.14826  1.0000
  C   C441      1.0  0.14277  0.84222  0.09981  1.0000
  H   H764      1.0  0.21721  0.52385  0.06205  1.0000
  C   C442      1.0  0.16355  0.88388  0.12179  1.0000
  H   H765      1.0  0.21670  0.88566  0.02154  1.0000
  C   C443      1.0  0.12850  0.83905  0.16466  1.0000
  C   C444      1.0  0.13116  0.85178  0.08442  1.0000
  H   H766      1.0  0.16130  0.86305  0.09160  1.0000
  H   H767      1.0  0.14187  0.86783  0.10959  1.0000
  H   H768      1.0  0.16097  0.53828  0.25295  1.0000
  Fe  Fe57      1.0  0.11522  0.95956  0.20624  1.0000
  C   C445      1.0  0.21333  0.73451  0.06654  1.0000
  H   H769      1.0  0.17538  0.82077  0.11122  1.0000
  H   H770      1.0  0.15048  0.82650  0.13504  1.0000
  H   H771      1.0  0.16577  0.83257  0.14740  1.0000
  H   H772      1.0  0.12914  0.85927  0.13912  1.0000
  H   H773      1.0  0.14496  0.86102  0.15433  1.0000
  H   H774      1.0  0.15286  0.83036  0.09440  1.0000
  H   H775      1.0  0.13296  0.83648  0.11225  1.0000
  C   C446      1.0  0.01016  0.61163  0.25013  1.0000
  H   H776      1.0  0.16223  0.89030  0.10698  1.0000
  H   H777      1.0  0.14914  0.88402  0.13000  1.0000
  H   H778      1.0  0.18340  0.95305  0.07203  1.0000
  H   H779      1.0  0.19839  0.51331  0.06026  1.0000
  C   C447      1.0  0.98835  0.79615  0.14681  1.0000
  H   H780      1.0  0.11780  0.84813  0.17339  1.0000
  H   H781      1.0  0.12108  0.83011  0.15928  1.0000
  H   H782      1.0  0.13821  0.82983  0.17382  1.0000
  H   H783      1.0  0.14052  0.85711  0.07135  1.0000
  H   H784      1.0  0.12383  0.84140  0.08113  1.0000
  H   H785      1.0  0.12035  0.86363  0.08906  1.0000
  H   H786      1.0  0.17563  0.49003  0.23485  1.0000
  N   N23       1.0  0.19164  0.72801  0.00401  1.0000
  H   H787      1.0  0.02199  0.67574  0.22849  1.0000
  C   C448      1.0  0.19135  0.70715  0.01088  1.0000
  C   C449      1.0  0.98533  0.76634  0.17690  1.0000
  C   C450      1.0  0.17281  0.73964  0.01042  1.0000
  C   C451      1.0  0.16690  0.73939  0.03183  1.0000
  S   S119      1.0  0.23016  0.48035  0.10617  1.0000
  H   H788      1.0  0.20703  0.83807  0.11945  1.0000
  C   C452      1.0  0.19788  0.69823  0.02999  1.0000
  H   H789      1.0  0.02549  0.71772  0.21871  1.0000
  C   C453      1.0  0.14909  0.75388  0.03607  1.0000
  H   H790      1.0  0.19681  0.76412  0.00902  1.0000
  C   C454      1.0  0.20841  0.48906  0.24625  1.0000
  H   H791      1.0  0.14477  0.53313  0.17918  1.0000
  H   H792      1.0  0.04167  0.68584  0.21425  1.0000
  H   H793      1.0  0.17693  0.70406  0.01176  1.0000
  C   C455      1.0  0.02104  0.53575  0.27512  1.0000
  H   H794      1.0  0.22482  0.51424  0.01190  1.0000
  H   H795      1.0  0.18122  0.95953  0.12737  1.0000
  H   H796      1.0  0.17230  0.75452  0.00321  1.0000
  H   H797      1.0  0.16124  0.73487  0.00602  1.0000
  H   H798      1.0  0.17805  0.74271  0.03804  1.0000
  H   H799      1.0  0.16354  0.72537  0.03896  1.0000
  H   H800      1.0  0.01527  0.63254  0.22502  1.0000
  H   H801      1.0  0.17409  0.52270  0.10143  1.0000
  H   H802      1.0  0.13418  0.51985  0.20073  1.0000
  H   H803      1.0  0.99475  0.61690  0.25137  1.0000
  H   H804      1.0  0.98958  0.80759  0.13501  1.0000
  H   H805      1.0  0.19034  0.70612  0.04131  1.0000
  H   H806      1.0  0.99252  0.71323  0.22200  1.0000
  C   C456      1.0  0.99873  0.70995  0.23507  1.0000
  H   H807      1.0  0.14361  0.49600  0.13462  1.0000
  H   H808      1.0  0.15163  0.76834  0.02952  1.0000
  H   H809      1.0  0.13716  0.75088  0.03069  1.0000
  H   H810      1.0  0.14505  0.75340  0.05151  1.0000
  C   C457      1.0  0.18081  0.72530  0.97339  1.0000
  H   H811      1.0  0.09836  0.75105  0.26533  1.0000
  H   H812      1.0  0.16576  0.55300  0.03611  1.0000
  S   S120      1.0  0.11496  0.48513  0.23166  1.0000
  H   H813      1.0  0.22239  0.48327  0.25051  1.0000
  H   H814      1.0  0.10631  0.51894  0.27383  1.0000
  S   S121      1.0  0.22940  0.67787  0.07050  1.0000
  N   N24       1.0  0.06237  0.76134  0.12917  1.0000
  C   C458      1.0  0.05070  0.78078  0.12968  1.0000
  C   C459      1.0  0.05843  0.74909  0.14820  1.0000
  C   C460      1.0  0.08292  0.76346  0.12577  1.0000
  C   C461      1.0  0.05905  0.75227  0.11381  1.0000
  C   C462      1.0  0.03875  0.75680  0.10904  1.0000
  C   C463      1.0  0.05546  0.79586  0.11207  1.0000
  C   C464      1.0  0.09767  0.74498  0.12599  1.0000
  C   C465      1.0  0.03796  0.74535  0.15529  1.0000
  C   C466      1.0  0.03519  0.73610  0.17603  1.0000
  C   C467      1.0  0.03650  0.74400  0.09608  1.0000
  C   C468      1.0  0.03978  0.81308  0.11074  1.0000
  C   C469      1.0  0.11776  0.74926  0.11985  1.0000
  H   H815      1.0  0.05242  0.78627  0.14211  1.0000
  H   H816      1.0  0.03539  0.78046  0.13174  1.0000
  H   H817      1.0  0.06718  0.73483  0.14832  1.0000
  H   H818      1.0  0.06265  0.75514  0.15900  1.0000
  H   H819      1.0  0.08544  0.77104  0.13639  1.0000
  H   H820      1.0  0.08674  0.77227  0.11181  1.0000
  H   H821      1.0  0.06854  0.75642  0.10033  1.0000
  H   H822      1.0  0.06305  0.73666  0.11729  1.0000
  H   H823      1.0  0.03570  0.77155  0.10166  1.0000
  H   H824      1.0  0.02773  0.75520  0.12168  1.0000
  H   H825      1.0  0.06841  0.80092  0.11289  1.0000
  H   H826      1.0  0.05806  0.79005  0.09888  1.0000
  H   H827      1.0  0.09537  0.73626  0.11635  1.0000
  H   H828      1.0  0.09698  0.73656  0.14036  1.0000
  H   H829      1.0  0.02741  0.75842  0.15400  1.0000
  H   H830      1.0  0.03492  0.73549  0.14722  1.0000
  H   H831      1.0  0.02066  0.73281  0.18046  1.0000
  H   H832      1.0  0.04543  0.72278  0.17834  1.0000
  H   H833      1.0  0.03696  0.74583  0.18496  1.0000
  H   H834      1.0  0.21156  0.93391  0.27377  1.0000
  H   H835      1.0  0.02205  0.74787  0.09252  1.0000
  H   H836      1.0  0.21356  0.75853  0.98850  1.0000
  H   H837      1.0  0.02607  0.80893  0.11077  1.0000
  H   H838      1.0  0.03836  0.82056  0.12270  1.0000
  H   H839      1.0  0.04335  0.82300  0.09751  1.0000
  H   H840      1.0  0.11963  0.75753  0.10536  1.0000
  H   H841      1.0  0.12092  0.75736  0.12962  1.0000
  H   H842      1.0  0.12807  0.73589  0.12002  1.0000
  N   N25       1.0  0.09750  0.91127  0.16748  1.0000
  C   C470      1.0  0.11093  0.91202  0.18018  1.0000
  C   C471      1.0  0.07870  0.92322  0.17349  1.0000
  C   C472      1.0  0.09439  0.89112  0.17055  1.0000
  C   C473      1.0  0.10500  0.91725  0.14683  1.0000
  C   C474      1.0  0.11808  0.93232  0.14168  1.0000
  C   C475      1.0  0.12961  0.89756  0.17847  1.0000
  C   C476      1.0  0.07854  0.88772  0.16125  1.0000
  C   C477      1.0  0.07845  0.94455  0.17189  1.0000
  S   S122      1.0  0.06682  0.65655  0.29306  1.0000
  C   C478      1.0  0.12282  0.93831  0.12037  1.0000
  C   C479      1.0  0.14428  0.90269  0.18759  1.0000
  C   C480      1.0  0.08056  0.86701  0.15969  1.0000
  H   H843      1.0  0.10396  0.90960  0.19520  1.0000
  H   H844      1.0  0.11459  0.92626  0.17796  1.0000
  H   H845      1.0  0.06816  0.92238  0.16498  1.0000
  H   H846      1.0  0.07287  0.91765  0.18831  1.0000
  H   H847      1.0  0.09105  0.88550  0.18585  1.0000
  H   H848      1.0  0.10759  0.88191  0.16522  1.0000
  H   H849      1.0  0.11331  0.90493  0.14050  1.0000
  H   H850      1.0  0.09305  0.92258  0.13891  1.0000
  H   H851      1.0  0.13163  0.92666  0.14686  1.0000
  H   H852      1.0  0.11157  0.94509  0.14784  1.0000
  H   H853      1.0  0.12686  0.88334  0.18583  1.0000
  H   H854      1.0  0.13573  0.89664  0.16357  1.0000
  H   H855      1.0  0.07863  0.89614  0.14691  1.0000
  H   H856      1.0  0.06455  0.89172  0.16998  1.0000
  H   H857      1.0  0.08921  0.94726  0.17900  1.0000
  H   H858      1.0  0.08085  0.95128  0.15689  1.0000
  C   C481      1.0  0.15814  0.49198  0.27712  1.0000
  C   C482      1.0  0.20518  0.89736  0.08070  1.0000
  H   H859      1.0  0.10976  0.94473  0.11445  1.0000
  H   H860      1.0  0.14759  0.91687  0.18082  1.0000
  H   H861      1.0  0.13890  0.90263  0.20283  1.0000
  H   H862      1.0  0.15750  0.89220  0.18606  1.0000
  H   H863      1.0  0.08133  0.85787  0.17362  1.0000
  H   H864      1.0  0.06806  0.86492  0.15460  1.0000
  H   H865      1.0  0.09339  0.86271  0.14955  1.0000
  H   H866      1.0  0.07611  0.77975  0.25390  1.0000
  H   H867      1.0  0.13864  0.53848  0.03559  1.0000
  H   H868      1.0  0.18188  0.47958  0.16981  1.0000
  Fe  Fe58      1.0  0.22433  0.96260  0.11747  1.0000
  C   C483      1.0  0.01128  0.55222  0.28529  1.0000
  H   H869      1.0  0.18086  0.85937  0.13591  1.0000
  H   H870      1.0  0.09830  0.68735  0.26525  1.0000
  C   C484      1.0  0.98526  0.66314  0.27872  1.0000
  N   N26       1.0  0.99155  0.72565  0.24640  1.0000
  H   H871      1.0  0.20034  0.91184  0.08265  1.0000
  H   H872      1.0  0.20262  0.66910  0.02551  1.0000
  H   H873      1.0  0.01108  0.57248  0.25975  1.0000
  C   C485      1.0  0.21101  0.56818  0.05348  1.0000
  H   H874      1.0  0.17307  0.74104  0.21325  1.0000
  H   H875      1.0  0.18683  0.94575  0.03980  1.0000
  C   C486      1.0  0.12932  0.54059  0.28124  1.0000
  H   H876      1.0  0.16786  0.91889  0.26059  1.0000
  H   H877      1.0  0.17818  0.71082  0.97955  1.0000
  H   H878      1.0  0.22253  0.75635  0.02781  1.0000
  C   C487      1.0  0.19879  0.82661  0.12105  1.0000
  H   H879      1.0  0.19733  0.48676  0.25883  1.0000
  C   C488      1.0  0.18088  0.91392  0.28540  1.0000
  H   H880      1.0  0.01542  0.65349  0.27556  1.0000
  N   N27       1.0  0.22786  0.93698  0.02864  1.0000
  H   H881      1.0  0.11812  0.76247  0.25322  1.0000
  H   H882      1.0  0.20075  0.69867  0.00057  1.0000
  H   H883      1.0  0.17162  0.52749  0.03986  1.0000
  H   H884      1.0  0.16872  0.76577  0.20345  1.0000
  C   C489      1.0  0.99088  0.77963  0.22824  1.0000
  H   H885      1.0  0.21295  0.91326  0.03672  1.0000
  H   H886      1.0  0.99501  0.76184  0.25446  1.0000
  S   S123      1.0  0.21864  0.47288  0.06796  1.0000
  H   H887      1.0  0.09609  0.79126  0.24266  1.0000
  H   H888      1.0  0.20320  0.59692  0.03903  1.0000
  H   H889      1.0  0.14989  0.56278  0.25189  1.0000
  H   H890      1.0  0.21848  0.48000  0.21970  1.0000
  H   H891      1.0  0.18797  0.86561  0.11123  1.0000
  C   C490      1.0  0.15856  0.55081  0.25988  1.0000
  H   H892      1.0  0.04019  0.56779  0.29746  1.0000
  H   H893      1.0  0.19753  0.51121  0.09258  1.0000
  C   C491      1.0  0.19521  0.73136  0.98274  1.0000
  C   C492      1.0  0.14447  0.51873  0.18748  1.0000
  C   C493      1.0  0.14699  0.96621  0.16569  1.0000
  C   C494      1.0  0.19547  0.95547  0.04217  1.0000
  C   C495      1.0  0.21057  0.52991  0.03423  1.0000
  H   H894      1.0  0.15200  0.59798  0.26783  1.0000
  N   N28       1.0  0.00763  0.58860  0.28202  1.0000
  H   H895      1.0  0.10363  0.50404  0.29655  1.0000
  H   H896      1.0  0.03568  0.62286  0.23607  1.0000
  N   N29       1.0  0.11523  0.73638  0.23042  1.0000
  C   C496      1.0  0.10237  0.75450  0.23444  1.0000
  C   C497      1.0  0.11168  0.73110  0.21282  1.0000
  C   C498      1.0  0.11046  0.72103  0.24685  1.0000
  C   C499      1.0  0.13577  0.73763  0.22874  1.0000
  C   C500      1.0  0.14333  0.75341  0.21343  1.0000
  C   C501      1.0  0.10348  0.76108  0.25278  1.0000
  C   C502      1.0  0.11970  0.70046  0.24444  1.0000
  C   C503      1.0  0.10550  0.74743  0.19707  1.0000
  C   C504      1.0  0.10472  0.74011  0.17938  1.0000
  C   C505      1.0  0.16349  0.75466  0.21484  1.0000
  H   H897      1.0  0.22130  0.72504  0.00493  1.0000
  C   C506      1.0  0.11388  0.68648  0.26214  1.0000
  H   H898      1.0  0.08743  0.75306  0.23525  1.0000
  H   H899      1.0  0.10478  0.76641  0.22278  1.0000
  H   H900      1.0  0.12430  0.72170  0.20652  1.0000
  H   H901      1.0  0.10015  0.72265  0.21638  1.0000
  H   H902      1.0  0.09489  0.72147  0.25020  1.0000
  H   H903      1.0  0.11460  0.72338  0.25975  1.0000
  H   H904      1.0  0.13885  0.73904  0.24247  1.0000
  H   H905      1.0  0.14488  0.72427  0.22542  1.0000
  H   H906      1.0  0.13461  0.76745  0.21466  1.0000
  H   H907      1.0  0.14382  0.75023  0.19927  1.0000
  C   C507      1.0  0.14617  0.95744  0.29318  1.0000
  C   C508      1.0  0.01593  0.57120  0.27334  1.0000
  H   H908      1.0  0.13532  0.69869  0.24187  1.0000
  H   H909      1.0  0.11531  0.69630  0.23258  1.0000
  H   H910      1.0  0.09113  0.75498  0.20191  1.0000
  H   H911      1.0  0.11514  0.75783  0.19311  1.0000
  H   H912      1.0  0.09989  0.75214  0.16863  1.0000
  H   H913      1.0  0.11894  0.73305  0.17343  1.0000
  H   H914      1.0  0.09464  0.73005  0.18259  1.0000
  H   H915      1.0  0.20548  0.90169  0.00331  1.0000
  H   H916      1.0  0.05614  0.94828  0.19615  1.0000
  H   H917      1.0  0.16390  0.75838  0.22858  1.0000
  H   H918      1.0  0.22775  0.88667  0.99726  1.0000
  H   H919      1.0  0.18766  0.89715  0.12138  1.0000
  C   C509      1.0  0.20994  0.75475  0.00400  1.0000
  H   H920      1.0  0.11870  0.68930  0.27445  1.0000
  Fe  Fe59      1.0  0.05076  0.63342  0.29355  1.0000
  H   H921      1.0  0.12035  0.67189  0.25997  1.0000
  C   C510      1.0  0.99537  0.74393  0.23390  1.0000
  H   H922      1.0  0.15848  0.48134  0.19531  1.0000
  C   C511      1.0  0.21338  0.71515  0.06799  1.0000
  H   H923      1.0  0.16210  0.50424  0.26742  1.0000
  C   C512      1.0  0.01200  0.70165  0.29233  1.0000
  C   C513      1.0  0.14867  0.54647  0.28026  1.0000
  C   C514      1.0  0.01609  0.60495  0.26978  1.0000
  H   H924      1.0  0.21052  0.56793  0.28208  1.0000
  C   C515      1.0  0.18052  0.91009  0.26592  1.0000
  H   H925      1.0  0.16493  0.91118  0.12788  1.0000
  S   S124      1.0  0.17674  0.48038  0.11059  1.0000
  H   H926      1.0  0.21356  0.93260  0.20497  1.0000
  C   C516      1.0  0.22578  0.75897  0.01221  1.0000
  C   C517      1.0  0.15792  0.96329  0.27637  1.0000
  C   C518      1.0  0.19763  0.90111  0.29412  1.0000
  C   C519      1.0  0.14273  0.53855  0.04925  1.0000
  H   H927      1.0  0.19235  0.51076  0.12679  1.0000
  H   H928      1.0  0.22318  0.55654  0.05199  1.0000
  H   H929      1.0  0.22470  0.80599  0.11961  1.0000
  C   C520      1.0  0.09827  0.53453  0.29775  1.0000
  C   C521      1.0  0.19463  0.67785  0.03612  1.0000
  H   H930      1.0  0.01290  0.61727  0.27713  1.0000
  H   H931      1.0  0.03178  0.60137  0.26728  1.0000
  C   C522      1.0  0.18873  0.95190  0.21302  1.0000
  C   C523      1.0  0.21024  0.94715  0.20808  1.0000
  C   C524      1.0  0.16416  0.48956  0.20327  1.0000
  C   C525      1.0  0.00152  0.70318  0.27608  1.0000
  C   C526      1.0  0.00203  0.65356  0.28502  1.0000
  H   H932      1.0  0.17981  0.89504  0.26656  1.0000
  H   H933      1.0  0.03848  0.72902  0.10315  1.0000
  H   H934      1.0  0.20962  0.72409  0.97742  1.0000
  C   C527      1.0  0.98762  0.76198  0.24273  1.0000
  C   C528      1.0  0.09102  0.78029  0.25432  1.0000
  H   H935      1.0  0.00872  0.69162  0.26827  1.0000
  H   H936      1.0  0.03154  0.56980  0.26968  1.0000
  H   H937      1.0  0.15336  0.49107  0.21608  1.0000
  H   H938      1.0  0.19326  0.91381  0.25588  1.0000
  C   C529      1.0  0.20769  0.73376  0.01019  1.0000
  C   C530      1.0  0.02042  0.70560  0.22870  1.0000
  H   H939      1.0  0.19887  0.53636  0.02641  1.0000
  H   H940      1.0  0.01690  0.63984  0.24639  1.0000
  H   H941      1.0  0.15820  0.53507  0.28777  1.0000
  N   N30       1.0  0.18993  0.54243  0.06402  1.0000
  C   C531      1.0  0.19224  0.56181  0.05306  1.0000
  C   C532      1.0  0.16996  0.53951  0.06505  1.0000
  C   C533      1.0  0.19256  0.54206  0.08391  1.0000
  C   C534      1.0  0.21661  0.85935  0.07671  1.0000
  H   H942      1.0  0.17387  0.89140  0.14448  1.0000
  H   H943      1.0  0.01386  0.60001  0.24186  1.0000
  C   C535      1.0  0.18929  0.52387  0.09819  1.0000
  C   C536      1.0  0.16369  0.53987  0.04619  1.0000
  C   C537      1.0  0.20404  0.52678  0.05594  1.0000
  H   H944      1.0  0.20643  0.73086  0.02573  1.0000
  H   H945      1.0  0.20029  0.71029  0.06875  1.0000
  C   C538      1.0  0.19518  0.52387  0.11689  1.0000
  H   H946      1.0  0.18053  0.57262  0.05855  1.0000
  H   H947      1.0  0.19097  0.56304  0.03815  1.0000
  H   H948      1.0  0.16777  0.52549  0.07347  1.0000
  H   H949      1.0  0.15977  0.55020  0.07249  1.0000
  H   H950      1.0  0.18309  0.55418  0.08977  1.0000
  H   H951      1.0  0.20715  0.54382  0.08403  1.0000
  H   H952      1.0  0.22253  0.95914  0.28482  1.0000
  C   C539      1.0  0.21211  0.81043  0.11259  1.0000
  H   H953      1.0  0.18956  0.50326  0.21654  1.0000
  C   C540      1.0  0.18759  0.48859  0.22288  1.0000
  H   H954      1.0  0.13389  0.55082  0.05521  1.0000
  H   H955      1.0  0.19465  0.82144  0.13626  1.0000
  H   H956      1.0  0.01623  0.72506  0.25846  1.0000
  H   H957      1.0  0.04109  0.59240  0.29524  1.0000
  H   H958      1.0  0.20993  0.89936  0.28267  1.0000
  C   C541      1.0  0.22029  0.88660  0.08905  1.0000
  C   C542      1.0  0.16626  0.48560  0.29346  1.0000
  H   H959      1.0  0.16850  0.51901  0.19952  1.0000
  C   C543      1.0  0.02015  0.62771  0.23878  1.0000
  H   H960      1.0  0.13962  0.51025  0.17917  1.0000
  H   H961      1.0  0.98282  0.78115  0.21668  1.0000
  H   H962      1.0  0.14696  0.55937  0.28639  1.0000
  C   C544      1.0  0.21498  0.58479  0.03787  1.0000
  H   H963      1.0  0.20775  0.50443  0.24112  1.0000
  H   H964      1.0  0.20183  0.49375  0.18678  1.0000
  H   H965      1.0  0.18352  0.94166  0.22535  1.0000
  H   H966      1.0  0.22120  0.53942  0.03014  1.0000
  C   C545      1.0  0.14969  0.48278  0.14239  1.0000
  C   C546      1.0  0.21542  0.94468  0.04534  1.0000
  H   H967      1.0  0.21794  0.95632  0.00474  1.0000
  N   N31       1.0  0.18276  0.47909  0.20866  1.0000
  H   H968      1.0  0.21307  0.93320  0.05748  1.0000
  H   H969      1.0  0.02693  0.70337  0.28693  1.0000
  H   H970      1.0  0.03664  0.53461  0.27283  1.0000
  H   H971      1.0  0.18156  0.92900  0.28419  1.0000
  H   H972      1.0  0.17935  0.67718  0.03816  1.0000
  C   C547      1.0  0.23016  0.70202  0.06889  1.0000
  H   H973      1.0  0.19965  0.67185  0.04969  1.0000
  C   C548      1.0  0.20587  0.47912  0.23091  1.0000
  H   H974      1.0  0.98422  0.75474  0.18851  1.0000
  C   C549      1.0  0.19844  0.47930  0.19182  1.0000
  H   H975      1.0  0.17062  0.97147  0.05686  1.0000
  C   C550      1.0  0.18494  0.96415  0.05933  1.0000
  H   H976      1.0  0.12823  0.48474  0.16729  1.0000
  H   H977      1.0  0.01076  0.96816  0.23366  1.0000
  H   H978      1.0  0.17479  0.57459  0.28675  1.0000
  H   H979      1.0  0.21700  0.58066  0.02385  1.0000
  C   C551      1.0  0.15596  0.96065  0.14850  1.0000
  H   H980      1.0  0.22814  0.58928  0.03918  1.0000
  C   C552      1.0  0.21132  0.47361  0.15839  1.0000
  H   H981      1.0  0.05950  0.96958  0.17968  1.0000
  C   C553      1.0  0.17443  0.96374  0.14069  1.0000
  C   C554      1.0  0.14096  0.47644  0.16089  1.0000
  H   H982      1.0  0.21324  0.69803  0.02880  1.0000
  C   C555      1.0  0.21972  0.51141  0.02730  1.0000
  C   C556      1.0  0.17499  0.58500  0.29569  1.0000
  H   H983      1.0  0.13392  0.95163  0.29280  1.0000
  H   H984      1.0  0.22918  0.96666  0.01812  1.0000
  H   H985      1.0  0.99391  0.69669  0.24291  1.0000
  C   C557      1.0  0.22994  0.91046  0.00940  1.0000
  H   H986      1.0  0.09327  0.95582  0.29624  1.0000
  H   H987      1.0  0.98691  0.70086  0.28228  1.0000
  H   H988      1.0  0.98575  0.67028  0.26433  1.0000
  Fe  Fe60      1.0  0.08660  0.96854  0.24093  1.0000
  H   H989      1.0  0.20936  0.50167  0.03018  1.0000
  H   H990      1.0  0.21699  0.81490  0.09732  1.0000
  H   H991      1.0  0.21259  0.95927  0.17849  1.0000
  H   H992      1.0  0.21621  0.94740  0.22065  1.0000
  H   H993      1.0  0.09161  0.54762  0.28920  1.0000
  C   C558      1.0  0.22156  0.92989  0.28389  1.0000
  C   C559      1.0  0.09798  0.51766  0.28824  1.0000
  H   H994      1.0  0.22258  0.95426  0.05017  1.0000
  H   H995      1.0  0.07805  0.50526  0.27874  1.0000
  H   H996      1.0  0.19626  0.96711  0.02993  1.0000
  H   H997      1.0  0.22713  0.77405  0.00747  1.0000
  C   C560      1.0  0.17398  0.97051  0.27720  1.0000
  C   C561      1.0  0.22584  0.86753  0.08713  1.0000
  C   C562      1.0  0.07781  0.51673  0.28653  1.0000
  C   C563      1.0  0.21926  0.89525  0.00782  1.0000
  H   H998      1.0  0.16727  0.91131  0.29451  1.0000
  H   H999      1.0  0.07122  0.53020  0.27867  1.0000
  H   H1000     1.0  0.01730  0.52234  0.28373  1.0000
  C   C564      1.0  0.22995  0.95344  0.01258  1.0000
  S   S125      1.0  0.23038  0.76509  0.06508  1.0000
  C   C565      1.0  0.23005  0.74090  0.06627  1.0000
  H   H1001     1.0  0.98259  0.59171  0.26966  1.0000
  C   C566      1.0  0.15609  0.59913  0.29602  1.0000
  H   H1002     1.0  0.21640  0.58240  0.29608  1.0000
  C   C567      1.0  0.21422  0.56804  0.29592  1.0000
  H   H1003     1.0  0.16244  0.83365  0.96482  1.0000
  H   H1004     1.0  0.00439  0.57574  0.31149  1.0000
  Fe  Fe61      1.0  0.20508  0.49996  0.35716  1.0000
  S   S126      1.0  0.19282  0.52077  0.37716  1.0000
  S   S127      1.0  0.21393  0.50924  0.32632  1.0000
  C   C568      1.0  0.22581  0.74847  0.51670  1.0000
  C   C569      1.0  0.12754  0.49398  0.34034  1.0000
  C   C570      1.0  0.20903  0.75170  0.50586  1.0000
  H   H1005     1.0  0.19188  0.49173  0.41814  1.0000
  H   H1006     1.0  0.22455  0.48436  0.40111  1.0000
  C   C571      1.0  0.17821  0.70923  0.34749  1.0000
  Fe  Fe62      1.0  0.01585  0.73106  0.57791  1.0000
  Fe  Fe63      1.0  0.99431  0.70172  0.60253  1.0000
  S   S128      1.0  0.04448  0.73606  0.56110  1.0000
  S   S129      1.0  0.01272  0.71958  0.60872  1.0000
  H   H1007     1.0  0.14377  0.59207  0.30245  1.0000
  Fe  Fe64      1.0  0.18653  0.64310  0.41453  1.0000
  C   C572      1.0  0.12731  0.51959  0.31156  1.0000
  S   S130      1.0  0.18123  0.63592  0.44650  1.0000
  Fe  Fe65      1.0  0.17105  0.65734  0.37780  1.0000
  S   S131      1.0  0.19993  0.65255  0.36050  1.0000
  S   S132      1.0  0.14667  0.67169  0.36232  1.0000
  Fe  Fe66      1.0  0.20427  0.62477  0.37997  1.0000
  H   H1008     1.0  0.99567  0.72371  0.51115  1.0000
  S   S133      1.0  0.22755  0.95884  0.32649  1.0000
  S   S134      1.0  0.17468  0.62879  0.39627  1.0000
  S   S135      1.0  0.18022  0.67206  0.39754  1.0000
  Fe  Fe67      1.0  0.18464  0.70500  0.56155  1.0000
  S   S136      1.0  0.20006  0.68470  0.54244  1.0000
  S   S137      1.0  0.19658  0.72988  0.56538  1.0000
  Fe  Fe68      1.0  0.14863  0.68753  0.56977  1.0000
  S   S138      1.0  0.16151  0.66578  0.55127  1.0000
  S   S139      1.0  0.11928  0.68610  0.58690  1.0000
  Fe  Fe69      1.0  0.18703  0.66277  0.56459  1.0000
  S   S140      1.0  0.20627  0.63502  0.57109  1.0000
  Fe  Fe70      1.0  0.17325  0.68933  0.53080  1.0000
  S   S141      1.0  0.17252  0.69640  0.49943  1.0000
  S   S142      1.0  0.17360  0.68274  0.58465  1.0000
  S   S143      1.0  0.15842  0.71149  0.54832  1.0000
  C   C573      1.0  0.20365  0.61724  0.59117  1.0000
  C   C574      1.0  0.18737  0.61723  0.60512  1.0000
  C   C575      1.0  0.21067  0.92580  0.30436  1.0000
  H   H1009     1.0  0.02623  0.75934  0.61561  1.0000
  C   C576      1.0  0.21839  0.58820  0.60875  1.0000
  C   C577      1.0  0.21900  0.60261  0.59310  1.0000
  H   H1010     1.0  0.17540  0.62847  0.60369  1.0000
  C   C578      1.0  0.00310  0.72438  0.43965  1.0000
  H   H1011     1.0  0.22705  0.76254  0.36570  1.0000
  C   C579      1.0  0.17534  0.67927  0.48497  1.0000
  C   C580      1.0  0.17398  0.68529  0.46588  1.0000
  C   C581      1.0  0.17620  0.67215  0.45386  1.0000
  C   C582      1.0  0.17954  0.65284  0.46090  1.0000
  C   C583      1.0  0.18082  0.64680  0.48003  1.0000
  C   C584      1.0  0.17885  0.65996  0.49201  1.0000
  H   H1012     1.0  0.17099  0.70018  0.46040  1.0000
  H   H1013     1.0  0.17497  0.67688  0.43922  1.0000
  H   H1014     1.0  0.18333  0.63187  0.48560  1.0000
  H   H1015     1.0  0.17997  0.65514  0.50669  1.0000
  C   C585      1.0  0.16656  0.96610  0.31139  1.0000
  C   C586      1.0  0.18478  0.91071  0.32452  1.0000
  C   C587      1.0  0.12182  0.63847  0.32960  1.0000
  C   C588      1.0  0.13376  0.62899  0.34248  1.0000
  C   C589      1.0  0.14149  0.63901  0.35247  1.0000
  C   C590      1.0  0.13722  0.65868  0.34983  1.0000
  C   C591      1.0  0.12502  0.66821  0.33715  1.0000
  C   C592      1.0  0.11740  0.65816  0.32701  1.0000
  H   H1016     1.0  0.13691  0.61378  0.34490  1.0000
  H   H1017     1.0  0.15063  0.63149  0.36235  1.0000
  H   H1018     1.0  0.12151  0.68341  0.33513  1.0000
  C   C593      1.0  0.98721  0.73188  0.45461  1.0000
  C   C594      1.0  0.21946  0.72864  0.57030  1.0000
  N   N32       1.0  0.17965  0.57473  0.31457  1.0000
  C   C595      1.0  0.11732  0.51312  0.33176  1.0000
  H   H1019     1.0  0.21659  0.75881  0.56720  1.0000
  H   H1020     1.0  0.01327  0.73437  0.43476  1.0000
  C   C596      1.0  0.06518  0.72240  0.56869  1.0000
  C   C597      1.0  0.08291  0.72621  0.55895  1.0000
  C   C598      1.0  0.09964  0.71525  0.56441  1.0000
  C   C599      1.0  0.09873  0.70037  0.57961  1.0000
  C   C600      1.0  0.08101  0.69675  0.58950  1.0000
  C   C601      1.0  0.06429  0.70767  0.58405  1.0000
  H   H1021     1.0  0.08371  0.73768  0.54713  1.0000
  H   H1022     1.0  0.11324  0.71841  0.55701  1.0000
  H   H1023     1.0  0.08026  0.68540  0.60139  1.0000
  H   H1024     1.0  0.05075  0.70450  0.59158  1.0000
  N   N33       1.0  0.22499  0.64924  0.62756  1.0000
  C   C602      1.0  0.19580  0.73746  0.51440  1.0000
  S   S144      1.0  0.21652  0.63685  0.39951  1.0000
  C   C603      1.0  0.22066  0.56520  0.35704  1.0000
  C   C604      1.0  0.05121  0.65615  0.58961  1.0000
  H   H1025     1.0  0.21157  0.51738  0.40727  1.0000
  Fe  Fe71      1.0  0.20953  0.66508  0.38147  1.0000
  C   C605      1.0  0.22610  0.87913  0.36889  1.0000
  H   H1026     1.0  0.19369  0.60888  0.30595  1.0000
  H   H1027     1.0  0.20968  0.87957  0.32591  1.0000
  C   C606      1.0  0.11549  0.55413  0.30961  1.0000
  C   C607      1.0  0.22594  0.81376  0.52443  1.0000
  C   C608      1.0  0.19968  0.54314  0.37316  1.0000
  C   C609      1.0  0.09920  0.57390  0.33470  1.0000
  C   C610      1.0  0.19574  0.57398  0.38232  1.0000
  C   C611      1.0  0.19009  0.55637  0.38463  1.0000
  H   H1028     1.0  0.18840  0.58399  0.39139  1.0000
  H   H1029     1.0  0.17831  0.55295  0.39546  1.0000
  C   C612      1.0  0.19037  0.72296  0.35040  1.0000
  H   H1030     1.0  0.23048  0.57704  0.60996  1.0000
  H   H1031     1.0  0.99442  0.70061  0.52500  1.0000
  H   H1032     1.0  0.22010  0.70433  0.49137  1.0000
  H   H1033     1.0  0.01863  0.78030  0.58562  1.0000
  N   N34       1.0  0.05230  0.75349  0.62672  1.0000
  H   H1034     1.0  0.05764  0.66904  0.58680  1.0000
  H   H1035     1.0  0.16503  0.59610  0.33114  1.0000
  H   H1036     1.0  0.18179  0.54054  0.34105  1.0000
  C   C613      1.0  0.18802  0.69887  0.33122  1.0000
  H   H1037     1.0  0.01085  0.71048  0.44551  1.0000
  H   H1038     1.0  0.10657  0.75816  0.59487  1.0000
  C   C614      1.0  0.06058  0.64098  0.60398  1.0000
  H   H1039     1.0  0.13015  0.50759  0.30383  1.0000
  H   H1040     1.0  0.21437  0.75006  0.49098  1.0000
  H   H1041     1.0  0.14645  0.78105  0.32384  1.0000
  C   C615      1.0  0.19842  0.56154  0.31201  1.0000
  S   S145      1.0  0.99935  0.71149  0.57125  1.0000
  H   H1042     1.0  0.21168  0.87724  0.36998  1.0000
  C   C616      1.0  0.22325  0.50892  0.41448  1.0000
  H   H1043     1.0  0.13609  0.76116  0.33719  1.0000
  H   H1044     1.0  0.22892  0.72873  0.46670  1.0000
  C   C617      1.0  0.20330  0.48308  0.42561  1.0000
  C   C618      1.0  0.22576  0.74544  0.57022  1.0000
  H   H1045     1.0  0.15519  0.52661  0.33813  1.0000
  N   N35       1.0  0.18155  0.73533  0.36499  1.0000
  H   H1046     1.0  0.08842  0.53270  0.31130  1.0000
  N   N36       1.0  0.11739  0.53703  0.30050  1.0000
  H   H1047     1.0  0.11734  0.59737  0.62684  1.0000
  C   C619      1.0  0.16455  0.56286  0.32352  1.0000
  H   H1048     1.0  0.03584  0.65982  0.59476  1.0000
  H   H1049     1.0  0.22075  0.74086  0.34619  1.0000
  C   C620      1.0  0.17951  0.58810  0.32760  1.0000
  H   H1050     1.0  0.98340  0.63664  0.32998  1.0000
  H   H1051     1.0  0.11754  0.52333  0.34082  1.0000
  H   H1052     1.0  0.17602  0.69830  0.36019  1.0000
  H   H1053     1.0  0.08115  0.72786  0.60799  1.0000
  H   H1054     1.0  0.18793  0.75963  0.37332  1.0000
  H   H1055     1.0  0.06657  0.65972  0.62019  1.0000
  C   C621      1.0  0.22014  0.76793  0.35312  1.0000
  H   H1056     1.0  0.13860  0.54428  0.34991  1.0000
  H   H1057     1.0  0.15531  0.52741  0.36227  1.0000
  H   H1058     1.0  0.20457  0.73875  0.37763  1.0000
  H   H1059     1.0  0.15853  0.93164  0.34856  1.0000
  H   H1060     1.0  0.21235  0.69586  0.40661  1.0000
  C   C622      1.0  0.21242  0.84502  0.42808  1.0000
  C   C623      1.0  0.19551  0.74690  0.36727  1.0000
  H   H1061     1.0  0.15055  0.57190  0.32676  1.0000
  H   H1062     1.0  0.05312  0.65087  0.57618  1.0000
  H   H1063     1.0  0.18300  0.58015  0.34135  1.0000
  C   C624      1.0  0.21484  0.54772  0.35920  1.0000
  H   H1064     1.0  0.16986  0.92396  0.36889  1.0000
  H   H1065     1.0  0.16425  0.71678  0.34425  1.0000
  H   H1066     1.0  0.22009  0.92646  0.31416  1.0000
  H   H1067     1.0  0.07569  0.76870  0.61569  1.0000
  H   H1068     1.0  0.20381  0.71427  0.35414  1.0000
  H   H1069     1.0  0.99852  0.78613  0.61625  1.0000
  C   C625      1.0  0.16345  0.74783  0.36046  1.0000
  H   H1070     1.0  0.20426  0.55803  0.32528  1.0000
  H   H1071     1.0  0.98842  0.70244  0.49281  1.0000
  S   S146      1.0  0.18174  0.49858  0.29837  1.0000
  H   H1072     1.0  0.08558  0.61647  0.62104  1.0000
  H   H1073     1.0  0.22816  0.65282  0.52757  1.0000
  H   H1074     1.0  0.16607  0.55770  0.35372  1.0000
  H   H1075     1.0  0.08555  0.57812  0.34383  1.0000
  H   H1076     1.0  0.22216  0.91697  0.39931  1.0000
  Fe  Fe72      1.0  0.19773  0.48781  0.32278  1.0000
  H   H1077     1.0  0.21922  0.90961  0.36572  1.0000
  S   S147      1.0  0.17156  0.96719  0.33369  1.0000
  C   C626      1.0  0.03362  0.78219  0.58123  1.0000
  H   H1078     1.0  0.20795  0.59467  0.32272  1.0000
  H   H1079     1.0  0.21552  0.66879  0.46200  1.0000
  C   C627      1.0  0.09734  0.55881  0.32407  1.0000
  C   C628      1.0  0.22541  0.67547  0.45042  1.0000
  S   S148      1.0  0.99746  0.67047  0.61360  1.0000
  H   H1080     1.0  0.01189  0.68751  0.30128  1.0000
  H   H1081     1.0  0.18839  0.74006  0.52855  1.0000
  H   H1082     1.0  0.20032  0.76587  0.50602  1.0000
  H   H1083     1.0  0.07693  0.74896  0.59093  1.0000
  H   H1084     1.0  0.20214  0.63859  0.62129  1.0000
  H   H1085     1.0  0.14120  0.95450  0.32348  1.0000
  C   C629      1.0  0.98395  0.64410  0.31566  1.0000
  H   H1086     1.0  0.01617  0.54941  0.29901  1.0000
  H   H1087     1.0  0.02973  0.59048  0.32988  1.0000
  H   H1088     1.0  0.16073  0.90725  0.35995  1.0000
  H   H1089     1.0  0.04334  0.65435  0.62651  1.0000
  S   S149      1.0  0.23089  0.47761  0.35990  1.0000
  H   H1090     1.0  0.21447  0.78628  0.51093  1.0000
  H   H1091     1.0  0.22318  0.67948  0.61867  1.0000
  C   C630      1.0  0.22920  0.90165  0.42633  1.0000
  H   H1092     1.0  0.18958  0.70894  0.31775  1.0000
  C   C631      1.0  0.16474  0.76108  0.34118  1.0000
  H   H1093     1.0  0.09389  0.54638  0.33455  1.0000
  H   H1094     1.0  0.22231  0.53767  0.35025  1.0000
  H   H1095     1.0  0.04567  0.74841  0.60102  1.0000
  H   H1096     1.0  0.18605  0.61240  0.34770  1.0000
  H   H1097     1.0  0.19445  0.71957  0.45513  1.0000
  C   C632      1.0  0.22236  0.70515  0.39998  1.0000
  H   H1098     1.0  0.10815  0.66562  0.31720  1.0000
  C   C633      1.0  0.15040  0.95901  0.31056  1.0000
  C   C634      1.0  0.20990  0.75322  0.34961  1.0000
  H   H1099     1.0  0.22265  0.66019  0.58795  1.0000
  H   H1100     1.0  0.22057  0.89679  0.33134  1.0000
  H   H1101     1.0  0.07572  0.63763  0.59769  1.0000
  H   H1102     1.0  0.21709  0.83137  0.43698  1.0000
  H   H1103     1.0  0.05403  0.62825  0.60600  1.0000
  C   C635      1.0  0.05849  0.64792  0.62292  1.0000
  H   H1104     1.0  0.19338  0.73074  0.47502  1.0000
  H   H1105     1.0  0.02942  0.56559  0.33190  1.0000
  C   C636      1.0  0.04158  0.75914  0.61045  1.0000
  N   N37       1.0  0.11281  0.67982  0.50859  1.0000
  C   C637      1.0  0.11030  0.67279  0.49160  1.0000
  C   C638      1.0  0.09431  0.68113  0.52219  1.0000
  C   C639      1.0  0.11900  0.69876  0.50210  1.0000
  C   C640      1.0  0.12764  0.66652  0.51858  1.0000
  C   C641      1.0  0.12574  0.64536  0.52275  1.0000
  C   C642      1.0  0.12842  0.66917  0.47676  1.0000
  C   C643      1.0  0.12053  0.70901  0.51790  1.0000
  C   C644      1.0  0.07793  0.69661  0.51583  1.0000
  C   C645      1.0  0.05999  0.69604  0.53064  1.0000
  C   C646      1.0  0.14069  0.63345  0.53396  1.0000
  C   C647      1.0  0.12490  0.65975  0.46150  1.0000
  C   C648      1.0  0.12556  0.72857  0.50987  1.0000
  H   H1106     1.0  0.09996  0.68316  0.48396  1.0000
  H   H1107     1.0  0.10401  0.65971  0.49594  1.0000
  H   H1108     1.0  0.08904  0.66751  0.52520  1.0000
  H   H1109     1.0  0.09631  0.68333  0.53611  1.0000
  H   H1110     1.0  0.10948  0.70834  0.49291  1.0000
  H   H1111     1.0  0.13323  0.69727  0.49315  1.0000
  H   H1112     1.0  0.14204  0.66776  0.51059  1.0000
  H   H1113     1.0  0.12751  0.67059  0.53232  1.0000
  H   H1114     1.0  0.12766  0.63970  0.50954  1.0000
  H   H1115     1.0  0.11171  0.64325  0.53106  1.0000
  H   H1116     1.0  0.13315  0.68266  0.46969  1.0000
  H   H1117     1.0  0.14016  0.65989  0.48316  1.0000
  H   H1118     1.0  0.13165  0.70086  0.52597  1.0000
  H   H1119     1.0  0.10700  0.71096  0.52769  1.0000
  H   H1120     1.0  0.08149  0.71090  0.51377  1.0000
  H   H1121     1.0  0.07454  0.69462  0.50249  1.0000
  H   H1122     1.0  0.04870  0.70780  0.52632  1.0000
  H   H1123     1.0  0.05486  0.68252  0.53229  1.0000
  H   H1124     1.0  0.06266  0.69768  0.54443  1.0000
  H   H1125     1.0  0.15511  0.63521  0.52635  1.0000
  H   H1126     1.0  0.13855  0.63749  0.54804  1.0000
  H   H1127     1.0  0.13956  0.61832  0.53599  1.0000
  H   H1128     1.0  0.12096  0.64570  0.46767  1.0000
  H   H1129     1.0  0.11353  0.66868  0.45418  1.0000
  H   H1130     1.0  0.13803  0.65767  0.45095  1.0000
  H   H1131     1.0  0.13920  0.72754  0.49995  1.0000
  H   H1132     1.0  0.11430  0.73760  0.50245  1.0000
  H   H1133     1.0  0.12695  0.73536  0.52150  1.0000
  H   H1134     1.0  0.21123  0.54606  0.41850  1.0000
  H   H1135     1.0  0.99734  0.72290  0.42734  1.0000
  H   H1136     1.0  0.17234  0.49115  0.56609  1.0000
  H   H1137     1.0  0.15234  0.73922  0.36154  1.0000
  C   C649      1.0  0.04344  0.77879  0.59826  1.0000
  H   H1138     1.0  0.08520  0.56446  0.31652  1.0000
  H   H1139     1.0  0.05841  0.78024  0.59291  1.0000
  H   H1140     1.0  0.11078  0.73549  0.58776  1.0000
  C   C650      1.0  0.03606  0.57765  0.32357  1.0000
  H   H1141     1.0  0.03400  0.79679  0.57351  1.0000
  H   H1142     1.0  0.19930  0.93821  0.30592  1.0000
  C   C651      1.0  0.15321  0.53620  0.34843  1.0000
  H   H1143     1.0  0.22361  0.86891  0.41128  1.0000
  H   H1144     1.0  0.22363  0.80881  0.53988  1.0000
  C   C652      1.0  0.22252  0.48783  0.41540  1.0000
  H   H1145     1.0  0.14265  0.49443  0.33999  1.0000
  H   H1146     1.0  0.17445  0.92267  0.31864  1.0000
  H   H1147     1.0  0.20218  0.69107  0.33377  1.0000
  C   C653      1.0  0.22706  0.64583  0.51596  1.0000
  H   H1148     1.0  0.10253  0.51166  0.33209  1.0000
  C   C654      1.0  0.20240  0.58804  0.62282  1.0000
  H   H1149     1.0  0.11022  0.56848  0.34369  1.0000
  H   H1150     1.0  0.20694  0.84204  0.41624  1.0000
  H   H1151     1.0  0.04097  0.77231  0.57148  1.0000
  H   H1152     1.0  0.14151  0.52157  0.31293  1.0000
  H   H1153     1.0  0.16307  0.55401  0.31353  1.0000
  H   H1154     1.0  0.13823  0.77987  0.34876  1.0000
  H   H1155     1.0  0.21033  0.69374  0.47734  1.0000
  H   H1156     1.0  0.20370  0.72281  0.51553  1.0000
  H   H1157     1.0  0.21540  0.72162  0.42212  1.0000
  H   H1158     1.0  0.22421  0.65211  0.48709  1.0000
  H   H1159     1.0  0.19646  0.54786  0.30908  1.0000
  H   H1160     1.0  0.20318  0.75932  0.33711  1.0000
  C   C655      1.0  0.20153  0.72837  0.46103  1.0000
  S   S150      1.0  0.11335  0.62487  0.31693  1.0000
  H   H1161     1.0  0.12794  0.55299  0.31643  1.0000
  H   H1162     1.0  0.21007  0.78111  0.35533  1.0000
  H   H1163     1.0  0.17548  0.62774  0.32870  1.0000
  C   C656      1.0  0.22867  0.56627  0.41789  1.0000
  S   S151      1.0  0.21995  0.59954  0.36627  1.0000
  C   C657      1.0  0.21123  0.57836  0.36867  1.0000
  H   H1164     1.0  0.21206  0.81868  0.51969  1.0000
  H   H1165     1.0  0.15764  0.75715  0.37112  1.0000
  C   C658      1.0  0.17678  0.72251  0.38352  1.0000
  C   C659      1.0  0.17000  0.73218  0.40117  1.0000
  C   C660      1.0  0.16703  0.71761  0.41908  1.0000
  H   H1166     1.0  0.18925  0.71144  0.38613  1.0000
  H   H1167     1.0  0.16537  0.71483  0.38307  1.0000
  H   H1168     1.0  0.15633  0.74182  0.40022  1.0000
  H   H1169     1.0  0.18040  0.74037  0.40296  1.0000
  H   H1170     1.0  0.18060  0.70827  0.42133  1.0000
  H   H1171     1.0  0.16159  0.72488  0.43139  1.0000
  H   H1172     1.0  0.15665  0.70890  0.41824  1.0000
  H   H1173     1.0  0.07933  0.96121  0.31813  1.0000
  H   H1174     1.0  0.20012  0.62629  0.32927  1.0000
  C   C661      1.0  0.99623  0.78726  0.63095  1.0000
  H   H1175     1.0  0.21922  0.51171  0.42909  1.0000
  C   C662      1.0  0.18843  0.61806  0.33238  1.0000
  H   H1176     1.0  0.20137  0.66295  0.61352  1.0000
  S   S152      1.0  0.20639  0.96085  0.36992  1.0000
  C   C663      1.0  0.18701  0.91529  0.34344  1.0000
  H   H1177     1.0  0.19457  0.73140  0.33644  1.0000
  H   H1178     1.0  0.17943  0.68853  0.33002  1.0000
  S   S153      1.0  0.07480  0.61015  0.30009  1.0000
  C   C664      1.0  0.16764  0.54949  0.34230  1.0000
  C   C665      1.0  0.16783  0.91979  0.35590  1.0000
  H   H1179     1.0  0.17320  0.77200  0.34096  1.0000
  H   H1180     1.0  0.10297  0.58663  0.32472  1.0000
  H   H1181     1.0  0.12667  0.48291  0.33251  1.0000
  H   H1182     1.0  0.98940  0.88048  0.59672  1.0000
  H   H1183     1.0  0.99378  0.73338  0.46636  1.0000
  C   C666      1.0  0.98607  0.71348  0.51792  1.0000
  C   C667      1.0  0.22478  0.66019  0.49798  1.0000
  H   H1184     1.0  0.17774  0.89808  0.32786  1.0000
  C   C668      1.0  0.10404  0.74340  0.59938  1.0000
  H   H1185     1.0  0.22159  0.77781  0.53318  1.0000
  S   S154      1.0  0.02212  0.63111  0.31160  1.0000
  C   C669      1.0  0.22709  0.78097  0.51779  1.0000
  H   H1186     1.0  0.19448  0.92745  0.34109  1.0000
  H   H1187     1.0  0.19495  0.90294  0.35151  1.0000
  H   H1188     1.0  0.22668  0.69846  0.57428  1.0000
  H   H1189     1.0  0.03669  0.79015  0.60650  1.0000
  C   C670      1.0  0.00143  0.64399  0.30352  1.0000
  H   H1190     1.0  0.21120  0.66982  0.50099  1.0000
  C   C671      1.0  0.22857  0.66806  0.62976  1.0000
  H   H1191     1.0  0.20083  0.85361  0.43651  1.0000
  S   S155      1.0  0.23021  0.68566  0.37020  1.0000
  H   H1192     1.0  0.21181  0.92892  0.41891  1.0000
  H   H1193     1.0  0.18487  0.73903  0.50556  1.0000
  C   C672      1.0  0.22434  0.71960  0.40888  1.0000
  H   H1194     1.0  0.17103  0.75325  0.32944  1.0000
  H   H1195     1.0  0.11550  0.56720  0.29872  1.0000
  C   C673      1.0  0.08287  0.74285  0.60398  1.0000
  C   C674      1.0  0.22179  0.71873  0.46255  1.0000
  H   H1196     1.0  0.06908  0.51376  0.30066  1.0000
  H   H1197     1.0  0.11089  0.73672  0.61179  1.0000
  C   C675      1.0  0.18678  0.60262  0.62105  1.0000
  H   H1198     1.0  0.21835  0.57286  0.42897  1.0000
  H   H1199     1.0  0.16729  0.47574  0.55242  1.0000
  H   H1200     1.0  0.00504  0.71251  0.30116  1.0000
  H   H1201     1.0  0.21773  0.68943  0.44469  1.0000
  C   C676      1.0  0.19351  0.60216  0.32084  1.0000
  H   H1202     1.0  0.22921  0.71604  0.44844  1.0000
  C   C677      1.0  0.20466  0.65142  0.62536  1.0000
  H   H1203     1.0  0.20163  0.74218  0.45147  1.0000
  C   C678      1.0  0.14515  0.77138  0.33760  1.0000
  C   C679      1.0  0.21647  0.89218  0.31956  1.0000
  H   H1204     1.0  0.21455  0.63867  0.52050  1.0000
  H   H1205     1.0  0.19380  0.88678  0.29883  1.0000
  H   H1206     1.0  0.15600  0.61047  0.30390  1.0000
  C   C680      1.0  0.07308  0.75392  0.62012  1.0000
  H   H1207     1.0  0.05135  0.57452  0.32433  1.0000
  H   H1208     1.0  0.19097  0.48084  0.54924  1.0000
  N   N38       1.0  0.20268  0.90766  0.31024  1.0000
  H   H1209     1.0  0.21704  0.66271  0.43013  1.0000
  H   H1210     1.0  0.00693  0.59958  0.30718  1.0000
  C   C681      1.0  0.22266  0.70024  0.47723  1.0000
  H   H1211     1.0  0.05273  0.72434  0.62525  1.0000
  S   S156      1.0  0.99071  0.75446  0.58096  1.0000
  H   H1212     1.0  0.21690  0.89432  0.42902  1.0000
  H   H1213     1.0  0.20052  0.48566  0.44032  1.0000
  H   H1214     1.0  0.16638  0.66682  0.62700  1.0000
  C   C682      1.0  0.17811  0.47829  0.55969  1.0000
  Fe  Fe73      1.0  0.98656  0.74164  0.61171  1.0000
  C   C683      1.0  0.22621  0.54586  0.41938  1.0000
  H   H1215     1.0  0.00934  0.81198  0.62602  1.0000
  C   C684      1.0  0.01215  0.58624  0.30149  1.0000
  H   H1216     1.0  0.22614  0.57463  0.40400  1.0000
  H   H1217     1.0  0.12081  0.49009  0.35520  1.0000
  H   H1218     1.0  0.22861  0.53826  0.43348  1.0000
  H   H1219     1.0  0.22609  0.86606  0.44644  1.0000
  C   C685      1.0  0.22472  0.91998  0.41262  1.0000
  H   H1220     1.0  0.22006  0.74710  0.53201  1.0000
  C   C686      1.0  0.22895  0.85562  0.42024  1.0000
  S   S157      1.0  0.18698  0.47997  0.35375  1.0000
  C   C687      1.0  0.03342  0.58088  0.30307  1.0000
  H   H1221     1.0  0.09357  0.63544  0.62692  1.0000
  C   C688      1.0  0.23032  0.89740  0.36642  1.0000
  C   C689      1.0  0.23020  0.66347  0.43492  1.0000
  H   H1222     1.0  0.23121  0.77128  0.34080  1.0000
  C   C690      1.0  0.23136  0.71142  0.57437  1.0000
  H   H1223     1.0  0.23061  0.90549  0.43967  1.0000
  C   C691      1.0  0.08430  0.96730  0.30328  1.0000
  Fe  Fe74      1.0  0.19919  0.97168  0.34075  1.0000
  Fe  Fe75      1.0  0.00993  0.58210  0.73187  1.0000
  C   C692      1.0  0.22469  0.72641  0.89424  1.0000
  S   S158      1.0  0.03758  0.56148  0.73012  1.0000
  S   S159      1.0  0.00916  0.61066  0.73813  1.0000
  H   H1224     1.0  0.01503  0.66663  0.77088  1.0000
  S   S160      1.0  0.00890  0.67929  0.86171  1.0000
  Fe  Fe76      1.0  0.00463  0.73269  0.84095  1.0000
  S   S161      1.0  0.03019  0.71163  0.83251  1.0000
  H   H1225     1.0  0.12472  0.51470  0.70587  1.0000
  Fe  Fe77      1.0  0.00978  0.69299  0.83133  1.0000
  S   S162      1.0  0.01524  0.67991  0.80464  1.0000
  Fe  Fe78      1.0  0.02763  0.69972  0.86323  1.0000
  S   S163      1.0  0.05455  0.69099  0.87605  1.0000
  S   S164      1.0  0.00321  0.72195  0.87192  1.0000
  S   S165      1.0  0.01585  0.85559  0.69390  1.0000
  C   C693      1.0  0.04509  0.65613  0.66091  1.0000
  S   S166      1.0  0.01747  0.81223  0.71577  1.0000
  C   C694      1.0  0.16975  0.65601  0.63933  1.0000
  Fe  Fe79      1.0  0.02623  0.83862  0.71999  1.0000
  S   S167      1.0  0.05519  0.83519  0.72872  1.0000
  Fe  Fe80      1.0  0.00467  0.82995  0.69129  1.0000
  S   S168      1.0  0.00742  0.82245  0.66195  1.0000
  Fe  Fe81      1.0  0.17840  0.55768  0.71083  1.0000
  S   S169      1.0  0.19302  0.53900  0.68987  1.0000
  S   S170      1.0  0.19017  0.55845  0.73683  1.0000
  Fe  Fe82      1.0  0.14320  0.56965  0.69208  1.0000
  S   S171      1.0  0.15528  0.55185  0.66947  1.0000
  S   S172      1.0  0.11491  0.58943  0.69250  1.0000
  Fe  Fe83      1.0  0.16534  0.52947  0.69280  1.0000
  S   S173      1.0  0.16355  0.49818  0.69982  1.0000
  Fe  Fe84      1.0  0.18194  0.56294  0.66823  1.0000
  H   H1226     1.0  0.11154  0.83057  0.92813  1.0000
  S   S174      1.0  0.15115  0.54650  0.71553  1.0000
  S   S175      1.0  0.16936  0.58235  0.68906  1.0000
  Fe  Fe85      1.0  0.15235  0.91796  0.76361  1.0000
  S   S176      1.0  0.17041  0.89246  0.77740  1.0000
  S   S177      1.0  0.16026  0.94734  0.75758  1.0000
  Fe  Fe86      1.0  0.12703  0.89357  0.75342  1.0000
  S   S178      1.0  0.14386  0.86662  0.76612  1.0000
  S   S179      1.0  0.10179  0.89613  0.73869  1.0000
  Fe  Fe87      1.0  0.14305  0.88184  0.78978  1.0000
  S   S180      1.0  0.13348  0.86916  0.82016  1.0000
  Fe  Fe88      1.0  0.16951  0.87980  0.75250  1.0000
  S   S181      1.0  0.19524  0.86383  0.73624  1.0000
  S   S182      1.0  0.12484  0.90842  0.77782  1.0000
  S   S183      1.0  0.15292  0.90564  0.73793  1.0000
  Fe  Fe89      1.0  0.13207  0.74792  0.89525  1.0000
  S   S184      1.0  0.16013  0.74408  0.87585  1.0000
  S   S185      1.0  0.10315  0.74941  0.88733  1.0000
  Fe  Fe90      1.0  0.14925  0.76110  0.92416  1.0000
  S   S186      1.0  0.17819  0.75881  0.90672  1.0000
  H   H1227     1.0  0.10558  0.48591  0.73663  1.0000
  Fe  Fe91      1.0  0.16356  0.77168  0.88194  1.0000
  S   S187      1.0  0.17718  0.79176  0.85783  1.0000
  Fe  Fe92      1.0  0.17283  0.73148  0.90191  1.0000
  S   S188      1.0  0.19572  0.70549  0.90427  1.0000
  S   S189      1.0  0.13497  0.77655  0.89974  1.0000
  S   S190      1.0  0.14441  0.73281  0.92101  1.0000
  C   C695      1.0  0.14497  0.84690  0.82981  1.0000
  C   C696      1.0  0.13667  0.83739  0.84708  1.0000
  C   C697      1.0  0.14601  0.81997  0.85546  1.0000
  C   C698      1.0  0.16395  0.81230  0.84682  1.0000
  C   C699      1.0  0.17216  0.82177  0.82949  1.0000
  C   C700      1.0  0.16253  0.83886  0.82084  1.0000
  H   H1228     1.0  0.12305  0.84363  0.85403  1.0000
  H   H1229     1.0  0.13963  0.81278  0.86883  1.0000
  H   H1230     1.0  0.18604  0.81584  0.82282  1.0000
  H   H1231     1.0  0.16872  0.84608  0.80741  1.0000
  H   H1232     1.0  0.00023  0.89698  0.67313  1.0000
  C   C701      1.0  0.16470  0.95031  0.79323  1.0000
  H   H1233     1.0  0.05407  0.47736  0.71616  1.0000
  H   H1234     1.0  0.15944  0.93715  0.79815  1.0000
  H   H1235     1.0  0.08541  0.52356  0.67810  1.0000
  S   S191      1.0  0.99913  0.84736  0.73925  1.0000
  H   H1236     1.0  0.15169  0.84279  0.65123  1.0000
  H   H1237     1.0  0.11760  0.54013  0.68596  1.0000
  H   H1238     1.0  0.18050  0.77537  0.94230  1.0000
  H   H1239     1.0  0.21070  0.96323  0.74764  1.0000
  C   C702      1.0  0.05351  0.76292  0.65835  1.0000
  C   C703      1.0  0.16765  0.48916  0.66431  1.0000
  H   H1240     1.0  0.16922  0.50365  0.65869  1.0000
  C   C704      1.0  0.00721  0.65808  0.78227  1.0000
  C   C705      1.0  0.22376  0.95542  0.74036  1.0000
  H   H1241     1.0  0.04423  0.66971  0.65094  1.0000
  C   C706      1.0  0.10214  0.55343  0.66392  1.0000
  C   C707      1.0  0.21409  0.87624  0.72659  1.0000
  H   H1242     1.0  0.17579  0.80720  0.89079  1.0000
  H   H1243     1.0  0.07849  0.50445  0.72562  1.0000
  S   S192      1.0  0.99152  0.59238  0.70951  1.0000
  H   H1244     1.0  0.12358  0.86349  0.68049  1.0000
  H   H1245     1.0  0.20054  0.90128  0.73797  1.0000
  H   H1246     1.0  0.08096  0.74796  0.63198  1.0000
  H   H1247     1.0  0.13801  0.91469  0.67767  1.0000
  C   C708      1.0  0.98986  0.63193  0.79313  1.0000
  C   C709      1.0  0.11762  0.49281  0.72874  1.0000
  H   H1248     1.0  0.05835  0.51898  0.70290  1.0000
  C   C710      1.0  0.11212  0.49229  0.68888  1.0000
  H   H1249     1.0  0.03716  0.62535  0.64096  1.0000
  H   H1250     1.0  0.21411  0.73854  0.89083  1.0000
  C   C711      1.0  0.00225  0.79009  0.79832  1.0000
  C   C712      1.0  0.99976  0.64336  0.77848  1.0000
  H   H1251     1.0  0.10418  0.92700  0.67772  1.0000
  C   C713      1.0  0.21119  0.56697  0.73619  1.0000
  C   C714      1.0  0.12807  0.90450  0.68190  1.0000
  C   C715      1.0  0.18961  0.65590  0.64272  1.0000
  C   C716      1.0  0.06733  0.85253  0.73216  1.0000
  C   C717      1.0  0.06238  0.87173  0.72516  1.0000
  C   C718      1.0  0.07300  0.88481  0.72743  1.0000
  C   C719      1.0  0.08853  0.87898  0.73696  1.0000
  C   C720      1.0  0.09325  0.85983  0.74432  1.0000
  C   C721      1.0  0.08286  0.84669  0.74172  1.0000
  H   H1252     1.0  0.05052  0.87647  0.71776  1.0000
  H   H1253     1.0  0.06912  0.89957  0.72177  1.0000
  H   H1254     1.0  0.10489  0.85511  0.75198  1.0000
  H   H1255     1.0  0.08680  0.83190  0.74724  1.0000
  C   C722      1.0  0.06820  0.70734  0.87873  1.0000
  C   C723      1.0  0.08630  0.70073  0.88354  1.0000
  C   C724      1.0  0.09733  0.71331  0.88615  1.0000
  C   C725      1.0  0.09021  0.73264  0.88424  1.0000
  C   C726      1.0  0.07206  0.73918  0.87959  1.0000
  C   C727      1.0  0.06121  0.72669  0.87665  1.0000
  H   H1256     1.0  0.09182  0.68578  0.88527  1.0000
  H   H1257     1.0  0.11121  0.70802  0.88979  1.0000
  H   H1258     1.0  0.06620  0.75398  0.87857  1.0000
  H   H1259     1.0  0.04726  0.73198  0.87314  1.0000
  C   C728      1.0  0.06404  0.64314  0.65518  1.0000
  H   H1260     1.0  0.05658  0.60776  0.63495  1.0000
  H   H1261     1.0  0.10348  0.52155  0.72122  1.0000
  H   H1262     1.0  0.22183  0.82840  0.75982  1.0000
  H   H1263     1.0  0.19121  0.73990  0.94538  1.0000
  C   C729      1.0  0.00474  0.89535  0.65813  1.0000
  H   H1264     1.0  0.01995  0.88899  0.65598  1.0000
  C   C730      1.0  0.99906  0.80394  0.65559  1.0000
  C   C731      1.0  0.05892  0.57011  0.72117  1.0000
  C   C732      1.0  0.05916  0.58863  0.71171  1.0000
  C   C733      1.0  0.07649  0.59456  0.70348  1.0000
  C   C734      1.0  0.09362  0.58200  0.70451  1.0000
  C   C735      1.0  0.09339  0.56377  0.71467  1.0000
  C   C736      1.0  0.07607  0.55789  0.72306  1.0000
  H   H1265     1.0  0.04601  0.59822  0.71036  1.0000
  H   H1266     1.0  0.07662  0.60882  0.69601  1.0000
  H   H1267     1.0  0.10658  0.55424  0.71596  1.0000
  H   H1268     1.0  0.07589  0.54373  0.73080  1.0000
  H   H1269     1.0  0.09428  0.61539  0.66038  1.0000
  C   C737      1.0  0.04270  0.77587  0.67217  1.0000
  C   C738      1.0  0.00460  0.66181  0.80066  1.0000
  H   H1270     1.0  0.22030  0.91522  0.77494  1.0000
  N   N39       1.0  0.16988  0.82917  0.90786  1.0000
  H   H1271     1.0  0.02990  0.67044  0.68394  1.0000
  N   N40       1.0  0.05556  0.59974  0.77587  1.0000
  C   C739      1.0  0.07688  0.59603  0.77247  1.0000
  C   C740      1.0  0.04831  0.60867  0.79326  1.0000
  C   C741      1.0  0.04908  0.58086  0.77986  1.0000
  C   C742      1.0  0.04750  0.61171  0.75915  1.0000
  C   C743      1.0  0.05862  0.62706  0.74695  1.0000
  C   C744      1.0  0.08643  0.58384  0.75712  1.0000
  C   C745      1.0  0.02747  0.58124  0.78593  1.0000
  C   C746      1.0  0.05385  0.62792  0.79295  1.0000
  C   C747      1.0  0.04855  0.63341  0.81250  1.0000
  C   C748      1.0  0.04711  0.63998  0.73276  1.0000
  C   C749      1.0  0.10723  0.58558  0.75044  1.0000
  C   C750      1.0  0.02229  0.56208  0.78639  1.0000
  H   H1272     1.0  0.08215  0.58875  0.78570  1.0000
  H   H1273     1.0  0.08260  0.60938  0.76865  1.0000
  H   H1274     1.0  0.03258  0.61142  0.79616  1.0000
  H   H1275     1.0  0.05284  0.59872  0.80577  1.0000
  H   H1276     1.0  0.05612  0.57107  0.79105  1.0000
  H   H1277     1.0  0.05331  0.57400  0.76714  1.0000
  H   H1278     1.0  0.04622  0.60269  0.74922  1.0000
  H   H1279     1.0  0.03280  0.61870  0.76385  1.0000
  H   H1280     1.0  0.07193  0.62045  0.73884  1.0000
  H   H1281     1.0  0.06242  0.63596  0.75546  1.0000
  H   H1282     1.0  0.08578  0.56873  0.76283  1.0000
  H   H1283     1.0  0.07920  0.58795  0.74474  1.0000
  H   H1284     1.0  0.01951  0.59182  0.77610  1.0000
  H   H1285     1.0  0.02259  0.58465  0.80031  1.0000
  H   H1286     1.0  0.06919  0.62787  0.78843  1.0000
  H   H1287     1.0  0.04598  0.63908  0.78347  1.0000
  H   H1288     1.0  0.03331  0.63336  0.81810  1.0000
  H   H1289     1.0  0.05702  0.62350  0.82241  1.0000
  H   H1290     1.0  0.05134  0.64785  0.81170  1.0000
  H   H1291     1.0  0.05544  0.65062  0.72395  1.0000
  H   H1292     1.0  0.04360  0.63163  0.72343  1.0000
  H   H1293     1.0  0.03381  0.64747  0.74012  1.0000
  H   H1294     1.0  0.10861  0.60023  0.74339  1.0000
  H   H1295     1.0  0.11505  0.58159  0.76246  1.0000
  H   H1296     1.0  0.11380  0.57605  0.74012  1.0000
  H   H1297     1.0  0.02593  0.55825  0.77213  1.0000
  H   H1298     1.0  0.02979  0.55099  0.79626  1.0000
  H   H1299     1.0  0.09200  0.56314  0.67248  1.0000
  H   H1300     1.0  0.23121  0.85358  0.71313  1.0000
  H   H1301     1.0  0.17252  0.81773  0.93689  1.0000
  H   H1302     1.0  0.04929  0.77278  0.68498  1.0000
  C   C751      1.0  0.03699  0.59261  0.66723  1.0000
  C   C752      1.0  0.03005  0.73133  0.64779  1.0000
  H   H1303     1.0  0.09147  0.47915  0.68096  1.0000
  H   H1304     1.0  0.11388  0.56083  0.65608  1.0000
  H   H1305     1.0  0.10940  0.92179  0.70125  1.0000
  H   H1306     1.0  0.18060  0.83229  0.86811  1.0000
  H   H1307     1.0  0.21921  0.52825  0.76993  1.0000
  C   C753      1.0  0.22405  0.65685  0.86741  1.0000
  H   H1308     1.0  0.13879  0.50571  0.73597  1.0000
  Fe  Fe93      1.0  0.98877  0.62065  0.71801  1.0000
  H   H1309     1.0  0.15923  0.65934  0.65186  1.0000
  H   H1310     1.0  0.22765  0.47294  0.65833  1.0000
  H   H1311     1.0  0.19630  0.86042  0.85870  1.0000
  Fe  Fe94      1.0  0.98983  0.82225  0.73340  1.0000
  H   H1312     1.0  0.01881  0.73729  0.63925  1.0000
  H   H1313     1.0  0.19889  0.80713  0.76729  1.0000
  H   H1314     1.0  0.99410  0.68409  0.67637  1.0000
  H   H1315     1.0  0.04577  0.49604  0.73005  1.0000
  H   H1316     1.0  0.04290  0.79090  0.66571  1.0000
  H   H1317     1.0  0.20888  0.56123  0.76633  1.0000
  H   H1318     1.0  0.99728  0.75546  0.89073  1.0000
  C   C754      1.0  0.99900  0.76791  0.71613  1.0000
  C   C755      1.0  0.98955  0.79110  0.66894  1.0000
  H   H1319     1.0  0.20648  0.81921  0.88410  1.0000
  H   H1320     1.0  0.21161  0.53183  0.80329  1.0000
  C   C756      1.0  0.01866  0.71063  0.73868  1.0000
  H   H1321     1.0  0.03478  0.68244  0.74582  1.0000
  S   S193      1.0  0.98592  0.57548  0.75531  1.0000
  H   H1322     1.0  0.08449  0.53490  0.69711  1.0000
  C   C757      1.0  0.98368  0.77630  0.66339  1.0000
  C   C758      1.0  0.10309  0.48702  0.67394  1.0000
  H   H1323     1.0  0.05528  0.66666  0.68187  1.0000
  N   N41       1.0  0.10035  0.79276  0.83434  1.0000
  C   C759      1.0  0.08071  0.79613  0.82967  1.0000
  C   C760      1.0  0.11252  0.80428  0.81912  1.0000
  C   C761      1.0  0.10860  0.77219  0.83400  1.0000
  C   C762      1.0  0.10059  0.79694  0.85350  1.0000
  C   C763      1.0  0.08543  0.81315  0.86065  1.0000
  C   C764      1.0  0.06750  0.78256  0.84175  1.0000
  C   C765      1.0  0.12973  0.76606  0.83599  1.0000
  C   C766      1.0  0.10596  0.82592  0.81571  1.0000
  C   C767      1.0  0.11760  0.83529  0.79793  1.0000
  C   C768      1.0  0.08912  0.81713  0.87899  1.0000
  C   C769      1.0  0.04706  0.78931  0.83868  1.0000
  C   C770      1.0  0.13550  0.74463  0.83807  1.0000
  H   H1324     1.0  0.08152  0.79492  0.81469  1.0000
  H   H1325     1.0  0.07334  0.81070  0.83080  1.0000
  H   H1326     1.0  0.12704  0.80226  0.82231  1.0000
  H   H1327     1.0  0.11406  0.79929  0.80551  1.0000
  H   H1328     1.0  0.10693  0.76815  0.82076  1.0000
  H   H1329     1.0  0.10077  0.76305  0.84570  1.0000
  H   H1330     1.0  0.09867  0.78435  0.86451  1.0000
  H   H1331     1.0  0.11475  0.79981  0.85409  1.0000
  H   H1332     1.0  0.07118  0.80924  0.86363  1.0000
  H   H1333     1.0  0.08494  0.82640  0.85036  1.0000
  H   H1334     1.0  0.07197  0.76829  0.83788  1.0000
  H   H1335     1.0  0.06788  0.78127  0.85689  1.0000
  H   H1336     1.0  0.13254  0.77052  0.84849  1.0000
  H   H1337     1.0  0.13894  0.77221  0.82327  1.0000
  H   H1338     1.0  0.09098  0.83001  0.81391  1.0000
  H   H1339     1.0  0.10813  0.83189  0.82755  1.0000
  H   H1340     1.0  0.13284  0.83212  0.79899  1.0000
  H   H1341     1.0  0.11556  0.83045  0.78530  1.0000
  H   H1342     1.0  0.11294  0.85081  0.79619  1.0000
  H   H1343     1.0  0.07787  0.82842  0.88411  1.0000
  H   H1344     1.0  0.08912  0.80424  0.88997  1.0000
  H   H1345     1.0  0.10294  0.82185  0.87674  1.0000
  H   H1346     1.0  0.04140  0.80319  0.84315  1.0000
  H   H1347     1.0  0.04609  0.79047  0.82363  1.0000
  H   H1348     1.0  0.03815  0.77898  0.84713  1.0000
  H   H1349     1.0  0.15086  0.74063  0.83847  1.0000
  H   H1350     1.0  0.12770  0.73760  0.85135  1.0000
  H   H1351     1.0  0.13259  0.73948  0.82601  1.0000
  H   H1352     1.0  0.19470  0.90275  0.80034  1.0000
  H   H1353     1.0  0.12677  0.89917  0.66931  1.0000
  C   C771      1.0  0.11006  0.53558  0.67659  1.0000
  H   H1354     1.0  0.01836  0.72153  0.72582  1.0000
  C   C772      1.0  0.18981  0.67133  0.86573  1.0000
  C   C773      1.0  0.21024  0.84445  0.78310  1.0000
  H   H1355     1.0  0.04691  0.78165  0.63338  1.0000
  H   H1356     1.0  0.16853  0.64195  0.63686  1.0000
  H   H1357     1.0  0.18174  0.84641  0.95479  1.0000
  C   C774      1.0  0.21419  0.82614  0.77453  1.0000
  H   H1358     1.0  0.17830  0.86161  0.84493  1.0000
  C   C775      1.0  0.09483  0.60969  0.64748  1.0000
  H   H1359     1.0  0.20464  0.93753  0.77519  1.0000
  H   H1360     1.0  0.20840  0.61649  0.64622  1.0000
  H   H1361     1.0  0.18545  0.65727  0.87020  1.0000
  H   H1362     1.0  0.18848  0.67789  0.87834  1.0000
  H   H1363     1.0  0.18005  0.68043  0.85656  1.0000
  H   H1364     1.0  0.22784  0.49641  0.75632  1.0000
  S   S194      1.0  0.14136  0.76922  0.95330  1.0000
  C   C776      1.0  0.08269  0.49887  0.71211  1.0000
  H   H1365     1.0  0.09763  0.49961  0.66420  1.0000
  H   H1366     1.0  0.12675  0.84227  0.65790  1.0000
  C   C777      1.0  0.20585  0.87286  0.80845  1.0000
  C   C778      1.0  0.99495  0.77455  0.80968  1.0000
  C   C779      1.0  0.99586  0.79854  0.78132  1.0000
  H   H1367     1.0  0.06168  0.60228  0.66989  1.0000
  H   H1368     1.0  0.18655  0.83108  0.76599  1.0000
  N   N42       1.0  0.06457  0.63313  0.63912  1.0000
  C   C780      1.0  0.16215  0.84768  0.93572  1.0000
  C   C781      1.0  0.21757  0.56588  0.75313  1.0000
  C   C782      1.0  0.21008  0.66958  0.85497  1.0000
  H   H1369     1.0  0.01272  0.77118  0.73782  1.0000
  C   C783      1.0  0.05152  0.61872  0.64408  1.0000
  C   C784      1.0  0.17408  0.83087  0.92656  1.0000
  H   H1370     1.0  0.06835  0.76536  0.65487  1.0000
  C   C785      1.0  0.13780  0.85096  0.65657  1.0000
  H   H1371     1.0  0.02692  0.73855  0.66015  1.0000
  H   H1372     1.0  0.03939  0.70407  0.66442  1.0000
  H   H1373     1.0  0.14679  0.84782  0.93731  1.0000
  C   C786      1.0  0.11144  0.50993  0.71370  1.0000
  C   C787      1.0  0.99518  0.67326  0.66809  1.0000
  C   C788      1.0  0.22022  0.50296  0.65562  1.0000
  N   N43       1.0  0.15326  0.87555  0.69174  1.0000
  C   C789      1.0  0.13465  0.88804  0.69731  1.0000
  C   C790      1.0  0.15780  0.86011  0.70805  1.0000
  C   C791      1.0  0.16843  0.88771  0.68709  1.0000
  C   C792      1.0  0.15353  0.86733  0.67457  1.0000
  C   C793      1.0  0.13785  0.85577  0.67574  1.0000
  H   H1374     1.0  0.00730  0.77748  0.70557  1.0000
  C   C794      1.0  0.18918  0.87729  0.68324  1.0000
  C   C795      1.0  0.14107  0.85185  0.72136  1.0000
  C   C796      1.0  0.14803  0.83373  0.73425  1.0000
  H   H1375     1.0  0.08607  0.48326  0.71620  1.0000
  S   S195      1.0  0.20340  0.56918  0.64204  1.0000
  C   C797      1.0  0.17466  0.78014  0.95554  1.0000
  H   H1376     1.0  0.13531  0.89421  0.70967  1.0000
  H   H1377     1.0  0.09799  0.90605  0.69334  1.0000
  H   H1378     1.0  0.16836  0.84826  0.70292  1.0000
  H   H1379     1.0  0.16466  0.86544  0.71756  1.0000
  H   H1380     1.0  0.04483  0.58172  0.65875  1.0000
  H   H1381     1.0  0.16650  0.89854  0.67437  1.0000
  H   H1382     1.0  0.15314  0.87863  0.66195  1.0000
  H   H1383     1.0  0.16709  0.85764  0.67131  1.0000
  H   H1384     1.0  0.20670  0.92463  0.75632  1.0000
  H   H1385     1.0  0.14049  0.84220  0.68547  1.0000
  H   H1386     1.0  0.14190  0.81646  0.93888  1.0000
  H   H1387     1.0  0.06048  0.72734  0.64538  1.0000
  H   H1388     1.0  0.19174  0.87045  0.67068  1.0000
  H   H1389     1.0  0.19273  0.86635  0.69538  1.0000
  H   H1390     1.0  0.13322  0.86227  0.73037  1.0000
  H   H1391     1.0  0.13091  0.84869  0.71380  1.0000
  H   H1392     1.0  0.15853  0.83609  0.74203  1.0000
  H   H1393     1.0  0.13590  0.82902  0.74460  1.0000
  H   H1394     1.0  0.15464  0.82239  0.72589  1.0000
  C   C798      1.0  0.22861  0.90386  0.72272  1.0000
  H   H1395     1.0  0.22473  0.83561  0.81389  1.0000
  C   C799      1.0  0.18779  0.72583  0.95231  1.0000
  C   C800      1.0  0.22369  0.61533  0.64620  1.0000
  H   H1396     1.0  0.21885  0.94985  0.72961  1.0000
  H   H1397     1.0  0.00297  0.90948  0.64913  1.0000
  C   C801      1.0  0.16656  0.95820  0.77414  1.0000
  H   H1398     1.0  0.00169  0.64084  0.76423  1.0000
  C   C802      1.0  0.99435  0.65065  0.81528  1.0000
  H   H1399     1.0  0.00475  0.70605  0.74246  1.0000
  C   C803      1.0  0.01970  0.74638  0.76948  1.0000
  C   C804      1.0  0.02346  0.71844  0.75484  1.0000
  C   C805      1.0  0.98570  0.75495  0.90310  1.0000
  H   H1400     1.0  0.20124  0.89827  0.69176  1.0000
  C   C806      1.0  0.02915  0.73707  0.78685  1.0000
  H   H1401     1.0  0.21351  0.89809  0.81398  1.0000
  H   H1402     1.0  0.02782  0.77365  0.67639  1.0000
  C   C807      1.0  0.11572  0.60384  0.63954  1.0000
  H   H1403     1.0  0.01445  0.70949  0.66355  1.0000
  C   C808      1.0  0.04341  0.74840  0.78941  1.0000
  C   C809      1.0  0.04986  0.73363  0.63604  1.0000
  H   H1404     1.0  0.01010  0.75941  0.77306  1.0000
  H   H1405     1.0  0.02359  0.75114  0.72665  1.0000
  C   C810      1.0  0.03355  0.69383  0.73343  1.0000
  H   H1406     1.0  0.99634  0.86852  0.66176  1.0000
  H   H1407     1.0  0.03103  0.75133  0.75811  1.0000
  H   H1408     1.0  0.03744  0.72291  0.74927  1.0000
  H   H1409     1.0  0.02621  0.70633  0.76641  1.0000
  S   S196      1.0  0.98444  0.71529  0.83741  1.0000
  H   H1410     1.0  0.03608  0.49686  0.70933  1.0000
  N   N44       1.0  0.22730  0.85161  0.78555  1.0000
  H   H1411     1.0  0.22382  0.50614  0.78511  1.0000
  H   H1412     1.0  0.03656  0.72249  0.78570  1.0000
  H   H1413     1.0  0.01816  0.73663  0.79970  1.0000
  H   H1414     1.0  0.22961  0.72753  0.93816  1.0000
  H   H1415     1.0  0.00196  0.81017  0.77239  1.0000
  H   H1416     1.0  0.99804  0.63476  0.63845  1.0000
  C   C811      1.0  0.16647  0.84658  0.95537  1.0000
  H   H1417     1.0  0.19033  0.84702  0.89335  1.0000
  H   H1418     1.0  0.22249  0.64052  0.65782  1.0000
  H   H1419     1.0  0.21001  0.77925  0.90745  1.0000
  H   H1420     1.0  0.20161  0.85546  0.77407  1.0000
  H   H1421     1.0  0.22270  0.81439  0.78281  1.0000
  C   C812      1.0  0.17549  0.84569  0.89341  1.0000
  H   H1422     1.0  0.22170  0.66306  0.88042  1.0000
  H   H1423     1.0  0.04917  0.74191  0.80250  1.0000
  H   H1424     1.0  0.05532  0.74853  0.77736  1.0000
  H   H1425     1.0  0.03652  0.76312  0.79064  1.0000
  S   S197      1.0  0.00353  0.76404  0.83070  1.0000
  C   C813      1.0  0.22803  0.60230  0.66439  1.0000
  H   H1426     1.0  0.01322  0.79535  0.80245  1.0000
  C   C814      1.0  0.04465  0.76716  0.64024  1.0000
  H   H1427     1.0  0.12842  0.48213  0.72204  1.0000
  H   H1428     1.0  0.12267  0.59332  0.65026  1.0000
  H   H1429     1.0  0.02907  0.76828  0.64431  1.0000
  C   C815      1.0  0.00985  0.75930  0.73228  1.0000
  H   H1430     1.0  0.16541  0.86126  0.92716  1.0000
  C   C816      1.0  0.20082  0.89315  0.81212  1.0000
  C   C817      1.0  0.04825  0.60847  0.66483  1.0000
  H   H1431     1.0  0.19253  0.86847  0.80760  1.0000
  C   C818      1.0  0.17314  0.84556  0.87301  1.0000
  H   H1432     1.0  0.07528  0.65206  0.65157  1.0000
  H   H1433     1.0  0.12564  0.49709  0.68189  1.0000
  H   H1434     1.0  0.02946  0.68813  0.72232  1.0000
  C   C819      1.0  0.04316  0.66037  0.68069  1.0000
  H   H1435     1.0  0.00683  0.56276  0.79119  1.0000
  H   H1436     1.0  0.06744  0.63298  0.66788  1.0000
  C   C820      1.0  0.21766  0.48032  0.68668  1.0000
  H   H1437     1.0  0.14075  0.84353  0.91006  1.0000
  H   H1438     1.0  0.13462  0.86402  0.64625  1.0000
  H   H1439     1.0  0.15797  0.84725  0.87214  1.0000
  H   H1440     1.0  0.17110  0.48127  0.63703  1.0000
  C   C821      1.0  0.14914  0.82925  0.90888  1.0000
  H   H1441     1.0  0.04008  0.61840  0.67424  1.0000
  H   H1442     1.0  0.21777  0.88328  0.67723  1.0000
  S   S198      1.0  0.99148  0.64972  0.70163  1.0000
  H   H1443     1.0  0.03295  0.64962  0.66046  1.0000
  H   H1444     1.0  0.14701  0.80021  0.92264  1.0000
  H   H1445     1.0  0.14663  0.82615  0.89555  1.0000
  H   H1446     1.0  0.12291  0.87989  0.70220  1.0000
  N   N45       1.0  0.00922  0.73422  0.76259  1.0000
  C   C822      1.0  0.99825  0.74686  0.74817  1.0000
  C   C823      1.0  0.19574  0.81979  0.77412  1.0000
  C   C824      1.0  0.21316  0.89445  0.72989  1.0000
  C   C825      1.0  0.22047  0.87125  0.79010  1.0000
  C   C826      1.0  0.22207  0.57394  0.71925  1.0000
  C   C827      1.0  0.99641  0.67814  0.64855  1.0000
  C   C828      1.0  0.11912  0.81661  0.92488  1.0000
  C   C829      1.0  0.06429  0.50372  0.70351  1.0000
  H   H1447     1.0  0.21717  0.57515  0.70613  1.0000
  C   C830      1.0  0.98711  0.77415  0.64439  1.0000
  H   H1448     1.0  0.20047  0.71486  0.94977  1.0000
  C   C831      1.0  0.21241  0.78957  0.89425  1.0000
  C   C832      1.0  0.21458  0.92834  0.76597  1.0000
  H   H1449     1.0  0.06673  0.50056  0.68909  1.0000
  H   H1450     1.0  0.17819  0.79894  0.91443  1.0000
  H   H1451     1.0  0.20253  0.48114  0.68603  1.0000
  H   H1452     1.0  0.21952  0.64285  0.87216  1.0000
  H   H1453     1.0  0.00276  0.71797  0.79051  1.0000
  C   C833      1.0  0.00223  0.80200  0.63654  1.0000
  C   C834      1.0  0.09400  0.52511  0.68821  1.0000
  H   H1454     1.0  0.11591  0.50894  0.75093  1.0000
  H   H1455     1.0  0.18995  0.67001  0.64565  1.0000
  H   H1456     1.0  0.18909  0.83231  0.92524  1.0000
  H   H1457     1.0  0.11334  0.80545  0.93585  1.0000
  H   H1458     1.0  0.04242  0.64723  0.69119  1.0000
  H   H1459     1.0  0.12037  0.52659  0.66748  1.0000
  Fe  Fe95      1.0  0.98804  0.86283  0.71289  1.0000
  H   H1460     1.0  0.22966  0.67922  0.91007  1.0000
  C   C835      1.0  0.18087  0.81071  0.90262  1.0000
  H   H1461     1.0  0.16759  0.95359  0.82084  1.0000
  H   H1462     1.0  0.22777  0.91793  0.72521  1.0000
  H   H1463     1.0  0.03463  0.58580  0.68225  1.0000
  C   C836      1.0  0.16458  0.48304  0.68376  1.0000
  C   C837      1.0  0.99535  0.72647  0.77907  1.0000
  H   H1464     1.0  0.03093  0.70278  0.64338  1.0000
  N   N46       1.0  0.09992  0.50645  0.70039  1.0000
  H   H1465     1.0  0.11652  0.81491  0.91107  1.0000
  H   H1466     1.0  0.11641  0.47876  0.69816  1.0000
  H   H1467     1.0  0.20087  0.90182  0.66680  1.0000
  H   H1468     1.0  0.05343  0.74819  0.66568  1.0000
  H   H1469     1.0  0.18797  0.81611  0.78860  1.0000
  C   C838      1.0  0.99326  0.88259  0.65306  1.0000
  C   C839      1.0  0.18086  0.86182  0.85920  1.0000
  H   H1470     1.0  0.20707  0.78531  0.88300  1.0000
  C   C840      1.0  0.04919  0.49277  0.71555  1.0000
  C   C841      1.0  0.16934  0.95966  0.80604  1.0000
  H   H1471     1.0  0.17357  0.87557  0.86325  1.0000
  C   C842      1.0  0.14026  0.81470  0.92477  1.0000
  H   H1472     1.0  0.20001  0.78961  0.95754  1.0000
  H   H1473     1.0  0.20859  0.81287  0.90858  1.0000
  H   H1474     1.0  0.20122  0.48876  0.72196  1.0000
  C   C843      1.0  0.20265  0.80941  0.89733  1.0000
  H   H1475     1.0  0.16733  0.89560  0.69876  1.0000
  H   H1476     1.0  0.20086  0.84155  0.79685  1.0000
  H   H1477     1.0  0.17660  0.72296  0.94575  1.0000
  C   C844      1.0  0.21950  0.70865  0.90088  1.0000
  C   C845      1.0  0.10873  0.91546  0.68903  1.0000
  H   H1478     1.0  0.19013  0.89394  0.82514  1.0000
  H   H1479     1.0  0.21792  0.49269  0.69306  1.0000
  C   C846      1.0  0.12642  0.49890  0.74308  1.0000
  C   C847      1.0  0.20304  0.89108  0.67952  1.0000
  H   H1480     1.0  0.16681  0.85909  0.89719  1.0000
  H   H1481     1.0  0.22400  0.58840  0.66501  1.0000
  H   H1482     1.0  0.02299  0.59825  0.66291  1.0000
  H   H1483     1.0  0.21340  0.68403  0.85058  1.0000
  C   C848      1.0  0.20752  0.47487  0.72934  1.0000
  H   H1484     1.0  0.21154  0.86398  0.82079  1.0000
  H   H1485     1.0  0.04754  0.69821  0.72798  1.0000
  H   H1486     1.0  0.09494  0.54988  0.65361  1.0000
  H   H1487     1.0  0.20504  0.50357  0.65534  1.0000
  C   C849      1.0  0.22662  0.52974  0.79630  1.0000
  H   H1488     1.0  0.19187  0.64531  0.65548  1.0000
  C   C850      1.0  0.02873  0.71060  0.65522  1.0000
  C   C851      1.0  0.99449  0.65463  0.67706  1.0000
  H   H1489     1.0  0.21981  0.60832  0.67685  1.0000
  H   H1490     1.0  0.13133  0.48636  0.75327  1.0000
  H   H1491     1.0  0.08846  0.59673  0.65122  1.0000
  C   C852      1.0  0.99594  0.64062  0.66637  1.0000
  C   C853      1.0  0.99737  0.64549  0.64672  1.0000
  H   H1492     1.0  0.21047  0.66370  0.84219  1.0000
  H   H1493     1.0  0.22166  0.51466  0.66234  1.0000
  H   H1494     1.0  0.12309  0.61619  0.63590  1.0000
  H   H1495     1.0  0.22787  0.78921  0.88990  1.0000
  H   H1496     1.0  0.10154  0.96696  0.79366  1.0000
  H   H1497     1.0  0.99623  0.69269  0.64183  1.0000
  H   H1498     1.0  0.21410  0.88058  0.77821  1.0000
  H   H1499     1.0  0.22040  0.67201  0.64326  1.0000
  H   H1500     1.0  0.22989  0.52676  0.73963  1.0000
  C   C854      1.0  0.22876  0.51979  0.77954  1.0000
  C   C855      1.0  0.99725  0.66431  0.63787  1.0000
  H   H1501     1.0  0.12518  0.96925  0.78185  1.0000
  C   C856      1.0  0.22927  0.63491  0.64468  1.0000
  H   H1502     1.0  0.22734  0.53883  0.70600  1.0000
  H   H1503     1.0  0.98658  0.79266  0.68355  1.0000
  H   H1504     1.0  0.99850  0.88132  0.63808  1.0000
  H   H1505     1.0  0.15826  0.85900  0.96150  1.0000
  C   C857      1.0  0.98303  0.71348  0.77520  1.0000
  H   H1506     1.0  0.99009  0.74276  0.91391  1.0000
  Fe  Fe96      1.0  0.98456  0.70285  0.86807  1.0000
  H   H1507     1.0  0.99560  0.62618  0.67325  1.0000
  H   H1508     1.0  0.19179  0.48103  0.75633  1.0000
  Fe  Fe97      1.0  0.98402  0.60522  0.75997  1.0000
  C   C858      1.0  0.16875  0.47645  0.65207  1.0000
  H   H1509     1.0  0.99228  0.65329  0.82951  1.0000
  H   H1510     1.0  0.12899  0.48168  0.65380  1.0000
  H   H1511     1.0  0.98356  0.76807  0.90903  1.0000
  C   C859      1.0  0.98716  0.63570  0.81153  1.0000
  C   C860      1.0  0.23043  0.86765  0.71581  1.0000
  C   C861      1.0  0.22852  0.48392  0.66623  1.0000
  H   H1512     1.0  0.98519  0.77633  0.72133  1.0000
  H   H1513     1.0  0.99660  0.75677  0.70922  1.0000
  H   H1514     1.0  0.23102  0.54375  0.79164  1.0000
  H   H1515     1.0  0.22785  0.50508  0.64089  1.0000
  C   C862      1.0  0.08474  0.62420  0.63271  1.0000
  C   C863      1.0  0.23080  0.93835  0.75499  1.0000
  H   H1516     1.0  0.22565  0.63132  0.84484  1.0000
  H   H1517     1.0  0.99197  0.69996  0.77222  1.0000
  C   C864      1.0  0.11747  0.47416  0.66200  1.0000
  H   H1518     1.0  0.98652  0.75675  0.75512  1.0000
  H   H1519     1.0  0.98575  0.73825  0.78525  1.0000
  H   H1520     1.0  0.22086  0.47626  0.73320  1.0000
  H   H1521     1.0  0.99108  0.73871  0.74162  1.0000
  H   H1522     1.0  0.17434  0.60260  0.63187  1.0000
  C   C865      1.0  0.15606  0.77848  0.96396  1.0000
  C   C866      1.0  0.18570  0.78812  0.96424  1.0000
  C   C867      1.0  0.98161  0.79191  0.77596  1.0000
  C   C868      1.0  0.29837  0.98142  0.26330  1.0000
  H   H1523     1.0  0.29279  0.35846  0.00704  1.0000
  H   H1524     1.0  0.27088  0.37481  0.00840  1.0000
  C   C869      1.0  0.25157  0.02666  0.08770  1.0000
  S   S199      1.0  0.44271  0.37338  0.18399  1.0000
  H   H1525     1.0  0.48022  0.27931  0.26368  1.0000
  S   S200      1.0  0.44363  0.04060  0.23972  1.0000
  S   S201      1.0  0.45512  0.09585  0.22608  1.0000
  Fe  Fe98      1.0  0.46712  0.22401  0.07420  1.0000
  S   S202      1.0  0.45852  0.22247  0.04625  1.0000
  H   H1526     1.0  0.30192  0.15655  0.03533  1.0000
  C   C870      1.0  0.30870  0.26987  0.97836  1.0000
  S   S203      1.0  0.44977  0.22888  0.10222  1.0000
  H   H1527     1.0  0.27021  0.21078  0.00764  1.0000
  H   H1528     1.0  0.47975  0.06826  0.29638  1.0000
  S   S204      1.0  0.33109  0.45536  0.20102  1.0000
  H   H1529     1.0  0.36928  0.02855  0.24874  1.0000
  H   H1530     1.0  0.25248  0.40792  0.01675  1.0000
  H   H1531     1.0  0.39663  0.45025  0.13507  1.0000
  Fe  Fe99      1.0  0.35975  0.45889  0.20478  1.0000
  S   S205      1.0  0.37828  0.43442  0.22044  1.0000
  H   H1532     1.0  0.29023  0.34225  0.03810  1.0000
  S   S206      1.0  0.33836  0.98871  0.21680  1.0000
  H   H1533     1.0  0.23573  0.35888  0.08672  1.0000
  C   C871      1.0  0.32792  0.03747  0.24182  1.0000
  C   C872      1.0  0.23622  0.04008  0.01791  1.0000
  C   C873      1.0  0.26771  0.34540  0.00903  1.0000
  S   S207      1.0  0.38405  0.01108  0.20499  1.0000
  H   H1534     1.0  0.34999  0.02694  0.29028  1.0000
  H   H1535     1.0  0.36545  0.39703  0.21604  1.0000
  C   C874      1.0  0.36880  0.02833  0.26389  1.0000
  Fe  Fe100     1.0  0.37133  0.20557  0.99764  1.0000
  C   C875      1.0  0.47174  0.40979  0.22141  1.0000
  S   S208      1.0  0.38391  0.20617  0.02385  1.0000
  H   H1536     1.0  0.30110  0.37389  0.28681  1.0000
  H   H1537     1.0  0.25795  0.28157  0.04297  1.0000
  H   H1538     1.0  0.25949  0.31046  0.00625  1.0000
  H   H1539     1.0  0.31329  0.29858  0.96879  1.0000
  H   H1540     1.0  0.27829  0.99912  0.08126  1.0000
  H   H1541     1.0  0.26060  0.27680  0.01954  1.0000
  S   S209      1.0  0.34352  0.19494  0.00405  1.0000
  C   C876      1.0  0.27907  0.39864  0.28310  1.0000
  S   S210      1.0  0.24979  0.97495  0.10136  1.0000
  S   S211      1.0  0.27705  0.32115  0.96524  1.0000
  C   C877      1.0  0.28509  0.33021  0.03494  1.0000
  H   H1542     1.0  0.33686  0.04771  0.24237  1.0000
  Fe  Fe101     1.0  0.24571  0.33162  0.96740  1.0000
  C   C878      1.0  0.25451  0.32106  0.03280  1.0000
  H   H1543     1.0  0.28631  0.30014  0.04748  1.0000
  C   C879      1.0  0.27846  0.44856  0.13823  1.0000
  S   S212      1.0  0.46424  0.32150  0.21145  1.0000
  H   H1544     1.0  0.24428  0.98217  0.98621  1.0000
  H   H1545     1.0  0.24393  0.19996  0.05695  1.0000
  C   C880      1.0  0.25453  0.28752  0.02872  1.0000
  C   C881      1.0  0.27171  0.97334  0.21604  1.0000
  H   H1546     1.0  0.26831  0.37255  0.97613  1.0000
  H   H1547     1.0  0.29323  0.05800  0.03635  1.0000
  H   H1548     1.0  0.26037  0.02089  0.09874  1.0000
  C   C882      1.0  0.47661  0.00046  0.25984  1.0000
  S   S213      1.0  0.35943  0.23227  0.97952  1.0000
  H   H1549     1.0  0.23520  0.97508  0.20954  1.0000
  N   N47       1.0  0.28111  0.42995  0.29316  1.0000
  H   H1550     1.0  0.44424  0.42355  0.19800  1.0000
  C   C883      1.0  0.25098  0.34681  0.06224  1.0000
  S   S214      1.0  0.23221  0.06451  0.00822  1.0000
  H   H1551     1.0  0.27135  0.18691  0.03555  1.0000
  H   H1552     1.0  0.28645  0.03119  0.09768  1.0000
  H   H1553     1.0  0.46607  0.38014  0.25143  1.0000
  H   H1554     1.0  0.32646  0.00768  0.25037  1.0000
  C   C884      1.0  0.27877  0.36216  0.00260  1.0000
  H   H1555     1.0  0.31318  0.04245  0.24828  1.0000
  H   H1556     1.0  0.29013  0.45261  0.27186  1.0000
  Fe  Fe102     1.0  0.24535  0.45044  0.10943  1.0000
  H   H1557     1.0  0.30077  0.04865  0.00480  1.0000
  H   H1558     1.0  0.24578  0.01493  0.08491  1.0000
  C   C885      1.0  0.47384  0.01025  0.27681  1.0000
  H   H1559     1.0  0.26202  0.17093  0.97730  1.0000
  H   H1560     1.0  0.23841  0.38785  0.00195  1.0000
  H   H1561     1.0  0.34950  0.01292  0.24321  1.0000
  H   H1562     1.0  0.32464  0.16198  0.02337  1.0000
  C   C886      1.0  0.28105  0.00399  0.06587  1.0000
  C   C887      1.0  0.45979  0.19997  0.25284  1.0000
  H   H1563     1.0  0.27526  0.00497  0.26306  1.0000
  S   S215      1.0  0.45487  0.18307  0.13703  1.0000
  N   N48       1.0  0.28153  0.02488  0.06116  1.0000
  S   S216      1.0  0.47275  0.06508  0.25951  1.0000
  H   H1564     1.0  0.28977  0.99425  0.14982  1.0000
  C   C888      1.0  0.28165  0.44932  0.15617  1.0000
  H   H1565     1.0  0.28612  0.40344  0.26860  1.0000
  H   H1566     1.0  0.32693  0.11981  0.98886  1.0000
  C   C889      1.0  0.44789  0.12140  0.12748  1.0000
  H   H1567     1.0  0.39879  0.14438  0.05751  1.0000
  C   C890      1.0  0.31199  0.45892  0.14270  1.0000
  C   C891      1.0  0.30893  0.45792  0.12479  1.0000
  C   C892      1.0  0.29207  0.45313  0.12250  1.0000
  H   H1568     1.0  0.45879  0.20775  0.22340  1.0000
  H   H1569     1.0  0.45376  0.15727  0.20217  1.0000
  H   H1570     1.0  0.28983  0.45239  0.10865  1.0000
  H   H1571     1.0  0.31818  0.02847  0.21965  1.0000
  H   H1572     1.0  0.44905  0.18874  0.18265  1.0000
  C   C893      1.0  0.29906  0.99085  0.05800  1.0000
  C   C894      1.0  0.43742  0.21867  0.04005  1.0000
  C   C895      1.0  0.42040  0.21875  0.05275  1.0000
  C   C896      1.0  0.40419  0.21525  0.04740  1.0000
  C   C897      1.0  0.40460  0.21183  0.02919  1.0000
  C   C898      1.0  0.42156  0.21212  0.01635  1.0000
  C   C899      1.0  0.43781  0.21548  0.02177  1.0000
  H   H1573     1.0  0.41973  0.22159  0.06666  1.0000
  H   H1574     1.0  0.39118  0.21521  0.05745  1.0000
  H   H1575     1.0  0.42222  0.20947  0.00232  1.0000
  H   H1576     1.0  0.45081  0.21549  0.01171  1.0000
  C   C900      1.0  0.42736  0.03253  0.22951  1.0000
  C   C901      1.0  0.42137  0.01524  0.23792  1.0000
  C   C902      1.0  0.40841  0.00827  0.23053  1.0000
  C   C903      1.0  0.40104  0.01863  0.21469  1.0000
  C   C904      1.0  0.40702  0.03592  0.20632  1.0000
  C   C905      1.0  0.42015  0.04278  0.21358  1.0000
  H   H1577     1.0  0.42676  0.00719  0.25029  1.0000
  H   H1578     1.0  0.40401  0.99497  0.23715  1.0000
  H   H1579     1.0  0.40142  0.04409  0.19410  1.0000
  H   H1580     1.0  0.42450  0.05610  0.20695  1.0000
  H   H1581     1.0  0.27590  0.04953  0.00510  1.0000
  C   C906      1.0  0.45683  0.15145  0.16406  1.0000
  H   H1582     1.0  0.29024  0.35588  0.97436  1.0000
  H   H1583     1.0  0.44161  0.15518  0.16729  1.0000
  C   C907      1.0  0.31717  0.02017  0.28288  1.0000
  S   S217      1.0  0.25979  0.45274  0.07930  1.0000
  H   H1584     1.0  0.28453  0.07067  0.00501  1.0000
  H   H1585     1.0  0.25203  0.15387  0.01107  1.0000
  C   C908      1.0  0.33562  0.01745  0.25179  1.0000
  C   C909      1.0  0.42518  0.39041  0.19450  1.0000
  C   C910      1.0  0.41732  0.40661  0.18294  1.0000
  C   C911      1.0  0.40307  0.42030  0.19066  1.0000
  C   C912      1.0  0.39642  0.41782  0.21003  1.0000
  C   C913      1.0  0.40437  0.40169  0.22159  1.0000
  C   C914      1.0  0.41859  0.38800  0.21387  1.0000
  H   H1586     1.0  0.42235  0.40859  0.16793  1.0000
  H   H1587     1.0  0.39728  0.43280  0.18168  1.0000
  H   H1588     1.0  0.39934  0.39965  0.23661  1.0000
  H   H1589     1.0  0.42431  0.37548  0.22291  1.0000
  S   S218      1.0  0.25803  0.44056  0.13614  1.0000
  H   H1590     1.0  0.29238  0.20238  0.98195  1.0000
  H   H1591     1.0  0.34261  0.39159  0.22742  1.0000
  C   C915      1.0  0.46588  0.12985  0.27981  1.0000
  H   H1592     1.0  0.29871  0.02363  0.03353  1.0000
  H   H1593     1.0  0.31143  0.02415  0.05978  1.0000
  H   H1594     1.0  0.34229  0.03286  0.21369  1.0000
  H   H1595     1.0  0.34080  0.04396  0.27237  1.0000
  H   H1596     1.0  0.44376  0.19103  0.23628  1.0000
  S   S219      1.0  0.45428  0.11371  0.27394  1.0000
  N   N49       1.0  0.42754  0.16461  0.09198  1.0000
  C   C916      1.0  0.41919  0.15422  0.08096  1.0000
  C   C917      1.0  0.43164  0.15182  0.11006  1.0000
  C   C918      1.0  0.41255  0.18103  0.09726  1.0000
  C   C919      1.0  0.44509  0.17201  0.08095  1.0000
  C   C920      1.0  0.45781  0.16028  0.06629  1.0000
  C   C921      1.0  0.41115  0.16649  0.06360  1.0000
  C   C922      1.0  0.41720  0.19244  0.11066  1.0000
  C   C923      1.0  0.44653  0.13375  0.10822  1.0000
  C   C924      1.0  0.27289  0.98633  0.28981  1.0000
  H   H1597     1.0  0.46718  0.26732  0.00756  1.0000
  C   C925      1.0  0.40840  0.15446  0.05015  1.0000
  C   C926      1.0  0.40298  0.21069  0.11203  1.0000
  H   H1598     1.0  0.40740  0.14762  0.09020  1.0000
  H   H1599     1.0  0.42956  0.14221  0.07614  1.0000
  H   H1600     1.0  0.43718  0.15937  0.11877  1.0000
  H   H1601     1.0  0.41831  0.14763  0.11867  1.0000
  H   H1602     1.0  0.39894  0.17612  0.10397  1.0000
  H   H1603     1.0  0.40952  0.19130  0.08445  1.0000
  H   H1604     1.0  0.44136  0.18645  0.07293  1.0000
  H   H1605     1.0  0.45400  0.17380  0.09077  1.0000
  H   H1606     1.0  0.45103  0.16216  0.05376  1.0000
  H   H1607     1.0  0.26250  0.98741  0.19023  1.0000
  H   H1608     1.0  0.39713  0.17487  0.06823  1.0000
  H   H1609     1.0  0.42055  0.17651  0.05564  1.0000
  H   H1610     1.0  0.43150  0.19612  0.10572  1.0000
  H   H1611     1.0  0.41654  0.18419  0.12513  1.0000
  H   H1612     1.0  0.46446  0.00319  0.28879  1.0000
  H   H1613     1.0  0.25654  0.00755  0.15073  1.0000
  C   C927      1.0  0.45805  0.00776  0.19104  1.0000
  H   H1614     1.0  0.45380  0.40200  0.25906  1.0000
  H   H1615     1.0  0.23973  0.05242  0.09925  1.0000
  H   H1616     1.0  0.24018  0.35668  0.03614  1.0000
  C   C928      1.0  0.28552  0.37732  0.28769  1.0000
  H   H1617     1.0  0.45184  0.12925  0.13701  1.0000
  S   S220      1.0  0.48047  0.35717  0.21921  1.0000
  H   H1618     1.0  0.40198  0.16375  0.03836  1.0000
  H   H1619     1.0  0.42218  0.14658  0.04417  1.0000
  H   H1620     1.0  0.38843  0.20761  0.11705  1.0000
  H   H1621     1.0  0.40645  0.21818  0.12215  1.0000
  H   H1622     1.0  0.40354  0.22017  0.09818  1.0000
  N   N50       1.0  0.35724  0.40375  0.16068  1.0000
  C   C929      1.0  0.35578  0.40938  0.17956  1.0000
  C   C930      1.0  0.36506  0.41834  0.14487  1.0000
  C   C931      1.0  0.33741  0.40321  0.15827  1.0000
  C   C932      1.0  0.36899  0.38444  0.15957  1.0000
  C   C933      1.0  0.38885  0.38098  0.16501  1.0000
  C   C934      1.0  0.34680  0.39621  0.19691  1.0000
  C   C935      1.0  0.33534  0.39941  0.13892  1.0000
  C   C936      1.0  0.37908  0.42939  0.14910  1.0000
  C   C937      1.0  0.38705  0.44221  0.13144  1.0000
  C   C938      1.0  0.39860  0.36055  0.16470  1.0000
  C   C939      1.0  0.35015  0.40039  0.21527  1.0000
  C   C940      1.0  0.31462  0.39999  0.13801  1.0000
  H   H1623     1.0  0.34723  0.42377  0.17966  1.0000
  H   H1624     1.0  0.36980  0.41061  0.18210  1.0000
  H   H1625     1.0  0.37188  0.41192  0.13220  1.0000
  H   H1626     1.0  0.35342  0.42946  0.14013  1.0000
  H   H1627     1.0  0.32799  0.41684  0.16060  1.0000
  H   H1628     1.0  0.33129  0.39208  0.16900  1.0000
  H   H1629     1.0  0.36125  0.37327  0.16834  1.0000
  H   H1630     1.0  0.37128  0.38142  0.14503  1.0000
  H   H1631     1.0  0.38817  0.38370  0.17939  1.0000
  H   H1632     1.0  0.39799  0.38996  0.15478  1.0000
  H   H1633     1.0  0.33128  0.39830  0.19751  1.0000
  H   H1634     1.0  0.35276  0.38117  0.19647  1.0000
  H   H1635     1.0  0.34313  0.38527  0.13650  1.0000
  H   H1636     1.0  0.34071  0.41011  0.12718  1.0000
  H   H1637     1.0  0.37168  0.43855  0.15952  1.0000
  H   H1638     1.0  0.39106  0.41989  0.15480  1.0000
  Fe  Fe103     1.0  0.33779  0.47183  0.17207  1.0000
  H   H1639     1.0  0.25353  0.35018  0.00473  1.0000
  C   C941      1.0  0.31654  0.02719  0.09383  1.0000
  H   H1640     1.0  0.39040  0.35074  0.17513  1.0000
  H   H1641     1.0  0.40025  0.35698  0.15047  1.0000
  H   H1642     1.0  0.41287  0.35856  0.16843  1.0000
  H   H1643     1.0  0.47778  0.38441  0.16003  1.0000
  H   H1644     1.0  0.45807  0.45826  0.20469  1.0000
  C   C942      1.0  0.29822  0.45476  0.15839  1.0000
  H   H1645     1.0  0.30868  0.38887  0.14886  1.0000
  H   H1646     1.0  0.30613  0.41395  0.14022  1.0000
  H   H1647     1.0  0.31337  0.39765  0.12395  1.0000
  H   H1648     1.0  0.26898  0.00100  0.06068  1.0000
  C   C943      1.0  0.45405  0.16352  0.21459  1.0000
  C   C944      1.0  0.25521  0.17900  0.98893  1.0000
  C   C945      1.0  0.45850  0.13757  0.29623  1.0000
  H   H1649     1.0  0.47197  0.20605  0.15893  1.0000
  C   C946      1.0  0.44940  0.14869  0.23239  1.0000
  Fe  Fe104     1.0  0.46952  0.20393  0.11468  1.0000
  H   H1650     1.0  0.29705  0.04527  0.06525  1.0000
  C   C947      1.0  0.47568  0.29844  0.15443  1.0000
  C   C948      1.0  0.42987  0.14380  0.23373  1.0000
  C   C949      1.0  0.29763  0.02974  0.06798  1.0000
  C   C950      1.0  0.46270  0.21256  0.17065  1.0000
  H   H1651     1.0  0.44189  0.17528  0.21494  1.0000
  C   C951      1.0  0.25774  0.19148  0.03028  1.0000
  H   H1652     1.0  0.32279  0.05225  0.21417  1.0000
  S   S221      1.0  0.31634  0.98376  0.17514  1.0000
  H   H1653     1.0  0.31809  0.30819  0.04559  1.0000
  C   C952      1.0  0.32782  0.03769  0.22108  1.0000
  S   S222      1.0  0.30196  0.23366  0.99157  1.0000
  H   H1654     1.0  0.45967  0.13537  0.23204  1.0000
  H   H1655     1.0  0.44937  0.15404  0.24538  1.0000
  S   S223      1.0  0.33338  0.46499  0.14487  1.0000
  S   S224      1.0  0.24113  0.42369  0.05077  1.0000
  H   H1656     1.0  0.29855  0.00793  0.09367  1.0000
  C   C953      1.0  0.26052  0.43866  0.29331  1.0000
  H   H1657     1.0  0.26111  0.36460  0.03732  1.0000
  H   H1658     1.0  0.30783  0.01168  0.27940  1.0000
  C   C954      1.0  0.25428  0.35193  0.04053  1.0000
  H   H1659     1.0  0.42703  0.13290  0.24636  1.0000
  H   H1660     1.0  0.41873  0.15643  0.23505  1.0000
  H   H1661     1.0  0.42919  0.13807  0.22113  1.0000
  H   H1662     1.0  0.29549  0.32557  0.02275  1.0000
  C   C955      1.0  0.32008  0.13019  0.97858  1.0000
  H   H1663     1.0  0.26841  0.05947  0.03658  1.0000
  C   C956      1.0  0.26119  0.19993  0.00898  1.0000
  H   H1664     1.0  0.26168  0.22435  0.97614  1.0000
  H   H1665     1.0  0.28833  0.43301  0.26264  1.0000
  C   C957      1.0  0.28383  0.29678  0.97232  1.0000
  H   H1666     1.0  0.31451  0.14538  0.01555  1.0000
  H   H1667     1.0  0.45868  0.00307  0.17753  1.0000
  C   C958      1.0  0.28728  0.31351  0.05160  1.0000
  C   C959      1.0  0.24169  0.00692  0.15026  1.0000
  C   C960      1.0  0.47700  0.16652  0.05946  1.0000
  H   H1668     1.0  0.45535  0.02342  0.18861  1.0000
  H   H1669     1.0  0.44818  0.20439  0.19865  1.0000
  H   H1670     1.0  0.27414  0.02483  0.03423  1.0000
  C   C961      1.0  0.45570  0.43183  0.19667  1.0000
  H   H1671     1.0  0.32137  0.45289  0.24928  1.0000
  H   H1672     1.0  0.45810  0.12633  0.18536  1.0000
  H   H1673     1.0  0.47870  0.98438  0.20013  1.0000
  H   H1674     1.0  0.24754  0.20806  0.00519  1.0000
  C   C962      1.0  0.23341  0.99395  0.16765  1.0000
  H   H1675     1.0  0.35075  0.99508  0.29307  1.0000
  C   C963      1.0  0.47527  0.30058  0.28115  1.0000
  H   H1676     1.0  0.29857  0.18781  0.01416  1.0000
  H   H1677     1.0  0.30792  0.29857  0.06913  1.0000
  H   H1678     1.0  0.25568  0.29049  0.97733  1.0000
  H   H1679     1.0  0.35373  0.98055  0.25630  1.0000
  S   S225      1.0  0.47552  0.32074  0.26325  1.0000
  Fe  Fe105     1.0  0.35303  0.18123  0.97838  1.0000
  C   C964      1.0  0.23896  0.40396  0.02333  1.0000
  S   S226      1.0  0.46288  0.27359  0.11527  1.0000
  H   H1680     1.0  0.31955  0.43132  0.24223  1.0000
  C   C965      1.0  0.26934  0.21401  0.96698  1.0000
  C   C966      1.0  0.45362  0.39157  0.25020  1.0000
  S   S227      1.0  0.34625  0.15181  0.98012  1.0000
  H   H1681     1.0  0.34489  0.41543  0.21641  1.0000
  H   H1682     1.0  0.25235  0.03061  0.99273  1.0000
  H   H1683     1.0  0.23334  0.02138  0.14977  1.0000
  H   H1684     1.0  0.26475  0.05009  0.07097  1.0000
  C   C967      1.0  0.27046  0.28479  0.97760  1.0000
  H   H1685     1.0  0.31196  0.17719  0.99473  1.0000
  H   H1686     1.0  0.42402  0.46988  0.21312  1.0000
  H   H1687     1.0  0.44066  0.38522  0.25559  1.0000
  C   C968      1.0  0.26283  0.03601  0.06911  1.0000
  Fe  Fe106     1.0  0.46522  0.35187  0.19801  1.0000
  C   C969      1.0  0.45362  0.40111  0.22972  1.0000
  N   N51       1.0  0.27004  0.18640  0.99544  1.0000
  C   C970      1.0  0.28364  0.16990  0.00359  1.0000
  C   C971      1.0  0.28157  0.99215  0.27127  1.0000
  H   H1688     1.0  0.37545  0.45246  0.12554  1.0000
  C   C972      1.0  0.46611  0.13511  0.17430  1.0000
  Fe  Fe107     1.0  0.33267  0.22047  0.98435  1.0000
  C   C973      1.0  0.30167  0.17478  0.00794  1.0000
  H   H1689     1.0  0.44067  0.41196  0.22943  1.0000
  C   C974      1.0  0.24317  0.16620  0.00389  1.0000
  C   C975      1.0  0.28273  0.05174  0.03192  1.0000
  C   C976      1.0  0.31119  0.15866  0.02140  1.0000
  H   H1690     1.0  0.25866  0.45326  0.26440  1.0000
  H   H1691     1.0  0.28845  0.15953  0.99378  1.0000
  H   H1692     1.0  0.27663  0.16193  0.01668  1.0000
  H   H1693     1.0  0.37800  0.01540  0.26971  1.0000
  C   C977      1.0  0.34847  0.02923  0.27525  1.0000
  H   H1694     1.0  0.45257  0.39039  0.22169  1.0000
  H   H1695     1.0  0.46706  0.02520  0.27337  1.0000
  C   C978      1.0  0.24680  0.02643  0.00746  1.0000
  H   H1696     1.0  0.44724  0.44239  0.22381  1.0000
  H   H1697     1.0  0.23990  0.32684  0.02987  1.0000
  H   H1698     1.0  0.25065  0.17908  0.03335  1.0000
  H   H1699     1.0  0.45839  0.18776  0.26448  1.0000
  C   C979      1.0  0.45791  0.19493  0.23429  1.0000
  C   C980      1.0  0.25051  0.00738  0.01618  1.0000
  H   H1700     1.0  0.28157  0.37037  0.27742  1.0000
  H   H1701     1.0  0.33987  0.43268  0.25167  1.0000
  H   H1702     1.0  0.25285  0.03910  0.05896  1.0000
  H   H1703     1.0  0.44848  0.21190  0.25641  1.0000
  C   C981      1.0  0.29276  0.43693  0.27458  1.0000
  C   C982      1.0  0.46721  0.29468  0.14042  1.0000
  H   H1704     1.0  0.32029  0.43621  0.28246  1.0000
  C   C983      1.0  0.30436  0.12647  0.97253  1.0000
  C   C984      1.0  0.28624  0.05527  0.01041  1.0000
  C   C985      1.0  0.29854  0.02326  0.08918  1.0000
  H   H1705     1.0  0.29003  0.37974  0.97699  1.0000
  H   H1706     1.0  0.39519  0.43375  0.12065  1.0000
  H   H1707     1.0  0.47077  0.31146  0.15993  1.0000
  C   C986      1.0  0.34505  0.99551  0.28009  1.0000
  H   H1708     1.0  0.28815  0.18717  0.96826  1.0000
  C   C987      1.0  0.44837  0.44781  0.20852  1.0000
  N   N52       1.0  0.26566  0.33683  0.02969  1.0000
  C   C988      1.0  0.47666  0.99997  0.19836  1.0000
  H   H1709     1.0  0.23840  0.15031  0.98389  1.0000
  H   H1710     1.0  0.27538  0.33464  0.00031  1.0000
  H   H1711     1.0  0.26579  0.25619  0.98763  1.0000
  H   H1712     1.0  0.45892  0.10872  0.12589  1.0000
  H   H1713     1.0  0.32925  0.01922  0.08607  1.0000
  H   H1714     1.0  0.24113  0.00180  0.13726  1.0000
  H   H1715     1.0  0.44606  0.00257  0.20126  1.0000
  H   H1716     1.0  0.47240  0.41994  0.23043  1.0000
  H   H1717     1.0  0.26357  0.40101  0.28366  1.0000
  C   C989      1.0  0.26289  0.30546  0.02059  1.0000
  C   C990      1.0  0.28202  0.36786  0.98120  1.0000
  C   C991      1.0  0.24368  0.00175  0.03539  1.0000
  H   H1718     1.0  0.28475  0.97972  0.21233  1.0000
  Fe  Fe108     1.0  0.23782  0.08032  0.97784  1.0000
  H   H1719     1.0  0.46829  0.41812  0.16266  1.0000
  H   H1720     1.0  0.27848  0.30182  0.01908  1.0000
  H   H1721     1.0  0.26088  0.98202  0.22510  1.0000
  H   H1722     1.0  0.24482  0.19080  0.98305  1.0000
  S   S228      1.0  0.38205  0.18948  0.97337  1.0000
  H   H1723     1.0  0.37158  0.99245  0.25906  1.0000
  N   N53       1.0  0.33704  0.01561  0.27225  1.0000
  H   H1724     1.0  0.46610  0.39570  0.19208  1.0000
  Fe  Fe109     1.0  0.46181  0.06400  0.23347  1.0000
  H   H1725     1.0  0.39216  0.04377  0.25749  1.0000
  H   H1726     1.0  0.31094  0.03517  0.27859  1.0000
  C   C992      1.0  0.46709  0.16289  0.14963  1.0000
  C   C993      1.0  0.31444  0.43037  0.27262  1.0000
  H   H1727     1.0  0.27628  0.31542  0.06409  1.0000
  H   H1728     1.0  0.46042  0.14503  0.07191  1.0000
  H   H1729     1.0  0.30487  0.98590  0.24896  1.0000
  H   H1730     1.0  0.25893  0.99701  0.00801  1.0000
  H   H1731     1.0  0.30795  0.32356  0.06273  1.0000
  C   C994      1.0  0.30651  0.31086  0.05757  1.0000
  Fe  Fe110     1.0  0.37015  0.98481  0.20910  1.0000
  C   C995      1.0  0.29532  0.25791  0.98378  1.0000
  H   H1732     1.0  0.30096  0.99276  0.04244  1.0000
  H   H1733     1.0  0.31671  0.02262  0.10914  1.0000
  C   C996      1.0  0.28093  0.19690  0.97818  1.0000
  H   H1734     1.0  0.46246  0.00173  0.25620  1.0000
  Fe  Fe111     1.0  0.33893  0.97267  0.19373  1.0000
  C   C997      1.0  0.28447  0.03029  0.03995  1.0000
  H   H1735     1.0  0.31810  0.41478  0.27540  1.0000
  C   C998      1.0  0.37743  0.04506  0.26533  1.0000
  C   C999      1.0  0.47739  0.26675  0.29336  1.0000
  C   C1000     1.0  0.42880  0.45818  0.20493  1.0000
  H   H1736     1.0  0.31718  0.04249  0.09016  1.0000
  C   C1001     1.0  0.47340  0.27776  0.13323  1.0000
  C   C1002     1.0  0.32434  0.43725  0.25274  1.0000
  H   H1737     1.0  0.45762  0.43902  0.18175  1.0000
  N   N54       1.0  0.47368  0.41892  0.20093  1.0000
  H   H1738     1.0  0.29917  0.11336  0.97820  1.0000
  C   C1003     1.0  0.36045  0.98435  0.26683  1.0000
  H   H1739     1.0  0.25246  0.31418  0.04775  1.0000
  Fe  Fe112     1.0  0.46813  0.09645  0.25108  1.0000
  H   H1740     1.0  0.47369  0.20424  0.25174  1.0000
  C   C1004     1.0  0.27620  0.26539  0.98336  1.0000
  H   H1741     1.0  0.26453  0.34501  0.06738  1.0000
  C   C1005     1.0  0.45741  0.19733  0.18736  1.0000
  C   C1006     1.0  0.29672  0.97999  0.14863  1.0000
  H   H1742     1.0  0.24314  0.37604  0.06675  1.0000
  H   H1743     1.0  0.27121  0.44571  0.16840  1.0000
  H   H1744     1.0  0.46093  0.26358  0.03294  1.0000
  H   H1745     1.0  0.25262  0.21867  0.03951  1.0000
  H   H1746     1.0  0.24472  0.33384  0.06736  1.0000
  H   H1747     1.0  0.32343  0.26419  0.97890  1.0000
  H   H1748     1.0  0.31184  0.99357  0.06204  1.0000
  H   H1749     1.0  0.30046  0.45544  0.17226  1.0000
  Fe  Fe113     1.0  0.47132  0.24559  0.10478  1.0000
  C   C1007     1.0  0.47606  0.00627  0.21733  1.0000
  H   H1750     1.0  0.46313  0.28684  0.02001  1.0000
  H   H1751     1.0  0.41837  0.44843  0.20944  1.0000
  H   H1752     1.0  0.23398  0.17443  0.01436  1.0000
  C   C1008     1.0  0.23749  0.36261  0.07116  1.0000
  H   H1753     1.0  0.36925  0.05851  0.25905  1.0000
  H   H1754     1.0  0.25658  0.42903  0.26789  1.0000
  C   C1009     1.0  0.25278  0.44167  0.27462  1.0000
  H   H1755     1.0  0.47488  0.16754  0.24128  1.0000
  N   N55       1.0  0.47251  0.17049  0.21209  1.0000
  C   C1010     1.0  0.47798  0.40363  0.18909  1.0000
  C   C1011     1.0  0.47391  0.17877  0.22871  1.0000
  S   S229      1.0  0.24941  0.97770  0.04582  1.0000
  C   C1012     1.0  0.23480  0.04061  0.09554  1.0000
  H   H1756     1.0  0.45580  0.30488  0.13515  1.0000
  H   H1757     1.0  0.33363  0.98675  0.28453  1.0000
  H   H1758     1.0  0.25786  0.45305  0.29695  1.0000
  H   H1759     1.0  0.46442  0.00020  0.22729  1.0000
  H   H1760     1.0  0.37776  0.04542  0.28024  1.0000
  H   H1761     1.0  0.23895  0.29055  0.02949  1.0000
  C   C1013     1.0  0.32684  0.14732  0.97162  1.0000
  H   H1762     1.0  0.44972  0.22077  0.16548  1.0000
  C   C1014     1.0  0.24568  0.20613  0.04175  1.0000
  H   H1763     1.0  0.31961  0.46092  0.11261  1.0000
  C   C1015     1.0  0.30293  0.28930  0.97272  1.0000
  C   C1016     1.0  0.47530  0.18453  0.19396  1.0000
  H   H1764     1.0  0.46069  0.13756  0.10242  1.0000
  C   C1017     1.0  0.47791  0.28194  0.27794  1.0000
  H   H1765     1.0  0.47143  0.02185  0.21522  1.0000
  C   C1018     1.0  0.23286  0.01533  0.04577  1.0000
  C   C1019     1.0  0.46903  0.27161  0.02055  1.0000
  H   H1766     1.0  0.23413  0.99938  0.18037  1.0000
  H   H1767     1.0  0.47521  0.18179  0.05343  1.0000
  H   H1768     1.0  0.43422  0.11670  0.13398  1.0000
  C   C1020     1.0  0.26473  0.97276  0.19806  1.0000
  H   H1769     1.0  0.28039  0.97709  0.12839  1.0000
  H   H1770     1.0  0.42909  0.46417  0.18978  1.0000
  H   H1771     1.0  0.47003  0.22242  0.17480  1.0000
  H   H1772     1.0  0.44303  0.12510  0.09922  1.0000
  Fe  Fe114     1.0  0.23452  0.44308  0.07331  1.0000
  C   C1021     1.0  0.24383  0.97327  0.16815  1.0000
  H   H1773     1.0  0.47934  0.25243  0.29093  1.0000
  H   H1774     1.0  0.25912  0.97365  0.16442  1.0000
  H   H1775     1.0  0.23147  0.21061  0.03770  1.0000
  C   C1022     1.0  0.28366  0.40871  0.29760  1.0000
  Fe  Fe115     1.0  0.45793  0.18904  0.35906  1.0000
  S   S230      1.0  0.43204  0.17945  0.37855  1.0000
  H   H1776     1.0  0.35950  0.10394  0.59212  1.0000
  S   S231      1.0  0.45850  0.20479  0.32925  1.0000
  Fe  Fe116     1.0  0.36320  0.20136  0.47379  1.0000
  S   S232      1.0  0.36889  0.17196  0.49008  1.0000
  S   S233      1.0  0.38464  0.21407  0.44992  1.0000
  Fe  Fe117     1.0  0.32580  0.21172  0.49951  1.0000
  S   S234      1.0  0.32927  0.18328  0.51782  1.0000
  S   S235      1.0  0.29696  0.22813  0.50950  1.0000
  Fe  Fe118     1.0  0.35943  0.18558  0.51585  1.0000
  S   S236      1.0  0.37426  0.17121  0.54050  1.0000
  Fe  Fe119     1.0  0.33814  0.17165  0.49111  1.0000
  S   S237      1.0  0.32592  0.14514  0.49410  1.0000
  S   S238      1.0  0.35552  0.21522  0.49977  1.0000
  S   S239      1.0  0.33295  0.19997  0.47260  1.0000
  H   H1777     1.0  0.27294  0.41954  0.33343  1.0000
  H   H1778     1.0  0.28689  0.45455  0.33832  1.0000
  S   S240      1.0  0.26508  0.31492  0.48511  1.0000
  Fe  Fe120     1.0  0.24950  0.10990  0.46341  1.0000
  N   N56       1.0  0.40475  0.25078  0.36205  1.0000
  S   S241      1.0  0.26534  0.13396  0.44974  1.0000
  H   H1779     1.0  0.28202  0.97552  0.57772  1.0000
  C   C1023     1.0  0.32243  0.15535  0.60317  1.0000
  S   S242      1.0  0.26302  0.05556  0.51568  1.0000
  S   S243      1.0  0.26256  0.07949  0.46369  1.0000
  H   H1780     1.0  0.23639  0.20223  0.51482  1.0000
  H   H1781     1.0  0.32486  0.05269  0.48773  1.0000
  S   S244      1.0  0.26690  0.07481  0.59511  1.0000
  C   C1024     1.0  0.47437  0.27030  0.31186  1.0000
  S   S245      1.0  0.37615  0.20227  0.61427  1.0000
  C   C1025     1.0  0.31496  0.01694  0.30468  1.0000
  H   H1782     1.0  0.40174  0.26150  0.33303  1.0000
  C   C1026     1.0  0.40138  0.20375  0.34693  1.0000
  H   H1783     1.0  0.30963  0.23247  0.59280  1.0000
  C   C1027     1.0  0.23756  0.22887  0.49559  1.0000
  C   C1028     1.0  0.33401  0.17153  0.59983  1.0000
  C   C1029     1.0  0.26354  0.06092  0.53792  1.0000
  C   C1030     1.0  0.25395  0.07793  0.54340  1.0000
  C   C1031     1.0  0.25499  0.08183  0.56104  1.0000
  C   C1032     1.0  0.26579  0.06891  0.57329  1.0000
  C   C1033     1.0  0.27547  0.05196  0.56778  1.0000
  C   C1034     1.0  0.27418  0.04790  0.55028  1.0000
  H   H1784     1.0  0.28400  0.04213  0.57697  1.0000
  H   H1785     1.0  0.28149  0.03463  0.54630  1.0000
  C   C1035     1.0  0.32521  0.04308  0.51692  1.0000
  C   C1036     1.0  0.46737  0.15064  0.30114  1.0000
  C   C1037     1.0  0.37912  0.10591  0.60921  1.0000
  H   H1786     1.0  0.37563  0.25828  0.35759  1.0000
  C   C1038     1.0  0.37510  0.18047  0.56050  1.0000
  C   C1039     1.0  0.38313  0.16838  0.57526  1.0000
  C   C1040     1.0  0.38366  0.17488  0.59174  1.0000
  C   C1041     1.0  0.37643  0.19367  0.59349  1.0000
  C   C1042     1.0  0.36886  0.20590  0.57850  1.0000
  C   C1043     1.0  0.36795  0.19931  0.56214  1.0000
  H   H1787     1.0  0.38893  0.15385  0.57397  1.0000
  H   H1788     1.0  0.38959  0.16532  0.60309  1.0000
  H   H1789     1.0  0.36396  0.22057  0.57950  1.0000
  H   H1790     1.0  0.36207  0.20882  0.55070  1.0000
  C   C1044     1.0  0.28829  0.25193  0.50101  1.0000
  C   C1045     1.0  0.30006  0.26410  0.48980  1.0000
  C   C1046     1.0  0.29274  0.28337  0.48477  1.0000
  C   C1047     1.0  0.27355  0.29046  0.49052  1.0000
  C   C1048     1.0  0.26171  0.27810  0.50123  1.0000
  C   C1049     1.0  0.26912  0.25898  0.50664  1.0000
  H   H1791     1.0  0.31486  0.25880  0.48538  1.0000
  H   H1792     1.0  0.30198  0.29288  0.47650  1.0000
  H   H1793     1.0  0.24697  0.28339  0.50583  1.0000
  H   H1794     1.0  0.26000  0.24971  0.51554  1.0000
  C   C1050     1.0  0.30770  0.14492  0.48199  1.0000
  C   C1051     1.0  0.29219  0.13648  0.49167  1.0000
  C   C1052     1.0  0.27899  0.13329  0.48193  1.0000
  C   C1053     1.0  0.28095  0.13897  0.46245  1.0000
  C   C1054     1.0  0.29574  0.14855  0.45291  1.0000
  C   C1055     1.0  0.30924  0.15134  0.46262  1.0000
  H   H1795     1.0  0.29056  0.13203  0.50674  1.0000
  H   H1796     1.0  0.26745  0.12620  0.48946  1.0000
  H   H1797     1.0  0.29724  0.15307  0.43783  1.0000
  H   H1798     1.0  0.32119  0.15783  0.45502  1.0000
  H   H1799     1.0  0.39346  0.20034  0.33714  1.0000
  C   C1056     1.0  0.24751  0.20980  0.50564  1.0000
  C   C1057     1.0  0.32534  0.08726  0.47842  1.0000
  H   H1800     1.0  0.24797  0.23852  0.48976  1.0000
  C   C1058     1.0  0.41987  0.18841  0.39911  1.0000
  C   C1059     1.0  0.40484  0.18005  0.41034  1.0000
  C   C1060     1.0  0.39422  0.18738  0.42626  1.0000
  C   C1061     1.0  0.39838  0.20335  0.43093  1.0000
  C   C1062     1.0  0.41362  0.21152  0.41985  1.0000
  C   C1063     1.0  0.42445  0.20398  0.40414  1.0000
  H   H1801     1.0  0.40121  0.16797  0.40657  1.0000
  H   H1802     1.0  0.38254  0.18094  0.43465  1.0000
  H   H1803     1.0  0.41698  0.22382  0.42344  1.0000
  H   H1804     1.0  0.43600  0.21047  0.39563  1.0000
  H   H1805     1.0  0.39324  0.29046  0.34648  1.0000
  C   C1064     1.0  0.30769  0.08812  0.46952  1.0000
  H   H1806     1.0  0.29464  0.23822  0.54553  1.0000
  C   C1065     1.0  0.41045  0.26269  0.34325  1.0000
  H   H1807     1.0  0.38140  0.27127  0.37251  1.0000
  C   C1066     1.0  0.39783  0.22503  0.34637  1.0000
  H   H1808     1.0  0.28744  0.03530  0.30862  1.0000
  H   H1809     1.0  0.44086  0.26296  0.35881  1.0000
  H   H1810     1.0  0.34600  0.25336  0.38178  1.0000
  H   H1811     1.0  0.47164  0.13505  0.38264  1.0000
  H   H1812     1.0  0.26484  0.29531  0.55489  1.0000
  H   H1813     1.0  0.41309  0.24245  0.38941  1.0000
  H   H1814     1.0  0.32236  0.08838  0.44057  1.0000
  C   C1067     1.0  0.34492  0.97551  0.61956  1.0000
  C   C1068     1.0  0.24817  0.00627  0.58051  1.0000
  H   H1815     1.0  0.27794  0.26676  0.54003  1.0000
  N   N57       1.0  0.32444  0.07787  0.49882  1.0000
  H   H1816     1.0  0.34004  0.23235  0.60237  1.0000
  C   C1069     1.0  0.44737  0.11814  0.62206  1.0000
  H   H1817     1.0  0.46232  0.25133  0.38148  1.0000
  H   H1818     1.0  0.25508  0.21390  0.51543  1.0000
  H   H1819     1.0  0.29831  0.40265  0.30006  1.0000
  H   H1820     1.0  0.33175  0.26273  0.56777  1.0000
  H   H1821     1.0  0.33433  0.25761  0.60143  1.0000
  H   H1822     1.0  0.38239  0.22949  0.35032  1.0000
  C   C1070     1.0  0.38398  0.25688  0.36894  1.0000
  H   H1823     1.0  0.32448  0.21504  0.54455  1.0000
  H   H1824     1.0  0.40232  0.23166  0.33161  1.0000
  C   C1071     1.0  0.40837  0.28411  0.34321  1.0000
  H   H1825     1.0  0.30225  0.42881  0.31024  1.0000
  H   H1826     1.0  0.31174  0.98531  0.58601  1.0000
  H   H1827     1.0  0.23866  0.40600  0.53986  1.0000
  H   H1828     1.0  0.26588  0.30025  0.52978  1.0000
  H   H1829     1.0  0.46146  0.14280  0.43189  1.0000
  H   H1830     1.0  0.43922  0.11721  0.61127  1.0000
  S   S246      1.0  0.47551  0.20664  0.36683  1.0000
  H   H1831     1.0  0.37592  0.10386  0.50643  1.0000
  H   H1832     1.0  0.24567  0.08805  0.53410  1.0000
  H   H1833     1.0  0.24875  0.04989  0.39238  1.0000
  H   H1834     1.0  0.28318  0.30720  0.53975  1.0000
  H   H1835     1.0  0.39654  0.19634  0.36133  1.0000
  H   H1836     1.0  0.31285  0.10497  0.50667  1.0000
  H   H1837     1.0  0.35308  0.26626  0.39685  1.0000
  H   H1838     1.0  0.25431  0.01937  0.57579  1.0000
  H   H1839     1.0  0.46165  0.15642  0.31389  1.0000
  C   C1072     1.0  0.32833  0.24449  0.60372  1.0000
  C   C1073     1.0  0.45382  0.17853  0.44491  1.0000
  C   C1074     1.0  0.44271  0.16480  0.45993  1.0000
  C   C1075     1.0  0.42677  0.17562  0.47253  1.0000
  H   H1840     1.0  0.44506  0.13308  0.62392  1.0000
  H   H1841     1.0  0.44695  0.16264  0.42084  1.0000
  H   H1842     1.0  0.44334  0.18855  0.43709  1.0000
  H   H1843     1.0  0.38883  0.11250  0.59718  1.0000
  H   H1844     1.0  0.47248  0.08804  0.30855  1.0000
  H   H1845     1.0  0.26130  0.44349  0.32804  1.0000
  H   H1846     1.0  0.43613  0.15616  0.45331  1.0000
  H   H1847     1.0  0.29134  0.14033  0.60129  1.0000
  H   H1848     1.0  0.41654  0.18502  0.46407  1.0000
  H   H1849     1.0  0.41905  0.16556  0.48316  1.0000
  H   H1850     1.0  0.43247  0.18422  0.48004  1.0000
  N   N58       1.0  0.26105  0.19691  0.49338  1.0000
  C   C1076     1.0  0.27105  0.20840  0.47624  1.0000
  H   H1851     1.0  0.44441  0.24060  0.39837  1.0000
  C   C1077     1.0  0.27591  0.18552  0.50462  1.0000
  C   C1078     1.0  0.25102  0.18326  0.48824  1.0000
  H   H1852     1.0  0.31704  0.12033  0.61771  1.0000
  C   C1079     1.0  0.28537  0.19718  0.46222  1.0000
  C   C1080     1.0  0.26852  0.17339  0.52359  1.0000
  H   H1853     1.0  0.31822  0.25229  0.52419  1.0000
  H   H1854     1.0  0.29171  0.23672  0.57006  1.0000
  C   C1081     1.0  0.29352  0.21042  0.44500  1.0000
  C   C1082     1.0  0.28448  0.16449  0.53475  1.0000
  H   H1855     1.0  0.27873  0.21785  0.48073  1.0000
  H   H1856     1.0  0.26089  0.21795  0.46786  1.0000
  C   C1083     1.0  0.28784  0.43648  0.30840  1.0000
  H   H1857     1.0  0.28459  0.19494  0.50756  1.0000
  H   H1858     1.0  0.28598  0.17549  0.49647  1.0000
  H   H1859     1.0  0.26142  0.17220  0.48160  1.0000
  C   C1084     1.0  0.43726  0.25132  0.37036  1.0000
  H   H1860     1.0  0.29802  0.43025  0.34435  1.0000
  H   H1861     1.0  0.28909  0.26938  0.56854  1.0000
  H   H1862     1.0  0.29742  0.18886  0.46880  1.0000
  H   H1863     1.0  0.27856  0.18756  0.45711  1.0000
  H   H1864     1.0  0.26256  0.16165  0.52106  1.0000
  S   S247      1.0  0.31203  0.05941  0.62041  1.0000
  H   H1865     1.0  0.37551  0.22974  0.38375  1.0000
  H   H1866     1.0  0.38256  0.24258  0.39860  1.0000
  H   H1867     1.0  0.45911  0.18706  0.45285  1.0000
  S   S248      1.0  0.25225  0.00035  0.29975  1.0000
  H   H1868     1.0  0.41582  0.28698  0.35364  1.0000
  H   H1869     1.0  0.28222  0.21844  0.43709  1.0000
  H   H1870     1.0  0.30053  0.22047  0.44929  1.0000
  H   H1871     1.0  0.30421  0.20204  0.43554  1.0000
  H   H1872     1.0  0.27898  0.15535  0.54786  1.0000
  H   H1873     1.0  0.29594  0.15570  0.52639  1.0000
  H   H1874     1.0  0.29038  0.17559  0.53860  1.0000
  H   H1875     1.0  0.34738  0.16667  0.60545  1.0000
  C   C1085     1.0  0.35907  0.10980  0.60486  1.0000
  H   H1876     1.0  0.29289  0.01867  0.32925  1.0000
  C   C1086     1.0  0.23189  0.02890  0.39289  1.0000
  H   H1877     1.0  0.27480  0.43866  0.35650  1.0000
  H   H1878     1.0  0.34085  0.03918  0.51466  1.0000
  H   H1879     1.0  0.31465  0.01882  0.57371  1.0000
  H   H1880     1.0  0.29293  0.20162  0.57576  1.0000
  H   H1881     1.0  0.32744  0.10214  0.47655  1.0000
  H   H1882     1.0  0.47978  0.14641  0.45222  1.0000
  H   H1883     1.0  0.26993  0.99522  0.63015  1.0000
  H   H1884     1.0  0.42419  0.22617  0.35396  1.0000
  H   H1885     1.0  0.33749  0.24055  0.53536  1.0000
  C   C1087     1.0  0.23605  0.19180  0.47547  1.0000
  H   H1886     1.0  0.41664  0.19845  0.34258  1.0000
  H   H1887     1.0  0.30374  0.11325  0.53833  1.0000
  H   H1888     1.0  0.24059  0.16811  0.46062  1.0000
  H   H1889     1.0  0.41501  0.30955  0.32416  1.0000
  H   H1890     1.0  0.25468  0.99643  0.57049  1.0000
  H   H1891     1.0  0.44345  0.23780  0.36545  1.0000
  S   S249      1.0  0.23541  0.10576  0.49363  1.0000
  S   S250      1.0  0.47417  0.25261  0.33219  1.0000
  C   C1088     1.0  0.47188  0.28886  0.31479  1.0000
  C   C1089     1.0  0.35437  0.25216  0.39304  1.0000
  H   H1892     1.0  0.34188  0.10359  0.51126  1.0000
  H   H1893     1.0  0.34574  0.27092  0.53819  1.0000
  C   C1090     1.0  0.46192  0.15669  0.42245  1.0000
  H   H1894     1.0  0.46494  0.19332  0.40914  1.0000
  H   H1895     1.0  0.30036  0.07266  0.53696  1.0000
  C   C1091     1.0  0.31885  0.05879  0.50078  1.0000
  H   H1896     1.0  0.32105  0.01457  0.52989  1.0000
  H   H1897     1.0  0.31151  0.18727  0.56218  1.0000
  H   H1898     1.0  0.29615  0.27864  0.52518  1.0000
  H   H1899     1.0  0.29384  0.20371  0.55069  1.0000
  H   H1900     1.0  0.42529  0.25730  0.33701  1.0000
  H   H1901     1.0  0.30657  0.28245  0.55549  1.0000
  H   H1902     1.0  0.34938  0.13461  0.61692  1.0000
  N   N59       1.0  0.46979  0.16955  0.43128  1.0000
  C   C1092     1.0  0.47226  0.30381  0.29964  1.0000
  H   H1903     1.0  0.35430  0.06679  0.49427  1.0000
  H   H1904     1.0  0.24178  0.20095  0.46253  1.0000
  C   C1093     1.0  0.37086  0.09033  0.50785  1.0000
  H   H1905     1.0  0.30452  0.07388  0.47020  1.0000
  C   C1094     1.0  0.29415  0.02066  0.31372  1.0000
  H   H1906     1.0  0.32354  0.21333  0.56940  1.0000
  H   H1907     1.0  0.38427  0.09047  0.61182  1.0000
  H   H1908     1.0  0.27449  0.40409  0.31107  1.0000
  C   C1095     1.0  0.28406  0.00213  0.59430  1.0000
  H   H1909     1.0  0.46961  0.29179  0.32895  1.0000
  C   C1096     1.0  0.28439  0.43977  0.34268  1.0000
  H   H1910     1.0  0.32043  0.04749  0.53082  1.0000
  C   C1097     1.0  0.40899  0.23036  0.35966  1.0000
  H   H1911     1.0  0.35302  0.10211  0.48732  1.0000
  H   H1912     1.0  0.35557  0.98244  0.60978  1.0000
  C   C1098     1.0  0.30530  0.99586  0.59529  1.0000
  H   H1913     1.0  0.32224  0.02662  0.30913  1.0000
  H   H1914     1.0  0.33956  0.26968  0.49848  1.0000
  H   H1915     1.0  0.38124  0.08136  0.49872  1.0000
  Fe  Fe121     1.0  0.28174  0.05886  0.61954  1.0000
  H   H1916     1.0  0.28221  0.10531  0.53754  1.0000
  H   H1917     1.0  0.23958  0.22227  0.39590  1.0000
  Fe  Fe122     1.0  0.24688  0.07498  0.49353  1.0000
  H   H1918     1.0  0.46842  0.12357  0.40685  1.0000
  H   H1919     1.0  0.25750  0.18190  0.53260  1.0000
  H   H1920     1.0  0.29557  0.09130  0.50721  1.0000
  C   C1099     1.0  0.34391  0.07570  0.50354  1.0000
  H   H1921     1.0  0.27887  0.01501  0.60089  1.0000
  H   H1922     1.0  0.43175  0.28858  0.32006  1.0000
  H   H1923     1.0  0.34841  0.24268  0.40567  1.0000
  H   H1924     1.0  0.28358  0.00673  0.57905  1.0000
  H   H1925     1.0  0.41027  0.26692  0.38128  1.0000
  H   H1926     1.0  0.30321  0.06034  0.50221  1.0000
  C   C1100     1.0  0.29630  0.10094  0.54187  1.0000
  C   C1101     1.0  0.41557  0.25309  0.37651  1.0000
  H   H1927     1.0  0.30308  0.25741  0.59281  1.0000
  C   C1102     1.0  0.27455  0.29610  0.54114  1.0000
  C   C1103     1.0  0.30989  0.09038  0.51050  1.0000
  C   C1104     1.0  0.35146  0.09429  0.50197  1.0000
  H   H1928     1.0  0.37002  0.08322  0.52276  1.0000
  H   H1929     1.0  0.35023  0.10198  0.61679  1.0000
  H   H1930     1.0  0.23752  0.22973  0.41811  1.0000
  H   H1931     1.0  0.32170  0.08113  0.53699  1.0000
  H   H1932     1.0  0.28637  0.01064  0.31046  1.0000
  H   H1933     1.0  0.31781  0.15159  0.61867  1.0000
  C   C1105     1.0  0.44686  0.25237  0.38652  1.0000
  C   C1106     1.0  0.31077  0.09721  0.44877  1.0000
  H   H1934     1.0  0.33774  0.07999  0.46951  1.0000
  H   H1935     1.0  0.35938  0.25659  0.50942  1.0000
  C   C1107     1.0  0.30792  0.08478  0.53213  1.0000
  H   H1936     1.0  0.32373  0.01906  0.50458  1.0000
  H   H1937     1.0  0.31430  0.11149  0.44706  1.0000
  C   C1108     1.0  0.41650  0.29428  0.32390  1.0000
  H   H1938     1.0  0.33166  0.19914  0.60690  1.0000
  N   N60       1.0  0.33242  0.13785  0.59517  1.0000
  C   C1109     1.0  0.31974  0.12321  0.60206  1.0000
  C   C1110     1.0  0.35088  0.13119  0.60259  1.0000
  C   C1111     1.0  0.25140  0.99727  0.60083  1.0000
  C   C1112     1.0  0.33593  0.14308  0.57400  1.0000
  C   C1113     1.0  0.34417  0.12668  0.56289  1.0000
  C   C1114     1.0  0.30030  0.12808  0.59545  1.0000
  C   C1115     1.0  0.32303  0.18781  0.60969  1.0000
  C   C1116     1.0  0.34325  0.13306  0.54196  1.0000
  C   C1117     1.0  0.28951  0.11157  0.60216  1.0000
  H   H1939     1.0  0.28917  0.45164  0.30423  1.0000
  H   H1940     1.0  0.45208  0.15521  0.46916  1.0000
  H   H1941     1.0  0.32665  0.10943  0.59797  1.0000
  H   H1942     1.0  0.36199  0.13894  0.59367  1.0000
  H   H1943     1.0  0.32008  0.18298  0.62515  1.0000
  H   H1944     1.0  0.30937  0.16161  0.59718  1.0000
  H   H1945     1.0  0.32277  0.15092  0.56891  1.0000
  H   H1946     1.0  0.34606  0.15313  0.56934  1.0000
  H   H1947     1.0  0.33643  0.11469  0.56787  1.0000
  H   H1948     1.0  0.35928  0.12176  0.56411  1.0000
  H   H1949     1.0  0.29766  0.09862  0.44295  1.0000
  H   H1950     1.0  0.30199  0.13123  0.57989  1.0000
  H   H1951     1.0  0.33739  0.17724  0.58462  1.0000
  H   H1952     1.0  0.44928  0.14034  0.39768  1.0000
  H   H1953     1.0  0.34960  0.12117  0.53428  1.0000
  H   H1954     1.0  0.32838  0.13778  0.53973  1.0000
  H   H1955     1.0  0.35128  0.14476  0.53589  1.0000
  H   H1956     1.0  0.28713  0.10791  0.61776  1.0000
  H   H1957     1.0  0.33114  0.00753  0.58933  1.0000
  H   H1958     1.0  0.27555  0.11540  0.59754  1.0000
  S   S251      1.0  0.24639  0.97676  0.35445  1.0000
  H   H1959     1.0  0.44145  0.26601  0.39159  1.0000
  H   H1960     1.0  0.46262  0.11358  0.61691  1.0000
  C   C1118     1.0  0.27528  0.43425  0.32824  1.0000
  H   H1961     1.0  0.32075  0.00223  0.31051  1.0000
  H   H1962     1.0  0.40665  0.22099  0.37352  1.0000
  H   H1963     1.0  0.33766  0.23839  0.56709  1.0000
  H   H1964     1.0  0.30756  0.98988  0.60979  1.0000
  H   H1965     1.0  0.29504  0.09653  0.47678  1.0000
  H   H1966     1.0  0.35570  0.28199  0.50442  1.0000
  C   C1119     1.0  0.31747  0.02518  0.51750  1.0000
  H   H1967     1.0  0.29420  0.09626  0.55737  1.0000
  Fe  Fe123     1.0  0.23617  0.98624  0.32675  1.0000
  C   C1120     1.0  0.37506  0.24404  0.38664  1.0000
  H   H1968     1.0  0.34460  0.06801  0.51805  1.0000
  H   H1969     1.0  0.30187  0.02825  0.51853  1.0000
  H   H1970     1.0  0.32610  0.28389  0.52721  1.0000
  N   N61       1.0  0.31338  0.25258  0.55416  1.0000
  C   C1121     1.0  0.32540  0.24994  0.56912  1.0000
  C   C1122     1.0  0.32613  0.25318  0.53523  1.0000
  C   C1123     1.0  0.29935  0.27066  0.55515  1.0000
  C   C1124     1.0  0.30268  0.23650  0.55716  1.0000
  C   C1125     1.0  0.31488  0.21648  0.55812  1.0000
  C   C1126     1.0  0.31508  0.24594  0.58980  1.0000
  C   C1127     1.0  0.28725  0.27706  0.53930  1.0000
  C   C1128     1.0  0.33630  0.27047  0.52840  1.0000
  C   C1129     1.0  0.34847  0.26956  0.50900  1.0000
  C   C1130     1.0  0.30245  0.20137  0.56197  1.0000
  H   H1971     1.0  0.23746  0.02711  0.37849  1.0000
  H   H1972     1.0  0.24744  0.09499  0.56518  1.0000
  N   N62       1.0  0.27137  0.98774  0.60296  1.0000
  H   H1973     1.0  0.47023  0.31808  0.30229  1.0000
  C   C1131     1.0  0.31594  0.01248  0.58852  1.0000
  H   H1974     1.0  0.32041  0.24227  0.61833  1.0000
  H   H1975     1.0  0.37940  0.11157  0.62196  1.0000
  H   H1976     1.0  0.24653  0.00864  0.60956  1.0000
  H   H1977     1.0  0.31042  0.02341  0.59758  1.0000
  H   H1978     1.0  0.29744  0.09900  0.59613  1.0000
  H   H1979     1.0  0.25137  0.43038  0.30458  1.0000
  H   H1980     1.0  0.24148  0.98704  0.60622  1.0000
  H   H1981     1.0  0.30953  0.19370  0.60446  1.0000
  C   C1132     1.0  0.23826  0.04187  0.40084  1.0000
  Fe  Fe124     1.0  0.23621  0.07579  0.45456  1.0000
  H   H1982     1.0  0.28605  0.97456  0.62638  1.0000
  H   H1983     1.0  0.47442  0.20767  0.43304  1.0000
  C   C1133     1.0  0.27196  0.98234  0.62375  1.0000
  S   S252      1.0  0.23926  0.06194  0.42838  1.0000
  H   H1984     1.0  0.44590  0.13339  0.30523  1.0000
  H   H1985     1.0  0.24340  0.17540  0.50110  1.0000
  C   C1134     1.0  0.46483  0.13699  0.39717  1.0000
  H   H1986     1.0  0.46852  0.16588  0.39206  1.0000
  C   C1135     1.0  0.47183  0.15300  0.40251  1.0000
  C   C1136     1.0  0.47672  0.18527  0.41647  1.0000
  H   H1987     1.0  0.40891  0.29262  0.31295  1.0000
  H   H1988     1.0  0.23890  0.08811  0.38950  1.0000
  H   H1989     1.0  0.24112  0.11191  0.38983  1.0000
  Fe  Fe125     1.0  0.47803  0.22089  0.33646  1.0000
  Fe  Fe126     1.0  0.23348  0.32586  0.48817  1.0000
  H   H1990     1.0  0.23650  0.20550  0.41740  1.0000
  H   H1991     1.0  0.27862  0.37159  0.30202  1.0000
  H   H1992     1.0  0.23472  0.38374  0.55460  1.0000
  C   C1137     1.0  0.23247  0.22045  0.41083  1.0000
  Fe  Fe127     1.0  0.25932  0.38101  0.81319  1.0000
  S   S253      1.0  0.28601  0.39284  0.80918  1.0000
  S   S254      1.0  0.25344  0.35838  0.83878  1.0000
  Fe  Fe128     1.0  0.24963  0.40265  0.77490  1.0000
  S   S255      1.0  0.27581  0.41589  0.76817  1.0000
  H   H1993     1.0  0.35694  0.28043  0.73855  1.0000
  Fe  Fe129     1.0  0.29060  0.38706  0.77978  1.0000
  S   S256      1.0  0.31857  0.37338  0.76469  1.0000
  Fe  Fe130     1.0  0.26912  0.42052  0.79810  1.0000
  S   S257      1.0  0.26785  0.44779  0.80860  1.0000
  S   S258      1.0  0.26497  0.37342  0.78420  1.0000
  C   C1138     1.0  0.29857  0.33363  0.73838  1.0000
  Fe  Fe131     1.0  0.38789  0.28134  0.80175  1.0000
  S   S259      1.0  0.37581  0.25662  0.79876  1.0000
  S   S260      1.0  0.36828  0.30665  0.81200  1.0000
  Fe  Fe132     1.0  0.42835  0.25870  0.80028  1.0000
  S   S261      1.0  0.41867  0.23262  0.79747  1.0000
  S   S262      1.0  0.45940  0.25191  0.80298  1.0000
  Fe  Fe133     1.0  0.40171  0.25138  0.77661  1.0000
  S   S263      1.0  0.40641  0.24486  0.74685  1.0000
  Fe  Fe134     1.0  0.39400  0.24023  0.81987  1.0000
  S   S264      1.0  0.38417  0.21882  0.84512  1.0000
  S   S265      1.0  0.41270  0.27745  0.77821  1.0000
  S   S266      1.0  0.40477  0.26499  0.82389  1.0000
  C   C1139     1.0  0.33085  0.12083  0.65567  1.0000
  Fe  Fe135     1.0  0.27394  0.04251  0.66211  1.0000
  S   S267      1.0  0.30348  0.04213  0.66608  1.0000
  H   H1994     1.0  0.38590  0.21368  0.79103  1.0000
  C   C1140     1.0  0.28781  0.40072  0.86191  1.0000
  H   H1995     1.0  0.27300  0.37889  0.93225  1.0000
  H   H1996     1.0  0.46206  0.13377  0.71118  1.0000
  H   H1997     1.0  0.29283  0.43783  0.84551  1.0000
  H   H1998     1.0  0.44299  0.19181  0.91439  1.0000
  H   H1999     1.0  0.31080  0.31632  0.82305  1.0000
  Fe  Fe136     1.0  0.38895  0.17833  0.68126  1.0000
  S   S268      1.0  0.40813  0.15016  0.68126  1.0000
  S   S269      1.0  0.37685  0.18796  0.70957  1.0000
  C   C1141     1.0  0.44643  0.13797  0.80613  1.0000
  Fe  Fe137     1.0  0.39021  0.14415  0.66266  1.0000
  S   S270      1.0  0.38452  0.11435  0.66565  1.0000
  Fe  Fe138     1.0  0.42448  0.16425  0.65486  1.0000
  H   H2000     1.0  0.29789  0.33696  0.79508  1.0000
  S   S271      1.0  0.36956  0.17107  0.66465  1.0000
  S   S272      1.0  0.40639  0.19290  0.65569  1.0000
  H   H2001     1.0  0.33654  0.31452  0.75598  1.0000
  H   H2002     1.0  0.23940  0.25879  0.94562  1.0000
  S   S273      1.0  0.38295  0.23147  0.92821  1.0000
  Fe  Fe139     1.0  0.24849  0.08286  0.93520  1.0000
  S   S274      1.0  0.25745  0.06978  0.90846  1.0000
  H   H2003     1.0  0.44563  0.25709  0.87888  1.0000
  C   C1142     1.0  0.30121  0.33011  0.75922  1.0000
  C   C1143     1.0  0.24888  0.06072  0.87705  1.0000
  H   H2004     1.0  0.44581  0.06866  0.66464  1.0000
  H   H2005     1.0  0.25202  0.99450  0.77043  1.0000
  C   C1144     1.0  0.47355  0.26886  0.80205  1.0000
  H   H2006     1.0  0.26815  0.31657  0.77007  1.0000
  H   H2007     1.0  0.34044  0.28402  0.77982  1.0000
  C   C1145     1.0  0.32744  0.30383  0.75709  1.0000
  C   C1146     1.0  0.46241  0.17038  0.67861  1.0000
  H   H2008     1.0  0.32360  0.31209  0.78903  1.0000
  H   H2009     1.0  0.35794  0.27523  0.87717  1.0000
  H   H2010     1.0  0.44763  0.17675  0.68023  1.0000
  H   H2011     1.0  0.24327  0.97376  0.78416  1.0000
  C   C1147     1.0  0.25179  0.03324  0.74731  1.0000
  C   C1148     1.0  0.26854  0.02793  0.73502  1.0000
  C   C1149     1.0  0.26829  0.02831  0.71590  1.0000
  H   H2012     1.0  0.28173  0.02357  0.74031  1.0000
  H   H2013     1.0  0.28120  0.02401  0.70656  1.0000
  Fe  Fe140     1.0  0.36870  0.21573  0.95560  1.0000
  H   H2014     1.0  0.42992  0.20566  0.83048  1.0000
  C   C1150     1.0  0.47866  0.30110  0.79841  1.0000
  H   H2015     1.0  0.25225  0.40435  0.85497  1.0000
  C   C1151     1.0  0.33296  0.98485  0.63338  1.0000
  C   C1152     1.0  0.32876  0.10225  0.65583  1.0000
  C   C1153     1.0  0.34391  0.08758  0.65869  1.0000
  C   C1154     1.0  0.36094  0.09150  0.66166  1.0000
  C   C1155     1.0  0.36300  0.11008  0.66158  1.0000
  C   C1156     1.0  0.34794  0.12476  0.65838  1.0000
  C   C1157     1.0  0.45035  0.10828  0.65658  1.0000
  H   H2016     1.0  0.34243  0.07322  0.65887  1.0000
  H   H2017     1.0  0.37256  0.08008  0.66406  1.0000
  H   H2018     1.0  0.25413  0.10609  0.74378  1.0000
  H   H2019     1.0  0.43873  0.26329  0.83792  1.0000
  C   C1158     1.0  0.38327  0.22254  0.86831  1.0000
  C   C1159     1.0  0.37833  0.20864  0.88376  1.0000
  C   C1160     1.0  0.37788  0.21116  0.90231  1.0000
  C   C1161     1.0  0.38262  0.22756  0.90547  1.0000
  C   C1162     1.0  0.38743  0.24146  0.89006  1.0000
  C   C1163     1.0  0.38760  0.23905  0.87164  1.0000
  H   H2020     1.0  0.37488  0.19582  0.88138  1.0000
  H   H2021     1.0  0.37414  0.20034  0.91409  1.0000
  H   H2022     1.0  0.39098  0.25424  0.89239  1.0000
  H   H2023     1.0  0.39105  0.25003  0.86008  1.0000
  C   C1164     1.0  0.39751  0.22936  0.73669  1.0000
  C   C1165     1.0  0.40595  0.22615  0.71844  1.0000
  C   C1166     1.0  0.39973  0.21366  0.70987  1.0000
  C   C1167     1.0  0.38492  0.20424  0.71947  1.0000
  C   C1168     1.0  0.37641  0.20753  0.73770  1.0000
  C   C1169     1.0  0.38263  0.22004  0.74627  1.0000
  H   H2024     1.0  0.41743  0.23334  0.71086  1.0000
  H   H2025     1.0  0.40638  0.21134  0.69582  1.0000
  H   H2026     1.0  0.36488  0.20038  0.74522  1.0000
  H   H2027     1.0  0.37582  0.22255  0.76019  1.0000
  S   S275      1.0  0.28200  0.02934  0.63596  1.0000
  C   C1170     1.0  0.34512  0.27090  0.87490  1.0000
  H   H2028     1.0  0.45196  0.29328  0.79777  1.0000
  Fe  Fe141     1.0  0.38860  0.18334  0.63896  1.0000
  C   C1171     1.0  0.24611  0.35168  0.87735  1.0000
  H   H2029     1.0  0.29642  0.29576  0.75109  1.0000
  C   C1172     1.0  0.24522  0.97606  0.74466  1.0000
  H   H2030     1.0  0.25646  0.33898  0.87627  1.0000
  H   H2031     1.0  0.29309  0.40754  0.84736  1.0000
  H   H2032     1.0  0.28803  0.32561  0.73660  1.0000
  C   C1173     1.0  0.34388  0.97555  0.68852  1.0000
  H   H2033     1.0  0.45793  0.12936  0.79761  1.0000
  H   H2034     1.0  0.45125  0.13864  0.81926  1.0000
  H   H2035     1.0  0.33081  0.27285  0.76532  1.0000
  C   C1174     1.0  0.29621  0.31690  0.82075  1.0000
  S   S276      1.0  0.45657  0.15712  0.64824  1.0000
  H   H2036     1.0  0.26026  0.07386  0.68816  1.0000
  H   H2037     1.0  0.23934  0.16502  0.94817  1.0000
  H   H2038     1.0  0.44416  0.09086  0.63793  1.0000
  C   C1175     1.0  0.33282  0.35524  0.77785  1.0000
  C   C1176     1.0  0.34766  0.34336  0.76848  1.0000
  C   C1177     1.0  0.35861  0.32821  0.77868  1.0000
  C   C1178     1.0  0.35505  0.32523  0.79835  1.0000
  C   C1179     1.0  0.34052  0.33739  0.80767  1.0000
  C   C1180     1.0  0.32929  0.35217  0.79750  1.0000
  H   H2039     1.0  0.35056  0.34576  0.75327  1.0000
  H   H2040     1.0  0.36992  0.31904  0.77137  1.0000
  H   H2041     1.0  0.33779  0.33524  0.82288  1.0000
  H   H2042     1.0  0.31797  0.36122  0.80488  1.0000
  C   C1181     1.0  0.29988  0.46043  0.78684  1.0000
  Fe  Fe142     1.0  0.30141  0.07060  0.64746  1.0000
  H   H2043     1.0  0.30376  0.44684  0.78235  1.0000
  H   H2044     1.0  0.43069  0.15139  0.71012  1.0000
  H   H2045     1.0  0.41406  0.20421  0.76602  1.0000
  H   H2046     1.0  0.41559  0.18779  0.74099  1.0000
  H   H2047     1.0  0.43377  0.13102  0.81003  1.0000
  H   H2048     1.0  0.45653  0.26293  0.76271  1.0000
  C   C1182     1.0  0.47027  0.16004  0.66413  1.0000
  C   C1183     1.0  0.28316  0.46437  0.79949  1.0000
  H   H2049     1.0  0.26780  0.27427  0.77361  1.0000
  C   C1184     1.0  0.24867  0.09473  0.73987  1.0000
  C   C1185     1.0  0.29537  0.29686  0.76611  1.0000
  H   H2050     1.0  0.42306  0.46706  0.76387  1.0000
  H   H2051     1.0  0.36525  0.26597  0.75899  1.0000
  H   H2052     1.0  0.39865  0.10119  0.71260  1.0000
  H   H2053     1.0  0.28183  0.45022  0.70572  1.0000
  H   H2054     1.0  0.29571  0.16701  0.94157  1.0000
  C   C1186     1.0  0.25128  0.03406  0.70897  1.0000
  C   C1187     1.0  0.35799  0.28021  0.75340  1.0000
  H   H2055     1.0  0.34936  0.13911  0.65831  1.0000
  H   H2056     1.0  0.27692  0.46885  0.86966  1.0000
  S   S277      1.0  0.24185  0.40912  0.80443  1.0000
  C   C1188     1.0  0.27546  0.43055  0.87349  1.0000
  H   H2057     1.0  0.46600  0.21909  0.72165  1.0000
  H   H2058     1.0  0.41436  0.45781  0.74714  1.0000
  H   H2059     1.0  0.29197  0.47108  0.84697  1.0000
  H   H2060     1.0  0.26303  0.46779  0.76644  1.0000
  H   H2061     1.0  0.47258  0.20994  0.74451  1.0000
  H   H2062     1.0  0.42179  0.10961  0.68444  1.0000
  C   C1189     1.0  0.31796  0.16049  0.95818  1.0000
  C   C1190     1.0  0.32359  0.21806  0.90867  1.0000
  H   H2063     1.0  0.42508  0.19420  0.78561  1.0000
  H   H2064     1.0  0.45766  0.03515  0.67616  1.0000
  C   C1191     1.0  0.25624  0.41741  0.85694  1.0000
  H   H2065     1.0  0.28745  0.42688  0.88141  1.0000
  H   H2066     1.0  0.25936  0.37170  0.91816  1.0000
  H   H2067     1.0  0.25417  0.98675  0.73719  1.0000
  C   C1192     1.0  0.26112  0.40276  0.88892  1.0000
  H   H2068     1.0  0.29949  0.39949  0.86982  1.0000
  H   H2069     1.0  0.44350  0.12248  0.65967  1.0000
  H   H2070     1.0  0.24610  0.07854  0.76842  1.0000
  H   H2071     1.0  0.42528  0.10946  0.64421  1.0000
  H   H2072     1.0  0.28963  0.21440  0.94087  1.0000
  H   H2073     1.0  0.39370  0.08433  0.70039  1.0000
  H   H2074     1.0  0.24568  0.37640  0.74475  1.0000
  C   C1193     1.0  0.28820  0.46111  0.86014  1.0000
  H   H2075     1.0  0.48131  0.12029  0.69775  1.0000
  H   H2076     1.0  0.26915  0.45085  0.84807  1.0000
  C   C1194     1.0  0.23725  0.05561  0.86657  1.0000
  H   H2077     1.0  0.42219  0.15031  0.78067  1.0000
  H   H2078     1.0  0.42127  0.20469  0.92518  1.0000
  H   H2079     1.0  0.42650  0.06697  0.69988  1.0000
  H   H2080     1.0  0.24893  0.41232  0.89557  1.0000
  H   H2081     1.0  0.46767  0.18103  0.70178  1.0000
  C   C1195     1.0  0.24193  0.06434  0.89547  1.0000
  H   H2082     1.0  0.44585  0.14791  0.76898  1.0000
  H   H2083     1.0  0.32490  0.47073  0.77076  1.0000
  H   H2084     1.0  0.23625  0.22729  0.94146  1.0000
  C   C1196     1.0  0.46636  0.05897  0.68339  1.0000
  C   C1197     1.0  0.45335  0.11691  0.69457  1.0000
  N   N63       1.0  0.27738  0.08790  0.71354  1.0000
  C   C1198     1.0  0.26564  0.09783  0.69869  1.0000
  C   C1199     1.0  0.28770  0.10183  0.71777  1.0000
  C   C1200     1.0  0.29100  0.07164  0.70619  1.0000
  C   C1201     1.0  0.26517  0.08029  0.73147  1.0000
  C   C1202     1.0  0.45693  0.07445  0.66877  1.0000
  H   H2085     1.0  0.45522  0.23933  0.76015  1.0000
  C   C1203     1.0  0.30578  0.06093  0.71869  1.0000
  C   C1204     1.0  0.30312  0.10907  0.70164  1.0000
  C   C1205     1.0  0.31288  0.12264  0.70779  1.0000
  H   H2086     1.0  0.37413  0.19542  0.80597  1.0000
  C   C1206     1.0  0.29502  0.32233  0.79982  1.0000
  C   C1207     1.0  0.31941  0.04555  0.70928  1.0000
  H   H2087     1.0  0.27495  0.10196  0.68513  1.0000
  H   H2088     1.0  0.25720  0.11135  0.70242  1.0000
  H   H2089     1.0  0.27755  0.11457  0.72136  1.0000
  H   H2090     1.0  0.29427  0.09587  0.73052  1.0000
  H   H2091     1.0  0.29861  0.07634  0.69181  1.0000
  H   H2092     1.0  0.28318  0.06095  0.70435  1.0000
  H   H2093     1.0  0.25919  0.06834  0.72944  1.0000
  H   H2094     1.0  0.27381  0.07416  0.74270  1.0000
  H   H2095     1.0  0.45456  0.18745  0.76730  1.0000
  C   C1208     1.0  0.31924  0.97572  0.64605  1.0000
  S   S278      1.0  0.24371  0.11438  0.93043  1.0000
  C   C1209     1.0  0.27410  0.39499  0.90389  1.0000
  H   H2096     1.0  0.29873  0.05401  0.73242  1.0000
  H   H2097     1.0  0.31437  0.07050  0.72137  1.0000
  H   H2098     1.0  0.31424  0.09735  0.69728  1.0000
  H   H2099     1.0  0.29684  0.11675  0.68918  1.0000
  H   H2100     1.0  0.32384  0.12759  0.69604  1.0000
  H   H2101     1.0  0.30253  0.13513  0.71166  1.0000
  H   H2102     1.0  0.31991  0.11547  0.71996  1.0000
  H   H2103     1.0  0.29277  0.22953  0.95600  1.0000
  H   H2104     1.0  0.25492  0.39099  0.88675  1.0000
  C   C1210     1.0  0.23483  0.03890  0.74031  1.0000
  H   H2105     1.0  0.31914  0.13223  0.65359  1.0000
  C   C1211     1.0  0.23747  0.43066  0.86287  1.0000
  S   S279      1.0  0.30674  0.09808  0.65306  1.0000
  H   H2106     1.0  0.32993  0.03823  0.71840  1.0000
  H   H2107     1.0  0.31164  0.03497  0.70710  1.0000
  H   H2108     1.0  0.32708  0.05177  0.69551  1.0000
  N   N64       1.0  0.32775  0.27008  0.90949  1.0000
  C   C1212     1.0  0.32746  0.27801  0.88891  1.0000
  C   C1213     1.0  0.30978  0.27820  0.92156  1.0000
  C   C1214     1.0  0.34419  0.27616  0.91466  1.0000
  C   C1215     1.0  0.33086  0.24881  0.91335  1.0000
  C   C1216     1.0  0.31694  0.23936  0.90690  1.0000
  C   C1217     1.0  0.34554  0.27205  0.93589  1.0000
  C   C1218     1.0  0.29119  0.28231  0.91339  1.0000
  C   C1219     1.0  0.27395  0.28688  0.92836  1.0000
  C   C1220     1.0  0.34277  0.27906  0.85454  1.0000
  C   C1221     1.0  0.42351  0.08188  0.70189  1.0000
  H   H2109     1.0  0.32562  0.29370  0.88664  1.0000
  H   H2110     1.0  0.31514  0.27501  0.88427  1.0000
  H   H2111     1.0  0.30753  0.26894  0.93558  1.0000
  H   H2112     1.0  0.31106  0.29207  0.92462  1.0000
  H   H2113     1.0  0.34382  0.29159  0.90975  1.0000
  H   H2114     1.0  0.35786  0.26908  0.90750  1.0000
  H   H2115     1.0  0.34540  0.24299  0.90696  1.0000
  H   H2116     1.0  0.33014  0.24341  0.92868  1.0000
  H   H2117     1.0  0.27868  0.40673  0.90811  1.0000
  H   H2118     1.0  0.30293  0.24163  0.91597  1.0000
  H   H2119     1.0  0.28756  0.33617  0.76716  1.0000
  H   H2120     1.0  0.33284  0.27930  0.94416  1.0000
  H   H2121     1.0  0.29138  0.29476  0.90189  1.0000
  H   H2122     1.0  0.28918  0.27036  0.90754  1.0000
  H   H2123     1.0  0.27288  0.27477  0.94012  1.0000
  H   H2124     1.0  0.27487  0.29949  0.93397  1.0000
  H   H2125     1.0  0.26090  0.28995  0.92212  1.0000
  H   H2126     1.0  0.24938  0.10378  0.66681  1.0000
  H   H2127     1.0  0.34752  0.25533  0.87634  1.0000
  C   C1222     1.0  0.45197  0.22095  0.88473  1.0000
  H   H2128     1.0  0.26389  0.97797  0.69628  1.0000
  H   H2129     1.0  0.47574  0.41189  0.78956  1.0000
  C   C1223     1.0  0.24202  0.36409  0.86092  1.0000
  C   C1224     1.0  0.44062  0.25205  0.86783  1.0000
  C   C1225     1.0  0.44044  0.22451  0.85430  1.0000
  S   S280      1.0  0.25016  0.03410  0.68530  1.0000
  C   C1226     1.0  0.43266  0.21860  0.89749  1.0000
  C   C1227     1.0  0.44211  0.26768  0.85007  1.0000
  H   H2130     1.0  0.34878  0.00054  0.69714  1.0000
  H   H2131     1.0  0.31304  0.21150  0.90463  1.0000
  C   C1228     1.0  0.44088  0.10556  0.64056  1.0000
  H   H2132     1.0  0.44639  0.16505  0.72911  1.0000
  C   C1229     1.0  0.42853  0.28587  0.85353  1.0000
  H   H2133     1.0  0.23277  0.44428  0.83461  1.0000
  H   H2134     1.0  0.24061  0.34626  0.90772  1.0000
  H   H2135     1.0  0.28684  0.38526  0.89862  1.0000
  C   C1230     1.0  0.43532  0.20612  0.91640  1.0000
  S   S281      1.0  0.27469  0.13682  0.95183  1.0000
  H   H2136     1.0  0.42529  0.25178  0.87292  1.0000
  H   H2137     1.0  0.42538  0.22528  0.86106  1.0000
  C   C1231     1.0  0.45923  0.25301  0.75261  1.0000
  C   C1232     1.0  0.43404  0.19630  0.84336  1.0000
  C   C1233     1.0  0.46659  0.28822  0.79928  1.0000
  H   H2138     1.0  0.38916  0.18517  0.77608  1.0000
  H   H2139     1.0  0.42416  0.21189  0.89084  1.0000
  H   H2140     1.0  0.44037  0.18211  0.83991  1.0000
  C   C1234     1.0  0.23415  0.38212  0.73708  1.0000
  C   C1235     1.0  0.28131  0.44471  0.85545  1.0000
  C   C1236     1.0  0.47380  0.17280  0.69079  1.0000
  H   H2141     1.0  0.28659  0.32759  0.82849  1.0000
  H   H2142     1.0  0.33727  0.21488  0.89918  1.0000
  H   H2143     1.0  0.34711  0.25674  0.94152  1.0000
  H   H2144     1.0  0.25452  0.46381  0.68953  1.0000
  H   H2145     1.0  0.27356  0.23633  0.94296  1.0000
  H   H2146     1.0  0.40031  0.17098  0.79505  1.0000
  C   C1237     1.0  0.30476  0.36928  0.85274  1.0000
  H   H2147     1.0  0.43003  0.29675  0.84064  1.0000
  H   H2148     1.0  0.47325  0.31608  0.79625  1.0000
  H   H2149     1.0  0.30193  0.36317  0.73250  1.0000
  H   H2150     1.0  0.40058  0.45884  0.77026  1.0000
  H   H2151     1.0  0.27594  0.38114  0.85072  1.0000
  H   H2152     1.0  0.31098  0.37672  0.83887  1.0000
  H   H2153     1.0  0.47526  0.09786  0.67982  1.0000
  C   C1238     1.0  0.30968  0.30880  0.78818  1.0000
  C   C1239     1.0  0.36250  0.27909  0.93932  1.0000
  C   C1240     1.0  0.25247  0.44759  0.71744  1.0000
  H   H2154     1.0  0.27251  0.29862  0.79028  1.0000
  H   H2155     1.0  0.36943  0.97631  0.66762  1.0000
  N   N65       1.0  0.45114  0.23250  0.86533  1.0000
  H   H2156     1.0  0.23235  0.16775  0.92547  1.0000
  C   C1241     1.0  0.27203  0.45026  0.71938  1.0000
  H   H2157     1.0  0.27781  0.35938  0.74040  1.0000
  H   H2158     1.0  0.31130  0.33906  0.76018  1.0000
  H   H2159     1.0  0.28939  0.35675  0.71683  1.0000
  H   H2160     1.0  0.30957  0.29410  0.79590  1.0000
  H   H2161     1.0  0.43175  0.29127  0.86529  1.0000
  H   H2162     1.0  0.24286  0.05276  0.85249  1.0000
  H   H2163     1.0  0.23746  0.99579  0.71308  1.0000
  H   H2164     1.0  0.30031  0.28229  0.77310  1.0000
  H   H2165     1.0  0.31000  0.98285  0.65682  1.0000
  H   H2166     1.0  0.30266  0.35531  0.85085  1.0000
  H   H2167     1.0  0.42118  0.19499  0.85421  1.0000
  S   S282      1.0  0.40814  0.15596  0.63614  1.0000
  H   H2168     1.0  0.25411  0.43360  0.71334  1.0000
  H   H2169     1.0  0.46815  0.07572  0.65604  1.0000
  H   H2170     1.0  0.44266  0.19819  0.72805  1.0000
  C   C1242     1.0  0.34058  0.99688  0.68775  1.0000
  C   C1243     1.0  0.23709  0.35575  0.89518  1.0000
  H   H2171     1.0  0.26320  0.29238  0.75353  1.0000
  H   H2172     1.0  0.45455  0.16439  0.79213  1.0000
  H   H2173     1.0  0.42033  0.17555  0.71088  1.0000
  H   H2174     1.0  0.35563  0.27372  0.84490  1.0000
  C   C1244     1.0  0.26256  0.28948  0.76903  1.0000
  H   H2175     1.0  0.45007  0.25898  0.74181  1.0000
  C   C1245     1.0  0.27424  0.30165  0.77471  1.0000
  C   C1246     1.0  0.46034  0.09800  0.68713  1.0000
  H   H2176     1.0  0.26343  0.06171  0.87092  1.0000
  H   H2177     1.0  0.24121  0.10984  0.81293  1.0000
  H   H2178     1.0  0.32529  0.21162  0.92335  1.0000
  H   H2179     1.0  0.36103  0.29462  0.93493  1.0000
  C   C1247     1.0  0.46712  0.20651  0.73292  1.0000
  H   H2180     1.0  0.23901  0.35867  0.72227  1.0000
  C   C1248     1.0  0.42825  0.09484  0.68283  1.0000
  H   H2181     1.0  0.37584  0.27223  0.93144  1.0000
  Fe  Fe143     1.0  0.25842  0.11244  0.95486  1.0000
  H   H2182     1.0  0.46786  0.10870  0.71883  1.0000
  H   H2183     1.0  0.29189  0.30297  0.82654  1.0000
  C   C1249     1.0  0.29149  0.35451  0.73167  1.0000
  H   H2184     1.0  0.45149  0.19435  0.86366  1.0000
  H   H2185     1.0  0.39633  0.19872  0.81032  1.0000
  H   H2186     1.0  0.24344  0.44729  0.73147  1.0000
  H   H2187     1.0  0.36675  0.29066  0.75390  1.0000
  H   H2188     1.0  0.23875  0.44984  0.78589  1.0000
  H   H2189     1.0  0.41367  0.28345  0.85687  1.0000
  S   S283      1.0  0.27109  0.07180  0.64560  1.0000
  S   S284      1.0  0.34080  0.20637  0.95897  1.0000
  H   H2190     1.0  0.46105  0.08703  0.69988  1.0000
  H   H2191     1.0  0.24305  0.97984  0.63803  1.0000
  H   H2192     1.0  0.46121  0.20409  0.83984  1.0000
  C   C1250     1.0  0.44827  0.20414  0.85072  1.0000
  H   H2193     1.0  0.33047  0.27472  0.85109  1.0000
  H   H2194     1.0  0.43815  0.21323  0.74540  1.0000
  H   H2195     1.0  0.26371  0.43828  0.88265  1.0000
  H   H2196     1.0  0.43064  0.16597  0.80466  1.0000
  N   N66       1.0  0.27015  0.41284  0.87034  1.0000
  H   H2197     1.0  0.43509  0.14601  0.74294  1.0000
  H   H2198     1.0  0.34091  0.29470  0.85202  1.0000
  C   C1251     1.0  0.30240  0.15669  0.95201  1.0000
  H   H2199     1.0  0.40820  0.15694  0.72493  1.0000
  H   H2200     1.0  0.47598  0.24584  0.85875  1.0000
  H   H2201     1.0  0.31209  0.32964  0.72902  1.0000
  C   C1252     1.0  0.29535  0.13979  0.95924  1.0000
  C   C1253     1.0  0.47999  0.25047  0.74324  1.0000
  H   H2202     1.0  0.24756  0.29283  0.77579  1.0000
  H   H2203     1.0  0.43990  0.23330  0.84017  1.0000
  H   H2204     1.0  0.42450  0.23241  0.90052  1.0000
  S   S285      1.0  0.25262  0.03367  0.77099  1.0000
  C   C1254     1.0  0.25213  0.08631  0.69422  1.0000
  H   H2205     1.0  0.40763  0.16785  0.75551  1.0000
  H   H2206     1.0  0.45658  0.27112  0.84601  1.0000
  H   H2207     1.0  0.31548  0.24479  0.89202  1.0000
  H   H2208     1.0  0.34477  0.00419  0.67316  1.0000
  Fe  Fe144     1.0  0.31149  0.03083  0.63887  1.0000
  N   N67       1.0  0.44885  0.09363  0.67428  1.0000
  N   N68       1.0  0.30795  0.30998  0.76783  1.0000
  H   H2209     1.0  0.45980  0.17213  0.75072  1.0000
  S   S286      1.0  0.26586  0.08063  0.95808  1.0000
  H   H2210     1.0  0.27793  0.43848  0.72974  1.0000
  H   H2211     1.0  0.32672  0.30298  0.74239  1.0000
  S   S287      1.0  0.33643  0.00746  0.63471  1.0000
  H   H2212     1.0  0.28032  0.32255  0.79831  1.0000
  C   C1255     1.0  0.33839  0.28441  0.76526  1.0000
  H   H2213     1.0  0.47806  0.02911  0.68759  1.0000
  C   C1256     1.0  0.23458  0.03923  0.72127  1.0000
  H   H2214     1.0  0.28044  0.37241  0.87422  1.0000
  H   H2215     1.0  0.36335  0.27555  0.95454  1.0000
  N   N69       1.0  0.43041  0.17638  0.76443  1.0000
  C   C1257     1.0  0.43471  0.15752  0.77684  1.0000
  C   C1258     1.0  0.42068  0.17389  0.74925  1.0000
  C   C1259     1.0  0.44875  0.18349  0.75617  1.0000
  C   C1260     1.0  0.41763  0.19063  0.77547  1.0000
  C   C1261     1.0  0.39848  0.18513  0.78618  1.0000
  C   C1262     1.0  0.44166  0.15790  0.79523  1.0000
  C   C1263     1.0  0.44770  0.20094  0.74022  1.0000
  C   C1264     1.0  0.43254  0.16080  0.73551  1.0000
  C   C1265     1.0  0.42224  0.16122  0.71945  1.0000
  C   C1266     1.0  0.38813  0.19913  0.79912  1.0000
  C   C1267     1.0  0.28578  0.38052  0.86041  1.0000
  H   H2216     1.0  0.44320  0.21249  0.92407  1.0000
  H   H2217     1.0  0.45237  0.12910  0.68302  1.0000
  H   H2218     1.0  0.46547  0.10927  0.65080  1.0000
  H   H2219     1.0  0.42030  0.09126  0.67313  1.0000
  C   C1268     1.0  0.24020  0.09824  0.67990  1.0000
  H   H2220     1.0  0.32534  0.00207  0.69238  1.0000
  C   C1269     1.0  0.23707  0.08527  0.75766  1.0000
  H   H2221     1.0  0.46000  0.20654  0.88408  1.0000
  H   H2222     1.0  0.27610  0.97446  0.71583  1.0000
  H   H2223     1.0  0.23588  0.45491  0.76171  1.0000
  H   H2224     1.0  0.45732  0.05753  0.69743  1.0000
  H   H2225     1.0  0.31481  0.36702  0.86268  1.0000
  C   C1270     1.0  0.40252  0.08638  0.71012  1.0000
  H   H2226     1.0  0.30093  0.45596  0.86688  1.0000
  C   C1271     1.0  0.23496  0.46133  0.77427  1.0000
  H   H2227     1.0  0.39936  0.07686  0.72374  1.0000
  H   H2228     1.0  0.24001  0.44389  0.86603  1.0000
  C   C1272     1.0  0.23926  0.98783  0.77565  1.0000
  H   H2229     1.0  0.43923  0.11697  0.70360  1.0000
  C   C1273     1.0  0.28216  0.22416  0.95072  1.0000
  H   H2230     1.0  0.32315  0.17357  0.95246  1.0000
  C   C1274     1.0  0.41014  0.46622  0.75868  1.0000
  H   H2231     1.0  0.27120  0.46368  0.72436  1.0000
  H   H2232     1.0  0.47722  0.19487  0.72697  1.0000
  C   C1275     1.0  0.26365  0.38407  0.92154  1.0000
  H   H2233     1.0  0.43162  0.08355  0.71236  1.0000
  H   H2234     1.0  0.26292  0.42341  0.84264  1.0000
  C   C1276     1.0  0.46699  0.12001  0.70632  1.0000
  H   H2235     1.0  0.23889  0.10122  0.72980  1.0000
  H   H2236     1.0  0.24221  0.08133  0.70691  1.0000
  C   C1277     1.0  0.24395  0.46364  0.70273  1.0000
  H   H2237     1.0  0.45993  0.22736  0.89237  1.0000
  H   H2238     1.0  0.47070  0.23830  0.83939  1.0000
  C   C1278     1.0  0.47087  0.23422  0.85476  1.0000
  H   H2239     1.0  0.23918  0.44576  0.67728  1.0000
  H   H2240     1.0  0.47993  0.06251  0.68488  1.0000
  H   H2241     1.0  0.25907  0.20936  0.96064  1.0000
  C   C1279     1.0  0.47085  0.03975  0.67715  1.0000
  H   H2242     1.0  0.25081  0.39324  0.92768  1.0000
  H   H2243     1.0  0.23636  0.08773  0.82707  1.0000
  H   H2244     1.0  0.48035  0.04035  0.66328  1.0000
  S   S288      1.0  0.23554  0.36285  0.96451  1.0000
  H   H2245     1.0  0.33455  0.97278  0.67977  1.0000
  Fe  Fe145     1.0  0.35450  0.50039  0.18586  1.0000
  S   S289      1.0  0.36903  0.52537  0.17128  1.0000
  S   S290      1.0  0.32558  0.49987  0.18064  1.0000
  H   H2246     1.0  0.27518  0.95888  0.22401  1.0000
  C   C1280     1.0  0.29865  0.74942  0.27612  1.0000
  S   S291      1.0  0.25799  0.50581  0.05812  1.0000
  H   H2247     1.0  0.27564  0.93424  0.19117  1.0000
  H   H2248     1.0  0.23833  0.52247  0.09075  1.0000
  Fe  Fe146     1.0  0.37225  0.94347  0.20547  1.0000
  C   C1281     1.0  0.23231  0.94622  0.28120  1.0000
  S   S292      1.0  0.39173  0.91644  0.19925  1.0000
  S   S293      1.0  0.34088  0.94463  0.21288  1.0000
  S   S294      1.0  0.34894  0.48617  0.21618  1.0000
  Fe  Fe147     1.0  0.26591  0.94606  0.10968  1.0000
  S   S295      1.0  0.29397  0.93877  0.12031  1.0000
  H   H2249     1.0  0.32236  0.50514  0.05534  1.0000
  H   H2250     1.0  0.29804  0.70026  0.06304  1.0000
  H   H2251     1.0  0.32555  0.75283  0.28124  1.0000
  S   S296      1.0  0.26243  0.93600  0.08403  1.0000
  H   H2252     1.0  0.29268  0.90200  0.27902  1.0000
  Fe  Fe148     1.0  0.26464  0.61246  0.06709  1.0000
  S   S297      1.0  0.29604  0.61240  0.06082  1.0000
  S   S298      1.0  0.24794  0.58815  0.07686  1.0000
  Fe  Fe149     1.0  0.25535  0.65490  0.06858  1.0000
  S   S299      1.0  0.28580  0.65786  0.06344  1.0000
  C   C1282     1.0  0.32307  0.82120  0.29245  1.0000
  Fe  Fe150     1.0  0.28934  0.63989  0.04127  1.0000
  S   S300      1.0  0.30829  0.65237  0.01525  1.0000
  Fe  Fe151     1.0  0.29069  0.63041  0.08316  1.0000
  S   S301      1.0  0.31121  0.62062  0.10391  1.0000
  S   S302      1.0  0.25839  0.63843  0.04535  1.0000
  S   S303      1.0  0.25972  0.62901  0.09063  1.0000
  Fe  Fe152     1.0  0.37868  0.62641  0.18400  1.0000
  S   S304      1.0  0.39379  0.62934  0.15411  1.0000
  S   S305      1.0  0.36638  0.60099  0.20140  1.0000
  Fe  Fe153     1.0  0.38360  0.66616  0.18785  1.0000
  S   S306      1.0  0.39862  0.67221  0.15803  1.0000
  S   S307      1.0  0.37988  0.68295  0.21140  1.0000
  Fe  Fe154     1.0  0.37659  0.65854  0.15094  1.0000
  S   S308      1.0  0.36047  0.67117  0.12677  1.0000
  Fe  Fe155     1.0  0.41447  0.64258  0.16378  1.0000
  S   S309      1.0  0.44630  0.63246  0.15889  1.0000
  S   S310      1.0  0.36028  0.65493  0.18046  1.0000
  S   S311      1.0  0.40060  0.63725  0.19393  1.0000
  S   S312      1.0  0.37088  0.79185  0.24732  1.0000
  Fe  Fe156     1.0  0.42031  0.77748  0.26196  1.0000
  S   S313      1.0  0.41549  0.79623  0.23440  1.0000
  S   S314      1.0  0.44894  0.76216  0.26876  1.0000
  Fe  Fe157     1.0  0.38944  0.81076  0.25158  1.0000
  S   S315      1.0  0.37366  0.84057  0.25279  1.0000
  Fe  Fe158     1.0  0.39719  0.77571  0.23276  1.0000
  S   S316      1.0  0.39821  0.76471  0.20595  1.0000
  H   H2253     1.0  0.29713  0.76344  0.26690  1.0000
  S   S317      1.0  0.40319  0.75647  0.25922  1.0000
  C   C1283     1.0  0.30679  0.90445  0.28011  1.0000
  C   C1284     1.0  0.38722  0.70487  0.20873  1.0000
  C   C1285     1.0  0.39057  0.71031  0.22470  1.0000
  C   C1286     1.0  0.39428  0.72846  0.22393  1.0000
  C   C1287     1.0  0.39469  0.74139  0.20710  1.0000
  C   C1288     1.0  0.39208  0.73571  0.19090  1.0000
  C   C1289     1.0  0.38840  0.71748  0.19168  1.0000
  H   H2254     1.0  0.38988  0.70051  0.23783  1.0000
  H   H2255     1.0  0.39640  0.73253  0.23645  1.0000
  H   H2256     1.0  0.39251  0.74556  0.17777  1.0000
  H   H2257     1.0  0.38582  0.71343  0.17928  1.0000
  H   H2258     1.0  0.29210  0.49613  0.09004  1.0000
  C   C1290     1.0  0.24692  0.70837  0.06855  1.0000
  C   C1291     1.0  0.24684  0.72775  0.06730  1.0000
  H   H2259     1.0  0.25988  0.69836  0.06945  1.0000
  H   H2260     1.0  0.25980  0.73258  0.06722  1.0000
  C   C1292     1.0  0.31109  0.64630  0.99282  1.0000
  C   C1293     1.0  0.30270  0.63203  0.98986  1.0000
  H   H2261     1.0  0.33784  0.86147  0.12982  1.0000
  H   H2262     1.0  0.40845  0.52335  0.18450  1.0000
  H   H2263     1.0  0.29432  0.62427  0.00155  1.0000
  H   H2264     1.0  0.26279  0.49990  0.14823  1.0000
  C   C1294     1.0  0.32528  0.63520  0.10886  1.0000
  C   C1295     1.0  0.34133  0.62669  0.11697  1.0000
  C   C1296     1.0  0.35201  0.63756  0.12272  1.0000
  C   C1297     1.0  0.34698  0.65717  0.12004  1.0000
  C   C1298     1.0  0.33132  0.66580  0.11128  1.0000
  C   C1299     1.0  0.32044  0.65487  0.10576  1.0000
  H   H2265     1.0  0.34539  0.61156  0.11915  1.0000
  H   H2266     1.0  0.36417  0.63076  0.12919  1.0000
  H   H2267     1.0  0.32735  0.68099  0.10915  1.0000
  H   H2268     1.0  0.30804  0.66161  0.09963  1.0000
  H   H2269     1.0  0.35759  0.49387  0.12557  1.0000
  C   C1300     1.0  0.45563  0.66810  0.15147  1.0000
  C   C1301     1.0  0.46173  0.64874  0.15638  1.0000
  H   H2270     1.0  0.44676  0.71420  0.26235  1.0000
  H   H2271     1.0  0.33640  0.52002  0.09842  1.0000
  H   H2272     1.0  0.37838  0.69998  0.29598  1.0000
  H   H2273     1.0  0.44128  0.67334  0.14914  1.0000
  H   H2274     1.0  0.30720  0.48773  0.05966  1.0000
  H   H2275     1.0  0.43287  0.72371  0.16939  1.0000
  C   C1302     1.0  0.24547  0.53290  0.08093  1.0000
  H   H2276     1.0  0.29147  0.91292  0.16890  1.0000
  C   C1303     1.0  0.29865  0.48900  0.26158  1.0000
  H   H2277     1.0  0.24160  0.93664  0.17184  1.0000
  C   C1304     1.0  0.38702  0.89538  0.21438  1.0000
  C   C1305     1.0  0.37140  0.89547  0.22887  1.0000
  C   C1306     1.0  0.36760  0.87852  0.24048  1.0000
  C   C1307     1.0  0.37941  0.86135  0.23782  1.0000
  C   C1308     1.0  0.39509  0.86119  0.22335  1.0000
  C   C1309     1.0  0.39881  0.87818  0.21159  1.0000
  H   H2278     1.0  0.36231  0.90863  0.23124  1.0000
  H   H2279     1.0  0.35550  0.87878  0.25165  1.0000
  H   H2280     1.0  0.40432  0.84803  0.22121  1.0000
  H   H2281     1.0  0.41092  0.87804  0.20038  1.0000
  C   C1310     1.0  0.30048  0.95190  0.13481  1.0000
  C   C1311     1.0  0.31491  0.94339  0.14528  1.0000
  C   C1312     1.0  0.32001  0.95296  0.15764  1.0000
  H   H2282     1.0  0.32198  0.92924  0.14393  1.0000
  H   H2283     1.0  0.33097  0.94623  0.16581  1.0000
  C   C1313     1.0  0.25269  0.56489  0.07210  1.0000
  C   C1314     1.0  0.26414  0.56002  0.05559  1.0000
  C   C1315     1.0  0.26579  0.54179  0.05155  1.0000
  C   C1316     1.0  0.25631  0.52822  0.06412  1.0000
  H   H2284     1.0  0.27113  0.57048  0.04561  1.0000
  H   H2285     1.0  0.27418  0.53829  0.03845  1.0000
  C   C1317     1.0  0.36840  0.54609  0.18015  1.0000
  C   C1318     1.0  0.37559  0.56130  0.16792  1.0000
  C   C1319     1.0  0.37498  0.57824  0.17419  1.0000
  C   C1320     1.0  0.36744  0.58000  0.19288  1.0000
  C   C1321     1.0  0.36028  0.56478  0.20513  1.0000
  C   C1322     1.0  0.36073  0.54789  0.19880  1.0000
  H   H2286     1.0  0.38141  0.56004  0.15342  1.0000
  H   H2287     1.0  0.38012  0.59002  0.16456  1.0000
  H   H2288     1.0  0.35436  0.56608  0.21960  1.0000
  H   H2289     1.0  0.35523  0.53626  0.20838  1.0000
  H   H2290     1.0  0.39918  0.59367  0.22753  1.0000
  C   C1323     1.0  0.35423  0.66688  0.02373  1.0000
  H   H2291     1.0  0.24656  0.68395  0.02498  1.0000
  H   H2292     1.0  0.46224  0.59287  0.16004  1.0000
  H   H2293     1.0  0.24411  0.55961  0.28561  1.0000
  N   N70       1.0  0.33202  0.73497  0.25999  1.0000
  H   H2294     1.0  0.27566  0.91119  0.05420  1.0000
  H   H2295     1.0  0.35105  0.86093  0.28707  1.0000
  C   C1324     1.0  0.30436  0.52148  0.08782  1.0000
  S   S318      1.0  0.35515  0.76192  0.29467  1.0000
  H   H2296     1.0  0.38945  0.64806  0.98949  1.0000
  C   C1325     1.0  0.45934  0.78748  0.28612  1.0000
  H   H2297     1.0  0.25529  0.49181  0.25072  1.0000
  C   C1326     1.0  0.26593  0.49098  0.25917  1.0000
  H   H2298     1.0  0.36889  0.64124  0.05373  1.0000
  H   H2299     1.0  0.25202  0.93876  0.99256  1.0000
  H   H2300     1.0  0.32798  0.70001  0.02702  1.0000
  Fe  Fe159     1.0  0.24299  0.48211  0.07572  1.0000
  S   S319      1.0  0.36730  0.47328  0.17505  1.0000
  H   H2301     1.0  0.34943  0.64753  0.07108  1.0000
  H   H2302     1.0  0.43330  0.72081  0.21527  1.0000
  H   H2303     1.0  0.31335  0.48832  0.25509  1.0000
  C   C1327     1.0  0.30279  0.70329  0.04757  1.0000
  C   C1328     1.0  0.41434  0.59168  0.22094  1.0000
  H   H2304     1.0  0.38398  0.72114  0.28037  1.0000
  H   H2305     1.0  0.27223  0.75816  0.29417  1.0000
  H   H2306     1.0  0.32861  0.77399  0.20876  1.0000
  H   H2307     1.0  0.46831  0.78033  0.22833  1.0000
  H   H2308     1.0  0.46337  0.69568  0.14514  1.0000
  C   C1329     1.0  0.29145  0.97033  0.13644  1.0000
  H   H2309     1.0  0.33533  0.73898  0.21842  1.0000
  Fe  Fe160     1.0  0.37852  0.77431  0.27412  1.0000
  C   C1330     1.0  0.32410  0.69678  0.04254  1.0000
  C   C1331     1.0  0.30545  0.50148  0.08344  1.0000
  H   H2310     1.0  0.24587  0.49125  0.28512  1.0000
  C   C1332     1.0  0.33066  0.75138  0.24389  1.0000
  C   C1333     1.0  0.36665  0.91052  0.15310  1.0000
  H   H2311     1.0  0.29921  0.71872  0.04275  1.0000
  H   H2312     1.0  0.42133  0.73878  0.29408  1.0000
  H   H2313     1.0  0.35243  0.91912  0.15549  1.0000
  H   H2314     1.0  0.35663  0.50874  0.14238  1.0000
  H   H2315     1.0  0.47227  0.75958  0.19519  1.0000
  H   H2316     1.0  0.36173  0.72398  0.25177  1.0000
  N   N71       1.0  0.27199  0.69611  0.96795  1.0000
  H   H2317     1.0  0.43179  0.73942  0.18558  1.0000
  H   H2318     1.0  0.41909  0.60553  0.21796  1.0000
  C   C1334     1.0  0.45416  0.70932  0.23348  1.0000
  H   H2319     1.0  0.46913  0.70983  0.23361  1.0000
  H   H2320     1.0  0.25495  0.71227  0.00166  1.0000
  C   C1335     1.0  0.32382  0.81310  0.27481  1.0000
  C   C1336     1.0  0.29327  0.48883  0.28108  1.0000
  H   H2321     1.0  0.24254  0.70641  0.96607  1.0000
  H   H2322     1.0  0.47554  0.57828  0.18850  1.0000
  N   N72       1.0  0.31038  0.57709  0.16817  1.0000
  C   C1337     1.0  0.28950  0.58484  0.17059  1.0000
  C   C1338     1.0  0.32014  0.58997  0.17482  1.0000
  C   C1339     1.0  0.31752  0.57596  0.14760  1.0000
  C   C1340     1.0  0.31432  0.55758  0.17953  1.0000
  C   C1341     1.0  0.30726  0.55584  0.20107  1.0000
  C   C1342     1.0  0.27668  0.57145  0.16827  1.0000
  C   C1343     1.0  0.33928  0.57213  0.14148  1.0000
  C   C1344     1.0  0.31799  0.61062  0.16425  1.0000
  C   C1345     1.0  0.33129  0.62142  0.16943  1.0000
  C   C1346     1.0  0.30881  0.53522  0.21064  1.0000
  C   C1347     1.0  0.25639  0.58172  0.16794  1.0000
  C   C1348     1.0  0.34478  0.57068  0.12062  1.0000
  H   H2323     1.0  0.28676  0.59805  0.16023  1.0000
  H   H2324     1.0  0.28428  0.58926  0.18457  1.0000
  H   H2325     1.0  0.31453  0.59095  0.18985  1.0000
  H   H2326     1.0  0.33537  0.58401  0.17448  1.0000
  H   H2327     1.0  0.31188  0.58909  0.13842  1.0000
  H   H2328     1.0  0.31211  0.56458  0.14363  1.0000
  H   H2329     1.0  0.30850  0.54735  0.17411  1.0000
  H   H2330     1.0  0.32974  0.55222  0.17781  1.0000
  H   H2331     1.0  0.29232  0.56262  0.20445  1.0000
  H   H2332     1.0  0.31603  0.56251  0.20749  1.0000
  H   H2333     1.0  0.28177  0.56574  0.15503  1.0000
  H   H2334     1.0  0.27636  0.55941  0.18016  1.0000
  H   H2335     1.0  0.34562  0.55867  0.14945  1.0000
  H   H2336     1.0  0.34574  0.58365  0.14372  1.0000
  H   H2337     1.0  0.32108  0.61133  0.14887  1.0000
  H   H2338     1.0  0.30331  0.61806  0.16800  1.0000
  H   H2339     1.0  0.34625  0.61514  0.16492  1.0000
  H   H2340     1.0  0.32897  0.63632  0.16219  1.0000
  H   H2341     1.0  0.32868  0.62123  0.18484  1.0000
  H   H2342     1.0  0.29954  0.52802  0.20545  1.0000
  H   H2343     1.0  0.32363  0.52777  0.20794  1.0000
  H   H2344     1.0  0.25048  0.58748  0.18113  1.0000
  H   H2345     1.0  0.25582  0.59344  0.15572  1.0000
  H   H2346     1.0  0.24746  0.57175  0.16663  1.0000
  H   H2347     1.0  0.33809  0.58344  0.11181  1.0000
  H   H2348     1.0  0.36035  0.56932  0.11641  1.0000
  H   H2349     1.0  0.34045  0.55809  0.11790  1.0000
  C   C1349     1.0  0.35313  0.50849  0.12852  1.0000
  H   H2350     1.0  0.31653  0.54830  0.10593  1.0000
  C   C1350     1.0  0.33948  0.70392  0.24573  1.0000
  H   H2351     1.0  0.27950  0.70351  0.00264  1.0000
  C   C1351     1.0  0.32973  0.68982  0.24044  1.0000
  C   C1352     1.0  0.32622  0.51356  0.11016  1.0000
  H   H2352     1.0  0.25696  0.92291  0.02231  1.0000
  H   H2353     1.0  0.27316  0.89417  0.04072  1.0000
  C   C1353     1.0  0.32490  0.71845  0.25626  1.0000
  H   H2354     1.0  0.34978  0.69574  0.25475  1.0000
  H   H2355     1.0  0.34762  0.71068  0.23267  1.0000
  C   C1354     1.0  0.34214  0.74793  0.22446  1.0000
  H   H2356     1.0  0.24032  0.91687  0.06431  1.0000
  H   H2357     1.0  0.32170  0.68220  0.25316  1.0000
  H   H2358     1.0  0.32002  0.69713  0.23046  1.0000
  C   C1355     1.0  0.38080  0.92346  0.15187  1.0000
  C   C1356     1.0  0.33189  0.51491  0.12895  1.0000
  H   H2359     1.0  0.26611  0.89030  0.06593  1.0000
  H   H2360     1.0  0.25955  0.69766  0.03354  1.0000
  C   C1357     1.0  0.35544  0.71610  0.28192  1.0000
  H   H2361     1.0  0.29233  0.73973  0.27056  1.0000
  C   C1358     1.0  0.32200  0.65623  0.97755  1.0000
  H   H2362     1.0  0.31302  0.72365  0.24823  1.0000
  H   H2363     1.0  0.27054  0.90468  0.18283  1.0000
  C   C1359     1.0  0.37562  0.65635  0.99477  1.0000
  C   C1360     1.0  0.34303  0.76643  0.21059  1.0000
  Fe  Fe161     1.0  0.34281  0.96040  0.23515  1.0000
  H   H2364     1.0  0.29958  0.58139  0.10461  1.0000
  N   N73       1.0  0.44180  0.57480  0.17408  1.0000
  C   C1361     1.0  0.42881  0.58588  0.16074  1.0000
  C   C1362     1.0  0.43717  0.58301  0.19198  1.0000
  C   C1363     1.0  0.46170  0.57756  0.16498  1.0000
  C   C1364     1.0  0.44097  0.55392  0.17829  1.0000
  C   C1365     1.0  0.42195  0.54804  0.17768  1.0000
  C   C1366     1.0  0.43424  0.58162  0.14035  1.0000
  C   C1367     1.0  0.41675  0.58367  0.20288  1.0000
  H   H2365     1.0  0.31587  0.75603  0.24143  1.0000
  H   H2366     1.0  0.36403  0.60808  0.05604  1.0000
  C   C1368     1.0  0.41776  0.58826  0.12954  1.0000
  H   H2367     1.0  0.42844  0.60125  0.15968  1.0000
  H   H2368     1.0  0.41399  0.58398  0.16624  1.0000
  H   H2369     1.0  0.44634  0.57487  0.20219  1.0000
  H   H2370     1.0  0.44014  0.59773  0.18887  1.0000
  C   C1369     1.0  0.27424  0.48948  0.28969  1.0000
  C   C1370     1.0  0.31976  0.74160  0.27735  1.0000
  H   H2371     1.0  0.45173  0.54631  0.16817  1.0000
  H   H2372     1.0  0.44493  0.54757  0.19232  1.0000
  H   H2373     1.0  0.41944  0.55040  0.16299  1.0000
  H   H2374     1.0  0.40966  0.55610  0.18567  1.0000
  H   H2375     1.0  0.44595  0.58913  0.13252  1.0000
  H   H2376     1.0  0.43916  0.56635  0.14022  1.0000
  C   C1371     1.0  0.27580  0.91610  0.17188  1.0000
  H   H2377     1.0  0.40662  0.59274  0.19419  1.0000
  H   H2378     1.0  0.41317  0.56936  0.20732  1.0000
  H   H2379     1.0  0.33492  0.76370  0.24755  1.0000
  H   H2380     1.0  0.23188  0.54019  0.29623  1.0000
  H   H2381     1.0  0.24382  0.92963  0.19600  1.0000
  H   H2382     1.0  0.34051  0.67930  0.23345  1.0000
  H   H2383     1.0  0.36118  0.51807  0.11764  1.0000
  H   H2384     1.0  0.42700  0.71876  0.25013  1.0000
  H   H2385     1.0  0.41334  0.60376  0.12816  1.0000
  H   H2386     1.0  0.42219  0.58471  0.11518  1.0000
  H   H2387     1.0  0.40557  0.58123  0.13674  1.0000
  H   H2388     1.0  0.29071  0.52955  0.08413  1.0000
  N   N74       1.0  0.35391  0.88117  0.17366  1.0000
  C   C1372     1.0  0.33497  0.89203  0.18119  1.0000
  C   C1373     1.0  0.35248  0.87312  0.15677  1.0000
  C   C1374     1.0  0.35914  0.86490  0.18899  1.0000
  C   C1375     1.0  0.36920  0.89311  0.16881  1.0000
  S   S320      1.0  0.37038  0.97065  0.18453  1.0000
  C   C1376     1.0  0.33379  0.90031  0.19919  1.0000
  C   C1377     1.0  0.37742  0.85068  0.18365  1.0000
  C   C1378     1.0  0.33839  0.88470  0.14380  1.0000
  C   C1379     1.0  0.34044  0.87624  0.12609  1.0000
  H   H2389     1.0  0.34028  0.60345  0.05956  1.0000
  C   C1380     1.0  0.31427  0.91200  0.20438  1.0000
  C   C1381     1.0  0.37831  0.83236  0.19799  1.0000
  H   H2390     1.0  0.32406  0.88279  0.18431  1.0000
  H   H2391     1.0  0.33009  0.90405  0.17053  1.0000
  H   H2392     1.0  0.36664  0.87052  0.14778  1.0000
  H   H2393     1.0  0.34797  0.85906  0.16137  1.0000
  H   H2394     1.0  0.34721  0.85688  0.19426  1.0000
  H   H2395     1.0  0.36147  0.87009  0.20132  1.0000
  H   H2396     1.0  0.37119  0.89777  0.18152  1.0000
  H   H2397     1.0  0.24499  0.50799  0.13337  1.0000
  C   C1382     1.0  0.30671  0.96498  0.27398  1.0000
  C   C1383     1.0  0.26057  0.49067  0.27865  1.0000
  H   H2398     1.0  0.33609  0.88897  0.21141  1.0000
  H   H2399     1.0  0.34435  0.90966  0.19712  1.0000
  H   H2400     1.0  0.39005  0.85689  0.18340  1.0000
  H   H2401     1.0  0.37850  0.84681  0.16970  1.0000
  H   H2402     1.0  0.32360  0.88473  0.15128  1.0000
  H   H2403     1.0  0.34052  0.89950  0.13925  1.0000
  H   H2404     1.0  0.32994  0.88462  0.11734  1.0000
  H   H2405     1.0  0.37503  0.67115  0.98729  1.0000
  H   H2406     1.0  0.35479  0.87656  0.11761  1.0000
  H   H2407     1.0  0.26106  0.96747  0.97152  1.0000
  C   C1384     1.0  0.32215  0.84296  0.28779  1.0000
  H   H2408     1.0  0.32197  0.87926  0.26987  1.0000
  H   H2409     1.0  0.31344  0.91701  0.21778  1.0000
  H   H2410     1.0  0.31176  0.92454  0.19328  1.0000
  H   H2411     1.0  0.30302  0.90343  0.20628  1.0000
  H   H2412     1.0  0.39214  0.82308  0.19475  1.0000
  H   H2413     1.0  0.37676  0.83525  0.21245  1.0000
  H   H2414     1.0  0.36694  0.82470  0.19750  1.0000
  C   C1385     1.0  0.26668  0.90122  0.05301  1.0000
  N   N75       1.0  0.45777  0.70755  0.19786  1.0000
  H   H2415     1.0  0.35933  0.95701  0.28501  1.0000
  C   C1386     1.0  0.44540  0.69417  0.19616  1.0000
  C   C1387     1.0  0.45954  0.72145  0.17960  1.0000
  C   C1388     1.0  0.44896  0.71825  0.21383  1.0000
  H   H2416     1.0  0.31723  0.49114  0.08868  1.0000
  C   C1389     1.0  0.29011  0.70358  0.96628  1.0000
  C   C1390     1.0  0.44210  0.67794  0.21288  1.0000
  C   C1391     1.0  0.43308  0.66339  0.20736  1.0000
  H   H2417     1.0  0.36424  0.65032  0.99149  1.0000
  C   C1392     1.0  0.35355  0.64726  0.05574  1.0000
  H   H2418     1.0  0.42338  0.52413  0.20073  1.0000
  H   H2419     1.0  0.43074  0.75630  0.15309  1.0000
  H   H2420     1.0  0.43098  0.70182  0.19434  1.0000
  H   H2421     1.0  0.45125  0.68782  0.18331  1.0000
  C   C1393     1.0  0.47164  0.79286  0.29557  1.0000
  C   C1394     1.0  0.34904  0.61314  0.06178  1.0000
  H   H2422     1.0  0.37744  0.93037  0.16447  1.0000
  H   H2423     1.0  0.28540  0.96646  0.06144  1.0000
  H   H2424     1.0  0.39547  0.91546  0.15078  1.0000
  H   H2425     1.0  0.45223  0.69443  0.23759  1.0000
  H   H2426     1.0  0.25328  0.93900  0.03794  1.0000
  H   H2427     1.0  0.45276  0.73258  0.21064  1.0000
  H   H2428     1.0  0.37991  0.93470  0.13931  1.0000
  H   H2429     1.0  0.43222  0.68366  0.22476  1.0000
  H   H2430     1.0  0.42914  0.65278  0.21990  1.0000
  H   H2431     1.0  0.42015  0.67028  0.20143  1.0000
  H   H2432     1.0  0.44313  0.65598  0.19666  1.0000
  C   C1395     1.0  0.44205  0.72007  0.24863  1.0000
  H   H2433     1.0  0.32837  0.52938  0.13217  1.0000
  H   H2434     1.0  0.45534  0.67030  0.21772  1.0000
  C   C1396     1.0  0.44441  0.74868  0.15714  1.0000
  H   H2435     1.0  0.34753  0.61275  0.07714  1.0000
  H   H2436     1.0  0.32865  0.66721  0.97976  1.0000
  H   H2437     1.0  0.31532  0.52851  0.07761  1.0000
  Fe  Fe162     1.0  0.24412  0.96427  0.07695  1.0000
  H   H2438     1.0  0.27056  0.91651  0.15867  1.0000
  H   H2439     1.0  0.34425  0.63265  0.03664  1.0000
  C   C1397     1.0  0.47730  0.69665  0.19979  1.0000
  C   C1398     1.0  0.46822  0.68075  0.14919  1.0000
  H   H2440     1.0  0.32488  0.79753  0.27849  1.0000
  C   C1399     1.0  0.28498  0.48992  0.25060  1.0000
  H   H2441     1.0  0.42259  0.58184  0.23109  1.0000
  C   C1400     1.0  0.42200  0.52715  0.18564  1.0000
  H   H2442     1.0  0.35102  0.76338  0.19671  1.0000
  S   S321      1.0  0.37455  0.95729  0.22910  1.0000
  H   H2443     1.0  0.36907  0.90586  0.13929  1.0000
  H   H2444     1.0  0.34834  0.70377  0.28375  1.0000
  C   C1401     1.0  0.24681  0.92813  0.03424  1.0000
  H   H2445     1.0  0.29910  0.61634  0.96953  1.0000
  H   H2446     1.0  0.25391  0.72267  0.97215  1.0000
  S   S322      1.0  0.32822  0.95160  0.26492  1.0000
  H   H2447     1.0  0.25011  0.66759  0.96972  1.0000
  H   H2448     1.0  0.32905  0.49826  0.10956  1.0000
  H   H2449     1.0  0.27629  0.96459  0.18934  1.0000
  H   H2450     1.0  0.23322  0.88039  0.29482  1.0000
  C   C1402     1.0  0.37648  0.70906  0.28223  1.0000
  N   N76       1.0  0.35015  0.66695  0.04464  1.0000
  H   H2451     1.0  0.43374  0.51827  0.17766  1.0000
  C   C1403     1.0  0.32967  0.67541  0.04995  1.0000
  C   C1404     1.0  0.36308  0.67829  0.04905  1.0000
  C   C1405     1.0  0.34246  0.63310  0.05183  1.0000
  C   C1406     1.0  0.35984  0.68123  0.06979  1.0000
  H   H2452     1.0  0.29502  0.69609  0.04058  1.0000
  H   H2453     1.0  0.33642  0.81630  0.26426  1.0000
  H   H2454     1.0  0.32717  0.63706  0.05719  1.0000
  C   C1407     1.0  0.37234  0.69446  0.07221  1.0000
  H   H2455     1.0  0.35381  0.68152  0.01580  1.0000
  C   C1408     1.0  0.44078  0.73289  0.17380  1.0000
  H   H2456     1.0  0.32067  0.66814  0.04447  1.0000
  H   H2457     1.0  0.32510  0.67290  0.06549  1.0000
  H   H2458     1.0  0.36226  0.69236  0.03979  1.0000
  H   H2459     1.0  0.37805  0.67135  0.04583  1.0000
  H   H2460     1.0  0.38539  0.66109  0.01859  1.0000
  H   H2461     1.0  0.36346  0.66764  0.07919  1.0000
  H   H2462     1.0  0.34500  0.68744  0.07469  1.0000
  C   C1409     1.0  0.37348  0.65543  0.01599  1.0000
  C   C1410     1.0  0.35215  0.73000  0.26349  1.0000
  H   H2463     1.0  0.26423  0.48942  0.12773  1.0000
  H   H2464     1.0  0.31066  0.96102  0.05977  1.0000
  H   H2465     1.0  0.29406  0.55970  0.08483  1.0000
  H   H2466     1.0  0.29902  0.69439  0.97634  1.0000
  H   H2467     1.0  0.36986  0.69607  0.08722  1.0000
  H   H2468     1.0  0.38751  0.68860  0.06809  1.0000
  H   H2469     1.0  0.36891  0.70861  0.06362  1.0000
  N   N77       1.0  0.30615  0.52235  0.10766  1.0000
  C   C1411     1.0  0.30308  0.54260  0.11065  1.0000
  C   C1412     1.0  0.29301  0.51126  0.12210  1.0000
  C   C1413     1.0  0.27171  0.51750  0.12137  1.0000
  C   C1414     1.0  0.28871  0.55738  0.10023  1.0000
  C   C1415     1.0  0.28591  0.57637  0.10672  1.0000
  C   C1416     1.0  0.26029  0.50279  0.13348  1.0000
  H   H2470     1.0  0.29888  0.54329  0.12593  1.0000
  H   H2471     1.0  0.29691  0.49606  0.12106  1.0000
  H   H2472     1.0  0.29464  0.51192  0.13659  1.0000
  H   H2473     1.0  0.26885  0.51945  0.10692  1.0000
  H   H2474     1.0  0.26643  0.53090  0.12688  1.0000
  H   H2475     1.0  0.32448  0.50570  0.14074  1.0000
  H   H2476     1.0  0.35681  0.74108  0.22531  1.0000
  H   H2477     1.0  0.25245  0.68288  0.99071  1.0000
  H   H2478     1.0  0.27479  0.55298  0.10267  1.0000
  H   H2479     1.0  0.27647  0.58706  0.09839  1.0000
  H   H2480     1.0  0.27924  0.57530  0.12174  1.0000
  H   H2481     1.0  0.27532  0.94571  0.16714  1.0000
  C   C1417     1.0  0.30542  0.62757  0.97173  1.0000
  H   H2482     1.0  0.46629  0.57092  0.15217  1.0000
  C   C1418     1.0  0.28717  0.75216  0.29547  1.0000
  H   H2483     1.0  0.35054  0.77559  0.21557  1.0000
  H   H2484     1.0  0.27667  0.67377  0.99165  1.0000
  H   H2485     1.0  0.30427  0.53433  0.22608  1.0000
  H   H2486     1.0  0.34296  0.66158  0.01935  1.0000
  H   H2487     1.0  0.37475  0.64034  0.02254  1.0000
  C   C1419     1.0  0.26656  0.68706  0.98823  1.0000
  H   H2488     1.0  0.31878  0.71009  0.26972  1.0000
  H   H2489     1.0  0.34974  0.72326  0.29427  1.0000
  C   C1420     1.0  0.24353  0.55119  0.08482  1.0000
  C   C1421     1.0  0.26568  0.69932  0.00333  1.0000
  H   H2490     1.0  0.38310  0.88460  0.16402  1.0000
  C   C1422     1.0  0.24667  0.91150  0.05104  1.0000
  H   H2491     1.0  0.33118  0.70528  0.04880  1.0000
  H   H2492     1.0  0.24049  0.96812  0.15623  1.0000
  C   C1423     1.0  0.26042  0.68850  0.02311  1.0000
  C   C1424     1.0  0.46333  0.76953  0.28125  1.0000
  Fe  Fe163     1.0  0.32081  0.48358  0.21012  1.0000
  H   H2493     1.0  0.35755  0.74299  0.26380  1.0000
  H   H2494     1.0  0.30815  0.84884  0.28348  1.0000
  S   S323      1.0  0.24086  0.93437  0.12728  1.0000
  H   H2495     1.0  0.46812  0.73202  0.18023  1.0000
  C   C1425     1.0  0.26942  0.93514  0.17846  1.0000
  S   S324      1.0  0.39593  0.79364  0.27935  1.0000
  H   H2496     1.0  0.30391  0.48796  0.28955  1.0000
  H   H2497     1.0  0.46446  0.78464  0.19496  1.0000
  H   H2498     1.0  0.31089  0.81909  0.26856  1.0000
  C   C1426     1.0  0.47610  0.76943  0.21987  1.0000
  H   H2499     1.0  0.29724  0.51237  0.05590  1.0000
  C   C1427     1.0  0.29767  0.97014  0.06562  1.0000
  H   H2500     1.0  0.33265  0.84618  0.27480  1.0000
  C   C1428     1.0  0.47714  0.56960  0.17744  1.0000
  C   C1429     1.0  0.31088  0.97131  0.15940  1.0000
  H   H2501     1.0  0.27136  0.67592  0.02598  1.0000
  H   H2502     1.0  0.45064  0.76804  0.21000  1.0000
  H   H2503     1.0  0.45332  0.74279  0.14487  1.0000
  H   H2504     1.0  0.38282  0.70062  0.27094  1.0000
  C   C1430     1.0  0.32068  0.88585  0.28241  1.0000
  H   H2505     1.0  0.44340  0.73521  0.24500  1.0000
  C   C1431     1.0  0.30825  0.50177  0.06229  1.0000
  C   C1432     1.0  0.46529  0.77048  0.20397  1.0000
  H   H2506     1.0  0.23743  0.85904  0.09364  1.0000
  C   C1433     1.0  0.24765  0.93999  0.18322  1.0000
  S   S325      1.0  0.29096  0.48921  0.22629  1.0000
  H   H2507     1.0  0.46729  0.71411  0.16777  1.0000
  Fe  Fe164     1.0  0.23595  0.92637  0.10102  1.0000
  H   H2508     1.0  0.47726  0.68679  0.21335  1.0000
  H   H2509     1.0  0.24776  0.95178  0.21366  1.0000
  H   H2510     1.0  0.33455  0.88950  0.28268  1.0000
  C   C1434     1.0  0.29795  0.95913  0.29247  1.0000
  H   H2511     1.0  0.31985  0.72987  0.28959  1.0000
  H   H2512     1.0  0.23923  0.94936  0.26629  1.0000
  C   C1435     1.0  0.36995  0.96609  0.27775  1.0000
  H   H2513     1.0  0.37718  0.96919  0.28828  1.0000
  H   H2514     1.0  0.45154  0.75891  0.16095  1.0000
  H   H2515     1.0  0.30542  0.91178  0.29219  1.0000
  N   N78       1.0  0.23931  0.95989  0.18632  1.0000
  H   H2516     1.0  0.23615  0.96757  0.97363  1.0000
  C   C1436     1.0  0.24608  0.96453  0.20258  1.0000
  H   H2517     1.0  0.31210  0.91387  0.26709  1.0000
  H   H2518     1.0  0.26047  0.95324  0.00473  1.0000
  H   H2519     1.0  0.44691  0.79723  0.28249  1.0000
  C   C1437     1.0  0.24856  0.95216  0.99806  1.0000
  H   H2520     1.0  0.28691  0.71780  0.97038  1.0000
  H   H2521     1.0  0.47630  0.55480  0.18426  1.0000
  H   H2522     1.0  0.23465  0.55486  0.09765  1.0000
  H   H2523     1.0  0.47565  0.75539  0.22888  1.0000
  H   H2524     1.0  0.38066  0.95818  0.26793  1.0000
  C   C1438     1.0  0.24736  0.96835  0.98136  1.0000
  H   H2525     1.0  0.23862  0.90094  0.04943  1.0000
  H   H2526     1.0  0.36016  0.82685  0.29298  1.0000
  H   H2527     1.0  0.24359  0.90308  0.01355  1.0000
  C   C1439     1.0  0.48055  0.64216  0.15906  1.0000
  H   H2528     1.0  0.23948  0.75014  0.00751  1.0000
  H   H2529     1.0  0.38414  0.84729  0.28965  1.0000
  H   H2530     1.0  0.24345  0.94254  0.29014  1.0000
  C   C1440     1.0  0.47952  0.75702  0.28604  1.0000
  H   H2531     1.0  0.29616  0.96718  0.08121  1.0000
  H   H2532     1.0  0.23252  0.91921  0.99528  1.0000
  C   C1441     1.0  0.23306  0.55473  0.29729  1.0000
  H   H2533     1.0  0.23200  0.50445  0.03427  1.0000
  H   H2534     1.0  0.23190  0.91758  0.27985  1.0000
  S   S326      1.0  0.23192  0.89597  0.10292  1.0000
  H   H2535     1.0  0.37998  0.84553  0.31501  1.0000
  H   H2536     1.0  0.42988  0.75155  0.51891  1.0000
  C   C1442     1.0  0.24351  0.67780  0.45692  1.0000
  H   H2537     1.0  0.28557  0.93417  0.58541  1.0000
  C   C1443     1.0  0.26767  0.85655  0.46068  1.0000
  C   C1444     1.0  0.35942  0.83488  0.30432  1.0000
  H   H2538     1.0  0.28639  0.88173  0.40474  1.0000
  H   H2539     1.0  0.41522  0.79960  0.31190  1.0000
  C   C1445     1.0  0.24622  0.71499  0.37398  1.0000
  H   H2540     1.0  0.23762  0.55447  0.31082  1.0000
  C   C1446     1.0  0.37616  0.86351  0.61484  1.0000
  H   H2541     1.0  0.43085  0.76161  0.31065  1.0000
  Fe  Fe165     1.0  0.25340  0.81533  0.38709  1.0000
  S   S327      1.0  0.27918  0.81791  0.39721  1.0000
  H   H2542     1.0  0.25887  0.89798  0.41513  1.0000
  Fe  Fe166     1.0  0.25716  0.77285  0.40308  1.0000
  S   S328      1.0  0.28381  0.77247  0.41408  1.0000
  H   H2543     1.0  0.25521  0.95955  0.62786  1.0000
  Fe  Fe167     1.0  0.26890  0.79945  0.42395  1.0000
  S   S329      1.0  0.26637  0.80875  0.45201  1.0000
  Fe  Fe168     1.0  0.29210  0.79099  0.38629  1.0000
  S   S330      1.0  0.32224  0.79201  0.37133  1.0000
  H   H2544     1.0  0.27541  0.82963  0.34819  1.0000
  S   S331      1.0  0.26665  0.78936  0.37435  1.0000
  Fe  Fe169     1.0  0.31731  0.76783  0.53969  1.0000
  S   S332      1.0  0.32236  0.73902  0.55697  1.0000
  S   S333      1.0  0.32270  0.76726  0.50836  1.0000
  Fe  Fe170     1.0  0.30877  0.78627  0.57468  1.0000
  S   S334      1.0  0.31262  0.75850  0.59451  1.0000
  S   S335      1.0  0.30329  0.81569  0.58222  1.0000
  Fe  Fe171     1.0  0.33839  0.75095  0.57317  1.0000
  S   S336      1.0  0.36704  0.73398  0.57855  1.0000
  Fe  Fe172     1.0  0.29614  0.74881  0.57654  1.0000
  S   S337      1.0  0.27704  0.72656  0.58669  1.0000
  S   S338      1.0  0.33552  0.77910  0.55427  1.0000
  S   S339      1.0  0.29011  0.77723  0.55835  1.0000
  H   H2545     1.0  0.27976  0.84919  0.48622  1.0000
  C   C1447     1.0  0.25536  0.72781  0.57914  1.0000
  H   H2546     1.0  0.28935  0.85724  0.33179  1.0000
  H   H2547     1.0  0.30503  0.94628  0.57349  1.0000
  C   C1448     1.0  0.23544  0.88564  0.30710  1.0000
  H   H2548     1.0  0.26614  0.72937  0.51228  1.0000
  H   H2549     1.0  0.43857  0.75425  0.36164  1.0000
  H   H2550     1.0  0.30646  0.85832  0.62425  1.0000
  H   H2551     1.0  0.29032  0.84172  0.31564  1.0000
  C   C1449     1.0  0.42918  0.78331  0.33513  1.0000
  H   H2552     1.0  0.31472  0.87926  0.31281  1.0000
  H   H2553     1.0  0.33548  0.81378  0.29885  1.0000
  C   C1450     1.0  0.25051  0.64857  0.57542  1.0000
  C   C1451     1.0  0.43140  0.78552  0.55622  1.0000
  H   H2554     1.0  0.43064  0.78866  0.58513  1.0000
  H   H2555     1.0  0.29946  0.85409  0.38879  1.0000
  C   C1452     1.0  0.25616  0.50784  0.43538  1.0000
  N   N79       1.0  0.32498  0.85249  0.30308  1.0000
  H   H2556     1.0  0.30412  0.95881  0.60262  1.0000
  H   H2557     1.0  0.32212  0.84896  0.33337  1.0000
  C   C1453     1.0  0.28243  0.79743  0.46734  1.0000
  C   C1454     1.0  0.29649  0.78228  0.46290  1.0000
  C   C1455     1.0  0.30864  0.77313  0.47569  1.0000
  C   C1456     1.0  0.30666  0.77884  0.49311  1.0000
  C   C1457     1.0  0.29250  0.79391  0.49764  1.0000
  C   C1458     1.0  0.28059  0.80332  0.48466  1.0000
  H   H2558     1.0  0.29810  0.77767  0.44958  1.0000
  H   H2559     1.0  0.31967  0.76157  0.47207  1.0000
  H   H2560     1.0  0.29102  0.79853  0.51094  1.0000
  H   H2561     1.0  0.26992  0.81519  0.48809  1.0000
  C   C1459     1.0  0.34575  0.77117  0.31546  1.0000
  C   C1460     1.0  0.32820  0.76728  0.32562  1.0000
  C   C1461     1.0  0.32059  0.77397  0.34260  1.0000
  C   C1462     1.0  0.33069  0.78428  0.34963  1.0000
  C   C1463     1.0  0.34818  0.78827  0.33940  1.0000
  C   C1464     1.0  0.35565  0.78185  0.32229  1.0000
  H   H2562     1.0  0.32055  0.75892  0.32047  1.0000
  H   H2563     1.0  0.30714  0.77077  0.35048  1.0000
  H   H2564     1.0  0.35601  0.79626  0.34483  1.0000
  H   H2565     1.0  0.36919  0.78485  0.31460  1.0000
  H   H2566     1.0  0.40461  0.79038  0.36675  1.0000
  C   C1465     1.0  0.26319  0.88390  0.36685  1.0000
  C   C1466     1.0  0.40571  0.75262  0.60995  1.0000
  C   C1467     1.0  0.38714  0.76228  0.60983  1.0000
  C   C1468     1.0  0.37500  0.75666  0.60042  1.0000
  C   C1469     1.0  0.38127  0.74099  0.59146  1.0000
  C   C1470     1.0  0.39953  0.73070  0.59246  1.0000
  C   C1471     1.0  0.41185  0.73666  0.60141  1.0000
  H   H2567     1.0  0.29652  0.81386  0.34041  1.0000
  H   H2568     1.0  0.36078  0.76436  0.60014  1.0000
  H   H2569     1.0  0.40419  0.71823  0.58602  1.0000
  H   H2570     1.0  0.42606  0.72899  0.60159  1.0000
  H   H2571     1.0  0.36955  0.88766  0.59295  1.0000
  H   H2572     1.0  0.41485  0.83120  0.31850  1.0000
  C   C1472     1.0  0.40566  0.82280  0.62450  1.0000
  S   S340      1.0  0.25477  0.92232  0.36326  1.0000
  H   H2573     1.0  0.32491  0.82767  0.32507  1.0000
  C   C1473     1.0  0.24146  0.67119  0.49181  1.0000
  Fe  Fe173     1.0  0.23813  0.48525  0.32841  1.0000
  H   H2574     1.0  0.44443  0.75917  0.57017  1.0000
  H   H2575     1.0  0.23990  0.66974  0.42265  1.0000
  H   H2576     1.0  0.44181  0.72504  0.53940  1.0000
  H   H2577     1.0  0.42085  0.80964  0.57041  1.0000
  H   H2578     1.0  0.27758  0.88569  0.36621  1.0000
  C   C1474     1.0  0.24915  0.71102  0.57897  1.0000
  H   H2579     1.0  0.24825  0.75805  0.57470  1.0000
  H   H2580     1.0  0.23372  0.73427  0.51480  1.0000
  C   C1475     1.0  0.38278  0.77588  0.38343  1.0000
  H   H2581     1.0  0.25114  0.68648  0.44460  1.0000
  C   C1476     1.0  0.29782  0.93980  0.58736  1.0000
  C   C1477     1.0  0.45918  0.75629  0.53374  1.0000
  H   H2582     1.0  0.25283  0.51587  0.34603  1.0000
  C   C1478     1.0  0.27374  0.86209  0.47708  1.0000
  H   H2583     1.0  0.25815  0.69765  0.58256  1.0000
  C   C1479     1.0  0.26182  0.51993  0.37115  1.0000
  C   C1480     1.0  0.24772  0.86964  0.31821  1.0000
  H   H2584     1.0  0.44547  0.78986  0.55150  1.0000
  H   H2585     1.0  0.30228  0.85057  0.59426  1.0000
  H   H2586     1.0  0.24138  0.66995  0.59251  1.0000
  H   H2587     1.0  0.27167  0.47995  0.44487  1.0000
  H   H2588     1.0  0.40055  0.73851  0.33474  1.0000
  H   H2589     1.0  0.40663  0.77063  0.31637  1.0000
  C   C1481     1.0  0.27693  0.68467  0.47223  1.0000
  S   S341      1.0  0.26815  0.48791  0.31434  1.0000
  H   H2590     1.0  0.40163  0.80259  0.33469  1.0000
  H   H2591     1.0  0.43841  0.81792  0.31686  1.0000
  H   H2592     1.0  0.25427  0.72879  0.53623  1.0000
  C   C1482     1.0  0.29212  0.69713  0.46756  1.0000
  H   H2593     1.0  0.25237  0.63813  0.61255  1.0000
  S   S342      1.0  0.32801  0.92529  0.62796  1.0000
  H   H2594     1.0  0.24619  0.69968  0.61957  1.0000
  C   C1483     1.0  0.46770  0.72854  0.34673  1.0000
  C   C1484     1.0  0.42397  0.81880  0.32531  1.0000
  C   C1485     1.0  0.29628  0.84340  0.32771  1.0000
  C   C1486     1.0  0.34291  0.95746  0.61794  1.0000
  H   H2595     1.0  0.26399  0.96474  0.59318  1.0000
  H   H2596     1.0  0.27297  0.84458  0.42634  1.0000
  H   H2597     1.0  0.39885  0.75264  0.35864  1.0000
  H   H2598     1.0  0.44245  0.78202  0.32471  1.0000
  H   H2599     1.0  0.42447  0.82106  0.33962  1.0000
  H   H2600     1.0  0.27977  0.67551  0.46139  1.0000
  H   H2601     1.0  0.27843  0.67564  0.48608  1.0000
  H   H2602     1.0  0.27115  0.51015  0.40721  1.0000
  C   C1487     1.0  0.42538  0.75964  0.53076  1.0000
  H   H2603     1.0  0.24015  0.85757  0.32429  1.0000
  C   C1488     1.0  0.24891  0.89983  0.36532  1.0000
  H   H2604     1.0  0.26564  0.74390  0.45256  1.0000
  C   C1489     1.0  0.28849  0.86752  0.41351  1.0000
  H   H2605     1.0  0.37974  0.76134  0.38853  1.0000
  H   H2606     1.0  0.47006  0.73193  0.35996  1.0000
  C   C1490     1.0  0.41611  0.80085  0.32642  1.0000
  C   C1491     1.0  0.28103  0.96969  0.30033  1.0000
  H   H2607     1.0  0.24314  0.56685  0.41976  1.0000
  H   H2608     1.0  0.30628  0.68814  0.46753  1.0000
  H   H2609     1.0  0.29186  0.70600  0.45342  1.0000
  H   H2610     1.0  0.28994  0.70641  0.47821  1.0000
  C   C1492     1.0  0.24038  0.86322  0.37040  1.0000
  H   H2611     1.0  0.25173  0.87469  0.32977  1.0000
  C   C1493     1.0  0.40290  0.76678  0.35325  1.0000
  C   C1494     1.0  0.37938  0.83845  0.30329  1.0000
  H   H2612     1.0  0.45262  0.78670  0.52164  1.0000
  H   H2613     1.0  0.42972  0.73678  0.35459  1.0000
  C   C1495     1.0  0.43385  0.76377  0.56062  1.0000
  C   C1496     1.0  0.30684  0.82050  0.60369  1.0000
  C   C1497     1.0  0.44006  0.73277  0.55132  1.0000
  H   H2614     1.0  0.45431  0.72908  0.57584  1.0000
  C   C1498     1.0  0.28303  0.73307  0.53126  1.0000
  H   H2615     1.0  0.24891  0.73823  0.48538  1.0000
  H   H2616     1.0  0.28814  0.71777  0.53537  1.0000
  S   S343      1.0  0.47045  0.76979  0.59479  1.0000
  C   C1499     1.0  0.24760  0.88921  0.41816  1.0000
  N   N80       1.0  0.43956  0.75361  0.54401  1.0000
  H   H2617     1.0  0.46635  0.74382  0.52704  1.0000
  H   H2618     1.0  0.39615  0.75669  0.51304  1.0000
  H   H2619     1.0  0.46114  0.71567  0.35000  1.0000
  C   C1500     1.0  0.25781  0.50533  0.41478  1.0000
  H   H2620     1.0  0.42646  0.73019  0.56034  1.0000
  H   H2621     1.0  0.31709  0.86094  0.39848  1.0000
  H   H2622     1.0  0.29392  0.86853  0.42614  1.0000
  C   C1501     1.0  0.25895  0.86568  0.36939  1.0000
  H   H2623     1.0  0.25718  0.84708  0.46676  1.0000
  C   C1502     1.0  0.26398  0.73615  0.52478  1.0000
  H   H2624     1.0  0.24944  0.65877  0.56212  1.0000
  S   S344      1.0  0.42054  0.76089  0.62121  1.0000
  H   H2625     1.0  0.28750  0.73847  0.30529  1.0000
  H   H2626     1.0  0.25763  0.70778  0.46005  1.0000
  C   C1503     1.0  0.36733  0.84989  0.60723  1.0000
  H   H2627     1.0  0.46818  0.75701  0.54394  1.0000
  H   H2628     1.0  0.35193  0.95062  0.60685  1.0000
  Fe  Fe174     1.0  0.45244  0.75235  0.61696  1.0000
  C   C1504     1.0  0.41324  0.74042  0.32388  1.0000
  C   C1505     1.0  0.45447  0.70189  0.56973  1.0000
  C   C1506     1.0  0.43581  0.68507  0.62022  1.0000
  H   H2629     1.0  0.26146  0.86974  0.48568  1.0000
  H   H2630     1.0  0.40536  0.72323  0.30715  1.0000
  H   H2631     1.0  0.42510  0.72915  0.32765  1.0000
  H   H2632     1.0  0.26639  0.68983  0.63081  1.0000
  C   C1507     1.0  0.30542  0.83934  0.60579  1.0000
  H   H2633     1.0  0.29695  0.82912  0.35657  1.0000
  C   C1508     1.0  0.40462  0.75738  0.53954  1.0000
  H   H2634     1.0  0.39123  0.77500  0.34584  1.0000
  C   C1509     1.0  0.26985  0.85938  0.41896  1.0000
  C   C1510     1.0  0.40889  0.73751  0.30545  1.0000
  H   H2635     1.0  0.34717  0.86246  0.31143  1.0000
  C   C1511     1.0  0.39156  0.76457  0.52498  1.0000
  H   H2636     1.0  0.40768  0.79053  0.57891  1.0000
  H   H2637     1.0  0.24679  0.63519  0.57379  1.0000
  N   N81       1.0  0.24160  0.51543  0.40484  1.0000
  C   C1512     1.0  0.25562  0.75744  0.52076  1.0000
  H   H2638     1.0  0.37402  0.89358  0.61395  1.0000
  H   H2639     1.0  0.27021  0.74755  0.48363  1.0000
  H   H2640     1.0  0.31038  0.81752  0.30255  1.0000
  H   H2641     1.0  0.28476  0.87114  0.47183  1.0000
  C   C1513     1.0  0.25700  0.75584  0.45919  1.0000
  H   H2642     1.0  0.26383  0.76843  0.45365  1.0000
  C   C1514     1.0  0.24606  0.51066  0.38522  1.0000
  H   H2643     1.0  0.39129  0.77986  0.51962  1.0000
  H   H2644     1.0  0.27102  0.49735  0.45904  1.0000
  H   H2645     1.0  0.45556  0.77094  0.50530  1.0000
  S   S345      1.0  0.47129  0.72476  0.61257  1.0000
  H   H2646     1.0  0.44039  0.70015  0.57826  1.0000
  H   H2647     1.0  0.42054  0.75989  0.56929  1.0000
  H   H2648     1.0  0.24276  0.50433  0.44415  1.0000
  H   H2649     1.0  0.31204  0.79155  0.61727  1.0000
  H   H2650     1.0  0.25466  0.71330  0.36037  1.0000
  H   H2651     1.0  0.42491  0.77461  0.52401  1.0000
  H   H2652     1.0  0.38249  0.78235  0.39584  1.0000
  H   H2653     1.0  0.26904  0.88442  0.44371  1.0000
  H   H2654     1.0  0.25881  0.73826  0.37663  1.0000
  C   C1515     1.0  0.29140  0.95420  0.60061  1.0000
  H   H2655     1.0  0.46546  0.69517  0.57851  1.0000
  C   C1516     1.0  0.25691  0.69681  0.47297  1.0000
  H   H2656     1.0  0.39905  0.76550  0.55119  1.0000
  H   H2657     1.0  0.26085  0.86464  0.30877  1.0000
  H   H2658     1.0  0.25283  0.66376  0.45851  1.0000
  H   H2659     1.0  0.44491  0.67134  0.61812  1.0000
  H   H2660     1.0  0.27007  0.85357  0.37052  1.0000
  C   C1517     1.0  0.25558  0.75093  0.48053  1.0000
  H   H2661     1.0  0.25140  0.79397  0.51917  1.0000
  H   H2662     1.0  0.25363  0.77849  0.48631  1.0000
  C   C1518     1.0  0.25901  0.87422  0.44761  1.0000
  H   H2663     1.0  0.43124  0.82596  0.60371  1.0000
  H   H2664     1.0  0.28031  0.84839  0.45309  1.0000
  H   H2665     1.0  0.40340  0.74238  0.54497  1.0000
  C   C1519     1.0  0.36180  0.81891  0.60549  1.0000
  H   H2666     1.0  0.38217  0.77419  0.61699  1.0000
  H   H2667     1.0  0.28618  0.49812  0.43641  1.0000
  H   H2668     1.0  0.39583  0.80679  0.60851  1.0000
  C   C1520     1.0  0.24944  0.66929  0.62969  1.0000
  C   C1521     1.0  0.45568  0.72277  0.56315  1.0000
  H   H2669     1.0  0.37694  0.76242  0.53161  1.0000
  H   H2670     1.0  0.23329  0.54389  0.39050  1.0000
  H   H2671     1.0  0.34627  0.82261  0.61011  1.0000
  N   N82       1.0  0.24083  0.68634  0.47451  1.0000
  C   C1522     1.0  0.46084  0.77337  0.51753  1.0000
  H   H2672     1.0  0.42243  0.79168  0.54537  1.0000
  H   H2673     1.0  0.28522  0.94670  0.61445  1.0000
  H   H2674     1.0  0.35543  0.82616  0.31818  1.0000
  H   H2675     1.0  0.28171  0.73994  0.54364  1.0000
  H   H2676     1.0  0.42944  0.80186  0.61478  1.0000
  H   H2677     1.0  0.25043  0.49516  0.38578  1.0000
  H   H2678     1.0  0.45692  0.69458  0.55747  1.0000
  C   C1523     1.0  0.31799  0.84266  0.32262  1.0000
  H   H2679     1.0  0.35164  0.85436  0.60982  1.0000
  H   H2680     1.0  0.46867  0.80679  0.29922  1.0000
  C   C1524     1.0  0.36548  0.82263  0.58364  1.0000
  H   H2681     1.0  0.27525  0.51671  0.37670  1.0000
  C   C1525     1.0  0.30777  0.84377  0.62277  1.0000
  C   C1526     1.0  0.35963  0.80747  0.57581  1.0000
  H   H2682     1.0  0.38919  0.82480  0.30432  1.0000
  H   H2683     1.0  0.37182  0.85284  0.59173  1.0000
  C   C1527     1.0  0.27668  0.97094  0.59292  1.0000
  H   H2684     1.0  0.25445  0.70449  0.48503  1.0000
  H   H2685     1.0  0.26727  0.76495  0.51261  1.0000
  H   H2686     1.0  0.39920  0.82956  0.59622  1.0000
  H   H2687     1.0  0.25242  0.76190  0.53481  1.0000
  C   C1528     1.0  0.40216  0.77560  0.37080  1.0000
  H   H2688     1.0  0.36527  0.80345  0.61003  1.0000
  H   H2689     1.0  0.38059  0.82301  0.57780  1.0000
  H   H2690     1.0  0.35699  0.83637  0.57842  1.0000
  H   H2691     1.0  0.24646  0.88121  0.45649  1.0000
  C   C1529     1.0  0.43565  0.74999  0.34906  1.0000
  H   H2692     1.0  0.45387  0.74118  0.32323  1.0000
  H   H2693     1.0  0.30433  0.94644  0.30081  1.0000
  H   H2694     1.0  0.36927  0.79384  0.57858  1.0000
  H   H2695     1.0  0.34493  0.80556  0.58225  1.0000
  H   H2696     1.0  0.36030  0.81164  0.56036  1.0000
  C   C1530     1.0  0.24855  0.72918  0.38312  1.0000
  C   C1531     1.0  0.26578  0.51276  0.35246  1.0000
  C   C1532     1.0  0.41833  0.76025  0.32199  1.0000
  H   H2697     1.0  0.41292  0.76742  0.37928  1.0000
  H   H2698     1.0  0.27095  0.49730  0.35450  1.0000
  H   H2699     1.0  0.43337  0.78638  0.34771  1.0000
  H   H2700     1.0  0.29890  0.87247  0.30122  1.0000
  H   H2701     1.0  0.44388  0.69648  0.61296  1.0000
  H   H2702     1.0  0.27678  0.51979  0.34246  1.0000
  H   H2703     1.0  0.47000  0.72354  0.55483  1.0000
  H   H2704     1.0  0.23960  0.84676  0.41126  1.0000
  C   C1533     1.0  0.30385  0.85495  0.40208  1.0000
  H   H2705     1.0  0.24597  0.88708  0.40415  1.0000
  C   C1534     1.0  0.42206  0.79407  0.57378  1.0000
  H   H2706     1.0  0.24278  0.75881  0.45515  1.0000
  H   H2707     1.0  0.30677  0.84052  0.41032  1.0000
  H   H2708     1.0  0.25875  0.66589  0.61652  1.0000
  H   H2709     1.0  0.40374  0.83709  0.62786  1.0000
  H   H2710     1.0  0.26036  0.48998  0.41437  1.0000
  C   C1535     1.0  0.45522  0.74509  0.33655  1.0000
  H   H2711     1.0  0.39656  0.74805  0.30143  1.0000
  C   C1536     1.0  0.27228  0.49500  0.44440  1.0000
  C   C1537     1.0  0.39322  0.82190  0.61012  1.0000
  C   C1538     1.0  0.24437  0.76766  0.49008  1.0000
  H   H2712     1.0  0.25724  0.52255  0.43582  1.0000
  N   N83       1.0  0.42152  0.76511  0.33984  1.0000
  H   H2713     1.0  0.25356  0.54084  0.40105  1.0000
  C   C1539     1.0  0.34555  0.85372  0.30138  1.0000
  C   C1540     1.0  0.29102  0.82805  0.34424  1.0000
  H   H2714     1.0  0.30795  0.92784  0.59349  1.0000
  H   H2715     1.0  0.26602  0.85819  0.40554  1.0000
  S   S346      1.0  0.24187  0.79890  0.41470  1.0000
  N   N84       1.0  0.25351  0.87055  0.43027  1.0000
  H   H2716     1.0  0.25437  0.66033  0.48981  1.0000
  C   C1541     1.0  0.36737  0.88402  0.60853  1.0000
  C   C1542     1.0  0.42663  0.81670  0.61710  1.0000
  H   H2717     1.0  0.35197  0.88650  0.61415  1.0000
  H   H2718     1.0  0.25763  0.53547  0.36802  1.0000
  H   H2719     1.0  0.43520  0.81764  0.62754  1.0000
  H   H2720     1.0  0.46290  0.75720  0.33303  1.0000
  C   C1543     1.0  0.31413  0.87246  0.30080  1.0000
  H   H2721     1.0  0.39150  0.86205  0.60912  1.0000
  H   H2722     1.0  0.24235  0.67746  0.50407  1.0000
  H   H2723     1.0  0.29370  0.73899  0.51978  1.0000
  H   H2724     1.0  0.26531  0.64593  0.57790  1.0000
  C   C1544     1.0  0.31092  0.80609  0.61868  1.0000
  H   H2725     1.0  0.37147  0.78431  0.37570  1.0000
  H   H2726     1.0  0.42303  0.68656  0.61382  1.0000
  H   H2727     1.0  0.23317  0.51455  0.37862  1.0000
  N   N85       1.0  0.37224  0.82910  0.61479  1.0000
  C   C1545     1.0  0.23316  0.70289  0.38240  1.0000
  H   H2728     1.0  0.29288  0.76204  0.30146  1.0000
  C   C1546     1.0  0.24371  0.74506  0.57442  1.0000
  C   C1547     1.0  0.23758  0.73154  0.40065  1.0000
  H   H2729     1.0  0.27446  0.96514  0.31466  1.0000
  H   H2730     1.0  0.24361  0.89734  0.30227  1.0000
  S   S347      1.0  0.23991  0.74895  0.41301  1.0000
  H   H2731     1.0  0.24005  0.80387  0.49899  1.0000
  N   N86       1.0  0.23845  0.76325  0.51109  1.0000
  H   H2732     1.0  0.24259  0.84518  0.44419  1.0000
  H   H2733     1.0  0.23985  0.63497  0.51350  1.0000
  C   C1548     1.0  0.23761  0.79796  0.51424  1.0000
  H   H2734     1.0  0.23656  0.92806  0.40934  1.0000
  C   C1549     1.0  0.23946  0.53660  0.40320  1.0000
  Fe  Fe175     1.0  0.23542  0.95010  0.35524  1.0000
  C   C1550     1.0  0.23762  0.85933  0.43632  1.0000
  C   C1551     1.0  0.23742  0.64252  0.61038  1.0000
  C   C1552     1.0  0.23701  0.65670  0.59165  1.0000
  H   H2735     1.0  0.23685  0.64889  0.44027  1.0000
  H   H2736     1.0  0.23266  0.56849  0.34646  1.0000
  S   S348      1.0  0.23462  0.84057  0.37307  1.0000
  H   H2737     1.0  0.23190  0.77425  0.48317  1.0000
  H   H2738     1.0  0.23347  0.47855  0.42303  1.0000
  H   H2739     1.0  0.37263  0.92967  0.63102  1.0000
  H   H2740     1.0  0.23364  0.82584  0.52130  1.0000
  H   H2741     1.0  0.37405  0.86099  0.63039  1.0000
  H   H2742     1.0  0.23329  0.62959  0.60802  1.0000
  C   C1553     1.0  0.48143  0.77597  0.51091  1.0000
  H   H2743     1.0  0.23156  0.60242  0.58241  1.0000
  C   C1554     1.0  0.32969  0.94802  0.63083  1.0000
  C   C1555     1.0  0.39902  0.72693  0.66448  1.0000
  H   H2744     1.0  0.44846  0.79560  0.65966  1.0000
  Fe  Fe176     1.0  0.47003  0.71921  0.87665  1.0000
  N   N87       1.0  0.44568  0.80421  0.68657  1.0000
  S   S349      1.0  0.44064  0.71775  0.89414  1.0000
  H   H2745     1.0  0.37228  0.83227  0.64344  1.0000
  H   H2746     1.0  0.26714  0.85894  0.73523  1.0000
  C   C1556     1.0  0.25869  0.72277  0.94272  1.0000
  Fe  Fe177     1.0  0.45373  0.59274  0.76308  1.0000
  S   S350      1.0  0.43151  0.57400  0.77563  1.0000
  H   H2747     1.0  0.45290  0.77559  0.70104  1.0000
  S   S351      1.0  0.44560  0.62403  0.75543  1.0000
  C   C1557     1.0  0.27512  0.68097  0.95602  1.0000
  H   H2748     1.0  0.24111  0.82399  0.79719  1.0000
  H   H2749     1.0  0.31587  0.79929  0.64735  1.0000
  Fe  Fe178     1.0  0.46699  0.86917  0.70694  1.0000
  S   S352      1.0  0.44357  0.88211  0.68950  1.0000
  H   H2750     1.0  0.27510  0.94995  0.65263  1.0000
  H   H2751     1.0  0.23229  0.87786  0.79132  1.0000
  H   H2752     1.0  0.35873  0.54322  0.80990  1.0000
  Fe  Fe179     1.0  0.46892  0.62197  0.73056  1.0000
  Fe  Fe180     1.0  0.31127  0.53953  0.77787  1.0000
  S   S353      1.0  0.31526  0.55780  0.74950  1.0000
  S   S354      1.0  0.32227  0.50835  0.77753  1.0000
  Fe  Fe181     1.0  0.29596  0.57376  0.79712  1.0000
  S   S355      1.0  0.29849  0.59436  0.76995  1.0000
  S   S356      1.0  0.28715  0.58240  0.82596  1.0000
  Fe  Fe182     1.0  0.28652  0.57387  0.75874  1.0000
  S   S357      1.0  0.26889  0.58249  0.73533  1.0000
  Fe  Fe183     1.0  0.32694  0.57650  0.76298  1.0000
  S   S358      1.0  0.35253  0.58973  0.74756  1.0000
  S   S359      1.0  0.28167  0.55440  0.78655  1.0000
  S   S360      1.0  0.32516  0.55708  0.79073  1.0000
  Fe  Fe184     1.0  0.34878  0.67938  0.87983  1.0000
  S   S361      1.0  0.34626  0.64894  0.88193  1.0000
  S   S362      1.0  0.37658  0.68951  0.86562  1.0000
  Fe  Fe185     1.0  0.30540  0.69122  0.88953  1.0000
  S   S363      1.0  0.30007  0.66197  0.89192  1.0000
  S   S364      1.0  0.28147  0.71601  0.89281  1.0000
  Fe  Fe186     1.0  0.32440  0.65364  0.90778  1.0000
  S   S365      1.0  0.31923  0.63168  0.93388  1.0000
  Fe  Fe187     1.0  0.32208  0.65986  0.86606  1.0000
  S   S366      1.0  0.31916  0.65185  0.83877  1.0000
  S   S367      1.0  0.32863  0.68325  0.90694  1.0000
  S   S368      1.0  0.32574  0.69000  0.86243  1.0000
  Fe  Fe188     1.0  0.33454  0.88092  0.68863  1.0000
  S   S369      1.0  0.34056  0.87630  0.65871  1.0000
  S   S370      1.0  0.35600  0.87575  0.70839  1.0000
  Fe  Fe189     1.0  0.29169  0.89349  0.68813  1.0000
  S   S371      1.0  0.29463  0.89004  0.65802  1.0000
  S   S372      1.0  0.26461  0.90711  0.70487  1.0000
  Fe  Fe190     1.0  0.31437  0.86305  0.66598  1.0000
  H   H2753     1.0  0.23941  0.61314  0.81919  1.0000
  Fe  Fe191     1.0  0.32032  0.90362  0.65341  1.0000
  C   C1558     1.0  0.24373  0.72847  0.89168  1.0000
  S   S373      1.0  0.30968  0.86559  0.69664  1.0000
  S   S374      1.0  0.31600  0.90918  0.68275  1.0000
  H   H2754     1.0  0.42641  0.62665  0.79836  1.0000
  H   H2755     1.0  0.36276  0.78737  0.67283  1.0000
  H   H2756     1.0  0.44832  0.86601  0.65183  1.0000
  H   H2757     1.0  0.24596  0.83111  0.83699  1.0000
  C   C1559     1.0  0.24121  0.85214  0.76724  1.0000
  C   C1560     1.0  0.30687  0.49173  0.78593  1.0000
  H   H2758     1.0  0.42573  0.92242  0.68328  1.0000
  C   C1561     1.0  0.31790  0.95710  0.64503  1.0000
  H   H2759     1.0  0.24979  0.83788  0.76627  1.0000
  H   H2760     1.0  0.30763  0.94986  0.65501  1.0000
  C   C1562     1.0  0.25778  0.71280  0.89553  1.0000
  H   H2761     1.0  0.26326  0.68298  0.90537  1.0000
  C   C1563     1.0  0.24637  0.57696  0.73616  1.0000
  H   H2762     1.0  0.27719  0.66929  0.83539  1.0000
  H   H2763     1.0  0.34987  0.83294  0.63842  1.0000
  H   H2764     1.0  0.25037  0.65101  0.94349  1.0000
  C   C1564     1.0  0.31306  0.81053  0.63572  1.0000
  C   C1565     1.0  0.39100  0.94261  0.67392  1.0000
  H   H2765     1.0  0.43624  0.81988  0.70957  1.0000
  H   H2766     1.0  0.27021  0.83413  0.82888  1.0000
  H   H2767     1.0  0.24649  0.67954  0.86922  1.0000
  H   H2768     1.0  0.37383  0.75914  0.65345  1.0000
  C   C1566     1.0  0.44442  0.83869  0.66853  1.0000
  H   H2769     1.0  0.28612  0.50930  0.80289  1.0000
  C   C1567     1.0  0.29605  0.60164  0.82967  1.0000
  C   C1568     1.0  0.29802  0.60299  0.84788  1.0000
  C   C1569     1.0  0.30525  0.61820  0.85098  1.0000
  C   C1570     1.0  0.30983  0.63250  0.83598  1.0000
  C   C1571     1.0  0.30729  0.63138  0.81792  1.0000
  C   C1572     1.0  0.30079  0.61589  0.81471  1.0000
  H   H2770     1.0  0.29435  0.59203  0.85953  1.0000
  H   H2771     1.0  0.30724  0.61887  0.86493  1.0000
  H   H2772     1.0  0.31030  0.64256  0.80629  1.0000
  H   H2773     1.0  0.29904  0.61518  0.80070  1.0000
  C   C1573     1.0  0.36477  0.82571  0.63563  1.0000
  C   C1574     1.0  0.25260  0.69504  0.90212  1.0000
  H   H2774     1.0  0.28046  0.94619  0.68915  1.0000
  H   H2775     1.0  0.33303  0.65956  0.94773  1.0000
  C   C1575     1.0  0.41954  0.87913  0.69511  1.0000
  C   C1576     1.0  0.41010  0.87595  0.71368  1.0000
  C   C1577     1.0  0.39065  0.87500  0.71746  1.0000
  C   C1578     1.0  0.38056  0.87667  0.70278  1.0000
  C   C1579     1.0  0.39018  0.87913  0.68422  1.0000
  C   C1580     1.0  0.40942  0.88085  0.68041  1.0000
  H   H2776     1.0  0.41766  0.87469  0.72513  1.0000
  H   H2777     1.0  0.38340  0.87292  0.73188  1.0000
  H   H2778     1.0  0.38270  0.88000  0.67281  1.0000
  H   H2779     1.0  0.41656  0.88337  0.66599  1.0000
  C   C1581     1.0  0.24346  0.49182  0.75426  1.0000
  H   H2780     1.0  0.31017  0.69024  0.94458  1.0000
  H   H2781     1.0  0.27971  0.49198  0.75824  1.0000
  C   C1582     1.0  0.31138  0.82937  0.63790  1.0000
  C   C1583     1.0  0.40947  0.57903  0.76792  1.0000
  C   C1584     1.0  0.40723  0.58963  0.75023  1.0000
  C   C1585     1.0  0.38973  0.59266  0.74415  1.0000
  C   C1586     1.0  0.37420  0.58557  0.75587  1.0000
  C   C1587     1.0  0.37627  0.57548  0.77380  1.0000
  C   C1588     1.0  0.39393  0.57197  0.77968  1.0000
  H   H2782     1.0  0.41911  0.59511  0.74104  1.0000
  H   H2783     1.0  0.38827  0.60046  0.73024  1.0000
  H   H2784     1.0  0.36426  0.57049  0.78314  1.0000
  H   H2785     1.0  0.39550  0.56396  0.79349  1.0000
  C   C1589     1.0  0.47030  0.66537  0.67168  1.0000
  S   S375      1.0  0.47299  0.87757  0.73249  1.0000
  H   H2786     1.0  0.25430  0.53080  0.76619  1.0000
  H   H2787     1.0  0.46232  0.65888  0.66481  1.0000
  H   H2788     1.0  0.46337  0.61634  0.84635  1.0000
  C   C1590     1.0  0.42260  0.71028  0.88618  1.0000
  C   C1591     1.0  0.40824  0.70245  0.89934  1.0000
  C   C1592     1.0  0.39378  0.69631  0.89340  1.0000
  C   C1593     1.0  0.39339  0.69827  0.87421  1.0000
  C   C1594     1.0  0.40746  0.70658  0.86111  1.0000
  C   C1595     1.0  0.42205  0.71240  0.86702  1.0000
  H   H2789     1.0  0.40844  0.70092  0.91420  1.0000
  H   H2790     1.0  0.38306  0.68997  0.90365  1.0000
  H   H2791     1.0  0.40716  0.70845  0.84625  1.0000
  H   H2792     1.0  0.43280  0.71867  0.85675  1.0000
  H   H2793     1.0  0.44360  0.68438  0.64661  1.0000
  C   C1596     1.0  0.38043  0.72848  0.65692  1.0000
  H   H2794     1.0  0.47586  0.70604  0.75973  1.0000
  H   H2795     1.0  0.36659  0.54048  0.77507  1.0000
  H   H2796     1.0  0.38332  0.72884  0.64148  1.0000
  H   H2797     1.0  0.47057  0.78282  0.68194  1.0000
  H   H2798     1.0  0.40628  0.73858  0.65597  1.0000
  H   H2799     1.0  0.40994  0.49248  0.73952  1.0000
  C   C1597     1.0  0.36493  0.96783  0.68167  1.0000
  H   H2800     1.0  0.40395  0.80928  0.69476  1.0000
  H   H2801     1.0  0.24914  0.85805  0.81061  1.0000
  H   H2802     1.0  0.38427  0.83305  0.71326  1.0000
  H   H2803     1.0  0.47204  0.90649  0.77552  1.0000
  H   H2804     1.0  0.41109  0.83182  0.68767  1.0000
  H   H2805     1.0  0.38162  0.90595  0.64111  1.0000
  H   H2806     1.0  0.24190  0.66028  0.82918  1.0000
  H   H2807     1.0  0.38204  0.49086  0.77697  1.0000
  H   H2808     1.0  0.24760  0.74226  0.88657  1.0000
  C   C1598     1.0  0.25055  0.51833  0.71620  1.0000
  H   H2809     1.0  0.39260  0.92494  0.64305  1.0000
  N   N88       1.0  0.36904  0.63220  0.79384  1.0000
  C   C1599     1.0  0.37134  0.63429  0.77277  1.0000
  C   C1600     1.0  0.38802  0.63136  0.79908  1.0000
  C   C1601     1.0  0.36097  0.61453  0.80266  1.0000
  C   C1602     1.0  0.35576  0.64873  0.80103  1.0000
  C   C1603     1.0  0.35895  0.66858  0.79025  1.0000
  C   C1604     1.0  0.35287  0.63602  0.76496  1.0000
  C   C1605     1.0  0.36036  0.60833  0.82414  1.0000
  C   C1606     1.0  0.40326  0.61416  0.79456  1.0000
  C   C1607     1.0  0.34685  0.68395  0.80080  1.0000
  C   C1608     1.0  0.35617  0.64130  0.74353  1.0000
  C   C1609     1.0  0.35193  0.59030  0.83122  1.0000
  H   H2810     1.0  0.38091  0.62181  0.76782  1.0000
  H   H2811     1.0  0.37847  0.64647  0.76571  1.0000
  H   H2812     1.0  0.38644  0.63190  0.81431  1.0000
  H   H2813     1.0  0.36873  0.60254  0.79565  1.0000
  H   H2814     1.0  0.34618  0.61624  0.80027  1.0000
  H   H2815     1.0  0.34087  0.64781  0.80107  1.0000
  H   H2816     1.0  0.35648  0.64830  0.81604  1.0000
  H   H2817     1.0  0.35496  0.67112  0.77612  1.0000
  H   H2818     1.0  0.37389  0.67023  0.78833  1.0000
  H   H2819     1.0  0.34772  0.62234  0.76872  1.0000
  H   H2820     1.0  0.34145  0.64682  0.77062  1.0000
  H   H2821     1.0  0.35155  0.61942  0.83185  1.0000
  H   H2822     1.0  0.37470  0.60536  0.82781  1.0000
  H   H2823     1.0  0.39808  0.60066  0.80018  1.0000
  H   H2824     1.0  0.40783  0.61522  0.77914  1.0000
  H   H2825     1.0  0.33162  0.68309  0.80265  1.0000
  H   H2826     1.0  0.35072  0.68244  0.81490  1.0000
  H   H2827     1.0  0.34909  0.69805  0.79275  1.0000
  H   H2828     1.0  0.36740  0.63074  0.73713  1.0000
  H   H2829     1.0  0.34297  0.64153  0.73830  1.0000
  H   H2830     1.0  0.36028  0.65545  0.73902  1.0000
  H   H2831     1.0  0.33753  0.59235  0.82781  1.0000
  H   H2832     1.0  0.36098  0.57846  0.82469  1.0000
  H   H2833     1.0  0.35088  0.58651  0.84673  1.0000
  N   N89       1.0  0.36994  0.94706  0.68061  1.0000
  C   C1610     1.0  0.36035  0.94334  0.66583  1.0000
  H   H2834     1.0  0.24542  0.53011  0.68782  1.0000
  C   C1611     1.0  0.43036  0.68581  0.64122  1.0000
  C   C1612     1.0  0.36514  0.93521  0.69978  1.0000
  C   C1613     1.0  0.34533  0.92941  0.70492  1.0000
  C   C1614     1.0  0.36520  0.92291  0.66154  1.0000
  C   C1615     1.0  0.45703  0.85209  0.65599  1.0000
  H   H2835     1.0  0.35891  0.51841  0.78015  1.0000
  C   C1616     1.0  0.39332  0.49792  0.76726  1.0000
  C   C1617     1.0  0.34073  0.92138  0.72584  1.0000
  H   H2836     1.0  0.31285  0.49827  0.74324  1.0000
  H   H2837     1.0  0.26809  0.63169  0.91601  1.0000
  C   C1618     1.0  0.23521  0.57059  0.75314  1.0000
  H   H2838     1.0  0.34480  0.94635  0.66984  1.0000
  C   C1619     1.0  0.40377  0.94712  0.68617  1.0000
  H   H2839     1.0  0.47439  0.66544  0.86637  1.0000
  H   H2840     1.0  0.23496  0.74530  0.94910  1.0000
  H   H2841     1.0  0.39539  0.92732  0.67324  1.0000
  H   H2842     1.0  0.37536  0.92168  0.70139  1.0000
  H   H2843     1.0  0.36680  0.94251  0.71099  1.0000
  H   H2844     1.0  0.34512  0.91817  0.69713  1.0000
  H   H2845     1.0  0.33387  0.94120  0.70144  1.0000
  H   H2846     1.0  0.23713  0.94281  0.76539  1.0000
  H   H2847     1.0  0.35200  0.91849  0.66029  1.0000
  H   H2848     1.0  0.40383  0.70339  0.63978  1.0000
  C   C1620     1.0  0.32445  0.65198  0.95938  1.0000
  H   H2849     1.0  0.45359  0.84120  0.83011  1.0000
  H   H2850     1.0  0.40284  0.61961  0.91571  1.0000
  C   C1621     1.0  0.47360  0.65463  0.80265  1.0000
  H   H2851     1.0  0.38507  0.51650  0.73289  1.0000
  C   C1622     1.0  0.36696  0.74676  0.66030  1.0000
  H   H2852     1.0  0.35175  0.90919  0.72987  1.0000
  H   H2853     1.0  0.33974  0.93233  0.73450  1.0000
  H   H2854     1.0  0.32698  0.91636  0.72884  1.0000
  H   H2855     1.0  0.25491  0.96481  0.75232  1.0000
  H   H2856     1.0  0.31384  0.73006  0.94839  1.0000
  H   H2857     1.0  0.24426  0.50606  0.71577  1.0000
  H   H2858     1.0  0.25000  0.62629  0.87413  1.0000
  H   H2859     1.0  0.37081  0.91282  0.67318  1.0000
  H   H2860     1.0  0.39486  0.95027  0.65933  1.0000
  H   H2861     1.0  0.42083  0.77914  0.69367  1.0000
  C   C1623     1.0  0.25095  0.67345  0.85605  1.0000
  H   H2862     1.0  0.24799  0.58419  0.70610  1.0000
  H   H2863     1.0  0.39628  0.81344  0.72793  1.0000
  C   C1624     1.0  0.27239  0.67349  0.84943  1.0000
  C   C1625     1.0  0.27706  0.69311  0.84778  1.0000
  H   H2864     1.0  0.26604  0.51513  0.71152  1.0000
  H   H2865     1.0  0.28616  0.66915  0.96082  1.0000
  H   H2866     1.0  0.35382  0.79911  0.64131  1.0000
  H   H2867     1.0  0.42308  0.77892  0.65153  1.0000
  H   H2868     1.0  0.25947  0.62498  0.81294  1.0000
  C   C1626     1.0  0.25576  0.64417  0.89097  1.0000
  H   H2869     1.0  0.26148  0.65722  0.88968  1.0000
  H   H2870     1.0  0.28076  0.66374  0.85945  1.0000
  C   C1627     1.0  0.27421  0.50218  0.74637  1.0000
  H   H2871     1.0  0.29236  0.69285  0.84230  1.0000
  H   H2872     1.0  0.46415  0.84644  0.64302  1.0000
  H   H2873     1.0  0.27380  0.69751  0.86175  1.0000
  H   H2874     1.0  0.38777  0.48421  0.74572  1.0000
  C   C1628     1.0  0.45545  0.85287  0.81801  1.0000
  H   H2875     1.0  0.47512  0.68790  0.64810  1.0000
  C   C1629     1.0  0.25790  0.83021  0.82500  1.0000
  H   H2876     1.0  0.43461  0.83660  0.65992  1.0000
  H   H2877     1.0  0.43628  0.84581  0.68027  1.0000
  H   H2878     1.0  0.25052  0.95353  0.66302  1.0000
  H   H2879     1.0  0.23536  0.52111  0.80668  1.0000
  C   C1630     1.0  0.42879  0.77975  0.67909  1.0000
  H   H2880     1.0  0.26452  0.97121  0.66229  1.0000
  C   C1631     1.0  0.45995  0.78778  0.69386  1.0000
  H   H2881     1.0  0.26349  0.64608  0.83399  1.0000
  H   H2882     1.0  0.25852  0.87034  0.70047  1.0000
  H   H2883     1.0  0.34754  0.53552  0.72342  1.0000
  H   H2884     1.0  0.35412  0.74785  0.65413  1.0000
  C   C1632     1.0  0.41553  0.77819  0.66627  1.0000
  H   H2885     1.0  0.35251  0.55915  0.71577  1.0000
  C   C1633     1.0  0.40013  0.48593  0.75134  1.0000
  H   H2886     1.0  0.26184  0.94523  0.73008  1.0000
  C   C1634     1.0  0.23355  0.69298  0.90483  1.0000
  H   H2887     1.0  0.24381  0.68390  0.84542  1.0000
  H   H2888     1.0  0.42644  0.80936  0.66665  1.0000
  H   H2889     1.0  0.44026  0.76723  0.67886  1.0000
  H   H2890     1.0  0.36980  0.53958  0.70857  1.0000
  H   H2891     1.0  0.24933  0.94880  0.71112  1.0000
  C   C1635     1.0  0.41091  0.81937  0.69899  1.0000
  H   H2892     1.0  0.41407  0.67953  0.80367  1.0000
  H   H2893     1.0  0.25482  0.65942  0.64172  1.0000
  H   H2894     1.0  0.40211  0.81315  0.63787  1.0000
  H   H2895     1.0  0.32921  0.71530  0.93284  1.0000
  H   H2896     1.0  0.29626  0.71171  0.93508  1.0000
  C   C1636     1.0  0.26321  0.65578  0.94517  1.0000
  C   C1637     1.0  0.24420  0.62652  0.81910  1.0000
  C   C1638     1.0  0.28589  0.95374  0.69791  1.0000
  C   C1639     1.0  0.29000  0.49575  0.79835  1.0000
  H   H2897     1.0  0.23353  0.85567  0.75510  1.0000
  C   C1640     1.0  0.42436  0.93802  0.68071  1.0000
  N   N90       1.0  0.41241  0.70830  0.66457  1.0000
  C   C1641     1.0  0.43036  0.71076  0.67000  1.0000
  C   C1642     1.0  0.40300  0.69308  0.67800  1.0000
  C   C1643     1.0  0.41613  0.67594  0.68755  1.0000
  C   C1644     1.0  0.42782  0.71842  0.68861  1.0000
  C   C1645     1.0  0.40510  0.66043  0.69837  1.0000
  C   C1646     1.0  0.44653  0.71525  0.69573  1.0000
  H   H2898     1.0  0.44050  0.69737  0.67110  1.0000
  H   H2899     1.0  0.39471  0.73024  0.67896  1.0000
  H   H2900     1.0  0.39304  0.69903  0.68976  1.0000
  H   H2901     1.0  0.39399  0.68755  0.67072  1.0000
  H   H2902     1.0  0.42285  0.68022  0.69779  1.0000
  H   H2903     1.0  0.42764  0.66960  0.67733  1.0000
  H   H2904     1.0  0.42254  0.73383  0.68627  1.0000
  H   H2905     1.0  0.41751  0.71165  0.69981  1.0000
  H   H2906     1.0  0.40930  0.52711  0.76983  1.0000
  C   C1647     1.0  0.23577  0.83812  0.80123  1.0000
  H   H2907     1.0  0.41485  0.64860  0.70525  1.0000
  H   H2908     1.0  0.39376  0.66583  0.70943  1.0000
  H   H2909     1.0  0.39877  0.65487  0.68866  1.0000
  H   H2910     1.0  0.45716  0.72207  0.68494  1.0000
  H   H2911     1.0  0.44440  0.72140  0.70869  1.0000
  H   H2912     1.0  0.45202  0.69993  0.69912  1.0000
  C   C1648     1.0  0.37169  0.52508  0.77804  1.0000
  H   H2913     1.0  0.43642  0.54158  0.74874  1.0000
  C   C1649     1.0  0.31616  0.63762  0.95641  1.0000
  H   H2914     1.0  0.26183  0.81542  0.82245  1.0000
  S   S376      1.0  0.47557  0.59020  0.73693  1.0000
  H   H2915     1.0  0.24361  0.48409  0.66604  1.0000
  H   H2916     1.0  0.46780  0.85423  0.66358  1.0000
  H   H2917     1.0  0.39882  0.69141  0.82194  1.0000
  H   H2918     1.0  0.29289  0.94317  0.70857  1.0000
  H   H2919     1.0  0.30764  0.50630  0.71968  1.0000
  H   H2920     1.0  0.28635  0.52366  0.75435  1.0000
  C   C1650     1.0  0.45893  0.68621  0.74347  1.0000
  C   C1651     1.0  0.37890  0.92088  0.64309  1.0000
  H   H2921     1.0  0.41026  0.76462  0.67080  1.0000
  C   C1652     1.0  0.46853  0.67198  0.80905  1.0000
  H   H2922     1.0  0.27984  0.87348  0.74299  1.0000
  H   H2923     1.0  0.28112  0.52990  0.73088  1.0000
  C   C1653     1.0  0.37576  0.52194  0.74515  1.0000
  H   H2924     1.0  0.37309  0.71645  0.66381  1.0000
  S   S377      1.0  0.47224  0.83825  0.71849  1.0000
  H   H2925     1.0  0.39924  0.94189  0.70133  1.0000
  H   H2926     1.0  0.28125  0.84887  0.75333  1.0000
  S   S378      1.0  0.46276  0.63765  0.70190  1.0000
  C   C1654     1.0  0.24848  0.47546  0.77035  1.0000
  H   H2927     1.0  0.41105  0.52826  0.72755  1.0000
  H   H2928     1.0  0.46128  0.79767  0.71989  1.0000
  H   H2929     1.0  0.37889  0.79590  0.64043  1.0000
  S   S379      1.0  0.45883  0.64875  0.78950  1.0000
  C   C1655     1.0  0.26799  0.62816  0.90213  1.0000
  C   C1656     1.0  0.36520  0.80474  0.64508  1.0000
  H   H2930     1.0  0.43327  0.94176  0.68938  1.0000
  H   H2931     1.0  0.36324  0.95339  0.65243  1.0000
  H   H2932     1.0  0.44990  0.84978  0.80627  1.0000
  H   H2933     1.0  0.26896  0.70361  0.83795  1.0000
  C   C1657     1.0  0.31957  0.71522  0.94661  1.0000
  H   H2934     1.0  0.45082  0.70069  0.74380  1.0000
  H   H2935     1.0  0.45579  0.68083  0.73165  1.0000
  H   H2936     1.0  0.45422  0.67686  0.75673  1.0000
  C   C1658     1.0  0.24513  0.89516  0.71233  1.0000
  H   H2937     1.0  0.28279  0.62600  0.89454  1.0000
  H   H2938     1.0  0.26512  0.84237  0.79611  1.0000
  H   H2939     1.0  0.26966  0.73170  0.94069  1.0000
  H   H2940     1.0  0.43785  0.72059  0.65871  1.0000
  H   H2941     1.0  0.24992  0.54681  0.70032  1.0000
  H   H2942     1.0  0.42196  0.55617  0.73231  1.0000
  S   S380      1.0  0.46846  0.83359  0.77261  1.0000
  H   H2943     1.0  0.37245  0.80838  0.67125  1.0000
  C   C1659     1.0  0.41711  0.52710  0.74037  1.0000
  H   H2944     1.0  0.24702  0.88089  0.75741  1.0000
  H   H2945     1.0  0.47003  0.78168  0.82658  1.0000
  H   H2946     1.0  0.43879  0.63196  0.82845  1.0000
  H   H2947     1.0  0.38740  0.62693  0.89850  1.0000
  H   H2948     1.0  0.34754  0.80997  0.67174  1.0000
  H   H2949     1.0  0.26236  0.61482  0.90450  1.0000
  H   H2950     1.0  0.25024  0.53701  0.73557  1.0000
  S   S381      1.0  0.46599  0.75624  0.64020  1.0000
  H   H2951     1.0  0.24011  0.56948  0.76623  1.0000
  H   H2952     1.0  0.32787  0.70816  0.95790  1.0000
  H   H2953     1.0  0.25826  0.50806  0.77962  1.0000
  C   C1660     1.0  0.30681  0.51056  0.73345  1.0000
  C   C1661     1.0  0.27175  0.86166  0.74766  1.0000
  H   H2954     1.0  0.48087  0.85748  0.82451  1.0000
  S   S382      1.0  0.31427  0.83412  0.65962  1.0000
  H   H2955     1.0  0.24343  0.47726  0.70722  1.0000
  H   H2956     1.0  0.38927  0.67797  0.80965  1.0000
  C   C1662     1.0  0.25610  0.71184  0.96308  1.0000
  H   H2957     1.0  0.35629  0.54856  0.74854  1.0000
  C   C1663     1.0  0.43104  0.81003  0.70298  1.0000
  N   N91       1.0  0.23787  0.96820  0.73078  1.0000
  C   C1664     1.0  0.43003  0.54183  0.73626  1.0000
  C   C1665     1.0  0.27833  0.48202  0.80528  1.0000
  H   H2958     1.0  0.36257  0.74703  0.67560  1.0000
  H   H2959     1.0  0.36385  0.51382  0.74891  1.0000
  H   H2960     1.0  0.27183  0.64389  0.95327  1.0000
  C   C1666     1.0  0.26215  0.96075  0.65450  1.0000
  C   C1667     1.0  0.40166  0.53011  0.75773  1.0000
  H   H2961     1.0  0.47291  0.76321  0.72539  1.0000
  H   H2962     1.0  0.42330  0.67354  0.64793  1.0000
  C   C1668     1.0  0.24558  0.52341  0.73626  1.0000
  H   H2963     1.0  0.40321  0.78976  0.66694  1.0000
  H   H2964     1.0  0.44708  0.86619  0.82223  1.0000
  C   C1669     1.0  0.31181  0.47398  0.78029  1.0000
  C   C1670     1.0  0.45629  0.82000  0.67669  1.0000
  C   C1671     1.0  0.47094  0.79134  0.70830  1.0000
  C   C1672     1.0  0.46944  0.80427  0.80252  1.0000
  H   H2965     1.0  0.24877  0.61803  0.84750  1.0000
  H   H2966     1.0  0.45459  0.80968  0.80650  1.0000
  H   H2967     1.0  0.46393  0.82405  0.68631  1.0000
  H   H2968     1.0  0.46733  0.81511  0.66511  1.0000
  H   H2969     1.0  0.39422  0.64401  0.79166  1.0000
  H   H2970     1.0  0.42903  0.79763  0.71430  1.0000
  C   C1673     1.0  0.26981  0.96724  0.70748  1.0000
  C   C1674     1.0  0.23954  0.57901  0.71927  1.0000
  C   C1675     1.0  0.47753  0.68173  0.66221  1.0000
  C   C1676     1.0  0.24808  0.64871  0.83964  1.0000
  C   C1677     1.0  0.25252  0.84357  0.80735  1.0000
  N   N92       1.0  0.25322  0.50853  0.75156  1.0000
  S   S383      1.0  0.47472  0.59458  0.78088  1.0000
  H   H2971     1.0  0.26037  0.86804  0.77512  1.0000
  C   C1678     1.0  0.30358  0.70470  0.94701  1.0000
  H   H2972     1.0  0.35037  0.52098  0.81389  1.0000
  H   H2973     1.0  0.28076  0.68608  0.94109  1.0000
  H   H2974     1.0  0.27056  0.63611  0.86438  1.0000
  H   H2975     1.0  0.39574  0.54539  0.75636  1.0000
  C   C1679     1.0  0.45090  0.59464  0.84099  1.0000
  H   H2976     1.0  0.24314  0.69296  0.64490  1.0000
  H   H2977     1.0  0.39600  0.64435  0.90702  1.0000
  H   H2978     1.0  0.24334  0.60001  0.66497  1.0000
  H   H2979     1.0  0.45895  0.67939  0.88267  1.0000
  C   C1680     1.0  0.25568  0.63966  0.87138  1.0000
  C   C1681     1.0  0.35885  0.54422  0.72030  1.0000
  H   H2980     1.0  0.37864  0.55169  0.73380  1.0000
  C   C1682     1.0  0.41685  0.70432  0.64471  1.0000
  H   H2981     1.0  0.26543  0.48516  0.81510  1.0000
  H   H2982     1.0  0.24705  0.48540  0.74137  1.0000
  Fe  Fe192     1.0  0.46800  0.62589  0.77131  1.0000
  H   H2983     1.0  0.46248  0.65411  0.88859  1.0000
  H   H2984     1.0  0.43745  0.58900  0.84478  1.0000
  H   H2985     1.0  0.23616  0.63810  0.81012  1.0000
  C   C1683     1.0  0.47341  0.65725  0.68999  1.0000
  H   H2986     1.0  0.43179  0.60158  0.79896  1.0000
  H   H2987     1.0  0.37268  0.97135  0.69155  1.0000
  C   C1684     1.0  0.43740  0.79805  0.67222  1.0000
  H   H2988     1.0  0.27742  0.49410  0.73459  1.0000
  C   C1685     1.0  0.36756  0.54270  0.73777  1.0000
  H   H2989     1.0  0.41693  0.61069  0.81874  1.0000
  C   C1686     1.0  0.24589  0.87713  0.70860  1.0000
  H   H2990     1.0  0.36796  0.52369  0.82646  1.0000
  C   C1687     1.0  0.28636  0.51802  0.74149  1.0000
  C   C1688     1.0  0.36183  0.80253  0.66652  1.0000
  H   H2991     1.0  0.42972  0.94297  0.66565  1.0000
  C   C1689     1.0  0.42064  0.61333  0.80320  1.0000
  C   C1690     1.0  0.25478  0.86675  0.76274  1.0000
  C   C1691     1.0  0.24956  0.51686  0.76928  1.0000
  H   H2992     1.0  0.40472  0.83568  0.72172  1.0000
  C   C1692     1.0  0.37867  0.52107  0.79724  1.0000
  H   H2993     1.0  0.44161  0.53890  0.72436  1.0000
  H   H2994     1.0  0.31546  0.52178  0.73136  1.0000
  C   C1693     1.0  0.39833  0.82573  0.71658  1.0000
  H   H2995     1.0  0.45608  0.68167  0.80537  1.0000
  N   N93       1.0  0.42912  0.64508  0.85336  1.0000
  C   C1694     1.0  0.44654  0.64836  0.85919  1.0000
  C   C1695     1.0  0.43374  0.62791  0.84384  1.0000
  C   C1696     1.0  0.42294  0.66198  0.83912  1.0000
  C   C1697     1.0  0.41292  0.64343  0.86963  1.0000
  C   C1698     1.0  0.41702  0.62907  0.88742  1.0000
  C   C1699     1.0  0.44430  0.66644  0.86765  1.0000
  C   C1700     1.0  0.40605  0.66092  0.83000  1.0000
  C   C1701     1.0  0.44941  0.61166  0.85040  1.0000
  H   H2996     1.0  0.47146  0.88335  0.79999  1.0000
  C   C1702     1.0  0.39973  0.63009  0.90307  1.0000
  C   C1703     1.0  0.40188  0.67856  0.81539  1.0000
  H   H2997     1.0  0.44683  0.60696  0.86581  1.0000
  H   H2998     1.0  0.45198  0.63629  0.86952  1.0000
  H   H2999     1.0  0.42076  0.62188  0.84503  1.0000
  H   H3000     1.0  0.38352  0.50579  0.80170  1.0000
  H   H3001     1.0  0.43492  0.66458  0.82757  1.0000
  H   H3002     1.0  0.41873  0.67488  0.84557  1.0000
  H   H3003     1.0  0.40709  0.65738  0.87399  1.0000
  H   H3004     1.0  0.40089  0.63945  0.86525  1.0000
  H   H3005     1.0  0.42885  0.63193  0.89301  1.0000
  H   H3006     1.0  0.42026  0.61455  0.88432  1.0000
  H   H3007     1.0  0.44359  0.67899  0.85634  1.0000
  H   H3008     1.0  0.43144  0.66809  0.87850  1.0000
  H   H3009     1.0  0.39304  0.66005  0.84068  1.0000
  H   H3010     1.0  0.40904  0.64856  0.82281  1.0000
  C   C1704     1.0  0.36291  0.52765  0.81276  1.0000
  H   H3011     1.0  0.24128  0.64591  0.89929  1.0000
  H   H3012     1.0  0.45820  0.64918  0.84683  1.0000
  C   C1705     1.0  0.25441  0.95641  0.72019  1.0000
  H   H3013     1.0  0.39044  0.52864  0.79651  1.0000
  H   H3014     1.0  0.40500  0.49596  0.77538  1.0000
  H   H3015     1.0  0.42610  0.51307  0.74318  1.0000
  C   C1706     1.0  0.46113  0.66622  0.87685  1.0000
  N   N94       1.0  0.38597  0.51872  0.76165  1.0000
  Fe  Fe193     1.0  0.48064  0.84633  0.74290  1.0000
  C   C1707     1.0  0.24095  0.63040  0.83919  1.0000
  H   H3016     1.0  0.47252  0.86803  0.78392  1.0000
  H   H3017     1.0  0.24150  0.92786  0.74792  1.0000
  H   H3018     1.0  0.24749  0.68341  0.94786  1.0000
  C   C1708     1.0  0.24280  0.53455  0.70176  1.0000
  H   H3019     1.0  0.26280  0.71310  0.93238  1.0000
  N   N95       1.0  0.24468  0.65467  0.85862  1.0000
  H   H3020     1.0  0.42287  0.71622  0.63506  1.0000
  H   H3021     1.0  0.27161  0.65959  0.93103  1.0000
  C   C1709     1.0  0.25754  0.67264  0.95548  1.0000
  H   H3022     1.0  0.29659  0.96177  0.68872  1.0000
  H   H3023     1.0  0.47525  0.69024  0.82520  1.0000
  C   C1710     1.0  0.48011  0.68624  0.74076  1.0000
  H   H3024     1.0  0.24467  0.63218  0.64507  1.0000
  H   H3025     1.0  0.46236  0.58333  0.84572  1.0000
  S   S384      1.0  0.47720  0.72063  0.84521  1.0000
  H   H3026     1.0  0.45435  0.59860  0.82544  1.0000
  C   C1711     1.0  0.25695  0.97048  0.63540  1.0000
  H   H3027     1.0  0.24771  0.48051  0.78365  1.0000
  H   H3028     1.0  0.40341  0.96256  0.68409  1.0000
  C   C1712     1.0  0.47814  0.78838  0.81393  1.0000
  C   C1713     1.0  0.47978  0.81312  0.78602  1.0000
  C   C1714     1.0  0.47943  0.67693  0.82021  1.0000
  C   C1715     1.0  0.24045  0.73589  0.93848  1.0000
  H   H3029     1.0  0.24327  0.74481  0.92443  1.0000
  H   H3030     1.0  0.33950  0.96915  0.70339  1.0000
  C   C1716     1.0  0.25131  0.68915  0.63137  1.0000
  H   H3031     1.0  0.48111  0.80088  0.70137  1.0000
  H   H3032     1.0  0.23168  0.60832  0.63430  1.0000
  C   C1717     1.0  0.47960  0.87024  0.79509  1.0000
  C   C1718     1.0  0.47640  0.85434  0.81221  1.0000
  H   H3033     1.0  0.48130  0.68231  0.77042  1.0000
  H   H3034     1.0  0.62106  0.36584  0.14781  1.0000
  Fe  Fe194     1.0  0.50752  0.34833  0.20027  1.0000
  H   H3035     1.0  0.51211  0.27859  0.29431  1.0000
  S   S385      1.0  0.52894  0.36837  0.19036  1.0000
  H   H3036     1.0  0.59678  0.39485  0.14714  1.0000
  S   S386      1.0  0.50996  0.31782  0.21388  1.0000
  H   H3037     1.0  0.68092  0.23950  0.97172  1.0000
  C   C1719     1.0  0.60302  0.38880  0.13416  1.0000
  S   S387      1.0  0.49761  0.09677  0.23527  1.0000
  C   C1720     1.0  0.71029  0.46511  0.20210  1.0000
  H   H3038     1.0  0.72456  0.31759  0.28676  1.0000
  Fe  Fe195     1.0  0.50144  0.06525  0.24183  1.0000
  S   S388      1.0  0.52596  0.04538  0.25372  1.0000
  C   C1721     1.0  0.71655  0.34318  0.12285  1.0000
  S   S389      1.0  0.49805  0.10997  0.18273  1.0000
  H   H3039     1.0  0.62824  0.33355  0.15806  1.0000
  H   H3040     1.0  0.62852  0.28804  0.97835  1.0000
  H   H3041     1.0  0.59113  0.24020  0.29463  1.0000
  Fe  Fe196     1.0  0.50451  0.21775  0.08968  1.0000
  S   S390      1.0  0.53639  0.21108  0.08021  1.0000
  C   C1722     1.0  0.52634  0.22383  0.28018  1.0000
  N   N96       1.0  0.72882  0.09155  0.28770  1.0000
  H   H3042     1.0  0.52611  0.32658  0.28975  1.0000
  Fe  Fe197     1.0  0.65211  0.28129  0.09042  1.0000
  S   S391      1.0  0.64300  0.25298  0.09592  1.0000
  S   S392      1.0  0.65828  0.29046  0.11587  1.0000
  Fe  Fe198     1.0  0.65205  0.28606  0.04808  1.0000
  S   S393      1.0  0.64235  0.25847  0.05065  1.0000
  S   S394      1.0  0.66330  0.30458  0.02122  1.0000
  Fe  Fe199     1.0  0.62219  0.26656  0.07650  1.0000
  S   S395      1.0  0.59058  0.26596  0.08706  1.0000
  Fe  Fe200     1.0  0.66391  0.24732  0.06989  1.0000
  S   S396      1.0  0.68452  0.22003  0.06652  1.0000
  S   S397      1.0  0.63034  0.29537  0.07235  1.0000
  S   S398      1.0  0.67450  0.27444  0.06596  1.0000
  Fe  Fe201     1.0  0.63404  0.37502  0.19620  1.0000
  S   S399      1.0  0.63127  0.39692  0.17037  1.0000
  S   S400      1.0  0.61020  0.35937  0.21271  1.0000
  Fe  Fe202     1.0  0.67692  0.37570  0.19207  1.0000
  S   S401      1.0  0.67686  0.39706  0.16536  1.0000
  S   S402      1.0  0.70473  0.36298  0.20282  1.0000
  Fe  Fe203     1.0  0.65005  0.41172  0.18093  1.0000
  S   S403      1.0  0.64317  0.44271  0.18424  1.0000
  Fe  Fe204     1.0  0.65829  0.38004  0.15739  1.0000
  S   S404      1.0  0.66006  0.37321  0.12817  1.0000
  S   S405      1.0  0.65079  0.39092  0.20804  1.0000
  S   S406      1.0  0.66039  0.35756  0.18282  1.0000
  Fe  Fe205     1.0  0.62782  0.05731  0.26851  1.0000
  C   C1723     1.0  0.54059  0.02186  0.20168  1.0000
  S   S407      1.0  0.60169  0.07320  0.25631  1.0000
  Fe  Fe206     1.0  0.67055  0.05758  0.26154  1.0000
  Fe  Fe207     1.0  0.65558  0.02173  0.28071  1.0000
  S   S408      1.0  0.69452  0.06838  0.24009  1.0000
  C   C1724     1.0  0.56371  0.33268  0.15943  1.0000
  H   H3043     1.0  0.61259  0.34513  0.17548  1.0000
  H   H3044     1.0  0.69767  0.08297  0.27435  1.0000
  S   S409      1.0  0.65302  0.04047  0.25279  1.0000
  S   S410      1.0  0.64529  0.07632  0.27495  1.0000
  H   H3045     1.0  0.68662  0.12493  0.25799  1.0000
  C   C1725     1.0  0.52971  0.24124  0.00192  1.0000
  N   N97       1.0  0.51990  0.24145  0.02199  1.0000
  C   C1726     1.0  0.71834  0.05859  0.24178  1.0000
  C   C1727     1.0  0.71651  0.37460  0.21459  1.0000
  H   H3046     1.0  0.49998  0.20966  0.02923  1.0000
  C   C1728     1.0  0.70762  0.39109  0.22155  1.0000
  H   H3047     1.0  0.53202  0.00426  0.22787  1.0000
  H   H3048     1.0  0.69321  0.39705  0.21975  1.0000
  C   C1729     1.0  0.65908  0.45881  0.17528  1.0000
  H   H3049     1.0  0.52336  0.23248  0.99517  1.0000
  H   H3050     1.0  0.51452  0.26605  0.98588  1.0000
  H   H3051     1.0  0.48794  0.12939  0.25568  1.0000
  C   C1730     1.0  0.67355  0.45612  0.15997  1.0000
  C   C1731     1.0  0.49664  0.26846  0.15408  1.0000
  H   H3052     1.0  0.49721  0.27718  0.01024  1.0000
  H   H3053     1.0  0.67557  0.44362  0.15373  1.0000
  C   C1732     1.0  0.70836  0.21832  0.06898  1.0000
  H   H3054     1.0  0.70482  0.24595  0.07576  1.0000
  C   C1733     1.0  0.65848  0.30342  0.99906  1.0000
  C   C1734     1.0  0.64414  0.29432  0.99738  1.0000
  C   C1735     1.0  0.63995  0.29470  0.97953  1.0000
  C   C1736     1.0  0.66900  0.31231  0.98273  1.0000
  H   H3055     1.0  0.63595  0.28746  0.00987  1.0000
  C   C1737     1.0  0.49868  0.24689  0.02304  1.0000
  C   C1738     1.0  0.65814  0.31372  0.11893  1.0000
  C   C1739     1.0  0.65445  0.32941  0.10499  1.0000
  C   C1740     1.0  0.65516  0.34756  0.10795  1.0000
  C   C1741     1.0  0.65935  0.35020  0.12490  1.0000
  C   C1742     1.0  0.66314  0.33447  0.13872  1.0000
  C   C1743     1.0  0.66249  0.31636  0.13576  1.0000
  H   H3056     1.0  0.65124  0.32755  0.09190  1.0000
  H   H3057     1.0  0.65238  0.35965  0.09710  1.0000
  H   H3058     1.0  0.66669  0.33622  0.15168  1.0000
  H   H3059     1.0  0.66554  0.30428  0.14654  1.0000
  C   C1744     1.0  0.55158  0.22608  0.08238  1.0000
  C   C1745     1.0  0.57047  0.22368  0.07305  1.0000
  C   C1746     1.0  0.58280  0.23552  0.07447  1.0000
  C   C1747     1.0  0.57639  0.24969  0.08547  1.0000
  C   C1748     1.0  0.55772  0.25154  0.09527  1.0000
  C   C1749     1.0  0.54531  0.24001  0.09360  1.0000
  H   H3060     1.0  0.57553  0.21281  0.06446  1.0000
  H   H3061     1.0  0.59717  0.23383  0.06691  1.0000
  H   H3062     1.0  0.55284  0.26194  0.10428  1.0000
  H   H3063     1.0  0.53092  0.24182  0.10112  1.0000
  C   C1750     1.0  0.54772  0.05256  0.25301  1.0000
  C   C1751     1.0  0.55125  0.07038  0.24373  1.0000
  C   C1752     1.0  0.56827  0.07605  0.24425  1.0000
  C   C1753     1.0  0.58181  0.06415  0.25422  1.0000
  C   C1754     1.0  0.57861  0.04605  0.26294  1.0000
  C   C1755     1.0  0.56161  0.04029  0.26233  1.0000
  H   H3064     1.0  0.54086  0.07980  0.23619  1.0000
  H   H3065     1.0  0.57103  0.08978  0.23695  1.0000
  H   H3066     1.0  0.58901  0.03667  0.27052  1.0000
  H   H3067     1.0  0.55905  0.02642  0.26943  1.0000
  H   H3068     1.0  0.71552  0.98812  0.18785  1.0000
  C   C1756     1.0  0.50966  0.41863  0.19672  1.0000
  H   H3069     1.0  0.56460  0.25889  0.27868  1.0000
  C   C1757     1.0  0.49600  0.14159  0.15564  1.0000
  H   H3070     1.0  0.49113  0.39893  0.14159  1.0000
  H   H3071     1.0  0.51119  0.13770  0.15235  1.0000
  C   C1758     1.0  0.71952  0.32311  0.11884  1.0000
  H   H3072     1.0  0.68989  0.19335  0.04104  1.0000
  C   C1759     1.0  0.55080  0.36631  0.19797  1.0000
  C   C1760     1.0  0.55719  0.35132  0.21150  1.0000
  C   C1761     1.0  0.57528  0.34958  0.21608  1.0000
  C   C1762     1.0  0.58716  0.36275  0.20720  1.0000
  C   C1763     1.0  0.58052  0.37803  0.19408  1.0000
  C   C1764     1.0  0.56241  0.37982  0.18956  1.0000
  H   H3073     1.0  0.54835  0.34090  0.21821  1.0000
  H   H3074     1.0  0.58022  0.33782  0.22639  1.0000
  H   H3075     1.0  0.58942  0.38837  0.18729  1.0000
  H   H3076     1.0  0.55757  0.39153  0.17917  1.0000
  C   C1765     1.0  0.54885  0.25034  0.03121  1.0000
  H   H3077     1.0  0.63488  0.32508  0.19707  1.0000
  H   H3078     1.0  0.59947  0.19426  0.09009  1.0000
  H   H3079     1.0  0.55031  0.23535  0.28139  1.0000
  C   C1766     1.0  0.68819  0.19282  0.02657  1.0000
  H   H3080     1.0  0.68008  0.31941  0.98395  1.0000
  C   C1767     1.0  0.60998  0.36763  0.13910  1.0000
  C   C1768     1.0  0.56752  0.26340  0.29101  1.0000
  H   H3081     1.0  0.69607  0.46779  0.14033  1.0000
  Fe  Fe208     1.0  0.48527  0.09394  0.21065  1.0000
  H   H3082     1.0  0.51259  0.31441  0.27997  1.0000
  H   H3083     1.0  0.71335  0.42879  0.19823  1.0000
  C   C1769     1.0  0.55457  0.26494  0.03999  1.0000
  H   H3084     1.0  0.57004  0.26172  0.03994  1.0000
  H   H3085     1.0  0.71314  0.11838  0.27674  1.0000
  H   H3086     1.0  0.52336  0.27810  0.07964  1.0000
  H   H3087     1.0  0.54758  0.00997  0.19418  1.0000
  C   C1770     1.0  0.53478  0.23986  0.28370  1.0000
  H   H3088     1.0  0.52433  0.44139  0.18074  1.0000
  H   H3089     1.0  0.71352  0.25419  0.13551  1.0000
  C   C1771     1.0  0.54698  0.12421  0.24665  1.0000
  H   H3090     1.0  0.68193  0.25886  0.02628  1.0000
  H   H3091     1.0  0.54363  0.11375  0.23951  1.0000
  H   H3092     1.0  0.70665  0.44475  0.17817  1.0000
  C   C1772     1.0  0.68542  0.46732  0.23151  1.0000
  H   H3093     1.0  0.72658  0.97712  0.23748  1.0000
  C   C1773     1.0  0.72323  0.04505  0.25713  1.0000
  S   S411      1.0  0.49117  0.06211  0.21616  1.0000
  C   C1774     1.0  0.72570  0.97615  0.16277  1.0000
  H   H3094     1.0  0.53097  0.09492  0.27097  1.0000
  H   H3095     1.0  0.51783  0.11757  0.27277  1.0000
  H   H3096     1.0  0.48758  0.00968  0.28118  1.0000
  C   C1775     1.0  0.48815  0.26470  0.14016  1.0000
  C   C1776     1.0  0.71730  0.39977  0.23104  1.0000
  H   H3097     1.0  0.71651  0.18995  0.06327  1.0000
  C   C1777     1.0  0.54176  0.25867  0.96967  1.0000
  H   H3098     1.0  0.53665  0.18269  0.03703  1.0000
  H   H3099     1.0  0.55674  0.25366  0.97145  1.0000
  H   H3100     1.0  0.70952  0.44518  0.22893  1.0000
  H   H3101     1.0  0.69623  0.27493  0.99630  1.0000
  C   C1778     1.0  0.53027  0.10757  0.27722  1.0000
  C   C1779     1.0  0.48349  0.15626  0.28943  1.0000
  H   H3102     1.0  0.56093  0.10491  0.26786  1.0000
  H   H3103     1.0  0.55110  0.27933  0.03188  1.0000
  C   C1780     1.0  0.72262  0.41209  0.16702  1.0000
  H   H3104     1.0  0.56073  0.12824  0.23925  1.0000
  C   C1781     1.0  0.71889  0.43839  0.18550  1.0000
  H   H3105     1.0  0.54473  0.23425  0.00147  1.0000
  H   H3106     1.0  0.53398  0.27099  0.99458  1.0000
  C   C1782     1.0  0.71016  0.32254  0.10200  1.0000
  H   H3107     1.0  0.48732  0.14316  0.22369  1.0000
  H   H3108     1.0  0.68708  0.30554  0.08814  1.0000
  H   H3109     1.0  0.69597  0.29250  0.11872  1.0000
  H   H3110     1.0  0.69463  0.32638  0.10647  1.0000
  C   C1783     1.0  0.70149  0.32319  0.06500  1.0000
  C   C1784     1.0  0.51563  0.20635  0.02723  1.0000
  H   H3111     1.0  0.61846  0.33150  0.13090  1.0000
  H   H3112     1.0  0.71103  0.20731  0.01245  1.0000
  H   H3113     1.0  0.71696  0.16387  0.01900  1.0000
  H   H3114     1.0  0.50374  0.00807  0.24875  1.0000
  N   N98       1.0  0.72657  0.45370  0.19083  1.0000
  N   N99       1.0  0.59875  0.33623  0.15631  1.0000
  H   H3115     1.0  0.52110  0.20490  0.01234  1.0000
  H   H3116     1.0  0.51387  0.41048  0.18500  1.0000
  H   H3117     1.0  0.67302  0.11175  0.27776  1.0000
  H   H3118     1.0  0.69116  0.33410  0.03860  1.0000
  H   H3119     1.0  0.64729  0.31104  0.17939  1.0000
  H   H3120     1.0  0.50323  0.15301  0.26384  1.0000
  C   C1785     1.0  0.71462  0.23324  0.07348  1.0000
  H   H3121     1.0  0.59481  0.33204  0.12930  1.0000
  H   H3122     1.0  0.71439  0.98656  0.21854  1.0000
  H   H3123     1.0  0.70434  0.19298  0.99892  1.0000
  H   H3124     1.0  0.48676  0.14628  0.19939  1.0000
  H   H3125     1.0  0.69087  0.34649  0.26830  1.0000
  S   S412      1.0  0.49528  0.17240  0.29497  1.0000
  C   C1786     1.0  0.49075  0.14868  0.27294  1.0000
  C   C1787     1.0  0.59348  0.35718  0.14968  1.0000
  H   H3126     1.0  0.58652  0.36423  0.16184  1.0000
  H   H3127     1.0  0.58296  0.36014  0.14011  1.0000
  H   H3128     1.0  0.61515  0.39586  0.12676  1.0000
  H   H3129     1.0  0.56694  0.32692  0.14617  1.0000
  H   H3130     1.0  0.49235  0.41965  0.16309  1.0000
  H   H3131     1.0  0.70702  0.28828  0.96726  1.0000
  H   H3132     1.0  0.51840  0.22170  0.04817  1.0000
  H   H3133     1.0  0.70642  0.24837  0.02172  1.0000
  H   H3134     1.0  0.49766  0.09379  0.28095  1.0000
  C   C1788     1.0  0.69954  0.45399  0.21987  1.0000
  H   H3135     1.0  0.53082  0.25238  0.27312  1.0000
  H   H3136     1.0  0.72199  0.16837  0.98363  1.0000
  H   H3137     1.0  0.70516  0.29295  0.07379  1.0000
  H   H3138     1.0  0.53509  0.27771  0.28133  1.0000
  H   H3139     1.0  0.69126  0.44485  0.21590  1.0000
  H   H3140     1.0  0.69022  0.25964  0.12911  1.0000
  H   H3141     1.0  0.51182  0.16222  0.21897  1.0000
  C   C1789     1.0  0.49357  0.34676  0.12659  1.0000
  C   C1790     1.0  0.61012  0.29790  0.12418  1.0000
  C   C1791     1.0  0.69362  0.26055  0.99663  1.0000
  C   C1792     1.0  0.70186  0.30552  0.08068  1.0000
  C   C1793     1.0  0.70151  0.09710  0.26856  1.0000
  H   H3142     1.0  0.48933  0.43978  0.18276  1.0000
  C   C1794     1.0  0.68342  0.11070  0.26461  1.0000
  H   H3143     1.0  0.71232  0.42040  0.15802  1.0000
  C   C1795     1.0  0.71054  0.28868  0.11103  1.0000
  H   H3144     1.0  0.48215  0.17705  0.18192  1.0000
  C   C1796     1.0  0.52608  0.31319  0.28507  1.0000
  C   C1797     1.0  0.70695  0.19355  0.01306  1.0000
  C   C1798     1.0  0.48573  0.13011  0.17006  1.0000
  H   H3145     1.0  0.53583  0.13695  0.24559  1.0000
  C   C1799     1.0  0.52106  0.18710  0.03919  1.0000
  H   H3146     1.0  0.49402  0.24156  0.01197  1.0000
  H   H3147     1.0  0.53521  0.32632  0.16628  1.0000
  H   H3148     1.0  0.60414  0.08717  0.29214  1.0000
  C   C1800     1.0  0.48211  0.13535  0.26825  1.0000
  H   H3149     1.0  0.67683  0.31896  0.05524  1.0000
  C   C1801     1.0  0.52524  0.01572  0.21789  1.0000
  H   H3150     1.0  0.59588  0.30032  0.12045  1.0000
  H   H3151     1.0  0.52141  0.12847  0.21414  1.0000
  C   C1802     1.0  0.61654  0.31524  0.18279  1.0000
  C   C1803     1.0  0.71072  0.10368  0.28262  1.0000
  C   C1804     1.0  0.48823  0.15370  0.21054  1.0000
  H   H3152     1.0  0.57746  0.33672  0.18112  1.0000
  H   H3153     1.0  0.68833  0.23642  0.01862  1.0000
  C   C1805     1.0  0.52395  0.22169  0.03293  1.0000
  H   H3154     1.0  0.49458  0.16675  0.13431  1.0000
  H   H3155     1.0  0.55011  0.12768  0.27369  1.0000
  H   H3156     1.0  0.67748  0.20508  0.02207  1.0000
  H   H3157     1.0  0.52153  0.13641  0.18923  1.0000
  H   H3158     1.0  0.61654  0.36242  0.12579  1.0000
  H   H3159     1.0  0.51059  0.40858  0.21010  1.0000
  H   H3160     1.0  0.51476  0.17641  0.03510  1.0000
  H   H3161     1.0  0.55781  0.34794  0.15646  1.0000
  H   H3162     1.0  0.51636  0.97791  0.25118  1.0000
  H   H3163     1.0  0.55332  0.23633  0.03950  1.0000
  C   C1806     1.0  0.54818  0.11604  0.26729  1.0000
  C   C1807     1.0  0.50172  0.08470  0.29402  1.0000
  H   H3164     1.0  0.48716  0.43992  0.20698  1.0000
  C   C1808     1.0  0.52723  0.25425  0.03132  1.0000
  S   S413      1.0  0.49233  0.34464  0.17812  1.0000
  H   H3165     1.0  0.61668  0.30238  0.17723  1.0000
  H   H3166     1.0  0.51592  0.00043  0.20030  1.0000
  C   C1809     1.0  0.52909  0.26055  0.98867  1.0000
  H   H3167     1.0  0.71230  0.03979  0.26792  1.0000
  H   H3168     1.0  0.68289  0.17970  0.02673  1.0000
  H   H3169     1.0  0.53099  0.22059  0.16154  1.0000
  H   H3170     1.0  0.52008  0.25348  0.04627  1.0000
  H   H3171     1.0  0.62321  0.30009  0.14689  1.0000
  H   H3172     1.0  0.59234  0.39167  0.12479  1.0000
  H   H3173     1.0  0.61954  0.30513  0.11236  1.0000
  C   C1810     1.0  0.70945  0.24990  0.98321  1.0000
  H   H3174     1.0  0.63575  0.29994  0.20172  1.0000
  C   C1811     1.0  0.60926  0.30519  0.14235  1.0000
  N   N100      1.0  0.53978  0.31232  0.11037  1.0000
  C   C1812     1.0  0.52361  0.32248  0.12285  1.0000
  C   C1813     1.0  0.55219  0.29756  0.12219  1.0000
  C   C1814     1.0  0.55177  0.32662  0.09919  1.0000
  C   C1815     1.0  0.53306  0.30377  0.09657  1.0000
  C   C1816     1.0  0.51764  0.29134  0.10463  1.0000
  C   C1817     1.0  0.50995  0.33840  0.11259  1.0000
  C   C1818     1.0  0.57013  0.31866  0.08644  1.0000
  C   C1819     1.0  0.54250  0.28709  0.14098  1.0000
  C   C1820     1.0  0.55621  0.27053  0.14954  1.0000
  C   C1821     1.0  0.51116  0.28516  0.08880  1.0000
  C   C1822     1.0  0.72165  0.34129  0.26450  1.0000
  C   C1823     1.0  0.58212  0.33394  0.07758  1.0000
  H   H3175     1.0  0.52921  0.32874  0.13263  1.0000
  H   H3176     1.0  0.51474  0.31252  0.13212  1.0000
  H   H3177     1.0  0.56073  0.28682  0.11380  1.0000
  H   H3178     1.0  0.56272  0.30406  0.12641  1.0000
  H   H3179     1.0  0.55581  0.33434  0.10886  1.0000
  H   H3180     1.0  0.54371  0.33748  0.08958  1.0000
  H   H3181     1.0  0.52763  0.31503  0.08540  1.0000
  H   H3182     1.0  0.54513  0.29485  0.08894  1.0000
  H   H3183     1.0  0.50498  0.29891  0.11275  1.0000
  H   H3184     1.0  0.52320  0.27834  0.11374  1.0000
  H   H3185     1.0  0.51725  0.35017  0.10476  1.0000
  H   H3186     1.0  0.50385  0.33300  0.10263  1.0000
  H   H3187     1.0  0.56666  0.31324  0.07482  1.0000
  H   H3188     1.0  0.57909  0.30702  0.09435  1.0000
  H   H3189     1.0  0.53749  0.29687  0.15128  1.0000
  H   H3190     1.0  0.53025  0.28159  0.13927  1.0000
  H   H3191     1.0  0.54891  0.26367  0.16319  1.0000
  H   H3192     1.0  0.56112  0.25994  0.14004  1.0000
  H   H3193     1.0  0.56861  0.27547  0.15209  1.0000
  H   H3194     1.0  0.50272  0.02319  0.20226  1.0000
  H   H3195     1.0  0.50137  0.27497  0.09489  1.0000
  C   C1824     1.0  0.49056  0.00932  0.24315  1.0000
  H   H3196     1.0  0.71035  0.99576  0.28693  1.0000
  H   H3197     1.0  0.72258  0.47061  0.16380  1.0000
  H   H3198     1.0  0.55143  0.02652  0.20734  1.0000
  H   H3199     1.0  0.58691  0.33910  0.08862  1.0000
  H   H3200     1.0  0.59482  0.32800  0.06814  1.0000
  H   H3201     1.0  0.57401  0.34594  0.06910  1.0000
  H   H3202     1.0  0.48374  0.35774  0.11891  1.0000
  H   H3203     1.0  0.50812  0.25831  0.15924  1.0000
  H   H3204     1.0  0.48724  0.18452  0.22615  1.0000
  H   H3205     1.0  0.70264  0.34385  0.24483  1.0000
  S   S414      1.0  0.62883  0.03712  0.29595  1.0000
  H   H3206     1.0  0.72739  0.46235  0.27790  1.0000
  H   H3207     1.0  0.69923  0.30901  0.04250  1.0000
  H   H3208     1.0  0.58447  0.31436  0.17471  1.0000
  C   C1825     1.0  0.69159  0.32113  0.04942  1.0000
  H   H3209     1.0  0.53139  0.22161  0.26541  1.0000
  H   H3210     1.0  0.67956  0.26180  0.99271  1.0000
  H   H3211     1.0  0.70435  0.26844  0.09572  1.0000
  C   C1826     1.0  0.60516  0.32700  0.13909  1.0000
  H   H3212     1.0  0.72242  0.17652  0.03451  1.0000
  H   H3213     1.0  0.53448  0.03389  0.19164  1.0000
  C   C1827     1.0  0.48856  0.39371  0.15697  1.0000
  C   C1828     1.0  0.70313  0.33852  0.25998  1.0000
  H   H3214     1.0  0.72416  0.00964  0.29416  1.0000
  C   C1829     1.0  0.63475  0.31272  0.19066  1.0000
  H   H3215     1.0  0.71015  0.41232  0.23661  1.0000
  H   H3216     1.0  0.50662  0.21832  0.16372  1.0000
  H   H3217     1.0  0.51270  0.07289  0.28977  1.0000
  C   C1830     1.0  0.72657  0.07133  0.29520  1.0000
  H   H3218     1.0  0.60459  0.31644  0.19476  1.0000
  H   H3219     1.0  0.67695  0.10548  0.25478  1.0000
  H   H3220     1.0  0.48518  0.19386  0.19474  1.0000
  C   C1831     1.0  0.52317  0.14050  0.20240  1.0000
  H   H3221     1.0  0.48523  0.02477  0.24014  1.0000
  S   S415      1.0  0.66986  0.99139  0.28022  1.0000
  H   H3222     1.0  0.70951  0.33764  0.29426  1.0000
  C   C1832     1.0  0.49052  0.28536  0.16122  1.0000
  H   H3223     1.0  0.52369  0.26923  0.02480  1.0000
  H   H3224     1.0  0.71427  0.33428  0.09069  1.0000
  H   H3225     1.0  0.53941  0.21653  0.03176  1.0000
  C   C1833     1.0  0.48671  0.15799  0.14549  1.0000
  C   C1834     1.0  0.58149  0.32953  0.16868  1.0000
  H   H3226     1.0  0.51575  0.18758  0.05434  1.0000
  H   H3227     1.0  0.61468  0.19114  0.10714  1.0000
  Fe  Fe209     1.0  0.49252  0.31490  0.19305  1.0000
  H   H3228     1.0  0.51941  0.22751  0.14123  1.0000
  C   C1835     1.0  0.61445  0.33326  0.16761  1.0000
  H   H3229     1.0  0.48505  0.16365  0.07122  1.0000
  H   H3230     1.0  0.53855  0.42263  0.19422  1.0000
  C   C1836     1.0  0.72131  0.20170  0.06638  1.0000
  H   H3231     1.0  0.71709  0.40379  0.28824  1.0000
  N   N101      1.0  0.55280  0.17671  0.12938  1.0000
  C   C1837     1.0  0.56979  0.17894  0.11406  1.0000
  C   C1838     1.0  0.53726  0.17151  0.12178  1.0000
  C   C1839     1.0  0.54549  0.19559  0.13560  1.0000
  C   C1840     1.0  0.55779  0.16246  0.14629  1.0000
  C   C1841     1.0  0.56697  0.14233  0.14278  1.0000
  C   C1842     1.0  0.58624  0.18601  0.11921  1.0000
  C   C1843     1.0  0.52670  0.19711  0.14996  1.0000
  C   C1844     1.0  0.54330  0.15942  0.10589  1.0000
  C   C1845     1.0  0.52644  0.15244  0.10218  1.0000
  C   C1846     1.0  0.57254  0.12982  0.16077  1.0000
  C   C1847     1.0  0.60334  0.18546  0.10336  1.0000
  C   C1848     1.0  0.52060  0.21710  0.15436  1.0000
  H   H3232     1.0  0.56533  0.18907  0.10167  1.0000
  H   H3233     1.0  0.57587  0.16558  0.10874  1.0000
  H   H3234     1.0  0.52770  0.16420  0.13344  1.0000
  H   H3235     1.0  0.52811  0.18444  0.11563  1.0000
  H   H3236     1.0  0.54342  0.20680  0.12310  1.0000
  H   H3237     1.0  0.55598  0.19954  0.14234  1.0000
  H   H3238     1.0  0.56715  0.16764  0.15344  1.0000
  H   H3239     1.0  0.54490  0.16068  0.15700  1.0000
  H   H3240     1.0  0.57994  0.14236  0.13198  1.0000
  H   H3241     1.0  0.55674  0.13566  0.13842  1.0000
  H   H3242     1.0  0.58194  0.20090  0.12137  1.0000
  H   H3243     1.0  0.59090  0.17720  0.13209  1.0000
  H   H3244     1.0  0.52835  0.18749  0.16345  1.0000
  H   H3245     1.0  0.51508  0.19367  0.14449  1.0000
  H   H3246     1.0  0.54918  0.16808  0.09259  1.0000
  H   H3247     1.0  0.55419  0.14698  0.10917  1.0000
  H   H3248     1.0  0.51521  0.16450  0.09847  1.0000
  H   H3249     1.0  0.53100  0.14455  0.09025  1.0000
  H   H3250     1.0  0.52057  0.14285  0.11476  1.0000
  H   H3251     1.0  0.58299  0.13559  0.16589  1.0000
  H   H3252     1.0  0.55991  0.12862  0.17195  1.0000
  H   H3253     1.0  0.57904  0.11544  0.15791  1.0000
  H   H3254     1.0  0.60898  0.17077  0.10101  1.0000
  H   H3255     1.0  0.70671  0.23534  0.98458  1.0000
  C   C1849     1.0  0.68508  0.46989  0.15235  1.0000
  H   H3256     1.0  0.52125  0.43941  0.20608  1.0000
  H   H3257     1.0  0.59839  0.29872  0.15296  1.0000
  C   C1850     1.0  0.52426  0.43140  0.19428  1.0000
  H   H3258     1.0  0.56571  0.27902  0.28807  1.0000
  C   C1851     1.0  0.72234  0.17686  0.01936  1.0000
  C   C1852     1.0  0.49951  0.97999  0.22891  1.0000
  H   H3259     1.0  0.59741  0.26128  0.27933  1.0000
  H   H3260     1.0  0.61567  0.28252  0.12604  1.0000
  C   C1853     1.0  0.69262  0.25033  0.01699  1.0000
  H   H3261     1.0  0.55689  0.25098  0.01668  1.0000
  H   H3262     1.0  0.71303  0.31444  0.13182  1.0000
  H   H3263     1.0  0.71101  0.09659  0.25483  1.0000
  H   H3264     1.0  0.49083  0.27272  0.03536  1.0000
  H   H3265     1.0  0.72340  0.35252  0.11067  1.0000
  S   S416      1.0  0.48702  0.24332  0.07548  1.0000
  N   N102      1.0  0.71480  0.30414  0.09456  1.0000
  H   H3266     1.0  0.48817  0.00503  0.18741  1.0000
  C   C1854     1.0  0.54826  0.32294  0.17256  1.0000
  H   H3267     1.0  0.55281  0.30740  0.17501  1.0000
  H   H3268     1.0  0.54486  0.32790  0.18629  1.0000
  N   N103      1.0  0.49423  0.00116  0.22526  1.0000
  H   H3269     1.0  0.72285  0.34310  0.13533  1.0000
  C   C1855     1.0  0.71259  0.26864  0.10662  1.0000
  H   H3270     1.0  0.49315  0.25182  0.13461  1.0000
  H   H3271     1.0  0.54727  0.26457  0.05479  1.0000
  S   S417      1.0  0.50249  0.28980  0.17790  1.0000
  H   H3272     1.0  0.72230  0.35650  0.26077  1.0000
  H   H3273     1.0  0.49126  0.23986  0.03654  1.0000
  S   S418      1.0  0.48988  0.22092  0.11905  1.0000
  H   H3274     1.0  0.51092  0.16932  0.19425  1.0000
  C   C1856     1.0  0.50869  0.15795  0.20652  1.0000
  H   H3275     1.0  0.53768  0.14354  0.20066  1.0000
  H   H3276     1.0  0.71317  0.37283  0.28336  1.0000
  H   H3277     1.0  0.53805  0.31119  0.27328  1.0000
  H   H3278     1.0  0.51066  0.22730  0.28250  1.0000
  H   H3279     1.0  0.72098  0.01923  0.21490  1.0000
  H   H3280     1.0  0.50358  0.29747  0.08019  1.0000
  H   H3281     1.0  0.49891  0.35340  0.13618  1.0000
  C   C1857     1.0  0.48993  0.26809  0.02220  1.0000
  H   H3282     1.0  0.70124  0.34901  0.12591  1.0000
  H   H3283     1.0  0.72906  0.07562  0.21585  1.0000
  H   H3284     1.0  0.72006  0.28716  0.12137  1.0000
  H   H3285     1.0  0.48729  0.97356  0.23735  1.0000
  C   C1858     1.0  0.50922  0.00993  0.21068  1.0000
  H   H3286     1.0  0.69969  0.10477  0.29523  1.0000
  H   H3287     1.0  0.48554  0.33570  0.13501  1.0000
  H   H3288     1.0  0.51936  0.02793  0.22518  1.0000
  H   H3289     1.0  0.70743  0.24074  0.12049  1.0000
  S   S419      1.0  0.67433  0.03823  0.28864  1.0000
  H   H3290     1.0  0.70197  0.32334  0.26299  1.0000
  H   H3291     1.0  0.50266  0.97440  0.21550  1.0000
  S   S420      1.0  0.48585  0.19817  0.08664  1.0000
  H   H3292     1.0  0.54625  0.06893  0.28576  1.0000
  C   C1859     1.0  0.70550  0.25504  0.12407  1.0000
  H   H3293     1.0  0.50198  0.38543  0.16110  1.0000
  H   H3294     1.0  0.69350  0.33581  0.07094  1.0000
  H   H3295     1.0  0.72973  0.27603  0.97069  1.0000
  H   H3296     1.0  0.71500  0.40358  0.17938  1.0000
  C   C1860     1.0  0.72618  0.37385  0.28821  1.0000
  H   H3297     1.0  0.67738  0.45896  0.24366  1.0000
  H   H3298     1.0  0.71327  0.98360  0.15623  1.0000
  H   H3299     1.0  0.48392  0.39822  0.22367  1.0000
  H   H3300     1.0  0.72380  0.06482  0.28398  1.0000
  C   C1861     1.0  0.48944  0.43028  0.19662  1.0000
  H   H3301     1.0  0.71598  0.32583  0.05867  1.0000
  C   C1862     1.0  0.48158  0.41035  0.16746  1.0000
  H   H3302     1.0  0.72269  0.24813  0.98898  1.0000
  H   H3303     1.0  0.49026  0.39288  0.19297  1.0000
  C   C1863     1.0  0.52703  0.27791  0.29578  1.0000
  H   H3304     1.0  0.72771  0.26304  0.10210  1.0000
  C   C1864     1.0  0.72039  0.97383  0.18418  1.0000
  C   C1865     1.0  0.72334  0.33314  0.28543  1.0000
  H   H3305     1.0  0.53076  0.21048  0.28963  1.0000
  H   H3306     1.0  0.48208  0.98533  0.26441  1.0000
  H   H3307     1.0  0.53002  0.97470  0.22836  1.0000
  C   C1866     1.0  0.58828  0.25586  0.29251  1.0000
  C   C1867     1.0  0.72851  0.97943  0.22188  1.0000
  H   H3308     1.0  0.72994  0.01075  0.23677  1.0000
  H   H3309     1.0  0.48529  0.15855  0.04834  1.0000
  Fe  Fe210     1.0  0.48166  0.32625  0.23135  1.0000
  H   H3310     1.0  0.51864  0.13319  0.29771  1.0000
  C   C1868     1.0  0.66504  0.31239  0.96486  1.0000
  N   N104      1.0  0.68012  0.97857  0.34038  1.0000
  S   S421      1.0  0.50479  0.20152  0.32747  1.0000
  C   C1869     1.0  0.48496  0.15852  0.44222  1.0000
  H   H3311     1.0  0.61952  0.18366  0.46359  1.0000
  Fe  Fe211     1.0  0.50053  0.18568  0.35700  1.0000
  S   S422      1.0  0.52235  0.17157  0.37551  1.0000
  H   H3312     1.0  0.59478  0.13358  0.39071  1.0000
  C   C1870     1.0  0.67477  0.24335  0.45486  1.0000
  C   C1871     1.0  0.72125  0.39083  0.29831  1.0000
  Fe  Fe212     1.0  0.70441  0.12989  0.56363  1.0000
  S   S423      1.0  0.68097  0.12615  0.55040  1.0000
  H   H3313     1.0  0.54995  0.16355  0.31179  1.0000
  Fe  Fe213     1.0  0.69519  0.17330  0.55439  1.0000
  S   S424      1.0  0.67028  0.17229  0.54127  1.0000
  H   H3314     1.0  0.72567  0.27534  0.45337  1.0000
  Fe  Fe214     1.0  0.66372  0.14922  0.56566  1.0000
  S   S425      1.0  0.63603  0.14243  0.58338  1.0000
  Fe  Fe215     1.0  0.68970  0.14945  0.52722  1.0000
  S   S426      1.0  0.69646  0.14978  0.49559  1.0000
  S   S427      1.0  0.68681  0.15204  0.57993  1.0000
  S   S428      1.0  0.71490  0.15144  0.53930  1.0000
  H   H3315     1.0  0.63390  0.23204  0.45467  1.0000
  Fe  Fe216     1.0  0.62782  0.17986  0.37584  1.0000
  S   S429      1.0  0.63320  0.14918  0.38867  1.0000
  S   S430      1.0  0.60277  0.19620  0.36206  1.0000
  Fe  Fe217     1.0  0.66759  0.18558  0.37936  1.0000
  S   S431      1.0  0.67611  0.15524  0.39198  1.0000
  S   S432      1.0  0.68430  0.20964  0.37280  1.0000
  Fe  Fe218     1.0  0.66188  0.14835  0.37036  1.0000
  S   S433      1.0  0.67561  0.12886  0.34914  1.0000
  Fe  Fe219     1.0  0.64684  0.15869  0.40925  1.0000
  S   S434      1.0  0.63924  0.15060  0.44103  1.0000
  S   S435      1.0  0.65577  0.17859  0.35647  1.0000
  S   S436      1.0  0.63907  0.18948  0.39771  1.0000
  C   C1872     1.0  0.63680  0.16245  0.32144  1.0000
  C   C1873     1.0  0.70515  0.20922  0.38143  1.0000
  H   H3316     1.0  0.71024  0.20681  0.47501  1.0000
  H   H3317     1.0  0.67782  0.20697  0.49258  1.0000
  C   C1874     1.0  0.70867  0.39719  0.63098  1.0000
  C   C1875     1.0  0.54335  0.08866  0.30522  1.0000
  C   C1876     1.0  0.56366  0.05627  0.30660  1.0000
  C   C1877     1.0  0.72100  0.43052  0.56482  1.0000
  C   C1878     1.0  0.65121  0.08169  0.33554  1.0000
  C   C1879     1.0  0.64850  0.08466  0.35418  1.0000
  C   C1880     1.0  0.65508  0.09966  0.35849  1.0000
  C   C1881     1.0  0.66454  0.11174  0.34416  1.0000
  C   C1882     1.0  0.66675  0.10910  0.32546  1.0000
  C   C1883     1.0  0.66000  0.09421  0.32113  1.0000
  H   H3318     1.0  0.65346  0.10146  0.37297  1.0000
  H   H3319     1.0  0.67373  0.11865  0.31434  1.0000
  H   H3320     1.0  0.53985  0.23841  0.34420  1.0000
  H   H3321     1.0  0.60977  0.07685  0.31509  1.0000
  H   H3322     1.0  0.70594  0.04230  0.30550  1.0000
  H   H3323     1.0  0.58757  0.10438  0.33698  1.0000
  C   C1884     1.0  0.68610  0.98358  0.35682  1.0000
  C   C1885     1.0  0.51807  0.12082  0.32697  1.0000
  H   H3324     1.0  0.59207  0.26054  0.30441  1.0000
  H   H3325     1.0  0.61592  0.00849  0.35316  1.0000
  C   C1886     1.0  0.55329  0.13713  0.62226  1.0000
  C   C1887     1.0  0.68032  0.14923  0.48094  1.0000
  C   C1888     1.0  0.68699  0.14941  0.46164  1.0000
  C   C1889     1.0  0.67456  0.15004  0.44924  1.0000
  C   C1890     1.0  0.65537  0.14984  0.45615  1.0000
  C   C1891     1.0  0.64879  0.14900  0.47557  1.0000
  C   C1892     1.0  0.66114  0.14897  0.48790  1.0000
  H   H3326     1.0  0.70186  0.14916  0.45620  1.0000
  H   H3327     1.0  0.67988  0.15042  0.43439  1.0000
  H   H3328     1.0  0.63401  0.14863  0.48107  1.0000
  H   H3329     1.0  0.65585  0.14863  0.50276  1.0000
  C   C1893     1.0  0.52478  0.24476  0.34410  1.0000
  H   H3330     1.0  0.49309  0.15252  0.61779  1.0000
  C   C1894     1.0  0.62569  0.17290  0.60189  1.0000
  C   C1895     1.0  0.62539  0.15383  0.60269  1.0000
  C   C1896     1.0  0.69558  0.97884  0.32331  1.0000
  H   H3331     1.0  0.65953  0.20278  0.57308  1.0000
  C   C1897     1.0  0.48527  0.19958  0.42351  1.0000
  H   H3332     1.0  0.63347  0.18059  0.58966  1.0000
  H   H3333     1.0  0.69641  0.35475  0.58934  1.0000
  H   H3334     1.0  0.52229  0.10715  0.33595  1.0000
  H   H3335     1.0  0.50161  0.13793  0.42500  1.0000
  H   H3336     1.0  0.64138  0.16126  0.30636  1.0000
  H   H3337     1.0  0.72856  0.24056  0.49756  1.0000
  S   S437      1.0  0.64348  0.06217  0.33088  1.0000
  H   H3338     1.0  0.51436  0.13157  0.45482  1.0000
  H   H3339     1.0  0.70527  0.05686  0.55180  1.0000
  H   H3340     1.0  0.56017  0.15385  0.34364  1.0000
  C   C1898     1.0  0.52398  0.13612  0.33454  1.0000
  C   C1899     1.0  0.54443  0.17893  0.37203  1.0000
  C   C1900     1.0  0.55801  0.16884  0.38296  1.0000
  C   C1901     1.0  0.57588  0.17411  0.38021  1.0000
  C   C1902     1.0  0.58034  0.18942  0.36643  1.0000
  C   C1903     1.0  0.56668  0.19963  0.35563  1.0000
  C   C1904     1.0  0.54878  0.19443  0.35844  1.0000
  H   H3341     1.0  0.55471  0.15691  0.39361  1.0000
  H   H3342     1.0  0.58620  0.16647  0.38883  1.0000
  H   H3343     1.0  0.57006  0.21152  0.34498  1.0000
  H   H3344     1.0  0.53841  0.20228  0.34999  1.0000
  H   H3345     1.0  0.66193  0.09214  0.30673  1.0000
  H   H3346     1.0  0.60930  0.10357  0.36550  1.0000
  H   H3347     1.0  0.64165  0.07508  0.36542  1.0000
  C   C1905     1.0  0.68766  0.39525  0.60995  1.0000
  H   H3348     1.0  0.50814  0.08855  0.32042  1.0000
  H   H3349     1.0  0.61226  0.10121  0.33666  1.0000
  C   C1906     1.0  0.57007  0.15921  0.33104  1.0000
  N   N105      1.0  0.54210  0.17349  0.61785  1.0000
  C   C1907     1.0  0.70500  0.42518  0.58068  1.0000
  H   H3350     1.0  0.51459  0.16654  0.63107  1.0000
  C   C1908     1.0  0.72362  0.20697  0.49913  1.0000
  H   H3351     1.0  0.50941  0.16052  0.41888  1.0000
  H   H3352     1.0  0.51990  0.17473  0.58780  1.0000
  H   H3353     1.0  0.51720  0.23412  0.34172  1.0000
  H   H3354     1.0  0.60739  0.16781  0.32053  1.0000
  C   C1909     1.0  0.61492  0.14405  0.61843  1.0000
  Fe  Fe220     1.0  0.48514  0.18423  0.32201  1.0000
  H   H3355     1.0  0.67579  0.43151  0.61043  1.0000
  H   H3356     1.0  0.69516  0.43839  0.58321  1.0000
  C   C1910     1.0  0.71628  0.23208  0.55753  1.0000
  C   C1911     1.0  0.73023  0.31868  0.32633  1.0000
  C   C1912     1.0  0.61484  0.18233  0.61634  1.0000
  H   H3357     1.0  0.72414  0.40310  0.59515  1.0000
  H   H3358     1.0  0.54208  0.08695  0.32071  1.0000
  S   S438      1.0  0.70077  0.20326  0.55183  1.0000
  H   H3359     1.0  0.53904  0.20352  0.61722  1.0000
  H   H3360     1.0  0.66299  0.27143  0.46156  1.0000
  C   C1913     1.0  0.51710  0.16518  0.60149  1.0000
  H   H3361     1.0  0.63996  0.97974  0.35287  1.0000
  H   H3362     1.0  0.64666  0.99705  0.36307  1.0000
  H   H3363     1.0  0.73000  0.06961  0.60460  1.0000
  C   C1914     1.0  0.65628  0.21529  0.58018  1.0000
  H   H3364     1.0  0.69717  0.07601  0.31015  1.0000
  H   H3365     1.0  0.68380  0.20647  0.45836  1.0000
  H   H3366     1.0  0.62107  0.13682  0.31090  1.0000
  H   H3367     1.0  0.61472  0.20535  0.47280  1.0000
  C   C1915     1.0  0.71282  0.41495  0.59880  1.0000
  H   H3368     1.0  0.70872  0.38372  0.58708  1.0000
  C   C1916     1.0  0.67311  0.08999  0.61654  1.0000
  H   H3369     1.0  0.64842  0.10193  0.55447  1.0000
  C   C1917     1.0  0.59776  0.11896  0.38784  1.0000
  H   H3370     1.0  0.54146  0.29609  0.30637  1.0000
  C   C1918     1.0  0.59187  0.13032  0.35425  1.0000
  H   H3371     1.0  0.51188  0.24531  0.30664  1.0000
  H   H3372     1.0  0.53948  0.13337  0.33409  1.0000
  H   H3373     1.0  0.58160  0.16338  0.60435  1.0000
  H   H3374     1.0  0.70513  0.23890  0.37139  1.0000
  C   C1919     1.0  0.49314  0.21384  0.40710  1.0000
  H   H3375     1.0  0.65464  0.10292  0.58624  1.0000
  H   H3376     1.0  0.56453  0.04174  0.30407  1.0000
  C   C1920     1.0  0.64564  0.22052  0.45071  1.0000
  H   H3377     1.0  0.69332  0.00977  0.31474  1.0000
  S   S439      1.0  0.72142  0.10502  0.58027  1.0000
  N   N106      1.0  0.59804  0.13046  0.33336  1.0000
  C   C1921     1.0  0.61715  0.15741  0.32874  1.0000
  H   H3378     1.0  0.63607  0.18850  0.47614  1.0000
  H   H3379     1.0  0.67513  0.18872  0.45147  1.0000
  H   H3380     1.0  0.67687  0.08835  0.58126  1.0000
  C   C1922     1.0  0.72914  0.20101  0.57249  1.0000
  H   H3381     1.0  0.66022  0.99171  0.32156  1.0000
  C   C1923     1.0  0.71659  0.21250  0.56127  1.0000
  H   H3382     1.0  0.70675  0.24110  0.54872  1.0000
  C   C1924     1.0  0.52677  0.12083  0.30583  1.0000
  H   H3383     1.0  0.52579  0.15120  0.60010  1.0000
  H   H3384     1.0  0.71361  0.19446  0.61094  1.0000
  H   H3385     1.0  0.66681  0.00779  0.33285  1.0000
  H   H3386     1.0  0.70941  0.18087  0.45358  1.0000
  H   H3387     1.0  0.61925  0.12442  0.36395  1.0000
  H   H3388     1.0  0.49325  0.15811  0.59285  1.0000
  C   C1925     1.0  0.60100  0.08871  0.30718  1.0000
  H   H3389     1.0  0.71411  0.12381  0.30851  1.0000
  C   C1926     1.0  0.71950  0.08180  0.57879  1.0000
  H   H3390     1.0  0.69025  0.97606  0.31126  1.0000
  H   H3391     1.0  0.63386  0.98357  0.30372  1.0000
  H   H3392     1.0  0.72076  0.24239  0.46383  1.0000
  H   H3393     1.0  0.62053  0.10777  0.30371  1.0000
  H   H3394     1.0  0.64718  0.15302  0.32967  1.0000
  H   H3395     1.0  0.71390  0.20035  0.43499  1.0000
  H   H3396     1.0  0.68800  0.08743  0.60909  1.0000
  H   H3397     1.0  0.70929  0.17961  0.39286  1.0000
  H   H3398     1.0  0.71491  0.07155  0.32503  1.0000
  H   H3399     1.0  0.70089  0.15566  0.62072  1.0000
  H   H3400     1.0  0.62809  0.12736  0.33282  1.0000
  C   C1927     1.0  0.60596  0.11858  0.36710  1.0000
  C   C1928     1.0  0.60526  0.10760  0.30915  1.0000
  H   H3401     1.0  0.55938  0.24138  0.31414  1.0000
  H   H3402     1.0  0.68925  0.23519  0.45190  1.0000
  H   H3403     1.0  0.54830  0.18296  0.32367  1.0000
  N   N107      1.0  0.53336  0.26027  0.30914  1.0000
  H   H3404     1.0  0.49952  0.22365  0.41248  1.0000
  C   C1929     1.0  0.70666  0.21203  0.48857  1.0000
  H   H3405     1.0  0.64143  0.22213  0.57938  1.0000
  H   H3406     1.0  0.65982  0.06271  0.57740  1.0000
  H   H3407     1.0  0.50749  0.26753  0.32845  1.0000
  H   H3408     1.0  0.71702  0.27114  0.47835  1.0000
  C   C1930     1.0  0.52759  0.24367  0.30405  1.0000
  H   H3409     1.0  0.60816  0.11048  0.39665  1.0000
  C   C1931     1.0  0.71608  0.04454  0.57744  1.0000
  C   C1932     1.0  0.71079  0.05956  0.56331  1.0000
  H   H3410     1.0  0.72048  0.35393  0.31302  1.0000
  H   H3411     1.0  0.70500  0.18070  0.43052  1.0000
  H   H3412     1.0  0.66687  0.23636  0.46801  1.0000
  H   H3413     1.0  0.63659  0.17718  0.32300  1.0000
  H   H3414     1.0  0.72674  0.03680  0.60349  1.0000
  H   H3415     1.0  0.61449  0.12935  0.61904  1.0000
  C   C1933     1.0  0.62605  0.19498  0.46625  1.0000
  H   H3416     1.0  0.67770  0.40340  0.60048  1.0000
  H   H3417     1.0  0.58951  0.14802  0.30797  1.0000
  C   C1934     1.0  0.64484  0.99352  0.34973  1.0000
  H   H3418     1.0  0.70894  0.16848  0.59792  1.0000
  C   C1935     1.0  0.67909  0.19902  0.60245  1.0000
  H   H3419     1.0  0.64862  0.19988  0.60759  1.0000
  H   H3420     1.0  0.51706  0.13616  0.34942  1.0000
  H   H3421     1.0  0.63254  0.07473  0.61304  1.0000
  H   H3422     1.0  0.72242  0.03821  0.32162  1.0000
  C   C1936     1.0  0.73007  0.11468  0.33097  1.0000
  H   H3423     1.0  0.53943  0.13323  0.62257  1.0000
  H   H3424     1.0  0.68536  0.20846  0.51388  1.0000
  C   C1937     1.0  0.51899  0.14252  0.44291  1.0000
  H   H3425     1.0  0.51758  0.23629  0.37425  1.0000
  C   C1938     1.0  0.68483  0.42501  0.62128  1.0000
  C   C1939     1.0  0.71229  0.22606  0.37884  1.0000
  C   C1940     1.0  0.71461  0.19266  0.39086  1.0000
  H   H3426     1.0  0.57819  0.12506  0.35907  1.0000
  H   H3427     1.0  0.67853  0.38882  0.62262  1.0000
  H   H3428     1.0  0.68920  0.20746  0.59284  1.0000
  H   H3429     1.0  0.68085  0.18612  0.59626  1.0000
  H   H3430     1.0  0.48692  0.17672  0.60665  1.0000
  C   C1941     1.0  0.65880  0.20943  0.60075  1.0000
  H   H3431     1.0  0.57825  0.16811  0.33537  1.0000
  C   C1942     1.0  0.62894  0.00830  0.34236  1.0000
  C   C1943     1.0  0.72480  0.06679  0.59296  1.0000
  H   H3432     1.0  0.70916  0.36921  0.60984  1.0000
  H   H3433     1.0  0.58455  0.11291  0.39195  1.0000
  H   H3434     1.0  0.69746  0.41616  0.57562  1.0000
  H   H3435     1.0  0.63286  0.02256  0.33917  1.0000
  Fe  Fe221     1.0  0.72767  0.99361  0.59036  1.0000
  C   C1944     1.0  0.72305  0.04822  0.59232  1.0000
  H   H3436     1.0  0.62584  0.00489  0.32946  1.0000
  C   C1945     1.0  0.70424  0.99712  0.31688  1.0000
  C   C1946     1.0  0.66469  0.24565  0.43785  1.0000
  C   C1947     1.0  0.61667  0.13718  0.32620  1.0000
  C   C1948     1.0  0.67899  0.11993  0.62462  1.0000
  C   C1949     1.0  0.52800  0.29677  0.30147  1.0000
  H   H3437     1.0  0.70189  0.22749  0.48611  1.0000
  H   H3438     1.0  0.72628  0.19142  0.50396  1.0000
  C   C1950     1.0  0.69280  0.22698  0.61977  1.0000
  N   N108      1.0  0.65942  0.22816  0.43408  1.0000
  C   C1951     1.0  0.70438  0.18986  0.44090  1.0000
  H   H3439     1.0  0.54129  0.12402  0.30384  1.0000
  C   C1952     1.0  0.64915  0.23397  0.41744  1.0000
  C   C1953     1.0  0.67687  0.21377  0.42938  1.0000
  C   C1954     1.0  0.68414  0.19971  0.44629  1.0000
  C   C1955     1.0  0.69979  0.37862  0.60049  1.0000
  C   C1956     1.0  0.65905  0.24577  0.39963  1.0000
  H   H3440     1.0  0.65183  0.25671  0.43956  1.0000
  H   H3441     1.0  0.49680  0.10898  0.30668  1.0000
  H   H3442     1.0  0.72954  0.98428  0.29953  1.0000
  C   C1957     1.0  0.64881  0.24810  0.38300  1.0000
  C   C1958     1.0  0.65305  0.07773  0.57679  1.0000
  H   H3443     1.0  0.67846  0.36041  0.60898  1.0000
  C   C1959     1.0  0.66196  0.08801  0.58825  1.0000
  H   H3444     1.0  0.68443  0.26044  0.47044  1.0000
  H   H3445     1.0  0.63488  0.24231  0.42144  1.0000
  H   H3446     1.0  0.64671  0.22129  0.41292  1.0000
  H   H3447     1.0  0.67451  0.20484  0.41985  1.0000
  H   H3448     1.0  0.68863  0.22100  0.42107  1.0000
  H   H3449     1.0  0.55743  0.26367  0.32029  1.0000
  H   H3450     1.0  0.58905  0.14476  0.35757  1.0000
  H   H3451     1.0  0.62583  0.21017  0.43824  1.0000
  H   H3452     1.0  0.64704  0.19352  0.44118  1.0000
  H   H3453     1.0  0.67389  0.23899  0.39571  1.0000
  H   H3454     1.0  0.65891  0.26019  0.40205  1.0000
  H   H3455     1.0  0.54696  0.18979  0.58991  1.0000
  H   H3456     1.0  0.63771  0.07838  0.58211  1.0000
  H   H3457     1.0  0.67809  0.37503  0.58596  1.0000
  H   H3458     1.0  0.69384  0.18767  0.50310  1.0000
  C   C1960     1.0  0.72804  0.24018  0.56529  1.0000
  C   C1961     1.0  0.51601  0.24937  0.36362  1.0000
  H   H3459     1.0  0.63431  0.25621  0.38597  1.0000
  H   H3460     1.0  0.65673  0.25579  0.37024  1.0000
  H   H3461     1.0  0.64790  0.23417  0.38000  1.0000
  H   H3462     1.0  0.53213  0.13611  0.43434  1.0000
  H   H3463     1.0  0.56381  0.05558  0.32175  1.0000
  N   N109      1.0  0.68388  0.19404  0.62198  1.0000
  C   C1962     1.0  0.71264  0.07806  0.56388  1.0000
  H   H3464     1.0  0.66910  0.17051  0.62562  1.0000
  H   H3465     1.0  0.64885  0.07944  0.54817  1.0000
  H   H3466     1.0  0.48766  0.17971  0.40523  1.0000
  H   H3467     1.0  0.57630  0.06186  0.29806  1.0000
  H   H3468     1.0  0.72878  0.44002  0.56895  1.0000
  C   C1963     1.0  0.71023  0.97936  0.37810  1.0000
  C   C1964     1.0  0.65541  0.08691  0.55606  1.0000
  H   H3469     1.0  0.52756  0.27379  0.33371  1.0000
  H   H3470     1.0  0.61442  0.19728  0.61528  1.0000
  H   H3471     1.0  0.69875  0.98142  0.39032  1.0000
  H   H3472     1.0  0.68052  0.05638  0.59836  1.0000
  C   C1965     1.0  0.68992  0.20326  0.50027  1.0000
  H   H3473     1.0  0.56146  0.13813  0.60778  1.0000
  H   H3474     1.0  0.66571  0.22547  0.57261  1.0000
  C   C1966     1.0  0.55326  0.17630  0.59813  1.0000
  C   C1967     1.0  0.49633  0.16304  0.60495  1.0000
  H   H3475     1.0  0.53266  0.23036  0.31324  1.0000
  C   C1968     1.0  0.60052  0.11043  0.33006  1.0000
  C   C1969     1.0  0.57461  0.17655  0.59648  1.0000
  C   C1970     1.0  0.63641  0.20444  0.44769  1.0000
  C   C1971     1.0  0.58456  0.17808  0.57600  1.0000
  H   H3476     1.0  0.55239  0.16518  0.59042  1.0000
  C   C1972     1.0  0.54557  0.06862  0.30092  1.0000
  H   H3477     1.0  0.67464  0.25166  0.42564  1.0000
  H   H3478     1.0  0.71512  0.43795  0.55203  1.0000
  H   H3479     1.0  0.61333  0.15898  0.34376  1.0000
  H   H3480     1.0  0.57689  0.18873  0.60189  1.0000
  H   H3481     1.0  0.67063  0.08607  0.54983  1.0000
  H   H3482     1.0  0.72019  0.42500  0.60257  1.0000
  C   C1973     1.0  0.55829  0.17182  0.31688  1.0000
  C   C1974     1.0  0.67702  0.26249  0.45829  1.0000
  S   S440      1.0  0.71272  0.02171  0.57635  1.0000
  H   H3483     1.0  0.57822  0.19116  0.56735  1.0000
  H   H3484     1.0  0.59974  0.17850  0.57518  1.0000
  H   H3485     1.0  0.58365  0.16565  0.57010  1.0000
  C   C1975     1.0  0.58297  0.14239  0.32254  1.0000
  H   H3486     1.0  0.51363  0.18842  0.61557  1.0000
  H   H3487     1.0  0.70868  0.08943  0.55278  1.0000
  H   H3488     1.0  0.57297  0.13363  0.32082  1.0000
  H   H3489     1.0  0.65225  0.21533  0.46344  1.0000
  H   H3490     1.0  0.71859  0.21299  0.51228  1.0000
  C   C1976     1.0  0.52283  0.26258  0.32867  1.0000
  H   H3491     1.0  0.48765  0.06701  0.31815  1.0000
  H   H3492     1.0  0.66850  0.11859  0.60012  1.0000
  C   C1977     1.0  0.50838  0.09653  0.30581  1.0000
  H   H3493     1.0  0.65826  0.05088  0.61025  1.0000
  H   H3494     1.0  0.55697  0.09377  0.29942  1.0000
  C   C1978     1.0  0.72917  0.26760  0.46717  1.0000
  H   H3495     1.0  0.70974  0.10200  0.32321  1.0000
  H   H3496     1.0  0.68551  0.26990  0.44575  1.0000
  H   H3497     1.0  0.52229  0.15416  0.44848  1.0000
  Fe  Fe222     1.0  0.64766  0.05532  0.30146  1.0000
  H   H3498     1.0  0.71619  0.31886  0.32289  1.0000
  H   H3499     1.0  0.72744  0.25529  0.56252  1.0000
  C   C1979     1.0  0.52154  0.17367  0.61735  1.0000
  H   H3500     1.0  0.52322  0.25969  0.36718  1.0000
  C   C1980     1.0  0.50374  0.15004  0.43063  1.0000
  C   C1981     1.0  0.66348  0.99334  0.33516  1.0000
  S   S441      1.0  0.48281  0.16694  0.35093  1.0000
  H   H3501     1.0  0.50429  0.20655  0.39708  1.0000
  C   C1982     1.0  0.68732  0.36653  0.59595  1.0000
  H   H3502     1.0  0.72994  0.18590  0.57500  1.0000
  H   H3503     1.0  0.55768  0.18974  0.62869  1.0000
  H   H3504     1.0  0.68847  0.99847  0.35355  1.0000
  H   H3505     1.0  0.69243  0.05475  0.62664  1.0000
  H   H3506     1.0  0.51972  0.15022  0.32618  1.0000
  H   H3507     1.0  0.70825  0.22195  0.61867  1.0000
  H   H3508     1.0  0.68945  0.23196  0.60539  1.0000
  C   C1983     1.0  0.70917  0.04704  0.31763  1.0000
  C   C1984     1.0  0.72098  0.11019  0.31593  1.0000
  H   H3509     1.0  0.72897  0.32981  0.33487  1.0000
  H   H3510     1.0  0.50239  0.12365  0.32875  1.0000
  N   N110      1.0  0.52724  0.10300  0.29842  1.0000
  C   C1985     1.0  0.64072  0.08306  0.61829  1.0000
  C   C1986     1.0  0.66930  0.05907  0.61068  1.0000
  C   C1987     1.0  0.68359  0.02822  0.62933  1.0000
  H   H3511     1.0  0.65520  0.22237  0.60710  1.0000
  N   N111      1.0  0.69850  0.40812  0.61526  1.0000
  C   C1988     1.0  0.66685  0.11162  0.61504  1.0000
  H   H3512     1.0  0.49710  0.19232  0.43100  1.0000
  C   C1989     1.0  0.48435  0.07654  0.30503  1.0000
  H   H3513     1.0  0.53358  0.06177  0.30912  1.0000
  H   H3514     1.0  0.48827  0.16732  0.45129  1.0000
  N   N112      1.0  0.66117  0.07991  0.60893  1.0000
  H   H3515     1.0  0.56758  0.17875  0.30470  1.0000
  H   H3516     1.0  0.51616  0.29998  0.31308  1.0000
  H   H3517     1.0  0.50071  0.25519  0.36425  1.0000
  H   H3518     1.0  0.71463  0.99312  0.37145  1.0000
  C   C1990     1.0  0.55435  0.25668  0.30950  1.0000
  C   C1991     1.0  0.71112  0.06784  0.31265  1.0000
  H   H3519     1.0  0.63404  0.09800  0.61423  1.0000
  H   H3520     1.0  0.69675  0.25489  0.62154  1.0000
  H   H3521     1.0  0.69743  0.04503  0.32966  1.0000
  C   C1992     1.0  0.67892  0.04963  0.62798  1.0000
  C   C1993     1.0  0.54301  0.18998  0.62673  1.0000
  C   C1994     1.0  0.55031  0.15574  0.62992  1.0000
  H   H3522     1.0  0.65195  0.11528  0.62182  1.0000
  H   H3523     1.0  0.71912  0.12268  0.34056  1.0000
  C   C1995     1.0  0.70447  0.18499  0.62053  1.0000
  H   H3524     1.0  0.67052  0.02234  0.63082  1.0000
  H   H3525     1.0  0.70926  0.38912  0.31012  1.0000
  H   H3526     1.0  0.67455  0.98308  0.36922  1.0000
  H   H3527     1.0  0.67411  0.13539  0.62333  1.0000
  H   H3528     1.0  0.69404  0.11730  0.61777  1.0000
  H   H3529     1.0  0.71219  0.99883  0.32751  1.0000
  H   H3530     1.0  0.69341  0.02433  0.61657  1.0000
  H   H3531     1.0  0.59716  0.11868  0.29985  1.0000
  C   C1996     1.0  0.68821  0.24410  0.62964  1.0000
  H   H3532     1.0  0.56586  0.10765  0.62906  1.0000
  C   C1997     1.0  0.71001  0.16603  0.61301  1.0000
  H   H3533     1.0  0.71918  0.38528  0.62611  1.0000
  H   H3534     1.0  0.72546  0.29818  0.35189  1.0000
  C   C1998     1.0  0.72859  0.22643  0.38589  1.0000
  H   H3535     1.0  0.58589  0.08784  0.31253  1.0000
  H   H3536     1.0  0.69254  0.43627  0.62213  1.0000
  H   H3537     1.0  0.48736  0.14941  0.40112  1.0000
  H   H3538     1.0  0.73107  0.41770  0.56134  1.0000
  C   C1999     1.0  0.73043  0.15700  0.61466  1.0000
  C   C2000     1.0  0.73108  0.19297  0.39766  1.0000
  H   H3539     1.0  0.48170  0.22224  0.39959  1.0000
  C   C2001     1.0  0.68140  0.21134  0.63085  1.0000
  H   H3540     1.0  0.67302  0.25044  0.63045  1.0000
  C   C2002     1.0  0.71792  0.99657  0.29825  1.0000
  Fe  Fe223     1.0  0.59317  0.99745  0.74671  1.0000
  H   H3541     1.0  0.51563  0.14789  0.67277  1.0000
  S   S442      1.0  0.57384  0.02446  0.75326  1.0000
  S   S443      1.0  0.62416  0.99771  0.73764  1.0000
  C   C2003     1.0  0.66085  0.45964  0.68903  1.0000
  C   C2004     1.0  0.55508  0.36888  0.81683  1.0000
  S   S444      1.0  0.71210  0.02317  0.83850  1.0000
  S   S445      1.0  0.70316  0.99123  0.87517  1.0000
  Fe  Fe224     1.0  0.69923  0.99689  0.84488  1.0000
  S   S446      1.0  0.67059  0.99755  0.83705  1.0000
  Fe  Fe225     1.0  0.71885  0.01587  0.86775  1.0000
  C   C2005     1.0  0.48708  0.40591  0.79809  1.0000
  H   H3542     1.0  0.67266  0.00418  0.91434  1.0000
  S   S447      1.0  0.64347  0.44530  0.75058  1.0000
  Fe  Fe226     1.0  0.61602  0.43722  0.76682  1.0000
  S   S448      1.0  0.61410  0.40812  0.78451  1.0000
  H   H3543     1.0  0.67360  0.31247  0.68180  1.0000
  C   C2006     1.0  0.63665  0.07780  0.63999  1.0000
  Fe  Fe227     1.0  0.58034  0.31671  0.77283  1.0000
  S   S449      1.0  0.56512  0.31345  0.80263  1.0000
  S   S450      1.0  0.58952  0.34334  0.75466  1.0000
  Fe  Fe228     1.0  0.57519  0.27723  0.76820  1.0000
  S   S451      1.0  0.56000  0.27090  0.79794  1.0000
  S   S452      1.0  0.57743  0.26224  0.74352  1.0000
  Fe  Fe229     1.0  0.54439  0.30064  0.79283  1.0000
  S   S453      1.0  0.51280  0.31099  0.79865  1.0000
  Fe  Fe230     1.0  0.58213  0.28417  0.80531  1.0000
  S   S454      1.0  0.59500  0.27262  0.83164  1.0000
  S   S455      1.0  0.55827  0.30628  0.76280  1.0000
  S   S456      1.0  0.59872  0.28805  0.77585  1.0000
  Fe  Fe231     1.0  0.70238  0.29485  0.89441  1.0000
  S   S457      1.0  0.67368  0.28763  0.89763  1.0000
  H   H3544     1.0  0.72780  0.25236  0.93623  1.0000
  Fe  Fe232     1.0  0.68778  0.33779  0.88549  1.0000
  S   S458      1.0  0.65781  0.33312  0.88894  1.0000
  S   S459      1.0  0.69416  0.36668  0.87022  1.0000
  Fe  Fe233     1.0  0.66455  0.31137  0.91418  1.0000
  S   S460      1.0  0.64414  0.30452  0.94113  1.0000
  Fe  Fe234     1.0  0.66975  0.30987  0.87225  1.0000
  S   S461      1.0  0.66142  0.30889  0.84460  1.0000
  S   S462      1.0  0.69361  0.31779  0.91214  1.0000
  S   S463      1.0  0.69938  0.31532  0.86772  1.0000
  Fe  Fe235     1.0  0.57461  0.13034  0.70096  1.0000
  S   S464      1.0  0.55901  0.14627  0.67760  1.0000
  S   S465      1.0  0.58991  0.10055  0.69839  1.0000
  Fe  Fe236     1.0  0.57010  0.16563  0.71886  1.0000
  S   S466      1.0  0.55465  0.18393  0.69666  1.0000
  S   S467      1.0  0.57495  0.17610  0.74416  1.0000
  Fe  Fe237     1.0  0.53876  0.16009  0.70012  1.0000
  S   S468      1.0  0.50678  0.16829  0.70429  1.0000
  Fe  Fe238     1.0  0.57621  0.16856  0.67615  1.0000
  S   S469      1.0  0.55298  0.14236  0.72377  1.0000
  S   S470      1.0  0.59309  0.15205  0.69808  1.0000
  H   H3545     1.0  0.49990  0.38555  0.78030  1.0000
  N   N113      1.0  0.53958  0.38022  0.78679  1.0000
  C   C2007     1.0  0.55941  0.42626  0.76139  1.0000
  C   C2008     1.0  0.50444  0.39643  0.78592  1.0000
  S   S471      1.0  0.58974  0.18515  0.64913  1.0000
  H   H3546     1.0  0.65524  0.26254  0.95893  1.0000
  C   C2009     1.0  0.70843  0.22268  0.90638  1.0000
  C   C2010     1.0  0.70930  0.24191  0.90452  1.0000
  H   H3547     1.0  0.69489  0.21804  0.91036  1.0000
  H   H3548     1.0  0.69652  0.25189  0.90734  1.0000
  C   C2011     1.0  0.57688  0.23818  0.74418  1.0000
  C   C2012     1.0  0.57533  0.23245  0.72761  1.0000
  C   C2013     1.0  0.57476  0.21350  0.72739  1.0000
  C   C2014     1.0  0.57606  0.20001  0.74369  1.0000
  C   C2015     1.0  0.57787  0.20570  0.76021  1.0000
  C   C2016     1.0  0.57807  0.22475  0.76053  1.0000
  H   H3549     1.0  0.57447  0.24274  0.71488  1.0000
  H   H3550     1.0  0.57344  0.20930  0.71458  1.0000
  H   H3551     1.0  0.57899  0.19533  0.77285  1.0000
  H   H3552     1.0  0.57934  0.22897  0.77335  1.0000
  C   C2017     1.0  0.61251  0.28390  0.83550  1.0000
  C   C2018     1.0  0.62322  0.29412  0.82047  1.0000
  C   C2019     1.0  0.63804  0.30180  0.82361  1.0000
  C   C2020     1.0  0.64197  0.29979  0.84181  1.0000
  C   C2021     1.0  0.63092  0.29006  0.85696  1.0000
  C   C2022     1.0  0.61640  0.28189  0.85375  1.0000
  H   H3553     1.0  0.62041  0.29567  0.80636  1.0000
  H   H3554     1.0  0.64663  0.30916  0.81184  1.0000
  H   H3555     1.0  0.63378  0.28854  0.87106  1.0000
  H   H3556     1.0  0.60810  0.27403  0.86543  1.0000
  C   C2023     1.0  0.49249  0.26251  0.80410  1.0000
  C   C2024     1.0  0.50459  0.27532  0.80295  1.0000
  C   C2025     1.0  0.49776  0.29468  0.80007  1.0000
  H   H3557     1.0  0.53484  0.17880  0.65691  1.0000
  H   H3558     1.0  0.49789  0.24761  0.80655  1.0000
  H   H3559     1.0  0.51916  0.27019  0.80449  1.0000
  H   H3560     1.0  0.69043  0.02175  0.64178  1.0000
  C   C2026     1.0  0.69009  0.02314  0.78475  1.0000
  C   C2027     1.0  0.62806  0.46687  0.87650  1.0000
  H   H3561     1.0  0.50646  0.22291  0.78926  1.0000
  H   H3562     1.0  0.71849  0.46644  0.76039  1.0000
  C   C2028     1.0  0.67992  0.97419  0.81008  1.0000
  C   C2029     1.0  0.49308  0.16489  0.68862  1.0000
  C   C2030     1.0  0.70647  0.38247  0.89580  1.0000
  C   C2031     1.0  0.70438  0.38336  0.87720  1.0000
  C   C2032     1.0  0.70985  0.39849  0.86353  1.0000
  S   S472      1.0  0.71407  0.03698  0.88773  1.0000
  H   H3563     1.0  0.56262  0.35699  0.79125  1.0000
  Fe  Fe239     1.0  0.62178  0.98163  0.71583  1.0000
  C   C2033     1.0  0.60802  0.38994  0.77581  1.0000
  C   C2034     1.0  0.60517  0.37300  0.78804  1.0000
  C   C2035     1.0  0.60010  0.35831  0.78164  1.0000
  C   C2036     1.0  0.59750  0.36062  0.76301  1.0000
  C   C2037     1.0  0.60069  0.37740  0.75069  1.0000
  C   C2038     1.0  0.60597  0.39200  0.75704  1.0000
  H   H3564     1.0  0.60675  0.37126  0.80256  1.0000
  H   H3565     1.0  0.59794  0.34534  0.79119  1.0000
  H   H3566     1.0  0.59878  0.37928  0.73622  1.0000
  H   H3567     1.0  0.60827  0.40492  0.74746  1.0000
  C   C2039     1.0  0.52434  0.22107  0.76149  1.0000
  Fe  Fe240     1.0  0.63576  0.47059  0.76492  1.0000
  C   C2040     1.0  0.66879  0.46837  0.67115  1.0000
  H   H3568     1.0  0.52103  0.18933  0.79026  1.0000
  C   C2041     1.0  0.69147  0.44023  0.69211  1.0000
  C   C2042     1.0  0.67225  0.44542  0.69938  1.0000
  H   H3569     1.0  0.70020  0.42926  0.70029  1.0000
  H   H3570     1.0  0.48150  0.24226  0.73186  1.0000
  H   H3571     1.0  0.72171  0.45754  0.70145  1.0000
  H   H3572     1.0  0.49551  0.14343  0.65131  1.0000
  N   N114      1.0  0.71228  0.25935  0.96287  1.0000
  H   H3573     1.0  0.70892  0.18262  0.63453  1.0000
  H   H3574     1.0  0.53529  0.23899  0.72560  1.0000
  C   C2043     1.0  0.57784  0.04555  0.73763  1.0000
  C   C2044     1.0  0.56661  0.06283  0.74111  1.0000
  C   C2045     1.0  0.56994  0.07984  0.72912  1.0000
  C   C2046     1.0  0.58460  0.07966  0.71362  1.0000
  C   C2047     1.0  0.59579  0.06238  0.71018  1.0000
  C   C2048     1.0  0.59242  0.04541  0.72209  1.0000
  H   H3575     1.0  0.55529  0.06305  0.75310  1.0000
  H   H3576     1.0  0.56124  0.09308  0.73190  1.0000
  H   H3577     1.0  0.60713  0.06209  0.69821  1.0000
  H   H3578     1.0  0.60106  0.03222  0.71913  1.0000
  H   H3579     1.0  0.65047  0.16121  0.66603  1.0000
  H   H3580     1.0  0.63058  0.98884  0.79477  1.0000
  H   H3581     1.0  0.59020  0.99047  0.67716  1.0000
  H   H3582     1.0  0.64519  0.08425  0.64680  1.0000
  H   H3583     1.0  0.72600  0.99879  0.73660  1.0000
  H   H3584     1.0  0.66638  0.21822  0.63317  1.0000
  C   C2049     1.0  0.48947  0.15184  0.66217  1.0000
  H   H3585     1.0  0.49060  0.41757  0.80345  1.0000
  C   C2050     1.0  0.72815  0.39602  0.65593  1.0000
  C   C2051     1.0  0.52475  0.35129  0.75508  1.0000
  H   H3586     1.0  0.52950  0.22919  0.78684  1.0000
  H   H3587     1.0  0.69293  0.02262  0.79910  1.0000
  S   S473      1.0  0.71995  0.46571  0.84661  1.0000
  C   C2052     1.0  0.72141  0.00113  0.77785  1.0000
  H   H3588     1.0  0.72200  0.19675  0.95775  1.0000
  N   N115      1.0  0.67827  0.24375  0.85502  1.0000
  C   C2053     1.0  0.66269  0.24398  0.84440  1.0000
  C   C2054     1.0  0.66983  0.24967  0.87386  1.0000
  C   C2055     1.0  0.69008  0.25817  0.84373  1.0000
  C   C2056     1.0  0.69119  0.22489  0.85726  1.0000
  C   C2057     1.0  0.68203  0.20760  0.86751  1.0000
  C   C2058     1.0  0.66896  0.23903  0.82438  1.0000
  C   C2059     1.0  0.70490  0.26282  0.85365  1.0000
  C   C2060     1.0  0.65119  0.24289  0.88447  1.0000
  C   C2061     1.0  0.64640  0.24702  0.90455  1.0000
  C   C2062     1.0  0.65177  0.23956  0.81546  1.0000
  C   C2063     1.0  0.71904  0.41207  0.88694  1.0000
  H   H3589     1.0  0.65369  0.25821  0.84307  1.0000
  H   H3590     1.0  0.65298  0.23423  0.85222  1.0000
  H   H3591     1.0  0.68041  0.24527  0.88343  1.0000
  H   H3592     1.0  0.66632  0.26535  0.87208  1.0000
  H   H3593     1.0  0.68077  0.27172  0.83935  1.0000
  H   H3594     1.0  0.69811  0.25351  0.83049  1.0000
  H   H3595     1.0  0.69914  0.22193  0.84331  1.0000
  H   H3596     1.0  0.70226  0.22513  0.86543  1.0000
  H   H3597     1.0  0.66910  0.20708  0.86228  1.0000
  H   H3598     1.0  0.67861  0.20786  0.88284  1.0000
  H   H3599     1.0  0.67732  0.24932  0.81500  1.0000
  H   H3600     1.0  0.67748  0.22466  0.82481  1.0000
  H   H3601     1.0  0.71527  0.25012  0.85774  1.0000
  H   H3602     1.0  0.69804  0.26884  0.86646  1.0000
  H   H3603     1.0  0.63927  0.25046  0.87718  1.0000
  H   H3604     1.0  0.65178  0.22765  0.88526  1.0000
  H   H3605     1.0  0.63310  0.24193  0.91182  1.0000
  H   H3606     1.0  0.65785  0.23972  0.91258  1.0000
  H   H3607     1.0  0.64430  0.26242  0.90443  1.0000
  H   H3608     1.0  0.64300  0.22913  0.82393  1.0000
  H   H3609     1.0  0.64292  0.25384  0.81440  1.0000
  H   H3610     1.0  0.65649  0.23612  0.80108  1.0000
  H   H3611     1.0  0.56619  0.38946  0.77473  1.0000
  H   H3612     1.0  0.57211  0.41931  0.75272  1.0000
  H   H3613     1.0  0.57464  0.34261  0.82293  1.0000
  C   C2064     1.0  0.52113  0.25531  0.75489  1.0000
  C   C2065     1.0  0.71092  0.98421  0.93772  1.0000
  C   C2066     1.0  0.51216  0.27519  0.74591  1.0000
  C   C2067     1.0  0.52247  0.29021  0.74855  1.0000
  H   H3614     1.0  0.54290  0.37729  0.82477  1.0000
  H   H3615     1.0  0.51834  0.25563  0.77019  1.0000
  H   H3616     1.0  0.53678  0.25373  0.75056  1.0000
  H   H3617     1.0  0.68197  0.03722  0.78009  1.0000
  H   H3618     1.0  0.51385  0.36293  0.74979  1.0000
  H   H3619     1.0  0.51271  0.27643  0.73061  1.0000
  H   H3620     1.0  0.49724  0.27857  0.75291  1.0000
  H   H3621     1.0  0.53727  0.28811  0.74094  1.0000
  H   H3622     1.0  0.51523  0.30444  0.74290  1.0000
  H   H3623     1.0  0.52253  0.28960  0.76370  1.0000
  H   H3624     1.0  0.66135  0.31217  0.66295  1.0000
  C   C2068     1.0  0.50451  0.21899  0.84321  1.0000
  C   C2069     1.0  0.65076  0.40386  0.88070  1.0000
  C   C2070     1.0  0.64844  0.38436  0.89205  1.0000
  C   C2071     1.0  0.63322  0.44510  0.88123  1.0000
  H   H3625     1.0  0.66298  0.40191  0.86915  1.0000
  C   C2072     1.0  0.67126  0.42121  0.64028  1.0000
  C   C2073     1.0  0.71973  0.40838  0.63926  1.0000
  H   H3626     1.0  0.63568  0.38529  0.90317  1.0000
  N   N116      1.0  0.62047  0.30283  0.71216  1.0000
  C   C2074     1.0  0.63788  0.30267  0.69711  1.0000
  C   C2075     1.0  0.61681  0.28292  0.71999  1.0000
  C   C2076     1.0  0.60386  0.31359  0.70303  1.0000
  C   C2077     1.0  0.62175  0.31268  0.72774  1.0000
  C   C2078     1.0  0.63914  0.30538  0.73763  1.0000
  C   C2079     1.0  0.64313  0.32221  0.68755  1.0000
  C   C2080     1.0  0.58415  0.31420  0.71584  1.0000
  C   C2081     1.0  0.63415  0.26677  0.72068  1.0000
  C   C2082     1.0  0.62831  0.24822  0.73157  1.0000
  C   C2083     1.0  0.63949  0.31773  0.75182  1.0000
  C   C2084     1.0  0.66200  0.32004  0.67407  1.0000
  C   C2085     1.0  0.56832  0.32361  0.70469  1.0000
  H   H3627     1.0  0.63622  0.29545  0.68583  1.0000
  H   H3628     1.0  0.65051  0.29427  0.70273  1.0000
  H   H3629     1.0  0.60839  0.28225  0.73444  1.0000
  H   H3630     1.0  0.60788  0.27866  0.71160  1.0000
  H   H3631     1.0  0.60331  0.30760  0.69048  1.0000
  H   H3632     1.0  0.60537  0.32859  0.69784  1.0000
  H   H3633     1.0  0.62091  0.32813  0.72270  1.0000
  H   H3634     1.0  0.60928  0.31144  0.73905  1.0000
  H   H3635     1.0  0.65256  0.30539  0.72748  1.0000
  H   H3636     1.0  0.63847  0.29095  0.74563  1.0000
  H   H3637     1.0  0.63235  0.33051  0.67914  1.0000
  H   H3638     1.0  0.64447  0.33040  0.69809  1.0000
  H   H3639     1.0  0.58311  0.32248  0.72706  1.0000
  H   H3640     1.0  0.58134  0.29991  0.72252  1.0000
  H   H3641     1.0  0.64077  0.26447  0.70618  1.0000
  H   H3642     1.0  0.64501  0.26990  0.72739  1.0000
  H   H3643     1.0  0.64089  0.23687  0.73174  1.0000
  H   H3644     1.0  0.62183  0.24960  0.74634  1.0000
  H   H3645     1.0  0.61797  0.24404  0.72484  1.0000
  H   H3646     1.0  0.65211  0.31224  0.75868  1.0000
  H   H3647     1.0  0.64012  0.33252  0.74473  1.0000
  H   H3648     1.0  0.62670  0.31760  0.76292  1.0000
  H   H3649     1.0  0.66528  0.33418  0.66718  1.0000
  H   H3650     1.0  0.56821  0.31551  0.69359  1.0000
  H   H3651     1.0  0.55449  0.32404  0.71433  1.0000
  H   H3652     1.0  0.57007  0.33830  0.69814  1.0000
  C   C2086     1.0  0.52041  0.38727  0.79756  1.0000
  H   H3653     1.0  0.53725  0.24866  0.96280  1.0000
  C   C2087     1.0  0.68057  0.99324  0.92402  1.0000
  C   C2088     1.0  0.72892  0.98693  0.74833  1.0000
  H   H3654     1.0  0.70857  0.39908  0.84909  1.0000
  H   H3655     1.0  0.63775  0.40946  0.87461  1.0000
  H   H3656     1.0  0.67916  0.41730  0.65221  1.0000
  H   H3657     1.0  0.55333  0.40066  0.79378  1.0000
  H   H3658     1.0  0.51480  0.37557  0.80797  1.0000
  C   C2089     1.0  0.71384  0.39675  0.90061  1.0000
  C   C2090     1.0  0.52003  0.23798  0.73021  1.0000
  H   H3659     1.0  0.71715  0.31615  0.94627  1.0000
  H   H3660     1.0  0.70939  0.06878  0.90635  1.0000
  H   H3661     1.0  0.66621  0.43833  0.71296  1.0000
  H   H3662     1.0  0.65846  0.24061  0.95054  1.0000
  C   C2091     1.0  0.69804  0.42583  0.75502  1.0000
  C   C2092     1.0  0.60418  0.17260  0.63195  1.0000
  S   S474      1.0  0.72792  0.43000  0.89351  1.0000
  S   S475      1.0  0.63441  0.99074  0.68549  1.0000
  H   H3663     1.0  0.59835  0.46733  0.87605  1.0000
  H   H3664     1.0  0.57541  0.97500  0.69277  1.0000
  H   H3665     1.0  0.57853  0.97624  0.66764  1.0000
  S   S476      1.0  0.72621  0.97813  0.83527  1.0000
  H   H3666     1.0  0.68677  0.44247  0.89592  1.0000
  H   H3667     1.0  0.55359  0.43958  0.75269  1.0000
  H   H3668     1.0  0.64490  0.41454  0.90700  1.0000
  C   C2093     1.0  0.66625  0.98735  0.81888  1.0000
  H   H3669     1.0  0.66364  0.45107  0.64234  1.0000
  H   H3670     1.0  0.59661  0.14566  0.64528  1.0000
  H   H3671     1.0  0.50429  0.21479  0.73263  1.0000
  C   C2094     1.0  0.72497  0.20942  0.90315  1.0000
  H   H3672     1.0  0.66904  0.41060  0.89611  1.0000
  H   H3673     1.0  0.68048  0.17020  0.64471  1.0000
  H   H3674     1.0  0.48876  0.24702  0.77027  1.0000
  H   H3675     1.0  0.72576  0.01614  0.92645  1.0000
  H   H3676     1.0  0.51975  0.20842  0.75907  1.0000
  C   C2095     1.0  0.61590  0.08454  0.64777  1.0000
  C   C2096     1.0  0.54954  0.36400  0.79944  1.0000
  C   C2097     1.0  0.69732  0.45800  0.73419  1.0000
  H   H3677     1.0  0.69131  0.43220  0.76772  1.0000
  H   H3678     1.0  0.70480  0.98658  0.68581  1.0000
  H   H3679     1.0  0.55647  0.11895  0.64929  1.0000
  C   C2098     1.0  0.52919  0.19959  0.79246  1.0000
  H   H3680     1.0  0.69415  0.47027  0.65026  1.0000
  C   C2099     1.0  0.68124  0.44120  0.83373  1.0000
  H   H3681     1.0  0.52173  0.39755  0.80619  1.0000
  N   N117      1.0  0.65296  0.43751  0.88535  1.0000
  C   C2100     1.0  0.51723  0.21980  0.72436  1.0000
  H   H3682     1.0  0.67302  0.31955  0.95243  1.0000
  H   H3683     1.0  0.53049  0.38393  0.75980  1.0000
  H   H3684     1.0  0.68130  0.43093  0.87026  1.0000
  H   H3685     1.0  0.70722  0.41228  0.75943  1.0000
  H   H3686     1.0  0.68136  0.01234  0.78526  1.0000
  H   H3687     1.0  0.48933  0.22579  0.76248  1.0000
  C   C2101     1.0  0.56418  0.12094  0.63457  1.0000
  H   H3688     1.0  0.66352  0.40969  0.64064  1.0000
  H   H3689     1.0  0.64000  0.98527  0.90214  1.0000
  H   H3690     1.0  0.57847  0.12379  0.63451  1.0000
  H   H3691     1.0  0.51377  0.20940  0.70021  1.0000
  H   H3692     1.0  0.67427  0.46726  0.91661  1.0000
  H   H3693     1.0  0.63758  0.00219  0.82046  1.0000
  C   C2102     1.0  0.67226  0.17983  0.63430  1.0000
  N   N118      1.0  0.51420  0.23884  0.75092  1.0000
  H   H3694     1.0  0.51531  0.19187  0.64593  1.0000
  H   H3695     1.0  0.53181  0.42160  0.77525  1.0000
  C   C2103     1.0  0.71896  0.98255  0.67743  1.0000
  H   H3696     1.0  0.54102  0.15345  0.64383  1.0000
  S   S477      1.0  0.59902  0.45307  0.74460  1.0000
  H   H3697     1.0  0.56403  0.15728  0.63314  1.0000
  S   S478      1.0  0.60978  0.46118  0.78303  1.0000
  H   H3698     1.0  0.69094  0.42750  0.83544  1.0000
  H   H3699     1.0  0.71673  0.39225  0.66774  1.0000
  H   H3700     1.0  0.54432  0.19537  0.78655  1.0000
  H   H3701     1.0  0.67731  0.44404  0.81956  1.0000
  C   C2104     1.0  0.71034  0.97871  0.75503  1.0000
  H   H3702     1.0  0.70425  0.98094  0.72683  1.0000
  H   H3703     1.0  0.52912  0.22677  0.69470  1.0000
  H   H3704     1.0  0.48252  0.20349  0.85744  1.0000
  S   S479      1.0  0.63668  0.46657  0.69793  1.0000
  H   H3705     1.0  0.69174  0.24005  0.64403  1.0000
  H   H3706     1.0  0.51263  0.25033  0.72155  1.0000
  H   H3707     1.0  0.65765  0.42823  0.84873  1.0000
  H   H3708     1.0  0.52768  0.22167  0.64355  1.0000
  Fe  Fe241     1.0  0.62622  0.46301  0.72947  1.0000
  C   C2105     1.0  0.53046  0.19115  0.64635  1.0000
  C   C2106     1.0  0.65089  0.98090  0.89025  1.0000
  H   H3709     1.0  0.68879  0.45248  0.83458  1.0000
  H   H3710     1.0  0.72116  0.44112  0.74785  1.0000
  C   C2107     1.0  0.71892  0.27775  0.96160  1.0000
  S   S480      1.0  0.72318  0.18552  0.90500  1.0000
  C   C2108     1.0  0.65455  0.41669  0.89320  1.0000
  N   N119      1.0  0.66066  0.37514  0.81950  1.0000
  C   C2109     1.0  0.65079  0.36421  0.83710  1.0000
  C   C2110     1.0  0.68156  0.37155  0.82006  1.0000
  C   C2111     1.0  0.65341  0.39587  0.81988  1.0000
  C   C2112     1.0  0.65706  0.37054  0.80161  1.0000
  C   C2113     1.0  0.65345  0.35033  0.80225  1.0000
  C   C2114     1.0  0.62889  0.36912  0.84053  1.0000
  C   C2115     1.0  0.66356  0.40980  0.80419  1.0000
  C   C2116     1.0  0.69192  0.35094  0.82032  1.0000
  C   C2117     1.0  0.71264  0.34906  0.82207  1.0000
  C   C2118     1.0  0.65385  0.34673  0.78248  1.0000
  C   C2119     1.0  0.61991  0.35337  0.85399  1.0000
  C   C2120     1.0  0.65178  0.42959  0.80220  1.0000
  H   H3711     1.0  0.65557  0.36645  0.84975  1.0000
  H   H3712     1.0  0.65486  0.34886  0.83729  1.0000
  H   H3713     1.0  0.68921  0.37989  0.80758  1.0000
  H   H3714     1.0  0.68402  0.37640  0.83257  1.0000
  H   H3715     1.0  0.65430  0.39934  0.83365  1.0000
  H   H3716     1.0  0.63816  0.39938  0.81866  1.0000
  H   H3717     1.0  0.64448  0.38014  0.79684  1.0000
  H   H3718     1.0  0.66895  0.37331  0.78990  1.0000
  H   H3719     1.0  0.63934  0.34845  0.81057  1.0000
  H   H3720     1.0  0.66397  0.33925  0.80874  1.0000
  H   H3721     1.0  0.62426  0.38215  0.84683  1.0000
  H   H3722     1.0  0.62330  0.37177  0.82721  1.0000
  H   H3723     1.0  0.66622  0.40522  0.79033  1.0000
  H   H3724     1.0  0.67730  0.41078  0.80768  1.0000
  H   H3725     1.0  0.68544  0.34121  0.83231  1.0000
  H   H3726     1.0  0.69184  0.34635  0.80696  1.0000
  H   H3727     1.0  0.72012  0.35804  0.81003  1.0000
  H   H3728     1.0  0.71379  0.35317  0.83539  1.0000
  H   H3729     1.0  0.71969  0.33416  0.82222  1.0000
  H   H3730     1.0  0.64973  0.33285  0.78340  1.0000
  H   H3731     1.0  0.64378  0.35774  0.77513  1.0000
  H   H3732     1.0  0.66828  0.34660  0.77409  1.0000
  H   H3733     1.0  0.60430  0.35752  0.85640  1.0000
  H   H3734     1.0  0.62360  0.34018  0.84794  1.0000
  H   H3735     1.0  0.62481  0.35062  0.86772  1.0000
  H   H3736     1.0  0.63860  0.42955  0.79711  1.0000
  H   H3737     1.0  0.64802  0.43473  0.81583  1.0000
  H   H3738     1.0  0.65987  0.43950  0.79181  1.0000
  N   N120      1.0  0.61664  0.05296  0.77222  1.0000
  C   C2121     1.0  0.62904  0.03800  0.76178  1.0000
  C   C2122     1.0  0.59826  0.04651  0.78212  1.0000
  C   C2123     1.0  0.61205  0.07034  0.75776  1.0000
  C   C2124     1.0  0.62646  0.05840  0.78588  1.0000
  C   C2125     1.0  0.63512  0.04226  0.80029  1.0000
  C   C2126     1.0  0.64826  0.04284  0.75056  1.0000
  C   C2127     1.0  0.59640  0.08629  0.76491  1.0000
  C   C2128     1.0  0.59904  0.02520  0.79041  1.0000
  C   C2129     1.0  0.58033  0.02142  0.80280  1.0000
  C   C2130     1.0  0.64670  0.04949  0.81142  1.0000
  C   C2131     1.0  0.66048  0.02589  0.74250  1.0000
  C   C2132     1.0  0.59616  0.10467  0.75072  1.0000
  H   H3739     1.0  0.62126  0.03468  0.75172  1.0000
  H   H3740     1.0  0.63228  0.02449  0.77143  1.0000
  H   H3741     1.0  0.59132  0.05477  0.79349  1.0000
  H   H3742     1.0  0.58806  0.04946  0.77218  1.0000
  H   H3743     1.0  0.60742  0.06649  0.74579  1.0000
  H   H3744     1.0  0.62489  0.07673  0.75147  1.0000
  H   H3745     1.0  0.63781  0.06647  0.77816  1.0000
  H   H3746     1.0  0.61654  0.06828  0.79438  1.0000
  H   H3747     1.0  0.64465  0.03096  0.79340  1.0000
  H   H3748     1.0  0.62374  0.03633  0.81071  1.0000
  H   H3749     1.0  0.64608  0.05450  0.73857  1.0000
  H   H3750     1.0  0.65638  0.04702  0.75966  1.0000
  H   H3751     1.0  0.59836  0.08940  0.77835  1.0000
  H   H3752     1.0  0.58228  0.08216  0.76712  1.0000
  H   H3753     1.0  0.60176  0.01693  0.77882  1.0000
  H   H3754     1.0  0.61030  0.01956  0.79891  1.0000
  H   H3755     1.0  0.56852  0.02655  0.79472  1.0000
  H   H3756     1.0  0.58104  0.00602  0.80774  1.0000
  H   H3757     1.0  0.57744  0.02850  0.81526  1.0000
  H   H3758     1.0  0.63763  0.06026  0.81943  1.0000
  H   H3759     1.0  0.65280  0.03759  0.82159  1.0000
  H   H3760     1.0  0.65849  0.05571  0.80191  1.0000
  H   H3761     1.0  0.66292  0.01357  0.75387  1.0000
  H   H3762     1.0  0.65357  0.02196  0.73218  1.0000
  H   H3763     1.0  0.67439  0.02951  0.73514  1.0000
  H   H3764     1.0  0.60942  0.11027  0.74919  1.0000
  H   H3765     1.0  0.59457  0.10245  0.73676  1.0000
  H   H3766     1.0  0.58409  0.11541  0.75557  1.0000
  H   H3767     1.0  0.69867  0.18746  0.84991  1.0000
  H   H3768     1.0  0.67771  0.11371  0.63979  1.0000
  H   H3769     1.0  0.65655  0.99626  0.64885  1.0000
  C   C2133     1.0  0.55169  0.39542  0.78123  1.0000
  H   H3770     1.0  0.71219  0.99068  0.78500  1.0000
  C   C2134     1.0  0.52970  0.35485  0.77301  1.0000
  H   H3771     1.0  0.71751  0.28838  0.93166  1.0000
  H   H3772     1.0  0.52287  0.20927  0.66728  1.0000
  H   H3773     1.0  0.64681  0.37513  0.88257  1.0000
  H   H3774     1.0  0.65489  0.46257  0.89547  1.0000
  C   C2135     1.0  0.52162  0.21953  0.78314  1.0000
  H   H3775     1.0  0.53756  0.34997  0.74405  1.0000
  H   H3776     1.0  0.70507  0.01983  0.75699  1.0000
  H   H3777     1.0  0.71600  0.03182  0.76960  1.0000
  H   H3778     1.0  0.67666  0.42556  0.91463  1.0000
  C   C2136     1.0  0.51590  0.22276  0.70356  1.0000
  H   H3779     1.0  0.60647  0.07839  0.64164  1.0000
  H   H3780     1.0  0.48325  0.26458  0.73655  1.0000
  C   C2137     1.0  0.64436  0.98487  0.79887  1.0000
  H   H3781     1.0  0.63064  0.43937  0.86944  1.0000
  H   H3782     1.0  0.67210  0.45520  0.86725  1.0000
  H   H3783     1.0  0.71542  0.39600  0.91502  1.0000
  H   H3784     1.0  0.55285  0.36988  0.76098  1.0000
  C   C2138     1.0  0.66812  0.44114  0.86840  1.0000
  S   S481      1.0  0.59029  0.98335  0.72348  1.0000
  H   H3785     1.0  0.72406  0.27168  0.82796  1.0000
  C   C2139     1.0  0.58567  0.97655  0.67942  1.0000
  H   H3786     1.0  0.51679  0.35549  0.78392  1.0000
  H   H3787     1.0  0.66552  0.44928  0.93516  1.0000
  C   C2140     1.0  0.54454  0.41341  0.76779  1.0000
  H   H3788     1.0  0.70628  0.29055  0.83634  1.0000
  C   C2141     1.0  0.53216  0.20869  0.65344  1.0000
  H   H3789     1.0  0.62259  0.44031  0.89351  1.0000
  C   C2142     1.0  0.64238  0.17159  0.65610  1.0000
  H   H3790     1.0  0.72777  0.00381  0.78931  1.0000
  H   H3791     1.0  0.56581  0.35501  0.84244  1.0000
  H   H3792     1.0  0.68814  0.45412  0.72590  1.0000
  H   H3793     1.0  0.64519  0.98656  0.87698  1.0000
  H   H3794     1.0  0.70755  0.00009  0.90958  1.0000
  H   H3795     1.0  0.66996  0.05276  0.64135  1.0000
  C   C2143     1.0  0.69951  0.44921  0.67444  1.0000
  C   C2144     1.0  0.64839  0.99242  0.81338  1.0000
  H   H3796     1.0  0.68278  0.97956  0.91909  1.0000
  H   H3797     1.0  0.69260  0.23625  0.94829  1.0000
  H   H3798     1.0  0.61237  0.10016  0.64471  1.0000
  H   H3799     1.0  0.61320  0.08005  0.66329  1.0000
  C   C2145     1.0  0.48675  0.21690  0.85795  1.0000
  H   H3800     1.0  0.56364  0.42986  0.77365  1.0000
  H   H3801     1.0  0.69657  0.26972  0.93988  1.0000
  H   H3802     1.0  0.54003  0.34247  0.77799  1.0000
  H   H3803     1.0  0.53978  0.21936  0.75604  1.0000
  H   H3804     1.0  0.70319  0.98527  0.95227  1.0000
  C   C2146     1.0  0.67487  0.44056  0.90774  1.0000
  H   H3805     1.0  0.72789  0.17489  0.94884  1.0000
  H   H3806     1.0  0.52941  0.20837  0.72698  1.0000
  H   H3807     1.0  0.62865  0.17746  0.66414  1.0000
  H   H3808     1.0  0.68939  0.17708  0.87351  1.0000
  H   H3809     1.0  0.70921  0.18910  0.86949  1.0000
  H   H3810     1.0  0.52792  0.19906  0.80781  1.0000
  H   H3811     1.0  0.64408  0.19823  0.63793  1.0000
  S   S482      1.0  0.72835  0.27215  0.89655  1.0000
  H   H3812     1.0  0.50930  0.23242  0.84295  1.0000
  C   C2147     1.0  0.66356  0.44080  0.84888  1.0000
  H   H3813     1.0  0.54054  0.35292  0.80495  1.0000
  H   H3814     1.0  0.71059  0.42098  0.64421  1.0000
  C   C2148     1.0  0.70986  0.43910  0.74100  1.0000
  H   H3815     1.0  0.50164  0.21873  0.82907  1.0000
  C   C2149     1.0  0.69570  0.18923  0.86489  1.0000
  C   C2150     1.0  0.68393  0.24666  0.95692  1.0000
  H   H3816     1.0  0.65614  0.19405  0.65758  1.0000
  H   H3817     1.0  0.66102  0.37779  0.89873  1.0000
  H   H3818     1.0  0.63946  0.16421  0.64560  1.0000
  H   H3819     1.0  0.72167  0.23273  0.95285  1.0000
  C   C2151     1.0  0.50089  0.15432  0.67431  1.0000
  H   H3820     1.0  0.70233  0.37088  0.90647  1.0000
  C   C2152     1.0  0.67629  0.45193  0.92237  1.0000
  C   C2153     1.0  0.66366  0.98383  0.65690  1.0000
  C   C2154     1.0  0.72671  0.24808  0.89919  1.0000
  C   C2155     1.0  0.53844  0.37303  0.76939  1.0000
  C   C2156     1.0  0.71599  0.27732  0.84067  1.0000
  H   H3821     1.0  0.56690  0.37700  0.81243  1.0000
  C   C2157     1.0  0.49313  0.24011  0.75761  1.0000
  C   C2158     1.0  0.66505  0.25305  0.94994  1.0000
  H   H3822     1.0  0.51605  0.20710  0.84653  1.0000
  H   H3823     1.0  0.69628  0.01287  0.92839  1.0000
  H   H3824     1.0  0.54124  0.41014  0.75496  1.0000
  H   H3825     1.0  0.68685  0.42289  0.74848  1.0000
  C   C2159     1.0  0.56194  0.35108  0.83017  1.0000
  H   H3826     1.0  0.64418  0.44549  0.91297  1.0000
  H   H3827     1.0  0.48165  0.39551  0.81016  1.0000
  H   H3828     1.0  0.66709  0.26060  0.93519  1.0000
  H   H3829     1.0  0.51903  0.33793  0.75815  1.0000
  H   H3830     1.0  0.64686  0.44214  0.63325  1.0000
  H   H3831     1.0  0.65304  0.45337  0.84477  1.0000
  C   C2160     1.0  0.65572  0.44713  0.90058  1.0000
  H   H3832     1.0  0.71664  0.43192  0.72883  1.0000
  H   H3833     1.0  0.67194  0.99213  0.93835  1.0000
  H   H3834     1.0  0.69822  0.98990  0.75868  1.0000
  H   H3835     1.0  0.50892  0.40713  0.77382  1.0000
  H   H3836     1.0  0.66353  0.98715  0.88971  1.0000
  H   H3837     1.0  0.55068  0.34231  0.83541  1.0000
  H   H3838     1.0  0.68756  0.46266  0.74662  1.0000
  C   C2161     1.0  0.70856  0.01978  0.77093  1.0000
  S   S483      1.0  0.72403  0.44296  0.66688  1.0000
  C   C2162     1.0  0.65334  0.18751  0.64637  1.0000
  H   H3839     1.0  0.69054  0.44764  0.92641  1.0000
  H   H3840     1.0  0.68535  0.20712  0.64513  1.0000
  C   C2163     1.0  0.65570  0.97775  0.67560  1.0000
  H   H3841     1.0  0.50369  0.23384  0.70026  1.0000
  H   H3842     1.0  0.72137  0.42423  0.85760  1.0000
  H   H3843     1.0  0.49060  0.21568  0.87202  1.0000
  Fe  Fe242     1.0  0.73099  0.97404  0.86531  1.0000
  C   C2164     1.0  0.69949  0.99880  0.92407  1.0000
  C   C2165     1.0  0.60464  0.15330  0.63321  1.0000
  C   C2166     1.0  0.71713  0.41276  0.86833  1.0000
  H   H3844     1.0  0.64819  0.43638  0.65798  1.0000
  H   H3845     1.0  0.69868  0.39048  0.64270  1.0000
  H   H3846     1.0  0.63945  0.06225  0.64424  1.0000
  C   C2167     1.0  0.72303  0.06798  0.89725  1.0000
  N   N121      1.0  0.73139  0.98592  0.93606  1.0000
  H   H3847     1.0  0.54079  0.27262  0.96028  1.0000
  H   H3848     1.0  0.72614  0.28068  0.84824  1.0000
  H   H3849     1.0  0.61349  0.46812  0.85321  1.0000
  C   C2168     1.0  0.65029  0.30382  0.96322  1.0000
  C   C2169     1.0  0.72721  0.28716  0.94162  1.0000
  H   H3850     1.0  0.68683  0.97877  0.63415  1.0000
  C   C2170     1.0  0.65661  0.43878  0.64360  1.0000
  H   H3851     1.0  0.67382  0.08425  0.63154  1.0000
  Fe  Fe243     1.0  0.72669  0.45938  0.87577  1.0000
  C   C2171     1.0  0.68809  0.46322  0.66387  1.0000
  C   C2172     1.0  0.72505  0.46629  0.71057  1.0000
  C   C2173     1.0  0.72654  0.24634  0.95148  1.0000
  H   H3852     1.0  0.72971  0.09241  0.90498  1.0000
  H   H3853     1.0  0.54694  0.20817  0.65518  1.0000
  C   C2174     1.0  0.69407  0.26364  0.95513  1.0000
  H   H3854     1.0  0.71711  0.98297  0.66276  1.0000
  C   C2175     1.0  0.73064  0.30694  0.94163  1.0000
  H   H3855     1.0  0.68384  0.27479  0.96177  1.0000
  C   C2176     1.0  0.68073  0.97390  0.64856  1.0000
  H   H3856     1.0  0.72282  0.00923  0.95138  1.0000
  H   H3857     1.0  0.72794  0.99296  0.67748  1.0000
  C   C2177     1.0  0.72895  0.05368  0.88619  1.0000
  Fe  Fe244     1.0  0.71463  0.83604  0.99735  1.0000
  S   S484      1.0  0.70322  0.80865  0.99980  1.0000
  H   H3858     1.0  0.61522  0.47699  0.16751  1.0000
  Fe  Fe245     1.0  0.56745  0.76360  0.27579  1.0000
  H   H3859     1.0  0.70531  0.75044  0.98275  1.0000
  S   S485      1.0  0.70014  0.86408  0.00538  1.0000
  C   C2178     1.0  0.63812  0.90871  0.26055  1.0000
  H   H3860     1.0  0.49579  0.78635  0.20226  1.0000
  Fe  Fe246     1.0  0.71420  0.55539  0.17616  1.0000
  Fe  Fe247     1.0  0.62341  0.76076  0.97916  1.0000
  S   S486      1.0  0.64069  0.73376  0.99084  1.0000
  C   C2179     1.0  0.56114  0.67428  0.06843  1.0000
  H   H3861     1.0  0.61890  0.50453  0.17913  1.0000
  Fe  Fe248     1.0  0.61311  0.72390  0.00289  1.0000
  S   S487      1.0  0.61007  0.70471  0.03122  1.0000
  C   C2180     1.0  0.54995  0.76387  0.02501  1.0000
  S   S488      1.0  0.59561  0.75166  0.99324  1.0000
  Fe  Fe249     1.0  0.56525  0.70806  0.13301  1.0000
  S   S489      1.0  0.55506  0.68408  0.12625  1.0000
  S   S490      1.0  0.57295  0.73160  0.10909  1.0000
  Fe  Fe250     1.0  0.56087  0.69181  0.17538  1.0000
  S   S491      1.0  0.55061  0.66622  0.17127  1.0000
  S   S492      1.0  0.56192  0.69222  0.20614  1.0000
  Fe  Fe251     1.0  0.57381  0.66585  0.14595  1.0000
  S   S493      1.0  0.59428  0.64165  0.13435  1.0000
  Fe  Fe252     1.0  0.53281  0.68665  0.15193  1.0000
  S   S494      1.0  0.50141  0.69116  0.15081  1.0000
  S   S495      1.0  0.58539  0.68986  0.15130  1.0000
  S   S496      1.0  0.54167  0.71222  0.15754  1.0000
  Fe  Fe253     1.0  0.70311  0.57125  0.13699  1.0000
  S   S497      1.0  0.67744  0.55746  0.14437  1.0000
  S   S498      1.0  0.70610  0.59093  0.10866  1.0000
  H   H3862     1.0  0.57487  0.71283  0.00172  1.0000
  S   S499      1.0  0.68931  0.54024  0.18613  1.0000
  S   S500      1.0  0.62942  0.78979  0.97982  1.0000
  Fe  Fe254     1.0  0.69578  0.53190  0.15755  1.0000
  S   S501      1.0  0.69747  0.50306  0.15003  1.0000
  Fe  Fe255     1.0  0.67296  0.56708  0.17206  1.0000
  S   S502      1.0  0.64403  0.57990  0.18597  1.0000
  H   H3863     1.0  0.62720  0.64516  0.00601  1.0000
  S   S503      1.0  0.69734  0.58280  0.16405  1.0000
  H   H3864     1.0  0.63878  0.51412  0.20388  1.0000
  S   S504      1.0  0.54995  0.79237  0.27749  1.0000
  S   S505      1.0  0.57381  0.75744  0.24561  1.0000
  Fe  Fe256     1.0  0.59619  0.74019  0.96685  1.0000
  H   H3865     1.0  0.70776  0.60839  0.07018  1.0000
  C   C2181     1.0  0.65029  0.87005  0.21726  1.0000
  C   C2182     1.0  0.56495  0.69369  0.97524  1.0000
  H   H3866     1.0  0.52840  0.80347  0.20998  1.0000
  H   H3867     1.0  0.66283  0.76589  0.99309  1.0000
  H   H3868     1.0  0.73035  0.96215  0.15830  1.0000
  H   H3869     1.0  0.69709  0.92512  0.26476  1.0000
  C   C2183     1.0  0.72948  0.87177  0.08410  1.0000
  C   C2184     1.0  0.71402  0.87796  0.22534  1.0000
  C   C2185     1.0  0.71417  0.87722  0.24450  1.0000
  H   H3870     1.0  0.70470  0.87063  0.22126  1.0000
  H   H3871     1.0  0.70477  0.86952  0.25516  1.0000
  H   H3872     1.0  0.62695  0.69445  0.23171  1.0000
  H   H3873     1.0  0.49725  0.71977  0.25723  1.0000
  C   C2186     1.0  0.51918  0.71858  0.00923  1.0000
  H   H3874     1.0  0.65930  0.74168  0.02341  1.0000
  H   H3875     1.0  0.67531  0.83506  0.22457  1.0000
  C   C2187     1.0  0.66932  0.88669  0.18798  1.0000
  C   C2188     1.0  0.50828  0.75488  0.24121  1.0000
  N   N122      1.0  0.50871  0.77236  0.22641  1.0000
  H   H3876     1.0  0.62578  0.53083  0.21863  1.0000
  H   H3877     1.0  0.55270  0.70302  0.96960  1.0000
  C   C2189     1.0  0.69393  0.71880  0.98394  1.0000
  C   C2190     1.0  0.49306  0.65489  0.15719  1.0000
  C   C2191     1.0  0.68708  0.65036  0.98053  1.0000
  C   C2192     1.0  0.67417  0.95340  0.29108  1.0000
  C   C2193     1.0  0.68190  0.69788  0.01409  1.0000
  C   C2194     1.0  0.55338  0.72839  0.02918  1.0000
  C   C2195     1.0  0.64998  0.52781  0.13048  1.0000
  H   H3878     1.0  0.70730  0.56651  0.22132  1.0000
  H   H3879     1.0  0.70742  0.57201  0.25349  1.0000
  C   C2196     1.0  0.56485  0.71071  0.21682  1.0000
  C   C2197     1.0  0.57086  0.72713  0.20625  1.0000
  C   C2198     1.0  0.57371  0.74110  0.21538  1.0000
  C   C2199     1.0  0.57011  0.73911  0.23512  1.0000
  C   C2200     1.0  0.56385  0.72279  0.24571  1.0000
  C   C2201     1.0  0.56148  0.70857  0.23659  1.0000
  H   H3880     1.0  0.57371  0.72890  0.19106  1.0000
  H   H3881     1.0  0.57888  0.75349  0.20707  1.0000
  H   H3882     1.0  0.56112  0.72100  0.26090  1.0000
  H   H3883     1.0  0.55693  0.69587  0.24491  1.0000
  C   C2202     1.0  0.65313  0.81360  0.98162  1.0000
  H   H3884     1.0  0.50742  0.64974  0.15959  1.0000
  C   C2203     1.0  0.60793  0.62455  0.14889  1.0000
  C   C2204     1.0  0.60126  0.61952  0.16808  1.0000
  C   C2205     1.0  0.61239  0.60565  0.17930  1.0000
  C   C2206     1.0  0.63033  0.59698  0.17146  1.0000
  C   C2207     1.0  0.63689  0.60183  0.15220  1.0000
  C   C2208     1.0  0.62558  0.61538  0.14091  1.0000
  H   H3885     1.0  0.58745  0.62620  0.17419  1.0000
  H   H3886     1.0  0.60714  0.60172  0.19414  1.0000
  H   H3887     1.0  0.65069  0.59522  0.14600  1.0000
  H   H3888     1.0  0.63073  0.61910  0.12603  1.0000
  H   H3889     1.0  0.54301  0.76414  0.03987  1.0000
  H   H3890     1.0  0.66657  0.50115  0.18210  1.0000
  C   C2209     1.0  0.59980  0.71275  0.05257  1.0000
  C   C2210     1.0  0.59897  0.69958  0.06930  1.0000
  C   C2211     1.0  0.59064  0.70526  0.08661  1.0000
  C   C2212     1.0  0.58318  0.72422  0.08736  1.0000
  C   C2213     1.0  0.58406  0.73747  0.07060  1.0000
  C   C2214     1.0  0.59225  0.73172  0.05322  1.0000
  H   H3891     1.0  0.60469  0.68489  0.06891  1.0000
  H   H3892     1.0  0.59016  0.69495  0.09943  1.0000
  H   H3893     1.0  0.57821  0.75214  0.07108  1.0000
  H   H3894     1.0  0.59277  0.74191  0.04034  1.0000
  H   H3895     1.0  0.60371  0.69734  0.24582  1.0000
  H   H3896     1.0  0.54857  0.68504  0.00223  1.0000
  H   H3897     1.0  0.63365  0.87302  0.26412  1.0000
  H   H3898     1.0  0.66640  0.82340  0.24772  1.0000
  C   C2215     1.0  0.49207  0.76259  0.29498  1.0000
  H   H3899     1.0  0.71137  0.95436  0.25201  1.0000
  Fe  Fe257     1.0  0.72035  0.87685  0.98066  1.0000
  H   H3900     1.0  0.65440  0.53658  0.09996  1.0000
  H   H3901     1.0  0.60943  0.53124  0.19209  1.0000
  H   H3902     1.0  0.66657  0.82139  0.05142  1.0000
  H   H3903     1.0  0.54475  0.77741  0.01627  1.0000
  H   H3904     1.0  0.53380  0.76103  0.20828  1.0000
  H   H3905     1.0  0.48251  0.74298  0.28265  1.0000
  C   C2216     1.0  0.64901  0.73752  0.03618  1.0000
  C   C2217     1.0  0.68312  0.80389  0.99295  1.0000
  C   C2218     1.0  0.68060  0.78503  0.99553  1.0000
  C   C2219     1.0  0.66460  0.78043  0.99096  1.0000
  C   C2220     1.0  0.65065  0.79473  0.98417  1.0000
  C   C2221     1.0  0.66935  0.81818  0.98582  1.0000
  H   H3906     1.0  0.69102  0.77397  0.00139  1.0000
  H   H3907     1.0  0.66013  0.63563  0.20856  1.0000
  S   S506      1.0  0.61194  0.71165  0.97771  1.0000
  H   H3908     1.0  0.60649  0.70532  0.22081  1.0000
  H   H3909     1.0  0.70055  0.81424  0.24111  1.0000
  N   N123      1.0  0.71038  0.72552  0.97005  1.0000
  H   H3910     1.0  0.70065  0.71739  0.01190  1.0000
  C   C2222     1.0  0.55346  0.78985  0.19432  1.0000
  H   H3911     1.0  0.62378  0.91506  0.25739  1.0000
  S   S507      1.0  0.69471  0.62755  0.99228  1.0000
  H   H3912     1.0  0.51716  0.70584  0.24466  1.0000
  H   H3913     1.0  0.67103  0.83275  0.98388  1.0000
  H   H3914     1.0  0.52767  0.79356  0.24275  1.0000
  H   H3915     1.0  0.68733  0.70988  0.97760  1.0000
  H   H3916     1.0  0.70475  0.95824  0.21910  1.0000
  H   H3917     1.0  0.52880  0.73410  0.22654  1.0000
  C   C2223     1.0  0.72535  0.51427  0.24350  1.0000
  C   C2224     1.0  0.48689  0.67427  0.15230  1.0000
  H   H3918     1.0  0.55716  0.68071  0.03293  1.0000
  H   H3919     1.0  0.66847  0.70806  0.01505  1.0000
  H   H3920     1.0  0.64627  0.92023  0.25904  1.0000
  C   C2225     1.0  0.51396  0.73586  0.23389  1.0000
  C   C2226     1.0  0.64831  0.89514  0.24707  1.0000
  C   C2227     1.0  0.54536  0.74751  0.01792  1.0000
  H   H3921     1.0  0.49233  0.72993  0.02535  1.0000
  H   H3922     1.0  0.61475  0.66432  0.24109  1.0000
  H   H3923     1.0  0.71529  0.47621  0.20703  1.0000
  C   C2228     1.0  0.72059  0.56727  0.24474  1.0000
  C   C2229     1.0  0.72692  0.88599  0.24980  1.0000
  H   H3924     1.0  0.49726  0.71454  0.18275  1.0000
  C   C2230     1.0  0.56157  0.69125  0.99667  1.0000
  H   H3925     1.0  0.70866  0.52979  0.22241  1.0000
  C   C2231     1.0  0.51895  0.95048  0.24444  1.0000
  H   H3926     1.0  0.52013  0.94358  0.23210  1.0000
  H   H3927     1.0  0.58869  0.84501  0.23759  1.0000
  C   C2232     1.0  0.71838  0.94967  0.22247  1.0000
  C   C2233     1.0  0.71818  0.59569  0.07056  1.0000
  H   H3928     1.0  0.49088  0.72576  0.00252  1.0000
  H   H3929     1.0  0.63336  0.84129  0.25743  1.0000
  C   C2234     1.0  0.69958  0.50965  0.00117  1.0000
  H   H3930     1.0  0.57539  0.69323  0.03270  1.0000
  H   H3931     1.0  0.56206  0.78783  0.20557  1.0000
  H   H3932     1.0  0.60540  0.86319  0.25056  1.0000
  C   C2235     1.0  0.72010  0.54273  0.97768  1.0000
  N   N124      1.0  0.55030  0.71085  0.02348  1.0000
  C   C2236     1.0  0.56016  0.71018  0.00348  1.0000
  H   H3933     1.0  0.60958  0.49126  0.14580  1.0000
  C   C2237     1.0  0.52945  0.71006  0.02633  1.0000
  Fe  Fe258     1.0  0.72520  0.61444  0.98427  1.0000
  H   H3934     1.0  0.55352  0.72177  0.99343  1.0000
  H   H3935     1.0  0.69049  0.57233  0.98597  1.0000
  H   H3936     1.0  0.72281  0.73236  0.99138  1.0000
  C   C2238     1.0  0.69404  0.57066  0.97095  1.0000
  S   S508      1.0  0.71729  0.86586  0.05315  1.0000
  H   H3937     1.0  0.62325  0.74874  0.05228  1.0000
  H   H3938     1.0  0.69287  0.47613  0.23698  1.0000
  H   H3939     1.0  0.54678  0.72906  0.04406  1.0000
  H   H3940     1.0  0.64549  0.47728  0.19511  1.0000
  H   H3941     1.0  0.52697  0.69521  0.03046  1.0000
  H   H3942     1.0  0.52170  0.71700  0.03844  1.0000
  H   H3943     1.0  0.70214  0.48139  0.01800  1.0000
  Fe  Fe259     1.0  0.72312  0.86159  0.02241  1.0000
  C   C2239     1.0  0.71631  0.51527  0.22633  1.0000
  H   H3944     1.0  0.71748  0.54682  0.99183  1.0000
  H   H3945     1.0  0.49843  0.80234  0.22528  1.0000
  H   H3946     1.0  0.70393  0.83842  0.23592  1.0000
  H   H3947     1.0  0.69106  0.52363  0.00313  1.0000
  H   H3948     1.0  0.67569  0.86317  0.24198  1.0000
  H   H3949     1.0  0.50640  0.82365  0.24448  1.0000
  C   C2240     1.0  0.72559  0.70845  0.96724  1.0000
  S   S509      1.0  0.67438  0.87996  0.28944  1.0000
  H   H3950     1.0  0.59367  0.49399  0.16780  1.0000
  H   H3951     1.0  0.68105  0.57558  0.96460  1.0000
  H   H3952     1.0  0.51286  0.78162  0.26200  1.0000
  N   N125      1.0  0.65270  0.63986  0.05309  1.0000
  C   C2241     1.0  0.65800  0.62104  0.06528  1.0000
  C   C2242     1.0  0.64254  0.65442  0.06520  1.0000
  C   C2243     1.0  0.63914  0.63738  0.04121  1.0000
  C   C2244     1.0  0.66961  0.64630  0.03978  1.0000
  C   C2245     1.0  0.68606  0.64876  0.04870  1.0000
  C   C2246     1.0  0.66910  0.60484  0.05476  1.0000
  C   C2247     1.0  0.62800  0.65584  0.03128  1.0000
  C   C2248     1.0  0.64958  0.65388  0.08378  1.0000
  C   C2249     1.0  0.63936  0.67078  0.09310  1.0000
  C   C2250     1.0  0.70443  0.64849  0.03443  1.0000
  C   C2251     1.0  0.67236  0.58629  0.06850  1.0000
  C   C2252     1.0  0.61727  0.65183  0.01728  1.0000
  H   H3953     1.0  0.64502  0.61636  0.07423  1.0000
  H   H3954     1.0  0.66684  0.62202  0.07542  1.0000
  H   H3955     1.0  0.64244  0.66890  0.05679  1.0000
  H   H3956     1.0  0.62742  0.65280  0.06986  1.0000
  H   H3957     1.0  0.62836  0.62905  0.04992  1.0000
  H   H3958     1.0  0.64674  0.62913  0.03000  1.0000
  H   H3959     1.0  0.67538  0.63654  0.02948  1.0000
  H   H3960     1.0  0.66541  0.66010  0.03092  1.0000
  H   H3961     1.0  0.68890  0.63752  0.06075  1.0000
  H   H3962     1.0  0.68261  0.66255  0.05360  1.0000
  H   H3963     1.0  0.66141  0.60250  0.04424  1.0000
  H   H3964     1.0  0.68318  0.60806  0.04744  1.0000
  H   H3965     1.0  0.63740  0.66592  0.02354  1.0000
  H   H3966     1.0  0.61736  0.66299  0.04174  1.0000
  H   H3967     1.0  0.64653  0.64101  0.09399  1.0000
  H   H3968     1.0  0.66490  0.65392  0.08158  1.0000
  H   H3969     1.0  0.64136  0.68425  0.08345  1.0000
  H   H3970     1.0  0.62400  0.67031  0.09724  1.0000
  H   H3971     1.0  0.64510  0.67041  0.10597  1.0000
  H   H3972     1.0  0.70245  0.65888  0.02144  1.0000
  H   H3973     1.0  0.71555  0.65192  0.04065  1.0000
  H   H3974     1.0  0.70932  0.63425  0.03054  1.0000
  H   H3975     1.0  0.67971  0.58786  0.07968  1.0000
  H   H3976     1.0  0.65872  0.58162  0.07516  1.0000
  H   H3977     1.0  0.68136  0.57521  0.06084  1.0000
  H   H3978     1.0  0.48739  0.72090  0.20545  1.0000
  H   H3979     1.0  0.60697  0.64243  0.02455  1.0000
  H   H3980     1.0  0.60944  0.66531  0.01061  1.0000
  N   N126      1.0  0.62143  0.54184  0.15397  1.0000
  C   C2253     1.0  0.63310  0.53838  0.16933  1.0000
  C   C2254     1.0  0.63418  0.54456  0.13506  1.0000
  C   C2255     1.0  0.60785  0.56018  0.15558  1.0000
  C   C2256     1.0  0.61030  0.52626  0.15554  1.0000
  H   H3981     1.0  0.66218  0.85126  0.26143  1.0000
  C   C2257     1.0  0.62170  0.53858  0.18955  1.0000
  C   C2258     1.0  0.59604  0.56792  0.13960  1.0000
  H   H3982     1.0  0.66273  0.89001  0.25036  1.0000
  H   H3983     1.0  0.66649  0.87724  0.17932  1.0000
  C   C2259     1.0  0.58040  0.58426  0.14462  1.0000
  H   H3984     1.0  0.64219  0.54933  0.16668  1.0000
  H   H3985     1.0  0.64315  0.52493  0.16931  1.0000
  H   H3986     1.0  0.62586  0.54748  0.12349  1.0000
  H   H3987     1.0  0.64089  0.55720  0.13352  1.0000
  H   H3988     1.0  0.61562  0.57146  0.15626  1.0000
  H   H3989     1.0  0.59757  0.55873  0.16897  1.0000
  H   H3990     1.0  0.59624  0.52913  0.16461  1.0000
  H   H3991     1.0  0.60708  0.52592  0.14153  1.0000
  H   H3992     1.0  0.51203  0.81315  0.26743  1.0000
  H   H3993     1.0  0.67284  0.88646  0.21610  1.0000
  H   H3994     1.0  0.61619  0.55338  0.19165  1.0000
  H   H3995     1.0  0.52222  0.73274  0.00242  1.0000
  H   H3996     1.0  0.58941  0.55678  0.13680  1.0000
  H   H3997     1.0  0.60513  0.57351  0.12648  1.0000
  H   H3998     1.0  0.64373  0.51579  0.12913  1.0000
  C   C2260     1.0  0.72639  0.88756  0.21137  1.0000
  H   H3999     1.0  0.62799  0.81385  0.05700  1.0000
  H   H4000     1.0  0.64282  0.72574  0.03402  1.0000
  H   H4001     1.0  0.59756  0.85501  0.29531  1.0000
  S   S510      1.0  0.58944  0.76935  0.29031  1.0000
  H   H4002     1.0  0.49401  0.75520  0.24994  1.0000
  H   H4003     1.0  0.58652  0.59587  0.14725  1.0000
  H   H4004     1.0  0.57251  0.58988  0.13275  1.0000
  H   H4005     1.0  0.57032  0.57950  0.15732  1.0000
  C   C2261     1.0  0.49690  0.57018  0.16583  1.0000
  C   C2262     1.0  0.60871  0.49123  0.16101  1.0000
  H   H4006     1.0  0.56541  0.76257  0.02410  1.0000
  H   H4007     1.0  0.68825  0.95340  0.28302  1.0000
  H   H4008     1.0  0.55579  0.80314  0.18452  1.0000
  H   H4009     1.0  0.68471  0.94161  0.24779  1.0000
  C   C2263     1.0  0.51220  0.71930  0.25013  1.0000
  C   C2264     1.0  0.65219  0.80853  0.03557  1.0000
  C   C2265     1.0  0.50460  0.81170  0.25628  1.0000
  H   H4010     1.0  0.64654  0.53634  0.20224  1.0000
  H   H4011     1.0  0.72361  0.48571  0.25548  1.0000
  H   H4012     1.0  0.51797  0.75444  0.25115  1.0000
  H   H4013     1.0  0.66932  0.54527  0.11169  1.0000
  C   C2266     1.0  0.51280  0.79294  0.24948  1.0000
  C   C2267     1.0  0.52885  0.77265  0.21662  1.0000
  C   C2268     1.0  0.63403  0.52936  0.20443  1.0000
  C   C2269     1.0  0.65804  0.62207  0.23723  1.0000
  C   C2270     1.0  0.61368  0.85576  0.23900  1.0000
  H   H4014     1.0  0.52453  0.79350  0.19107  1.0000
  N   N127      1.0  0.64707  0.86298  0.23827  1.0000
  H   H4015     1.0  0.48936  0.81245  0.26225  1.0000
  H   H4016     1.0  0.48670  0.78799  0.24449  1.0000
  C   C2271     1.0  0.65037  0.63744  0.22195  1.0000
  C   C2272     1.0  0.49274  0.70883  0.19784  1.0000
  H   H4017     1.0  0.63427  0.50214  0.15740  1.0000
  C   C2273     1.0  0.65953  0.82533  0.03887  1.0000
  H   H4018     1.0  0.61050  0.83252  0.22636  1.0000
  H   H4019     1.0  0.55135  0.74872  0.00272  1.0000
  H   H4020     1.0  0.65081  0.65126  0.22546  1.0000
  H   H4021     1.0  0.72732  0.51189  0.21412  1.0000
  H   H4022     1.0  0.60438  0.82893  0.25171  1.0000
  C   C2274     1.0  0.70174  0.55005  0.96912  1.0000
  C   C2275     1.0  0.66938  0.87668  0.20830  1.0000
  C   C2276     1.0  0.69459  0.82856  0.24440  1.0000
  H   H4023     1.0  0.64945  0.85892  0.20941  1.0000
  H   H4024     1.0  0.68337  0.89074  0.18188  1.0000
  H   H4025     1.0  0.55749  0.67466  0.08376  1.0000
  H   H4026     1.0  0.67272  0.62337  0.23777  1.0000
  C   C2277     1.0  0.69814  0.93182  0.24972  1.0000
  H   H4027     1.0  0.63387  0.67405  0.20729  1.0000
  C   C2278     1.0  0.60929  0.67478  0.22950  1.0000
  C   C2279     1.0  0.69836  0.70762  0.00328  1.0000
  C   C2280     1.0  0.60353  0.82589  0.29180  1.0000
  H   H4028     1.0  0.68446  0.69155  0.02854  1.0000
  H   H4029     1.0  0.62374  0.88566  0.24416  1.0000
  H   H4030     1.0  0.72317  0.63386  0.07322  1.0000
  H   H4031     1.0  0.52111  0.70632  0.20329  1.0000
  C   C2281     1.0  0.63425  0.84843  0.24253  1.0000
  N   N128      1.0  0.62047  0.65069  0.20649  1.0000
  C   C2282     1.0  0.62994  0.63586  0.22066  1.0000
  C   C2283     1.0  0.60096  0.64703  0.20635  1.0000
  C   C2284     1.0  0.63231  0.64903  0.18732  1.0000
  C   C2285     1.0  0.61947  0.67041  0.20994  1.0000
  H   H4032     1.0  0.61328  0.86561  0.22544  1.0000
  H   H4033     1.0  0.55469  0.66306  0.06550  1.0000
  C   C2286     1.0  0.62359  0.66077  0.17016  1.0000
  C   C2287     1.0  0.58964  0.63831  0.22521  1.0000
  C   C2288     1.0  0.56958  0.63750  0.22306  1.0000
  H   H4034     1.0  0.53854  0.76968  0.22706  1.0000
  H   H4035     1.0  0.50358  0.76192  0.20282  1.0000
  C   C2289     1.0  0.63715  0.65843  0.15175  1.0000
  H   H4036     1.0  0.63042  0.62158  0.21744  1.0000
  H   H4037     1.0  0.62167  0.63575  0.23505  1.0000
  H   H4038     1.0  0.59202  0.66014  0.20030  1.0000
  H   H4039     1.0  0.60192  0.63684  0.19690  1.0000
  H   H4040     1.0  0.63556  0.63400  0.18526  1.0000
  H   H4041     1.0  0.64616  0.65344  0.18610  1.0000
  H   H4042     1.0  0.65990  0.65271  0.99836  1.0000
  H   H4043     1.0  0.61180  0.68092  0.19971  1.0000
  C   C2290     1.0  0.63735  0.87882  0.24888  1.0000
  H   H4044     1.0  0.59390  0.67519  0.23083  1.0000
  H   H4045     1.0  0.67410  0.52093  0.10901  1.0000
  H   H4046     1.0  0.69048  0.54173  0.97585  1.0000
  H   H4047     1.0  0.62040  0.67601  0.17091  1.0000
  H   H4048     1.0  0.61036  0.65621  0.16932  1.0000
  H   H4049     1.0  0.59655  0.62358  0.22971  1.0000
  H   H4050     1.0  0.58867  0.64628  0.23662  1.0000
  H   H4051     1.0  0.56164  0.65191  0.21926  1.0000
  H   H4052     1.0  0.56989  0.62918  0.21200  1.0000
  H   H4053     1.0  0.56199  0.63070  0.23656  1.0000
  H   H4054     1.0  0.64783  0.83740  0.04077  1.0000
  C   C2291     1.0  0.67461  0.83454  0.23983  1.0000
  C   C2292     1.0  0.49675  0.77258  0.21199  1.0000
  H   H4055     1.0  0.50679  0.69160  0.22052  1.0000
  C   C2293     1.0  0.61933  0.50595  0.16380  1.0000
  H   H4056     1.0  0.67524  0.47657  0.22286  1.0000
  H   H4057     1.0  0.64993  0.66460  0.15094  1.0000
  H   H4058     1.0  0.64151  0.64331  0.15051  1.0000
  H   H4059     1.0  0.62997  0.66578  0.13973  1.0000
  N   N129      1.0  0.62686  0.78713  0.04963  1.0000
  C   C2294     1.0  0.61562  0.77995  0.06840  1.0000
  C   C2295     1.0  0.64110  0.77090  0.04290  1.0000
  C   C2296     1.0  0.63782  0.80118  0.05274  1.0000
  C   C2297     1.0  0.61462  0.79670  0.03499  1.0000
  C   C2298     1.0  0.59582  0.78957  0.03639  1.0000
  C   C2299     1.0  0.60299  0.79533  0.07918  1.0000
  H   H4060     1.0  0.53187  0.94495  0.25083  1.0000
  C   C2300     1.0  0.63317  0.75408  0.03984  1.0000
  C   C2301     1.0  0.69443  0.49588  0.01924  1.0000
  C   C2302     1.0  0.58611  0.79905  0.01957  1.0000
  C   C2303     1.0  0.58815  0.78705  0.09471  1.0000
  H   H4061     1.0  0.72087  0.93708  0.21549  1.0000
  H   H4062     1.0  0.62529  0.77116  0.07793  1.0000
  H   H4063     1.0  0.60648  0.77029  0.06696  1.0000
  H   H4064     1.0  0.64967  0.77572  0.02912  1.0000
  H   H4065     1.0  0.65128  0.76540  0.05289  1.0000
  H   H4066     1.0  0.64578  0.79502  0.06456  1.0000
  C   C2304     1.0  0.72021  0.58394  0.08790  1.0000
  H   H4067     1.0  0.61057  0.81210  0.03531  1.0000
  H   H4068     1.0  0.62282  0.79584  0.02058  1.0000
  H   H4069     1.0  0.58580  0.79293  0.04919  1.0000
  H   H4070     1.0  0.59801  0.77417  0.03699  1.0000
  H   H4071     1.0  0.61184  0.80157  0.08595  1.0000
  H   H4072     1.0  0.59566  0.80688  0.06961  1.0000
  S   S511      1.0  0.72641  0.88719  0.18751  1.0000
  H   H4073     1.0  0.66468  0.79736  0.03298  1.0000
  H   H4074     1.0  0.68269  0.73085  0.98730  1.0000
  H   H4075     1.0  0.62605  0.75825  0.02735  1.0000
  H   H4076     1.0  0.70008  0.92051  0.24125  1.0000
  H   H4077     1.0  0.71771  0.86532  0.09220  1.0000
  H   H4078     1.0  0.65646  0.73245  0.04841  1.0000
  H   H4079     1.0  0.57199  0.79501  0.02168  1.0000
  H   H4080     1.0  0.58421  0.81464  0.01789  1.0000
  H   H4081     1.0  0.59456  0.79449  0.00647  1.0000
  H   H4082     1.0  0.57832  0.78139  0.08861  1.0000
  H   H4083     1.0  0.59501  0.77550  0.10469  1.0000
  H   H4084     1.0  0.57980  0.79819  0.10264  1.0000
  C   C2305     1.0  0.49778  0.72015  0.01508  1.0000
  H   H4085     1.0  0.71914  0.69553  0.96929  1.0000
  H   H4086     1.0  0.72227  0.49353  0.28567  1.0000
  H   H4087     1.0  0.69437  0.82816  0.25959  1.0000
  H   H4088     1.0  0.55830  0.77797  0.18635  1.0000
  C   C2306     1.0  0.65657  0.47518  0.18317  1.0000
  H   H4089     1.0  0.63686  0.90128  0.27538  1.0000
  H   H4090     1.0  0.64568  0.81302  0.02272  1.0000
  H   H4091     1.0  0.71388  0.51894  0.25479  1.0000
  H   H4092     1.0  0.67903  0.49562  0.02187  1.0000
  C   C2307     1.0  0.66205  0.67767  0.97737  1.0000
  C   C2308     1.0  0.71479  0.94251  0.24406  1.0000
  C   C2309     1.0  0.50088  0.78932  0.23590  1.0000
  C   C2310     1.0  0.66830  0.48882  0.17571  1.0000
  H   H4093     1.0  0.65848  0.89970  0.18737  1.0000
  C   C2311     1.0  0.55368  0.69346  0.05746  1.0000
  H   H4094     1.0  0.69792  0.50028  0.03147  1.0000
  H   H4095     1.0  0.69546  0.50476  0.98962  1.0000
  H   H4096     1.0  0.52106  0.71963  0.26054  1.0000
  H   H4097     1.0  0.68043  0.68657  0.00686  1.0000
  H   H4098     1.0  0.71108  0.69653  0.00192  1.0000
  H   H4099     1.0  0.64924  0.90341  0.23261  1.0000
  H   H4100     1.0  0.65916  0.52322  0.14132  1.0000
  C   C2312     1.0  0.60378  0.83953  0.23863  1.0000
  H   H4101     1.0  0.64026  0.83703  0.23405  1.0000
  H   H4102     1.0  0.72902  0.49621  0.99933  1.0000
  C   C2313     1.0  0.55977  0.69406  0.03592  1.0000
  H   H4103     1.0  0.57361  0.68096  0.00172  1.0000
  H   H4104     1.0  0.53807  0.69625  0.06146  1.0000
  H   H4105     1.0  0.55957  0.70413  0.06207  1.0000
  H   H4106     1.0  0.64925  0.62344  0.25123  1.0000
  C   C2314     1.0  0.51027  0.69725  0.20530  1.0000
  C   C2315     1.0  0.66265  0.53307  0.11163  1.0000
  H   H4107     1.0  0.49974  0.56114  0.15489  1.0000
  H   H4108     1.0  0.56879  0.72794  0.02833  1.0000
  H   H4109     1.0  0.65832  0.60786  0.23412  1.0000
  H   H4110     1.0  0.51632  0.68537  0.19751  1.0000
  H   H4111     1.0  0.68097  0.86434  0.20804  1.0000
  Fe  Fe260     1.0  0.57061  0.79693  0.29398  1.0000
  H   H4112     1.0  0.49394  0.70609  0.02143  1.0000
  C   C2316     1.0  0.66504  0.85376  0.24577  1.0000
  H   H4113     1.0  0.52976  0.74940  0.01993  1.0000
  C   C2317     1.0  0.53253  0.79103  0.20282  1.0000
  H   H4114     1.0  0.63872  0.88182  0.21353  1.0000
  C   C2318     1.0  0.66885  0.65964  0.98662  1.0000
  H   H4115     1.0  0.50488  0.73487  0.22401  1.0000
  C   C2319     1.0  0.68243  0.48634  0.16009  1.0000
  H   H4116     1.0  0.52367  0.70944  0.99834  1.0000
  C   C2320     1.0  0.61183  0.69415  0.23204  1.0000
  H   H4117     1.0  0.72757  0.60011  0.04048  1.0000
  H   H4118     1.0  0.48224  0.68733  0.18899  1.0000
  H   H4119     1.0  0.67007  0.82990  0.02648  1.0000
  S   S512      1.0  0.57990  0.82523  0.29078  1.0000
  S   S513      1.0  0.72201  0.54507  0.14827  1.0000
  C   C2321     1.0  0.72049  0.56422  0.22648  1.0000
  H   H4120     1.0  0.50764  0.56491  0.17516  1.0000
  H   H4121     1.0  0.57675  0.67083  0.06464  1.0000
  H   H4122     1.0  0.70605  0.50545  0.22942  1.0000
  H   H4123     1.0  0.49833  0.58488  0.15896  1.0000
  H   H4124     1.0  0.50656  0.94678  0.25506  1.0000
  H   H4125     1.0  0.64239  0.82477  0.97642  1.0000
  H   H4126     1.0  0.64794  0.68467  0.98215  1.0000
  C   C2322     1.0  0.72941  0.59101  0.05372  1.0000
  C   C2323     1.0  0.72084  0.51080  0.99744  1.0000
  C   C2324     1.0  0.71728  0.73943  0.97827  1.0000
  H   H4127     1.0  0.70847  0.96589  0.18837  1.0000
  S   S514      1.0  0.72819  0.88473  0.27360  1.0000
  C   C2325     1.0  0.66169  0.97050  0.29216  1.0000
  C   C2326     1.0  0.60838  0.84265  0.29413  1.0000
  C   C2327     1.0  0.51704  0.97186  0.23846  1.0000
  H   H4128     1.0  0.57787  0.69991  0.96905  1.0000
  H   H4129     1.0  0.72462  0.49546  0.17947  1.0000
  H   H4130     1.0  0.72302  0.51695  0.00922  1.0000
  H   H4131     1.0  0.72593  0.64351  0.09280  1.0000
  Fe  Fe261     1.0  0.70387  0.87532  0.29546  1.0000
  H   H4132     1.0  0.61412  0.79726  0.28778  1.0000
  C   C2328     1.0  0.61762  0.81009  0.29002  1.0000
  H   H4133     1.0  0.73041  0.55146  0.96873  1.0000
  C   C2329     1.0  0.64101  0.82729  0.29423  1.0000
  H   H4134     1.0  0.72899  0.52810  0.27299  1.0000
  C   C2330     1.0  0.62707  0.84333  0.29550  1.0000
  C   C2331     1.0  0.63632  0.81087  0.29100  1.0000
  H   H4135     1.0  0.64716  0.79857  0.28958  1.0000
  H   H4136     1.0  0.56678  0.67980  0.97083  1.0000
  N   N130      1.0  0.72842  0.52196  0.97883  1.0000
  H   H4137     1.0  0.48542  0.62719  0.16276  1.0000
  H   H4138     1.0  0.72419  0.77592  0.97641  1.0000
  H   H4139     1.0  0.72728  0.93276  0.24872  1.0000
  S   S515      1.0  0.66443  0.82703  0.29661  1.0000
  Fe  Fe262     1.0  0.63819  0.72387  0.96490  1.0000
  H   H4140     1.0  0.72870  0.48428  0.97394  1.0000
  C   C2332     1.0  0.69865  0.65927  0.96521  1.0000
  H   H4141     1.0  0.63062  0.85611  0.29781  1.0000
  H   H4142     1.0  0.69972  0.47270  0.19306  1.0000
  C   C2333     1.0  0.68136  0.92383  0.35287  1.0000
  C   C2334     1.0  0.71404  0.83862  0.39693  1.0000
  H   H4143     1.0  0.72289  0.75604  0.46461  1.0000
  H   H4144     1.0  0.54173  0.82084  0.57231  1.0000
  S   S516      1.0  0.50180  0.73873  0.56122  1.0000
  C   C2335     1.0  0.71865  0.84620  0.56101  1.0000
  H   H4145     1.0  0.69114  0.79771  0.38698  1.0000
  H   H4146     1.0  0.48730  0.77888  0.52253  1.0000
  H   H4147     1.0  0.54495  0.82352  0.36694  1.0000
  H   H4148     1.0  0.62525  0.78777  0.41376  1.0000
  Fe  Fe263     1.0  0.70000  0.83742  0.48754  1.0000
  C   C2336     1.0  0.64358  0.97043  0.30286  1.0000
  S   S517      1.0  0.67454  0.82277  0.49767  1.0000
  H   H4149     1.0  0.70009  0.95693  0.37117  1.0000
  H   H4150     1.0  0.70192  0.94182  0.34798  1.0000
  H   H4151     1.0  0.56384  0.63331  0.42586  1.0000
  H   H4152     1.0  0.72313  0.83705  0.42333  1.0000
  S   S518      1.0  0.69949  0.86860  0.47889  1.0000
  H   H4153     1.0  0.60352  0.82872  0.37067  1.0000
  Fe  Fe264     1.0  0.63159  0.75537  0.45744  1.0000
  S   S519      1.0  0.63262  0.73188  0.48229  1.0000
  S   S520      1.0  0.65349  0.77433  0.44569  1.0000
  Fe  Fe265     1.0  0.59823  0.74448  0.44586  1.0000
  S   S521      1.0  0.59638  0.72010  0.47002  1.0000
  S   S522      1.0  0.57733  0.75331  0.42526  1.0000
  Fe  Fe266     1.0  0.60063  0.73985  0.48779  1.0000
  S   S523      1.0  0.58655  0.74214  0.51824  1.0000
  Fe  Fe267     1.0  0.62824  0.71392  0.46295  1.0000
  S   S524      1.0  0.64469  0.68537  0.45706  1.0000
  S   S525      1.0  0.60021  0.76481  0.46418  1.0000
  S   S526      1.0  0.62951  0.73681  0.43761  1.0000
  H   H4154     1.0  0.62335  0.80264  0.33051  1.0000
  S   S527      1.0  0.50709  0.74564  0.61313  1.0000
  H   H4155     1.0  0.49605  0.83364  0.62993  1.0000
  H   H4156     1.0  0.56326  0.81015  0.59839  1.0000
  C   C2337     1.0  0.72270  0.76821  0.47145  1.0000
  H   H4157     1.0  0.63045  0.78857  0.37952  1.0000
  Fe  Fe268     1.0  0.57189  0.75781  0.31759  1.0000
  S   S528      1.0  0.55404  0.78572  0.32171  1.0000
  S   S529      1.0  0.58837  0.74045  0.34043  1.0000
  H   H4158     1.0  0.68595  0.85968  0.44529  1.0000
  H   H4159     1.0  0.57065  0.75826  0.59960  1.0000
  H   H4160     1.0  0.51500  0.77957  0.54135  1.0000
  H   H4161     1.0  0.72642  0.51325  0.31545  1.0000
  Fe  Fe269     1.0  0.69275  0.85703  0.33668  1.0000
  S   S530      1.0  0.66235  0.86023  0.33373  1.0000
  S   S531      1.0  0.70166  0.84019  0.36394  1.0000
  Fe  Fe270     1.0  0.67341  0.85076  0.30592  1.0000
  C   C2338     1.0  0.71869  0.84624  0.41103  1.0000
  Fe  Fe271     1.0  0.66599  0.88916  0.31766  1.0000
  S   S532      1.0  0.70372  0.84536  0.30985  1.0000
  S   S533      1.0  0.69560  0.88670  0.32266  1.0000
  H   H4162     1.0  0.68205  0.83615  0.42838  1.0000
  H   H4163     1.0  0.67813  0.82488  0.40414  1.0000
  S   S534      1.0  0.55141  0.74943  0.30276  1.0000
  H   H4164     1.0  0.64802  0.80938  0.39098  1.0000
  H   H4165     1.0  0.70734  0.70998  0.43094  1.0000
  H   H4166     1.0  0.72921  0.66125  0.40371  1.0000
  H   H4167     1.0  0.71482  0.82355  0.39859  1.0000
  H   H4168     1.0  0.62770  0.67449  0.40244  1.0000
  C   C2339     1.0  0.67147  0.84932  0.42780  1.0000
  H   H4169     1.0  0.68318  0.76722  0.50917  1.0000
  Fe  Fe272     1.0  0.49065  0.74269  0.59170  1.0000
  N   N131      1.0  0.64924  0.83964  0.40966  1.0000
  H   H4170     1.0  0.60011  0.80854  0.53406  1.0000
  H   H4171     1.0  0.70048  0.78533  0.52860  1.0000
  C   C2340     1.0  0.58140  0.75107  0.40117  1.0000
  C   C2341     1.0  0.59854  0.74182  0.39239  1.0000
  C   C2342     1.0  0.60050  0.73881  0.37376  1.0000
  C   C2343     1.0  0.58561  0.74557  0.36346  1.0000
  C   C2344     1.0  0.56878  0.75556  0.37197  1.0000
  C   C2345     1.0  0.56667  0.75815  0.39075  1.0000
  H   H4172     1.0  0.61017  0.73674  0.40003  1.0000
  H   H4173     1.0  0.61362  0.73120  0.36724  1.0000
  H   H4174     1.0  0.55720  0.76080  0.36425  1.0000
  H   H4175     1.0  0.55337  0.76539  0.39736  1.0000
  C   C2346     1.0  0.66464  0.67322  0.46716  1.0000
  C   C2347     1.0  0.67540  0.65717  0.46025  1.0000
  C   C2348     1.0  0.69123  0.64695  0.46805  1.0000
  C   C2349     1.0  0.69633  0.65263  0.48297  1.0000
  C   C2350     1.0  0.68558  0.66869  0.48988  1.0000
  C   C2351     1.0  0.66987  0.67903  0.48195  1.0000
  H   H4176     1.0  0.67143  0.65257  0.44883  1.0000
  H   H4177     1.0  0.69941  0.63462  0.46261  1.0000
  H   H4178     1.0  0.68940  0.67314  0.50146  1.0000
  H   H4179     1.0  0.66161  0.69126  0.48750  1.0000
  H   H4180     1.0  0.72346  0.50543  0.49150  1.0000
  H   H4181     1.0  0.54210  0.80400  0.61412  1.0000
  C   C2352     1.0  0.66863  0.93627  0.30040  1.0000
  C   C2353     1.0  0.70832  0.85037  0.38078  1.0000
  C   C2354     1.0  0.70743  0.86983  0.37874  1.0000
  C   C2355     1.0  0.71224  0.87745  0.39278  1.0000
  H   H4182     1.0  0.57475  0.81659  0.37913  1.0000
  C   C2356     1.0  0.71777  0.86572  0.40905  1.0000
  H   H4183     1.0  0.70310  0.87898  0.36635  1.0000
  C   C2357     1.0  0.68815  0.75633  0.50003  1.0000
  C   C2358     1.0  0.66891  0.80914  0.48323  1.0000
  C   C2359     1.0  0.65367  0.79936  0.48984  1.0000
  C   C2360     1.0  0.64890  0.78841  0.47856  1.0000
  C   C2361     1.0  0.65940  0.78721  0.46061  1.0000
  C   C2362     1.0  0.67482  0.79672  0.45414  1.0000
  C   C2363     1.0  0.67947  0.80774  0.46535  1.0000
  H   H4184     1.0  0.64547  0.80033  0.50370  1.0000
  H   H4185     1.0  0.63703  0.78106  0.48370  1.0000
  H   H4186     1.0  0.68320  0.79562  0.44039  1.0000
  H   H4187     1.0  0.69114  0.81526  0.46008  1.0000
  H   H4188     1.0  0.70667  0.51995  0.30276  1.0000
  N   N132      1.0  0.54711  0.79030  0.57821  1.0000
  C   C2364     1.0  0.65175  0.84502  0.42757  1.0000
  C   C2365     1.0  0.53705  0.78954  0.56250  1.0000
  C   C2366     1.0  0.52553  0.73911  0.54950  1.0000
  C   C2367     1.0  0.54004  0.73882  0.55924  1.0000
  C   C2368     1.0  0.55859  0.73965  0.54945  1.0000
  C   C2369     1.0  0.56296  0.74056  0.52981  1.0000
  C   C2370     1.0  0.54848  0.74062  0.52007  1.0000
  C   C2371     1.0  0.52988  0.73991  0.52988  1.0000
  H   H4189     1.0  0.53700  0.73767  0.57436  1.0000
  H   H4190     1.0  0.56969  0.73938  0.55715  1.0000
  H   H4191     1.0  0.55160  0.74131  0.50499  1.0000
  H   H4192     1.0  0.51881  0.74004  0.52220  1.0000
  C   C2372     1.0  0.57429  0.64232  0.41798  1.0000
  H   H4193     1.0  0.54604  0.83544  0.61630  1.0000
  C   C2373     1.0  0.67371  0.95960  0.34558  1.0000
  H   H4194     1.0  0.67615  0.85950  0.41523  1.0000
  C   C2374     1.0  0.57445  0.80232  0.55302  1.0000
  C   C2375     1.0  0.61453  0.82186  0.36034  1.0000
  H   H4195     1.0  0.66205  0.81105  0.41943  1.0000
  H   H4196     1.0  0.56778  0.80190  0.54096  1.0000
  H   H4197     1.0  0.66645  0.84843  0.45822  1.0000
  N   N133      1.0  0.59242  0.68457  0.42886  1.0000
  C   C2376     1.0  0.57381  0.69791  0.43163  1.0000
  C   C2377     1.0  0.59958  0.67736  0.44735  1.0000
  C   C2378     1.0  0.60657  0.69573  0.41593  1.0000
  C   C2379     1.0  0.59120  0.66843  0.41975  1.0000
  C   C2380     1.0  0.57624  0.65611  0.43007  1.0000
  C   C2381     1.0  0.56431  0.70568  0.41396  1.0000
  C   C2382     1.0  0.62707  0.68485  0.41163  1.0000
  C   C2383     1.0  0.58476  0.67449  0.46558  1.0000
  C   C2384     1.0  0.59435  0.66498  0.48248  1.0000
  C   C2385     1.0  0.54545  0.71856  0.41877  1.0000
  H   H4198     1.0  0.57567  0.71021  0.43731  1.0000
  H   H4199     1.0  0.56312  0.69121  0.44235  1.0000
  H   H4200     1.0  0.60974  0.66388  0.44672  1.0000
  H   H4201     1.0  0.60786  0.68735  0.44996  1.0000
  H   H4202     1.0  0.60714  0.70829  0.42193  1.0000
  H   H4203     1.0  0.60226  0.70125  0.40198  1.0000
  H   H4204     1.0  0.58884  0.67368  0.40499  1.0000
  H   H4205     1.0  0.60493  0.65858  0.41852  1.0000
  H   H4206     1.0  0.56211  0.66469  0.43354  1.0000
  H   H4207     1.0  0.58070  0.64757  0.44317  1.0000
  H   H4208     1.0  0.57321  0.71409  0.40278  1.0000
  H   H4209     1.0  0.56140  0.69406  0.40811  1.0000
  H   H4210     1.0  0.66461  0.88885  0.37576  1.0000
  H   H4211     1.0  0.57666  0.68835  0.46867  1.0000
  H   H4212     1.0  0.57456  0.66581  0.46448  1.0000
  H   H4213     1.0  0.58355  0.66364  0.49545  1.0000
  H   H4214     1.0  0.60211  0.65068  0.48055  1.0000
  H   H4215     1.0  0.60444  0.67352  0.48440  1.0000
  C   C2386     1.0  0.72791  0.53352  0.47567  1.0000
  H   H4216     1.0  0.53533  0.71060  0.42905  1.0000
  H   H4217     1.0  0.54748  0.73051  0.42476  1.0000
  H   H4218     1.0  0.53930  0.72445  0.40580  1.0000
  H   H4219     1.0  0.61312  0.77526  0.37875  1.0000
  C   C2387     1.0  0.51602  0.78694  0.56825  1.0000
  H   H4220     1.0  0.67745  0.92379  0.36824  1.0000
  H   H4221     1.0  0.53733  0.80266  0.55183  1.0000
  H   H4222     1.0  0.64081  0.75253  0.32620  1.0000
  H   H4223     1.0  0.57292  0.77353  0.56660  1.0000
  C   C2388     1.0  0.71822  0.90429  0.54720  1.0000
  Fe  Fe273     1.0  0.72389  0.86021  0.45639  1.0000
  H   H4224     1.0  0.66630  0.95756  0.36046  1.0000
  H   H4225     1.0  0.72471  0.57207  0.41219  1.0000
  H   H4226     1.0  0.63395  0.76434  0.35533  1.0000
  H   H4227     1.0  0.68554  0.76274  0.48562  1.0000
  C   C2389     1.0  0.55660  0.81279  0.36141  1.0000
  H   H4228     1.0  0.70940  0.67050  0.43286  1.0000
  H   H4229     1.0  0.68031  0.72946  0.49917  1.0000
  H   H4230     1.0  0.59199  0.80362  0.34106  1.0000
  H   H4231     1.0  0.59688  0.86015  0.35112  1.0000
  H   H4232     1.0  0.62813  0.82122  0.36511  1.0000
  C   C2390     1.0  0.54298  0.77430  0.59418  1.0000
  C   C2391     1.0  0.57551  0.81654  0.36403  1.0000
  H   H4233     1.0  0.71213  0.76162  0.53010  1.0000
  H   H4234     1.0  0.70973  0.83858  0.57299  1.0000
  H   H4235     1.0  0.52416  0.81095  0.58911  1.0000
  H   H4236     1.0  0.55408  0.79862  0.36909  1.0000
  H   H4237     1.0  0.71127  0.74068  0.51423  1.0000
  S   S535      1.0  0.72369  0.87586  0.42639  1.0000
  H   H4238     1.0  0.63241  0.67718  0.42459  1.0000
  C   C2392     1.0  0.61157  0.85606  0.34389  1.0000
  C   C2393     1.0  0.65305  0.85468  0.39268  1.0000
  H   H4239     1.0  0.63614  0.70615  0.38796  1.0000
  C   C2394     1.0  0.56803  0.78784  0.57050  1.0000
  H   H4240     1.0  0.66885  0.92251  0.34729  1.0000
  H   H4241     1.0  0.57705  0.83089  0.35623  1.0000
  C   C2395     1.0  0.61108  0.78462  0.41384  1.0000
  H   H4242     1.0  0.52905  0.77841  0.60304  1.0000
  H   H4243     1.0  0.60193  0.81077  0.39716  1.0000
  C   C2396     1.0  0.70308  0.71808  0.45843  1.0000
  H   H4244     1.0  0.69250  0.91142  0.35059  1.0000
  H   H4245     1.0  0.66837  0.85538  0.38911  1.0000
  C   C2397     1.0  0.62611  0.79457  0.34448  1.0000
  C   C2398     1.0  0.72469  0.66532  0.43290  1.0000
  H   H4246     1.0  0.58804  0.63304  0.41437  1.0000
  S   S536      1.0  0.71983  0.83493  0.50751  1.0000
  H   H4247     1.0  0.70191  0.57107  0.42714  1.0000
  C   C2399     1.0  0.62972  0.83488  0.41178  1.0000
  H   H4248     1.0  0.49228  0.78621  0.55528  1.0000
  C   C2400     1.0  0.68315  0.72818  0.45584  1.0000
  H   H4249     1.0  0.71290  0.73667  0.49133  1.0000
  S   S537      1.0  0.71642  0.64063  0.49295  1.0000
  H   H4250     1.0  0.71433  0.59004  0.42628  1.0000
  H   H4251     1.0  0.63106  0.77469  0.31351  1.0000
  S   S538      1.0  0.71702  0.88311  0.52074  1.0000
  C   C2401     1.0  0.61532  0.78983  0.37836  1.0000
  H   H4252     1.0  0.66095  0.74715  0.50680  1.0000
  H   H4253     1.0  0.49017  0.76311  0.50596  1.0000
  H   H4254     1.0  0.62404  0.95314  0.32055  1.0000
  H   H4255     1.0  0.70123  0.69251  0.45031  1.0000
  C   C2402     1.0  0.72582  0.91620  0.55535  1.0000
  C   C2403     1.0  0.71757  0.52459  0.51094  1.0000
  S   S539      1.0  0.64369  0.91457  0.32294  1.0000
  C   C2404     1.0  0.71607  0.57475  0.42594  1.0000
  H   H4256     1.0  0.67711  0.73502  0.52250  1.0000
  C   C2405     1.0  0.55037  0.75299  0.62464  1.0000
  C   C2406     1.0  0.67598  0.74098  0.50758  1.0000
  C   C2407     1.0  0.64066  0.69828  0.40131  1.0000
  H   H4257     1.0  0.59159  0.84613  0.40778  1.0000
  H   H4258     1.0  0.64128  0.70842  0.41031  1.0000
  H   H4259     1.0  0.51490  0.77258  0.57623  1.0000
  H   H4260     1.0  0.71209  0.72902  0.45568  1.0000
  H   H4261     1.0  0.72571  0.67548  0.50253  1.0000
  H   H4262     1.0  0.68309  0.73606  0.44126  1.0000
  H   H4263     1.0  0.72233  0.79818  0.44071  1.0000
  Fe  Fe274     1.0  0.72156  0.86560  0.49711  1.0000
  H   H4264     1.0  0.71076  0.85057  0.54907  1.0000
  H   H4265     1.0  0.70500  0.89979  0.55412  1.0000
  S   S540      1.0  0.72294  0.82930  0.46412  1.0000
  H   H4266     1.0  0.56929  0.65007  0.40482  1.0000
  S   S541      1.0  0.50310  0.78762  0.31189  1.0000
  H   H4267     1.0  0.57093  0.81682  0.55628  1.0000
  H   H4268     1.0  0.72709  0.77842  0.54636  1.0000
  H   H4269     1.0  0.58854  0.79252  0.39798  1.0000
  H   H4270     1.0  0.59369  0.82653  0.42716  1.0000
  H   H4271     1.0  0.67328  0.71793  0.45880  1.0000
  H   H4272     1.0  0.64886  0.83348  0.43968  1.0000
  H   H4273     1.0  0.60002  0.78378  0.54251  1.0000
  H   H4274     1.0  0.64152  0.90333  0.37793  1.0000
  H   H4275     1.0  0.64697  0.88528  0.36360  1.0000
  C   C2408     1.0  0.67655  0.79476  0.38885  1.0000
  H   H4276     1.0  0.52552  0.83709  0.60589  1.0000
  H   H4277     1.0  0.66213  0.87184  0.44450  1.0000
  H   H4278     1.0  0.67381  0.78434  0.40192  1.0000
  C   C2409     1.0  0.61512  0.83546  0.34131  1.0000
  H   H4279     1.0  0.57632  0.78832  0.58130  1.0000
  H   H4280     1.0  0.62937  0.83245  0.33274  1.0000
  C   C2410     1.0  0.71660  0.77947  0.50148  1.0000
  H   H4281     1.0  0.50756  0.79722  0.57707  1.0000
  C   C2411     1.0  0.55796  0.76638  0.60726  1.0000
  H   H4282     1.0  0.60346  0.79863  0.55785  1.0000
  N   N134      1.0  0.61155  0.80225  0.36004  1.0000
  C   C2412     1.0  0.67139  0.85781  0.44504  1.0000
  C   C2413     1.0  0.64930  0.88887  0.37674  1.0000
  C   C2414     1.0  0.70941  0.74815  0.49984  1.0000
  H   H4283     1.0  0.64405  0.87981  0.40649  1.0000
  C   C2415     1.0  0.48817  0.78055  0.29977  1.0000
  C   C2416     1.0  0.59418  0.84181  0.42250  1.0000
  N   N135      1.0  0.72275  0.76213  0.49231  1.0000
  C   C2417     1.0  0.66220  0.81297  0.38974  1.0000
  C   C2418     1.0  0.68888  0.94180  0.34276  1.0000
  H   H4284     1.0  0.54455  0.77780  0.55487  1.0000
  H   H4285     1.0  0.58831  0.78752  0.36227  1.0000
  C   C2419     1.0  0.60295  0.79571  0.39659  1.0000
  H   H4286     1.0  0.71649  0.56664  0.45543  1.0000
  H   H4287     1.0  0.60151  0.78845  0.42673  1.0000
  H   H4288     1.0  0.64130  0.85755  0.43105  1.0000
  C   C2420     1.0  0.63873  0.76805  0.32533  1.0000
  H   H4289     1.0  0.61278  0.86143  0.42026  1.0000
  C   C2421     1.0  0.64220  0.87489  0.39389  1.0000
  C   C2422     1.0  0.61324  0.84603  0.42412  1.0000
  C   C2423     1.0  0.54762  0.81292  0.60084  1.0000
  H   H4290     1.0  0.61228  0.76931  0.41419  1.0000
  H   H4291     1.0  0.66531  0.82259  0.37621  1.0000
  H   H4292     1.0  0.69282  0.94097  0.32753  1.0000
  H   H4293     1.0  0.71848  0.92071  0.56839  1.0000
  H   H4294     1.0  0.61484  0.84181  0.43916  1.0000
  C   C2424     1.0  0.53970  0.80917  0.58438  1.0000
  C   C2425     1.0  0.72578  0.56339  0.44219  1.0000
  H   H4295     1.0  0.61284  0.77008  0.34497  1.0000
  C   C2426     1.0  0.59211  0.80172  0.35646  1.0000
  H   H4296     1.0  0.58270  0.84978  0.43165  1.0000
  H   H4297     1.0  0.64975  0.85094  0.38002  1.0000
  C   C2427     1.0  0.71381  0.77618  0.52338  1.0000
  H   H4298     1.0  0.65507  0.69010  0.39797  1.0000
  H   H4299     1.0  0.60444  0.83361  0.33350  1.0000
  C   C2428     1.0  0.59582  0.79800  0.54654  1.0000
  H   H4300     1.0  0.72654  0.78956  0.49587  1.0000
  H   H4301     1.0  0.67785  0.73847  0.46561  1.0000
  H   H4302     1.0  0.54172  0.76183  0.58851  1.0000
  H   H4303     1.0  0.64052  0.79649  0.34549  1.0000
  H   H4304     1.0  0.62578  0.83627  0.39771  1.0000
  H   H4305     1.0  0.65278  0.77244  0.32250  1.0000
  H   H4306     1.0  0.62963  0.81982  0.41847  1.0000
  H   H4307     1.0  0.62161  0.85837  0.35222  1.0000
  H   H4308     1.0  0.62698  0.87552  0.39398  1.0000
  C   C2429     1.0  0.66345  0.82203  0.40658  1.0000
  C   C2430     1.0  0.65057  0.93609  0.31104  1.0000
  H   H4309     1.0  0.67839  0.92319  0.29934  1.0000
  H   H4310     1.0  0.67548  0.78857  0.37669  1.0000
  H   H4311     1.0  0.61354  0.86530  0.32992  1.0000
  C   C2431     1.0  0.62712  0.77343  0.34372  1.0000
  H   H4312     1.0  0.55637  0.81366  0.34624  1.0000
  H   H4313     1.0  0.71255  0.53714  0.47482  1.0000
  C   C2432     1.0  0.50684  0.78939  0.55090  1.0000
  C   C2433     1.0  0.71049  0.70339  0.44521  1.0000
  H   H4314     1.0  0.71161  0.89250  0.39108  1.0000
  H   H4315     1.0  0.72118  0.85897  0.56527  1.0000
  C   C2434     1.0  0.63805  0.95321  0.31233  1.0000
  C   C2435     1.0  0.54118  0.83341  0.60367  1.0000
  H   H4316     1.0  0.54686  0.74062  0.62050  1.0000
  H   H4317     1.0  0.72178  0.67569  0.46960  1.0000
  H   H4318     1.0  0.70226  0.71088  0.47329  1.0000
  H   H4319     1.0  0.66308  0.95909  0.33693  1.0000
  C   C2436     1.0  0.72943  0.54196  0.44162  1.0000
  H   H4320     1.0  0.70317  0.78773  0.49730  1.0000
  H   H4321     1.0  0.71554  0.53785  0.44204  1.0000
  C   C2437     1.0  0.70368  0.97084  0.36386  1.0000
  Fe  Fe275     1.0  0.53494  0.77862  0.30487  1.0000
  H   H4322     1.0  0.72252  0.96969  0.38334  1.0000
  H   H4323     1.0  0.50610  0.80409  0.54315  1.0000
  Fe  Fe276     1.0  0.72542  0.95926  0.62091  1.0000
  H   H4324     1.0  0.70922  0.77775  0.46907  1.0000
  H   H4325     1.0  0.50462  0.75292  0.29841  1.0000
  H   H4326     1.0  0.70235  0.52841  0.50983  1.0000
  C   C2438     1.0  0.72919  0.51770  0.49316  1.0000
  H   H4327     1.0  0.48236  0.78804  0.49909  1.0000
  H   H4328     1.0  0.72245  0.53707  0.51333  1.0000
  H   H4329     1.0  0.72013  0.53728  0.30425  1.0000
  H   H4330     1.0  0.71574  0.96878  0.35224  1.0000
  H   H4331     1.0  0.70769  0.96730  0.32545  1.0000
  H   H4332     1.0  0.71927  0.51327  0.52334  1.0000
  H   H4333     1.0  0.72391  0.64098  0.42097  1.0000
  H   H4334     1.0  0.54722  0.84309  0.59128  1.0000
  H   H4335     1.0  0.72638  0.65617  0.44662  1.0000
  C   C2439     1.0  0.72106  0.52233  0.30298  1.0000
  H   H4336     1.0  0.56266  0.77755  0.61217  1.0000
  C   C2440     1.0  0.72743  0.89827  0.53017  1.0000
  H   H4337     1.0  0.72752  0.73078  0.42033  1.0000
  H   H4338     1.0  0.72486  0.50629  0.45824  1.0000
  S   S542      1.0  0.49184  0.80004  0.61862  1.0000
  C   C2441     1.0  0.72974  0.78136  0.53075  1.0000
  Fe  Fe277     1.0  0.48557  0.77146  0.61771  1.0000
  S   S543      1.0  0.71514  0.96736  0.59312  1.0000
  H   H4339     1.0  0.73129  0.70412  0.47956  1.0000
  N   N136      1.0  0.73102  0.69433  0.44409  1.0000
  H   H4340     1.0  0.73030  0.79659  0.52617  1.0000
  H   H4341     1.0  0.48165  0.72560  0.33758  1.0000
  C   C2442     1.0  0.63788  0.90512  0.86607  1.0000
  S   S544      1.0  0.62805  0.95348  0.73391  1.0000
  H   H4342     1.0  0.63889  0.89376  0.85789  1.0000
  H   H4343     1.0  0.52852  0.86255  0.75364  1.0000
  H   H4344     1.0  0.48750  0.67175  0.73931  1.0000
  Fe  Fe278     1.0  0.59642  0.95589  0.74311  1.0000
  S   S545      1.0  0.58443  0.92860  0.74521  1.0000
  H   H4345     1.0  0.62119  0.55414  0.82980  1.0000
  H   H4346     1.0  0.65473  0.91989  0.63704  1.0000
  Fe  Fe279     1.0  0.51146  0.71553  0.88196  1.0000
  S   S546      1.0  0.62265  0.75168  0.95202  1.0000
  H   H4347     1.0  0.53390  0.67860  0.74998  1.0000
  H   H4348     1.0  0.69576  0.49015  0.81714  1.0000
  C   C2443     1.0  0.72492  0.47675  0.74893  1.0000
  H   H4349     1.0  0.64686  0.91503  0.72919  1.0000
  S   S547      1.0  0.56778  0.74565  0.95630  1.0000
  H   H4350     1.0  0.50011  0.68767  0.69578  1.0000
  H   H4351     1.0  0.69728  0.49088  0.74484  1.0000
  S   S548      1.0  0.52107  0.71568  0.85094  1.0000
  H   H4352     1.0  0.66211  0.49862  0.69321  1.0000
  S   S549      1.0  0.53568  0.71004  0.89923  1.0000
  S   S550      1.0  0.51018  0.67082  0.83814  1.0000
  S   S551      1.0  0.49698  0.86950  0.69164  1.0000
  H   H4353     1.0  0.52949  0.72278  0.75108  1.0000
  H   H4354     1.0  0.63992  0.47297  0.86713  1.0000
  H   H4355     1.0  0.69211  0.96489  0.74476  1.0000
  S   S552      1.0  0.49078  0.62613  0.74576  1.0000
  S   S553      1.0  0.52726  0.58046  0.75087  1.0000
  H   H4356     1.0  0.49794  0.72332  0.74123  1.0000
  C   C2444     1.0  0.50492  0.78837  0.65244  1.0000
  Fe  Fe280     1.0  0.50360  0.87572  0.71820  1.0000
  S   S554      1.0  0.51879  0.90067  0.71736  1.0000
  S   S555      1.0  0.51764  0.81386  0.69097  1.0000
  S   S556      1.0  0.51137  0.84486  0.73021  1.0000
  H   H4357     1.0  0.61430  0.89404  0.69257  1.0000
  H   H4358     1.0  0.64749  0.51016  0.71165  1.0000
  H   H4359     1.0  0.61576  0.92942  0.65587  1.0000
  H   H4360     1.0  0.63976  0.94719  0.66524  1.0000
  Fe  Fe281     1.0  0.50055  0.69673  0.85219  1.0000
  S   S557      1.0  0.56474  0.49361  0.76893  1.0000
  H   H4361     1.0  0.52271  0.78526  0.78891  1.0000
  C   C2445     1.0  0.49168  0.68153  0.68907  1.0000
  S   S558      1.0  0.62009  0.48898  0.74279  1.0000
  H   H4362     1.0  0.57165  0.88495  0.67955  1.0000
  C   C2446     1.0  0.62417  0.92507  0.70081  1.0000
  H   H4363     1.0  0.51942  0.74654  0.72433  1.0000
  H   H4364     1.0  0.70053  0.68388  0.94356  1.0000
  H   H4365     1.0  0.52430  0.69742  0.77376  1.0000
  H   H4366     1.0  0.50375  0.70770  0.80934  1.0000
  H   H4367     1.0  0.68832  0.89490  0.92541  1.0000
  H   H4368     1.0  0.57791  0.88222  0.70240  1.0000
  H   H4369     1.0  0.69359  0.96990  0.81440  1.0000
  S   S559      1.0  0.50947  0.76248  0.82362  1.0000
  H   H4370     1.0  0.67008  0.77201  0.93447  1.0000
  H   H4371     1.0  0.49879  0.72887  0.76964  1.0000
  H   H4372     1.0  0.51267  0.87518  0.83887  1.0000
  H   H4373     1.0  0.71755  0.93883  0.82838  1.0000
  H   H4374     1.0  0.65367  0.92447  0.66988  1.0000
  S   S560      1.0  0.71102  0.94481  0.64870  1.0000
  C   C2447     1.0  0.68184  0.75985  0.93334  1.0000
  C   C2448     1.0  0.60347  0.90706  0.69294  1.0000
  H   H4375     1.0  0.61165  0.96265  0.66594  1.0000
  C   C2449     1.0  0.53702  0.55604  0.75500  1.0000
  C   C2450     1.0  0.55607  0.55009  0.74746  1.0000
  C   C2451     1.0  0.56466  0.53098  0.75111  1.0000
  C   C2452     1.0  0.55437  0.51764  0.76267  1.0000
  C   C2453     1.0  0.53535  0.52360  0.77024  1.0000
  C   C2454     1.0  0.52667  0.54264  0.76633  1.0000
  H   H4376     1.0  0.56417  0.56033  0.73862  1.0000
  H   H4377     1.0  0.57921  0.52661  0.74497  1.0000
  H   H4378     1.0  0.52725  0.51343  0.77922  1.0000
  H   H4379     1.0  0.51205  0.54701  0.77232  1.0000
  C   C2455     1.0  0.52988  0.64168  0.75698  1.0000
  H   H4380     1.0  0.66782  0.96120  0.86328  1.0000
  H   H4381     1.0  0.63075  0.89609  0.71567  1.0000
  C   C2456     1.0  0.58839  0.90521  0.68178  1.0000
  C   C2457     1.0  0.68158  0.95128  0.67744  1.0000
  C   C2458     1.0  0.49578  0.66476  0.82471  1.0000
  C   C2459     1.0  0.50105  0.64753  0.81806  1.0000
  C   C2460     1.0  0.48995  0.64242  0.80713  1.0000
  C   C2461     1.0  0.70961  0.93239  0.85889  1.0000
  H   H4382     1.0  0.51373  0.63807  0.82145  1.0000
  C   C2462     1.0  0.67145  0.95278  0.87688  1.0000
  C   C2463     1.0  0.55946  0.73599  0.93981  1.0000
  C   C2464     1.0  0.54085  0.74263  0.93638  1.0000
  C   C2465     1.0  0.53340  0.73511  0.92389  1.0000
  C   C2466     1.0  0.54446  0.72076  0.91459  1.0000
  C   C2467     1.0  0.56313  0.71424  0.91790  1.0000
  C   C2468     1.0  0.57063  0.72183  0.93031  1.0000
  H   H4383     1.0  0.53201  0.75352  0.94364  1.0000
  H   H4384     1.0  0.51893  0.74001  0.92190  1.0000
  H   H4385     1.0  0.57185  0.70309  0.91090  1.0000
  H   H4386     1.0  0.58497  0.71654  0.93269  1.0000
  H   H4387     1.0  0.48776  0.91950  0.74383  1.0000
  C   C2469     1.0  0.72674  0.55231  0.91408  1.0000
  H   H4388     1.0  0.54365  0.58599  0.78951  1.0000
  H   H4389     1.0  0.54470  0.64321  0.75652  1.0000
  H   H4390     1.0  0.53357  0.85731  0.83836  1.0000
  H   H4391     1.0  0.49587  0.73264  0.80261  1.0000
  H   H4392     1.0  0.51874  0.65877  0.77817  1.0000
  S   S561      1.0  0.66054  0.47998  0.77192  1.0000
  Fe  Fe282     1.0  0.49725  0.73977  0.84619  1.0000
  H   H4393     1.0  0.71089  0.89597  0.91010  1.0000
  H   H4394     1.0  0.66600  0.48099  0.72549  1.0000
  H   H4395     1.0  0.68440  0.95723  0.87872  1.0000
  C   C2470     1.0  0.71523  0.94144  0.91320  1.0000
  C   C2471     1.0  0.70785  0.93196  0.93102  1.0000
  C   C2472     1.0  0.71816  0.91526  0.93971  1.0000
  H   H4396     1.0  0.66000  0.47933  0.66302  1.0000
  H   H4397     1.0  0.72920  0.96420  0.79447  1.0000
  H   H4398     1.0  0.70712  0.95418  0.90666  1.0000
  H   H4399     1.0  0.69405  0.93757  0.93816  1.0000
  C   C2473     1.0  0.51612  0.65841  0.76400  1.0000
  C   C2474     1.0  0.67992  0.48561  0.79737  1.0000
  C   C2475     1.0  0.56616  0.92130  0.73702  1.0000
  C   C2476     1.0  0.55306  0.93393  0.72712  1.0000
  C   C2477     1.0  0.53886  0.92732  0.72113  1.0000
  C   C2478     1.0  0.53750  0.90801  0.72485  1.0000
  C   C2479     1.0  0.55086  0.89538  0.73440  1.0000
  C   C2480     1.0  0.56495  0.90198  0.74051  1.0000
  H   H4400     1.0  0.55370  0.94882  0.72425  1.0000
  H   H4401     1.0  0.52873  0.93730  0.71370  1.0000
  H   H4402     1.0  0.55056  0.88048  0.73686  1.0000
  H   H4403     1.0  0.57509  0.89200  0.74794  1.0000
  H   H4404     1.0  0.53445  0.88002  0.82356  1.0000
  H   H4405     1.0  0.50613  0.92468  0.75399  1.0000
  Fe  Fe283     1.0  0.69870  0.48964  0.85667  1.0000
  H   H4406     1.0  0.60709  0.48868  0.86432  1.0000
  H   H4407     1.0  0.50704  0.81265  0.76837  1.0000
  H   H4408     1.0  0.63272  0.48540  0.80574  1.0000
  H   H4409     1.0  0.69125  0.76312  0.95790  1.0000
  C   C2481     1.0  0.51023  0.85448  0.78018  1.0000
  C   C2482     1.0  0.65583  0.95940  0.89304  1.0000
  H   H4410     1.0  0.69164  0.91423  0.85614  1.0000
  C   C2483     1.0  0.69171  0.67718  0.95567  1.0000
  H   H4411     1.0  0.71285  0.55837  0.91075  1.0000
  C   C2484     1.0  0.53011  0.85567  0.76824  1.0000
  C   C2485     1.0  0.50953  0.71099  0.73993  1.0000
  H   H4412     1.0  0.51406  0.89081  0.76386  1.0000
  H   H4413     1.0  0.50186  0.85008  0.77137  1.0000
  H   H4414     1.0  0.62762  0.91743  0.86075  1.0000
  C   C2486     1.0  0.54219  0.83620  0.76737  1.0000
  H   H4415     1.0  0.64560  0.90061  0.69323  1.0000
  H   H4416     1.0  0.49083  0.77620  0.72650  1.0000
  C   C2487     1.0  0.65640  0.92690  0.87446  1.0000
  N   N137      1.0  0.67493  0.93197  0.87601  1.0000
  H   H4417     1.0  0.71485  0.73913  0.94072  1.0000
  C   C2488     1.0  0.49741  0.78149  0.80913  1.0000
  H   H4418     1.0  0.68449  0.93797  0.84600  1.0000
  S   S562      1.0  0.66867  0.49531  0.85102  1.0000
  H   H4419     1.0  0.69408  0.76482  0.92338  1.0000
  H   H4420     1.0  0.73069  0.52346  0.94899  1.0000
  H   H4421     1.0  0.66402  0.94040  0.63808  1.0000
  H   H4422     1.0  0.69219  0.48374  0.78652  1.0000
  H   H4423     1.0  0.53786  0.86420  0.77372  1.0000
  C   C2489     1.0  0.51078  0.79169  0.66828  1.0000
  Fe  Fe284     1.0  0.50238  0.83894  0.70481  1.0000
  N   N138      1.0  0.50573  0.69464  0.75553  1.0000
  H   H4424     1.0  0.51964  0.88719  0.79377  1.0000
  C   C2490     1.0  0.49898  0.80605  0.78108  1.0000
  H   H4425     1.0  0.72439  0.91431  0.83853  1.0000
  C   C2491     1.0  0.49953  0.80350  0.63858  1.0000
  C   C2492     1.0  0.68967  0.95756  0.65881  1.0000
  C   C2493     1.0  0.53074  0.73429  0.72185  1.0000
  C   C2494     1.0  0.48728  0.90729  0.77345  1.0000
  H   H4426     1.0  0.53505  0.82734  0.76159  1.0000
  H   H4427     1.0  0.55594  0.83769  0.75804  1.0000
  H   H4428     1.0  0.54494  0.82903  0.78157  1.0000
  H   H4429     1.0  0.54068  0.70636  0.73546  1.0000
  C   C2495     1.0  0.51054  0.81016  0.67076  1.0000
  Fe  Fe285     1.0  0.59439  0.47780  0.75973  1.0000
  H   H4430     1.0  0.61463  0.92782  0.71414  1.0000
  H   H4431     1.0  0.51841  0.67533  0.73599  1.0000
  C   C2496     1.0  0.67569  0.96623  0.79594  1.0000
  C   C2497     1.0  0.65348  0.91021  0.71567  1.0000
  C   C2498     1.0  0.63575  0.53092  0.74612  1.0000
  H   H4432     1.0  0.63188  0.93716  0.69657  1.0000
  C   C2499     1.0  0.65733  0.91054  0.86379  1.0000
  C   C2500     1.0  0.49111  0.92288  0.75664  1.0000
  S   S563      1.0  0.48824  0.74047  0.87726  1.0000
  C   C2501     1.0  0.63841  0.90678  0.70588  1.0000
  C   C2502     1.0  0.59702  0.94130  0.68551  1.0000
  N   N139      1.0  0.49983  0.87244  0.78697  1.0000
  H   H4433     1.0  0.71367  0.90940  0.68576  1.0000
  H   H4434     1.0  0.52716  0.62842  0.76665  1.0000
  C   C2503     1.0  0.49763  0.71629  0.78075  1.0000
  H   H4435     1.0  0.48390  0.69582  0.72739  1.0000
  H   H4436     1.0  0.53307  0.85504  0.80583  1.0000
  H   H4437     1.0  0.61865  0.53009  0.84026  1.0000
  H   H4438     1.0  0.56692  0.59172  0.78667  1.0000
  C   C2504     1.0  0.72232  0.90223  0.69675  1.0000
  H   H4439     1.0  0.59647  0.90649  0.70796  1.0000
  H   H4440     1.0  0.58738  0.94086  0.69939  1.0000
  H   H4441     1.0  0.66156  0.92088  0.70654  1.0000
  C   C2505     1.0  0.52545  0.86908  0.82964  1.0000
  C   C2506     1.0  0.71064  0.48606  0.73553  1.0000
  H   H4442     1.0  0.49842  0.88678  0.81017  1.0000
  C   C2507     1.0  0.69719  0.89104  0.91216  1.0000
  H   H4443     1.0  0.71587  0.92263  0.87050  1.0000
  H   H4444     1.0  0.64259  0.95405  0.89396  1.0000
  Fe  Fe286     1.0  0.72620  0.50118  0.87745  1.0000
  S   S564      1.0  0.49270  0.69435  0.88356  1.0000
  H   H4445     1.0  0.66218  0.91502  0.84849  1.0000
  H   H4446     1.0  0.51146  0.85053  0.82069  1.0000
  H   H4447     1.0  0.58282  0.47701  0.82562  1.0000
  H   H4448     1.0  0.66349  0.89687  0.71873  1.0000
  H   H4449     1.0  0.71511  0.49928  0.72713  1.0000
  H   H4450     1.0  0.61082  0.96301  0.69061  1.0000
  H   H4451     1.0  0.67067  0.92367  0.90632  1.0000
  H   H4452     1.0  0.71203  0.48921  0.94663  1.0000
  H   H4453     1.0  0.49228  0.76608  0.70590  1.0000
  C   C2508     1.0  0.50910  0.87795  0.80106  1.0000
  C   C2509     1.0  0.62460  0.92335  0.66698  1.0000
  Fe  Fe287     1.0  0.48633  0.72996  0.63431  1.0000
  H   H4454     1.0  0.71275  0.65220  0.96043  1.0000
  H   H4455     1.0  0.52802  0.64052  0.74272  1.0000
  H   H4456     1.0  0.64320  0.51645  0.75065  1.0000
  C   C2510     1.0  0.66232  0.50598  0.70485  1.0000
  H   H4457     1.0  0.59358  0.90798  0.66640  1.0000
  S   S565      1.0  0.66488  0.70875  0.94955  1.0000
  H   H4458     1.0  0.69389  0.92685  0.89602  1.0000
  C   C2511     1.0  0.58311  0.88554  0.68704  1.0000
  C   C2512     1.0  0.65799  0.97169  0.79008  1.0000
  H   H4459     1.0  0.53019  0.73013  0.70835  1.0000
  H   H4460     1.0  0.67407  0.74774  0.96198  1.0000
  H   H4461     1.0  0.64788  0.92354  0.88871  1.0000
  C   C2513     1.0  0.50779  0.79048  0.79272  1.0000
  N   N140      1.0  0.55352  0.76553  0.85987  1.0000
  C   C2514     1.0  0.55322  0.78507  0.84829  1.0000
  C   C2515     1.0  0.56788  0.76144  0.87291  1.0000
  C   C2516     1.0  0.55955  0.75174  0.84625  1.0000
  C   C2517     1.0  0.53424  0.76274  0.87083  1.0000
  C   C2518     1.0  0.52501  0.77646  0.88480  1.0000
  C   C2519     1.0  0.53907  0.79101  0.83425  1.0000
  C   C2520     1.0  0.56406  0.73059  0.85502  1.0000
  C   C2521     1.0  0.57080  0.77810  0.88131  1.0000
  C   C2522     1.0  0.58269  0.77108  0.89692  1.0000
  C   C2523     1.0  0.50421  0.77521  0.89203  1.0000
  C   C2524     1.0  0.53924  0.81131  0.82413  1.0000
  C   C2525     1.0  0.57129  0.71834  0.83977  1.0000
  H   H4462     1.0  0.56760  0.78640  0.84012  1.0000
  H   H4463     1.0  0.54996  0.79603  0.85729  1.0000
  H   H4464     1.0  0.56448  0.74984  0.88479  1.0000
  H   H4465     1.0  0.58220  0.75613  0.86541  1.0000
  H   H4466     1.0  0.57234  0.75521  0.83601  1.0000
  H   H4467     1.0  0.54834  0.75277  0.83778  1.0000
  H   H4468     1.0  0.52429  0.76314  0.86118  1.0000
  H   H4469     1.0  0.53491  0.74836  0.87936  1.0000
  H   H4470     1.0  0.52558  0.79133  0.87832  1.0000
  H   H4471     1.0  0.53222  0.77271  0.89723  1.0000
  H   H4472     1.0  0.54273  0.78197  0.82327  1.0000
  H   H4473     1.0  0.52441  0.79018  0.84160  1.0000
  H   H4474     1.0  0.55116  0.72588  0.86358  1.0000
  H   H4475     1.0  0.57493  0.72772  0.86414  1.0000
  H   H4476     1.0  0.57843  0.78783  0.87015  1.0000
  H   H4477     1.0  0.55735  0.78634  0.88727  1.0000
  H   H4478     1.0  0.59659  0.76291  0.89162  1.0000
  H   H4479     1.0  0.58517  0.78325  0.90224  1.0000
  H   H4480     1.0  0.57520  0.76201  0.90886  1.0000
  H   H4481     1.0  0.49816  0.78502  0.90218  1.0000
  H   H4482     1.0  0.49611  0.77919  0.88022  1.0000
  H   H4483     1.0  0.50262  0.76074  0.89939  1.0000
  H   H4484     1.0  0.53513  0.82114  0.83440  1.0000
  H   H4485     1.0  0.55347  0.81289  0.81589  1.0000
  H   H4486     1.0  0.52890  0.81503  0.81432  1.0000
  H   H4487     1.0  0.58501  0.72165  0.83150  1.0000
  H   H4488     1.0  0.57336  0.70324  0.84643  1.0000
  H   H4489     1.0  0.56092  0.72057  0.83014  1.0000
  H   H4490     1.0  0.59547  0.87472  0.68301  1.0000
  H   H4491     1.0  0.63607  0.49288  0.83617  1.0000
  H   H4492     1.0  0.69835  0.72370  0.94631  1.0000
  H   H4493     1.0  0.62976  0.90841  0.66508  1.0000
  H   H4494     1.0  0.48245  0.71511  0.78518  1.0000
  H   H4495     1.0  0.60267  0.54945  0.84947  1.0000
  C   C2526     1.0  0.64639  0.48657  0.80819  1.0000
  H   H4496     1.0  0.51953  0.72217  0.79362  1.0000
  H   H4497     1.0  0.50162  0.65557  0.76536  1.0000
  H   H4498     1.0  0.67706  0.74906  0.92776  1.0000
  C   C2527     1.0  0.51904  0.67715  0.75045  1.0000
  H   H4499     1.0  0.63260  0.89983  0.88109  1.0000
  H   H4500     1.0  0.66713  0.89776  0.86878  1.0000
  H   H4501     1.0  0.70939  0.94703  0.86054  1.0000
  H   H4502     1.0  0.71115  0.96762  0.76758  1.0000
  H   H4503     1.0  0.70008  0.87543  0.91364  1.0000
  H   H4504     1.0  0.66853  0.51893  0.69896  1.0000
  C   C2528     1.0  0.66621  0.49169  0.82884  1.0000
  H   H4505     1.0  0.51529  0.77993  0.67879  1.0000
  C   C2529     1.0  0.68722  0.89966  0.89532  1.0000
  C   C2530     1.0  0.65097  0.93411  0.64104  1.0000
  H   H4506     1.0  0.67430  0.89333  0.89749  1.0000
  C   C2531     1.0  0.68171  0.92129  0.89382  1.0000
  C   C2532     1.0  0.48439  0.66521  0.69854  1.0000
  H   H4507     1.0  0.67317  0.50108  0.73050  1.0000
  H   H4508     1.0  0.50511  0.83953  0.65856  1.0000
  C   C2533     1.0  0.52856  0.71782  0.73815  1.0000
  H   H4509     1.0  0.69692  0.89556  0.88264  1.0000
  N   N141      1.0  0.61270  0.92440  0.68626  1.0000
  C   C2534     1.0  0.64255  0.93281  0.66192  1.0000
  H   H4510     1.0  0.62598  0.53044  0.73664  1.0000
  N   N142      1.0  0.59685  0.53595  0.79088  1.0000
  C   C2535     1.0  0.58309  0.52267  0.79991  1.0000
  C   C2536     1.0  0.58651  0.55480  0.78224  1.0000
  C   C2537     1.0  0.61025  0.52736  0.77515  1.0000
  C   C2538     1.0  0.60848  0.53850  0.80450  1.0000
  C   C2539     1.0  0.59741  0.54483  0.82301  1.0000
  C   C2540     1.0  0.59168  0.50279  0.80936  1.0000
  C   C2541     1.0  0.62488  0.53956  0.76317  1.0000
  C   C2542     1.0  0.56601  0.56160  0.79186  1.0000
  C   C2543     1.0  0.55879  0.58199  0.78347  1.0000
  C   C2544     1.0  0.61085  0.54459  0.83640  1.0000
  C   C2545     1.0  0.57625  0.49136  0.81949  1.0000
  H   H4511     1.0  0.49017  0.91155  0.78601  1.0000
  H   H4512     1.0  0.57523  0.52078  0.78924  1.0000
  H   H4513     1.0  0.57207  0.52863  0.81084  1.0000
  H   H4514     1.0  0.59482  0.56616  0.78108  1.0000
  H   H4515     1.0  0.58513  0.55457  0.76750  1.0000
  H   H4516     1.0  0.60209  0.52393  0.76550  1.0000
  H   H4517     1.0  0.61876  0.51375  0.78069  1.0000
  H   H4518     1.0  0.61864  0.52534  0.80808  1.0000
  H   H4519     1.0  0.61754  0.54929  0.79780  1.0000
  H   H4520     1.0  0.58723  0.53544  0.83053  1.0000
  H   H4521     1.0  0.58976  0.55948  0.82003  1.0000
  H   H4522     1.0  0.60074  0.49487  0.79865  1.0000
  H   H4523     1.0  0.60014  0.50359  0.81990  1.0000
  H   H4524     1.0  0.63540  0.54048  0.77166  1.0000
  H   H4525     1.0  0.61808  0.55405  0.75785  1.0000
  H   H4526     1.0  0.55639  0.55274  0.78960  1.0000
  H   H4527     1.0  0.56488  0.56079  0.80718  1.0000
  H   H4528     1.0  0.55997  0.58361  0.76797  1.0000
  Fe  Fe288     1.0  0.49606  0.59431  0.75404  1.0000
  H   H4529     1.0  0.64083  0.94326  0.63231  1.0000
  C   C2546     1.0  0.50508  0.82527  0.65691  1.0000
  H   H4530     1.0  0.51159  0.84252  0.79200  1.0000
  H   H4531     1.0  0.68846  0.93865  0.68541  1.0000
  H   H4532     1.0  0.56126  0.74779  0.63380  1.0000
  H   H4533     1.0  0.56707  0.49824  0.83102  1.0000
  H   H4534     1.0  0.56742  0.48993  0.80949  1.0000
  S   S566      1.0  0.59695  0.97017  0.76750  1.0000
  H   H4535     1.0  0.65872  0.95677  0.70035  1.0000
  H   H4536     1.0  0.50509  0.68626  0.78553  1.0000
  H   H4537     1.0  0.57520  0.91535  0.68518  1.0000
  C   C2547     1.0  0.68955  0.92888  0.85871  1.0000
  C   C2548     1.0  0.51987  0.86172  0.81402  1.0000
  C   C2549     1.0  0.70331  0.73445  0.95185  1.0000
  C   C2550     1.0  0.69416  0.48620  0.70990  1.0000
  H   H4538     1.0  0.53758  0.76035  0.63287  1.0000
  C   C2551     1.0  0.49951  0.88802  0.76999  1.0000
  H   H4539     1.0  0.68610  0.95564  0.78960  1.0000
  C   C2552     1.0  0.67354  0.49303  0.71927  1.0000
  H   H4540     1.0  0.58825  0.94105  0.67499  1.0000
  H   H4541     1.0  0.69995  0.49912  0.70256  1.0000
  H   H4542     1.0  0.64760  0.93922  0.86690  1.0000
  C   C2553     1.0  0.50900  0.69791  0.77404  1.0000
  C   C2554     1.0  0.48797  0.69004  0.67102  1.0000
  H   H4543     1.0  0.72447  0.92756  0.70550  1.0000
  C   C2555     1.0  0.72996  0.49140  0.75818  1.0000
  S   S567      1.0  0.70807  0.90395  0.96214  1.0000
  H   H4544     1.0  0.64644  0.53960  0.73812  1.0000
  H   H4545     1.0  0.50474  0.77411  0.65089  1.0000
  H   H4546     1.0  0.72690  0.57379  0.93021  1.0000
  C   C2556     1.0  0.48538  0.69250  0.75756  1.0000
  C   C2557     1.0  0.68709  0.75172  0.95275  1.0000
  H   H4547     1.0  0.48406  0.84038  0.80914  1.0000
  S   S568      1.0  0.49625  0.71124  0.66019  1.0000
  C   C2558     1.0  0.66220  0.48416  0.79409  1.0000
  S   S569      1.0  0.71871  0.51020  0.84838  1.0000
  C   C2559     1.0  0.64834  0.49070  0.82541  1.0000
  H   H4548     1.0  0.66082  0.95448  0.90675  1.0000
  C   C2560     1.0  0.72290  0.92912  0.84054  1.0000
  C   C2561     1.0  0.68197  0.48924  0.81471  1.0000
  H   H4549     1.0  0.72130  0.95015  0.96025  1.0000
  S   S570      1.0  0.65349  0.96127  0.77214  1.0000
  C   C2562     1.0  0.67334  0.68634  0.96164  1.0000
  H   H4550     1.0  0.48721  0.65876  0.71244  1.0000
  H   H4551     1.0  0.71691  0.95813  0.73616  1.0000
  C   C2563     1.0  0.50466  0.71984  0.79760  1.0000
  H   H4552     1.0  0.71706  0.49930  0.76574  1.0000
  H   H4553     1.0  0.49448  0.88363  0.75859  1.0000
  C   C2564     1.0  0.66472  0.96147  0.68590  1.0000
  S   S571      1.0  0.70415  0.48232  0.88637  1.0000
  H   H4554     1.0  0.49401  0.62904  0.80221  1.0000
  C   C2565     1.0  0.50000  0.82189  0.64069  1.0000
  H   H4555     1.0  0.71263  0.89790  0.70993  1.0000
  S   S572      1.0  0.72558  0.52526  0.89350  1.0000
  C   C2566     1.0  0.60296  0.96090  0.68015  1.0000
  H   H4556     1.0  0.54458  0.73871  0.72063  1.0000
  N   N143      1.0  0.70711  0.47396  0.72283  1.0000
  H   H4557     1.0  0.72816  0.48966  0.68665  1.0000
  H   H4558     1.0  0.72948  0.75617  0.95166  1.0000
  H   H4559     1.0  0.69326  0.47858  0.69861  1.0000
  H   H4560     1.0  0.71799  0.95323  0.68567  1.0000
  H   H4561     1.0  0.50951  0.70728  0.72606  1.0000
  H   H4562     1.0  0.70469  0.54934  0.95387  1.0000
  C   C2567     1.0  0.72763  0.48796  0.94457  1.0000
  Fe  Fe289     1.0  0.62812  0.96972  0.75669  1.0000
  C   C2568     1.0  0.48240  0.77301  0.71702  1.0000
  C   C2569     1.0  0.72781  0.96272  0.68585  1.0000
  H   H4563     1.0  0.72890  0.96289  0.70055  1.0000
  C   C2570     1.0  0.61065  0.47304  0.86695  1.0000
  H   H4564     1.0  0.70989  0.97008  0.93531  1.0000
  H   H4565     1.0  0.70967  0.51637  0.96210  1.0000
  H   H4566     1.0  0.70460  0.57972  0.96344  1.0000
  C   C2571     1.0  0.72497  0.51471  0.96233  1.0000
  H   H4567     1.0  0.73041  0.70795  0.93694  1.0000
  H   H4568     1.0  0.48210  0.93643  0.75948  1.0000
  C   C2572     1.0  0.70572  0.97017  0.73968  1.0000
  H   H4569     1.0  0.62486  0.47298  0.88961  1.0000
  S   S573      1.0  0.96363  0.32383  0.23096  1.0000
  S   S574      1.0  0.77422  0.38725  0.28640  1.0000
  Fe  Fe290     1.0  0.95287  0.35268  0.23857  1.0000
  S   S575      1.0  0.92356  0.35675  0.25643  1.0000
  H   H4570     1.0  0.93624  0.32709  0.13237  1.0000
  H   H4571     1.0  0.76545  0.11804  0.04437  1.0000
  H   H4572     1.0  0.96485  0.22172  0.16494  1.0000
  S   S576      1.0  0.94256  0.11248  0.25782  1.0000
  C   C2573     1.0  0.90173  0.41985  0.25699  1.0000
  H   H4573     1.0  0.73493  0.31775  0.11607  1.0000
  C   C2574     1.0  0.85018  0.44389  0.22609  1.0000
  Fe  Fe291     1.0  0.94532  0.08347  0.25138  1.0000
  S   S577      1.0  0.92163  0.06607  0.25943  1.0000
  H   H4574     1.0  0.94679  0.22003  0.29031  1.0000
  Fe  Fe292     1.0  0.93686  0.23344  0.10170  1.0000
  S   S578      1.0  0.96447  0.21709  0.08936  1.0000
  S   S579      1.0  0.90810  0.23656  0.09290  1.0000
  Fe  Fe293     1.0  0.95542  0.24881  0.12840  1.0000
  S   S580      1.0  0.94873  0.26190  0.15514  1.0000
  H   H4575     1.0  0.97454  0.25620  0.20678  1.0000
  H   H4576     1.0  0.74153  0.45773  0.29590  1.0000
  S   S581      1.0  0.94861  0.26006  0.09937  1.0000
  S   S582      1.0  0.94142  0.22354  0.13160  1.0000
  Fe  Fe294     1.0  0.81939  0.39148  0.24902  1.0000
  S   S583      1.0  0.82024  0.38378  0.27989  1.0000
  S   S584      1.0  0.84632  0.39499  0.22799  1.0000
  Fe  Fe295     1.0  0.77602  0.39494  0.25501  1.0000
  C   C2575     1.0  0.86684  0.41596  0.28990  1.0000
  S   S585      1.0  0.74777  0.40464  0.24453  1.0000
  Fe  Fe296     1.0  0.79502  0.40684  0.28288  1.0000
  H   H4577     1.0  0.91221  0.21036  0.03432  1.0000
  S   S586      1.0  0.79540  0.41596  0.25193  1.0000
  S   S587      1.0  0.80011  0.37136  0.24901  1.0000
  Fe  Fe297     1.0  0.79444  0.19253  0.06405  1.0000
  S   S588      1.0  0.81664  0.20327  0.04062  1.0000
  S   S589      1.0  0.77015  0.21393  0.07550  1.0000
  Fe  Fe298     1.0  0.81445  0.15188  0.06583  1.0000
  S   S590      1.0  0.83728  0.15975  0.04176  1.0000
  S   S591      1.0  0.81887  0.12073  0.07834  1.0000
  Fe  Fe299     1.0  0.83813  0.18344  0.05651  1.0000
  S   S592      1.0  0.86851  0.18411  0.05975  1.0000
  Fe  Fe300     1.0  0.81396  0.17867  0.02818  1.0000
  S   S593      1.0  0.81027  0.18521  0.99755  1.0000
  S   S594      1.0  0.81601  0.17473  0.08107  1.0000
  S   S595      1.0  0.79089  0.16887  0.05093  1.0000
  Fe  Fe301     1.0  0.84245  0.04972  0.20300  1.0000
  S   S596      1.0  0.81444  0.06862  0.20931  1.0000
  S   S597      1.0  0.87039  0.05986  0.20146  1.0000
  Fe  Fe302     1.0  0.82391  0.02160  0.18994  1.0000
  S   S598      1.0  0.79497  0.03891  0.19458  1.0000
  S   S599      1.0  0.83061  0.99287  0.18073  1.0000
  Fe  Fe303     1.0  0.80907  0.06411  0.18185  1.0000
  S   S600      1.0  0.79417  0.09025  0.16499  1.0000
  Fe  Fe304     1.0  0.80243  0.04212  0.22148  1.0000
  S   S601      1.0  0.78051  0.03781  0.24781  1.0000
  S   S602      1.0  0.83755  0.04657  0.17459  1.0000
  S   S603      1.0  0.83095  0.02333  0.21777  1.0000
  H   H4578     1.0  0.79065  0.42962  0.19815  1.0000
  C   C2576     1.0  0.81435  0.98183  0.17401  1.0000
  C   C2577     1.0  0.79595  0.99101  0.17231  1.0000
  Fe  Fe305     1.0  0.79954  0.36509  0.28035  1.0000
  H   H4579     1.0  0.84917  0.45645  0.21480  1.0000
  H   H4580     1.0  0.79105  0.00482  0.17608  1.0000
  C   C2578     1.0  0.81255  0.11295  0.10266  1.0000
  C   C2579     1.0  0.79767  0.12316  0.11354  1.0000
  C   C2580     1.0  0.79226  0.11603  0.13269  1.0000
  C   C2581     1.0  0.80191  0.09889  0.14114  1.0000
  C   C2582     1.0  0.81724  0.08902  0.13043  1.0000
  C   C2583     1.0  0.82232  0.09587  0.11115  1.0000
  H   H4581     1.0  0.79004  0.13632  0.10711  1.0000
  H   H4582     1.0  0.78045  0.12379  0.14097  1.0000
  H   H4583     1.0  0.82510  0.07611  0.13700  1.0000
  H   H4584     1.0  0.83393  0.08798  0.10279  1.0000
  H   H4585     1.0  0.74787  0.43667  0.26258  1.0000
  C   C2584     1.0  0.80349  0.16907  0.98667  1.0000
  C   C2585     1.0  0.80587  0.14974  0.99378  1.0000
  H   H4586     1.0  0.86706  0.15318  0.97269  1.0000
  H   H4587     1.0  0.81209  0.14430  0.00633  1.0000
  H   H4588     1.0  0.97654  0.98492  0.26023  1.0000
  H   H4589     1.0  0.94727  0.27385  0.18995  1.0000
  H   H4590     1.0  0.91738  0.30488  0.27965  1.0000
  H   H4591     1.0  0.93279  0.28441  0.04807  1.0000
  H   H4592     1.0  0.92650  0.25903  0.26141  1.0000
  C   C2586     1.0  0.75671  0.04532  0.24483  1.0000
  C   C2587     1.0  0.75184  0.05842  0.22919  1.0000
  H   H4593     1.0  0.75539  0.98827  0.22108  1.0000
  H   H4594     1.0  0.80985  0.01126  0.13628  1.0000
  H   H4595     1.0  0.74606  0.02848  0.27086  1.0000
  H   H4596     1.0  0.76278  0.06377  0.21841  1.0000
  H   H4597     1.0  0.73874  0.42835  0.28684  1.0000
  H   H4598     1.0  0.81057  0.44605  0.26829  1.0000
  C   C2588     1.0  0.74494  0.37576  0.22661  1.0000
  H   H4599     1.0  0.73442  0.19905  0.98557  1.0000
  H   H4600     1.0  0.77409  0.43653  0.21828  1.0000
  H   H4601     1.0  0.75939  0.36990  0.22828  1.0000
  H   H4602     1.0  0.80210  0.12247  0.99010  1.0000
  C   C2589     1.0  0.94663  0.00946  0.25175  1.0000
  C   C2590     1.0  0.74657  0.21512  0.07261  1.0000
  C   C2591     1.0  0.78403  0.98244  0.16530  1.0000
  C   C2592     1.0  0.73292  0.42513  0.17329  1.0000
  C   C2593     1.0  0.75589  0.14604  0.02963  1.0000
  H   H4603     1.0  0.75018  0.18721  0.06631  1.0000
  C   C2594     1.0  0.96414  0.17755  0.06230  1.0000
  C   C2595     1.0  0.89697  0.22109  0.08500  1.0000
  C   C2596     1.0  0.87835  0.22726  0.08155  1.0000
  C   C2597     1.0  0.86918  0.21592  0.07440  1.0000
  C   C2598     1.0  0.87868  0.19834  0.07031  1.0000
  C   C2599     1.0  0.89726  0.19205  0.07395  1.0000
  C   C2600     1.0  0.90630  0.20325  0.08144  1.0000
  H   H4604     1.0  0.87099  0.24102  0.08427  1.0000
  H   H4605     1.0  0.85494  0.22100  0.07161  1.0000
  H   H4606     1.0  0.90472  0.17846  0.07085  1.0000
  H   H4607     1.0  0.92052  0.19826  0.08422  1.0000
  C   C2601     1.0  0.90697  0.06487  0.24348  1.0000
  C   C2602     1.0  0.89252  0.05393  0.24948  1.0000
  C   C2603     1.0  0.88084  0.05245  0.23703  1.0000
  C   C2604     1.0  0.88364  0.06182  0.21838  1.0000
  C   C2605     1.0  0.89802  0.07278  0.21249  1.0000
  C   C2606     1.0  0.90960  0.07437  0.22490  1.0000
  H   H4608     1.0  0.89033  0.04653  0.26383  1.0000
  H   H4609     1.0  0.86987  0.04390  0.24177  1.0000
  H   H4610     1.0  0.90004  0.08020  0.19822  1.0000
  H   H4611     1.0  0.92055  0.08291  0.22011  1.0000
  H   H4612     1.0  0.89526  0.25120  0.01924  1.0000
  H   H4613     1.0  0.73931  0.08513  0.25951  1.0000
  C   C2607     1.0  0.89601  0.23568  0.02168  1.0000
  C   C2608     1.0  0.85879  0.44790  0.24170  1.0000
  H   H4614     1.0  0.95930  0.28720  0.27208  1.0000
  C   C2609     1.0  0.93194  0.22923  0.01869  1.0000
  C   C2610     1.0  0.74201  0.45775  0.28073  1.0000
  H   H4615     1.0  0.93437  0.22083  0.00719  1.0000
  C   C2611     1.0  0.94427  0.28628  0.27312  1.0000
  C   C2612     1.0  0.80648  0.45566  0.27826  1.0000
  C   C2613     1.0  0.90259  0.36694  0.24742  1.0000
  C   C2614     1.0  0.90218  0.38136  0.23175  1.0000
  C   C2615     1.0  0.88491  0.38969  0.22565  1.0000
  C   C2616     1.0  0.86795  0.38381  0.23533  1.0000
  C   C2617     1.0  0.86846  0.36922  0.25081  1.0000
  C   C2618     1.0  0.88570  0.36084  0.25679  1.0000
  H   H4616     1.0  0.91509  0.38641  0.22467  1.0000
  H   H4617     1.0  0.88463  0.40098  0.21365  1.0000
  H   H4618     1.0  0.85556  0.36436  0.25820  1.0000
  H   H4619     1.0  0.88593  0.34964  0.26881  1.0000
  H   H4620     1.0  0.75557  0.23272  0.02120  1.0000
  C   C2619     1.0  0.96104  0.29817  0.18379  1.0000
  C   C2620     1.0  0.95455  0.28335  0.17901  1.0000
  C   C2621     1.0  0.95734  0.28077  0.16020  1.0000
  H   H4621     1.0  0.76185  0.46533  0.25524  1.0000
  H   H4622     1.0  0.73700  0.29777  0.05656  1.0000
  C   C2622     1.0  0.85890  0.43123  0.25848  1.0000
  H   H4623     1.0  0.76105  0.06800  0.17955  1.0000
  H   H4624     1.0  0.76841  0.18486  0.00923  1.0000
  C   C2623     1.0  0.77769  0.08570  0.25395  1.0000
  C   C2624     1.0  0.91844  0.99952  0.24399  1.0000
  C   C2625     1.0  0.94138  0.21622  0.18675  1.0000
  H   H4625     1.0  0.77401  0.21712  0.00885  1.0000
  H   H4626     1.0  0.73749  0.06421  0.18018  1.0000
  C   C2626     1.0  0.76266  0.28256  0.06573  1.0000
  H   H4627     1.0  0.84394  0.42952  0.26414  1.0000
  C   C2627     1.0  0.76226  0.12483  0.03019  1.0000
  H   H4628     1.0  0.85018  0.46100  0.24610  1.0000
  H   H4629     1.0  0.91384  0.99205  0.23456  1.0000
  C   C2628     1.0  0.73378  0.01259  0.22119  1.0000
  C   C2629     1.0  0.97061  0.01400  0.27996  1.0000
  C   C2630     1.0  0.78033  0.08741  0.08568  1.0000
  C   C2631     1.0  0.74829  0.43747  0.27734  1.0000
  H   H4630     1.0  0.75301  0.35126  0.26585  1.0000
  C   C2632     1.0  0.91291  0.07842  0.15762  1.0000
  H   H4631     1.0  0.95477  0.05206  0.23137  1.0000
  C   C2633     1.0  0.97831  0.10852  0.16819  1.0000
  C   C2634     1.0  0.91643  0.15772  0.28992  1.0000
  H   H4632     1.0  0.89558  0.43550  0.27951  1.0000
  S   S604      1.0  0.94779  0.14663  0.21323  1.0000
  H   H4633     1.0  0.76750  0.27294  0.07821  1.0000
  H   H4634     1.0  0.76635  0.27467  0.05379  1.0000
  H   H4635     1.0  0.77018  0.29480  0.06200  1.0000
  H   H4636     1.0  0.76414  0.06607  0.27546  1.0000
  C   C2635     1.0  0.73339  0.46672  0.17315  1.0000
  N   N144      1.0  0.91522  0.35093  0.18200  1.0000
  C   C2636     1.0  0.92277  0.34597  0.16265  1.0000
  C   C2637     1.0  0.92576  0.36544  0.18474  1.0000
  C   C2638     1.0  0.91980  0.33341  0.19624  1.0000
  C   C2639     1.0  0.89410  0.35772  0.18544  1.0000
  C   C2640     1.0  0.88495  0.36872  0.16829  1.0000
  C   C2641     1.0  0.91653  0.32845  0.15877  1.0000
  C   C2642     1.0  0.91471  0.33576  0.21720  1.0000
  C   C2643     1.0  0.92293  0.38492  0.17190  1.0000
  C   C2644     1.0  0.93607  0.39734  0.17469  1.0000
  C   C2645     1.0  0.86459  0.37800  0.17462  1.0000
  C   C2646     1.0  0.92092  0.32733  0.13783  1.0000
  C   C2647     1.0  0.91548  0.31669  0.23030  1.0000
  H   H4637     1.0  0.93853  0.34314  0.16018  1.0000
  H   H4638     1.0  0.91909  0.35801  0.15149  1.0000
  H   H4639     1.0  0.92159  0.36851  0.19924  1.0000
  H   H4640     1.0  0.94120  0.35973  0.18304  1.0000
  H   H4641     1.0  0.93516  0.32772  0.19350  1.0000
  H   H4642     1.0  0.91235  0.32217  0.19493  1.0000
  H   H4643     1.0  0.88641  0.34564  0.19126  1.0000
  H   H4644     1.0  0.89029  0.36670  0.19656  1.0000
  H   H4645     1.0  0.88460  0.35900  0.15876  1.0000
  H   H4646     1.0  0.89271  0.37989  0.15992  1.0000
  H   H4647     1.0  0.92439  0.31537  0.16609  1.0000
  H   H4648     1.0  0.90121  0.32855  0.16385  1.0000
  H   H4649     1.0  0.90033  0.34394  0.22048  1.0000
  H   H4650     1.0  0.92504  0.34309  0.22055  1.0000
  H   H4651     1.0  0.92594  0.38367  0.15682  1.0000
  H   H4652     1.0  0.90825  0.39237  0.17558  1.0000
  H   H4653     1.0  0.93337  0.39950  0.18954  1.0000
  H   H4654     1.0  0.75098  0.11844  0.02724  1.0000
  H   H4655     1.0  0.76797  0.46856  0.27619  1.0000
  H   H4656     1.0  0.86422  0.38850  0.18364  1.0000
  H   H4657     1.0  0.85814  0.38540  0.16215  1.0000
  H   H4658     1.0  0.85600  0.36725  0.18268  1.0000
  H   H4659     1.0  0.91264  0.33954  0.12976  1.0000
  S   S605      1.0  0.97853  0.35358  0.25051  1.0000
  C   C2648     1.0  0.96960  0.31113  0.16967  1.0000
  H   H4660     1.0  0.90440  0.30926  0.22859  1.0000
  H   H4661     1.0  0.92956  0.30777  0.22734  1.0000
  H   H4662     1.0  0.91294  0.31897  0.24510  1.0000
  C   C2649     1.0  0.95586  0.17713  0.16112  1.0000
  H   H4663     1.0  0.76598  0.15536  0.00024  1.0000
  N   N145      1.0  0.78501  0.04650  0.12927  1.0000
  H   H4664     1.0  0.76689  0.34567  0.28358  1.0000
  H   H4665     1.0  0.73863  0.43168  0.21150  1.0000
  H   H4666     1.0  0.94074  0.03870  0.22387  1.0000
  H   H4667     1.0  0.92368  0.27003  0.28956  1.0000
  C   C2650     1.0  0.77879  0.04916  0.14956  1.0000
  C   C2651     1.0  0.97775  0.14955  0.18372  1.0000
  H   H4668     1.0  0.93014  0.24410  0.01144  1.0000
  C   C2652     1.0  0.93463  0.23381  0.23684  1.0000
  H   H4669     1.0  0.73732  0.37680  0.27595  1.0000
  C   C2653     1.0  0.74130  0.28913  0.06971  1.0000
  C   C2654     1.0  0.86739  0.39673  0.28416  1.0000
  C   C2655     1.0  0.93728  0.25774  0.03826  1.0000
  H   H4670     1.0  0.97323  0.24844  0.28994  1.0000
  H   H4671     1.0  0.91394  0.15663  0.26119  1.0000
  H   H4672     1.0  0.86540  0.41833  0.25241  1.0000
  H   H4673     1.0  0.92044  0.17804  0.26408  1.0000
  N   N146      1.0  0.85143  0.13733  0.12442  1.0000
  C   C2656     1.0  0.83399  0.15149  0.12072  1.0000
  C   C2657     1.0  0.85937  0.12805  0.10733  1.0000
  C   C2658     1.0  0.84529  0.12224  0.14051  1.0000
  C   C2659     1.0  0.86626  0.14587  0.12967  1.0000
  C   C2660     1.0  0.86738  0.16685  0.12095  1.0000
  C   C2661     1.0  0.82163  0.15924  0.13815  1.0000
  C   C2662     1.0  0.86022  0.10432  0.14438  1.0000
  C   C2663     1.0  0.86558  0.14104  0.08872  1.0000
  C   C2664     1.0  0.87174  0.13007  0.07238  1.0000
  C   C2665     1.0  0.88533  0.17236  0.12393  1.0000
  C   C2666     1.0  0.80718  0.17656  0.13237  1.0000
  C   C2667     1.0  0.85383  0.09200  0.16302  1.0000
  H   H4674     1.0  0.82468  0.14513  0.11457  1.0000
  H   H4675     1.0  0.83763  0.16367  0.10996  1.0000
  H   H4676     1.0  0.87215  0.11736  0.10964  1.0000
  H   H4677     1.0  0.84886  0.12033  0.10477  1.0000
  H   H4678     1.0  0.83266  0.11753  0.13808  1.0000
  H   H4679     1.0  0.84070  0.12797  0.15388  1.0000
  H   H4680     1.0  0.86408  0.14525  0.14517  1.0000
  H   H4681     1.0  0.88049  0.13732  0.12613  1.0000
  H   H4682     1.0  0.85518  0.17627  0.12768  1.0000
  H   H4683     1.0  0.86715  0.16998  0.10567  1.0000
  H   H4684     1.0  0.81361  0.14837  0.14706  1.0000
  H   H4685     1.0  0.83042  0.16308  0.14684  1.0000
  H   H4686     1.0  0.87399  0.10802  0.14483  1.0000
  H   H4687     1.0  0.86217  0.09563  0.13325  1.0000
  H   H4688     1.0  0.85391  0.15251  0.08506  1.0000
  H   H4689     1.0  0.87790  0.14706  0.08973  1.0000
  H   H4690     1.0  0.85982  0.12404  0.07027  1.0000
  H   H4691     1.0  0.87623  0.13976  0.05925  1.0000
  H   H4692     1.0  0.88378  0.11853  0.07500  1.0000
  H   H4693     1.0  0.88506  0.18769  0.11868  1.0000
  H   H4694     1.0  0.88641  0.16945  0.13909  1.0000
  H   H4695     1.0  0.89793  0.16453  0.11591  1.0000
  H   H4696     1.0  0.79770  0.17298  0.12417  1.0000
  H   H4697     1.0  0.79838  0.18161  0.14511  1.0000
  H   H4698     1.0  0.81437  0.18815  0.12374  1.0000
  H   H4699     1.0  0.85355  0.09902  0.17505  1.0000
  H   H4700     1.0  0.83952  0.08890  0.16358  1.0000
  H   H4701     1.0  0.86384  0.07845  0.16444  1.0000
  C   C2668     1.0  0.76702  0.32202  0.27043  1.0000
  C   C2669     1.0  0.78043  0.32635  0.25192  1.0000
  H   H4702     1.0  0.92192  0.25840  0.03900  1.0000
  H   H4703     1.0  0.74213  0.35411  0.21205  1.0000
  H   H4704     1.0  0.94928  0.06482  0.19914  1.0000
  C   C2670     1.0  0.73553  0.17280  0.97619  1.0000
  H   H4705     1.0  0.74152  0.45442  0.21317  1.0000
  H   H4706     1.0  0.74848  0.04742  0.15325  1.0000
  H   H4707     1.0  0.77262  0.33544  0.24100  1.0000
  H   H4708     1.0  0.79156  0.33344  0.25405  1.0000
  N   N147      1.0  0.86842  0.43284  0.27426  1.0000
  H   H4709     1.0  0.89094  0.13313  0.20432  1.0000
  H   H4710     1.0  0.94225  0.00671  0.22358  1.0000
  H   H4711     1.0  0.94285  0.26473  0.02404  1.0000
  C   C2671     1.0  0.80631  0.04186  0.12565  1.0000
  H   H4712     1.0  0.96907  0.19997  0.18091  1.0000
  H   H4713     1.0  0.93411  0.30380  0.29490  1.0000
  H   H4714     1.0  0.75362  0.18120  0.03152  1.0000
  C   C2672     1.0  0.90662  0.13063  0.20131  1.0000
  C   C2673     1.0  0.81536  0.02374  0.13770  1.0000
  H   H4715     1.0  0.90807  0.13472  0.17148  1.0000
  H   H4716     1.0  0.76049  0.03512  0.12792  1.0000
  H   H4717     1.0  0.94697  0.98474  0.23923  1.0000
  C   C2674     1.0  0.83679  0.01993  0.13154  1.0000
  C   C2675     1.0  0.93010  0.08430  0.16198  1.0000
  H   H4718     1.0  0.81224  0.05372  0.12797  1.0000
  H   H4719     1.0  0.81188  0.04052  0.11075  1.0000
  H   H4720     1.0  0.95012  0.25750  0.24937  1.0000
  C   C2676     1.0  0.74236  0.99364  0.21488  1.0000
  C   C2677     1.0  0.78269  0.02328  0.10783  1.0000
  H   H4721     1.0  0.97197  0.20501  0.05408  1.0000
  H   H4722     1.0  0.74036  0.43302  0.16042  1.0000
  Fe  Fe306     1.0  0.97657  0.24291  0.08864  1.0000
  S   S606      1.0  0.96373  0.36779  0.20990  1.0000
  N   N148      1.0  0.74216  0.17652  0.00831  1.0000
  H   H4723     1.0  0.81262  0.02520  0.15272  1.0000
  C   C2678     1.0  0.78993  0.06943  0.09693  1.0000
  H   H4724     1.0  0.90434  0.40647  0.26697  1.0000
  H   H4725     1.0  0.95946  0.16707  0.05620  1.0000
  H   H4726     1.0  0.80413  0.07186  0.09776  1.0000
  H   H4727     1.0  0.79184  0.07719  0.25550  1.0000
  H   H4728     1.0  0.73332  0.33403  0.25497  1.0000
  H   H4729     1.0  0.76889  0.08582  0.28345  1.0000
  S   S607      1.0  0.97571  0.33153  0.17456  1.0000
  H   H4730     1.0  0.84312  0.03173  0.13343  1.0000
  H   H4731     1.0  0.84295  0.00682  0.14028  1.0000
  H   H4732     1.0  0.84051  0.01802  0.11660  1.0000
  H   H4733     1.0  0.76587  0.21055  0.03371  1.0000
  C   C2679     1.0  0.80023  0.13741  0.98456  1.0000
  C   C2680     1.0  0.93936  0.26808  0.28663  1.0000
  C   C2681     1.0  0.97125  0.22506  0.19189  1.0000
  H   H4734     1.0  0.76409  0.43458  0.18032  1.0000
  H   H4735     1.0  0.74424  0.02230  0.21664  1.0000
  C   C2682     1.0  0.96885  0.24786  0.27654  1.0000
  H   H4736     1.0  0.73830  0.24311  0.07892  1.0000
  H   H4737     1.0  0.93750  0.31663  0.27126  1.0000
  C   C2683     1.0  0.91363  0.12366  0.18255  1.0000
  C   C2684     1.0  0.74638  0.20840  0.01579  1.0000
  S   S608      1.0  0.97170  0.07293  0.26413  1.0000
  H   H4738     1.0  0.77720  0.03386  0.09631  1.0000
  C   C2685     1.0  0.93967  0.99961  0.23843  1.0000
  C   C2686     1.0  0.94920  0.13151  0.14577  1.0000
  H   H4739     1.0  0.93662  0.02285  0.25366  1.0000
  C   C2687     1.0  0.75272  0.05840  0.17640  1.0000
  C   C2688     1.0  0.74170  0.44532  0.20278  1.0000
  H   H4740     1.0  0.95335  0.18150  0.07444  1.0000
  H   H4741     1.0  0.94561  0.24024  0.22621  1.0000
  H   H4742     1.0  0.92658  0.17422  0.12304  1.0000
  H   H4743     1.0  0.79188  0.05786  0.08890  1.0000
  H   H4744     1.0  0.91094  0.23052  0.04491  1.0000
  H   H4745     1.0  0.74049  0.31454  0.07986  1.0000
  H   H4746     1.0  0.77003  0.98989  0.16350  1.0000
  H   H4747     1.0  0.95696  0.00932  0.28641  1.0000
  C   C2689     1.0  0.77577  0.43024  0.20546  1.0000
  C   C2690     1.0  0.73605  0.39232  0.23344  1.0000
  C   C2691     1.0  0.93829  0.16206  0.12461  1.0000
  H   H4748     1.0  0.93431  0.23110  0.18685  1.0000
  C   C2692     1.0  0.79183  0.14439  0.96846  1.0000
  H   H4749     1.0  0.85920  0.43186  0.21986  1.0000
  H   H4750     1.0  0.97926  0.22055  0.02137  1.0000
  H   H4751     1.0  0.78740  0.31300  0.24685  1.0000
  H   H4752     1.0  0.86697  0.17824  0.96770  1.0000
  H   H4753     1.0  0.92810  0.42763  0.25954  1.0000
  H   H4754     1.0  0.91045  0.01418  0.24260  1.0000
  H   H4755     1.0  0.73358  0.21077  0.02662  1.0000
  H   H4756     1.0  0.91148  0.14408  0.20081  1.0000
  H   H4757     1.0  0.74609  0.99638  0.19934  1.0000
  C   C2693     1.0  0.95513  0.04202  0.22198  1.0000
  H   H4758     1.0  0.89975  0.08792  0.16252  1.0000
  H   H4759     1.0  0.91881  0.11295  0.15029  1.0000
  H   H4760     1.0  0.74612  0.15991  0.97400  1.0000
  H   H4761     1.0  0.92679  0.15452  0.15376  1.0000
  H   H4762     1.0  0.89715  0.23096  0.00807  1.0000
  H   H4763     1.0  0.96781  0.21490  0.00475  1.0000
  C   C2694     1.0  0.91279  0.22569  0.03128  1.0000
  C   C2695     1.0  0.74235  0.03863  0.25877  1.0000
  H   H4764     1.0  0.95110  0.39079  0.17087  1.0000
  C   C2696     1.0  0.76247  0.44196  0.19232  1.0000
  C   C2697     1.0  0.93927  0.23115  0.25659  1.0000
  H   H4765     1.0  0.93851  0.20784  0.20107  1.0000
  H   H4766     1.0  0.89566  0.41744  0.24533  1.0000
  H   H4767     1.0  0.77881  0.07707  0.12377  1.0000
  H   H4768     1.0  0.78197  0.03562  0.15923  1.0000
  H   H4769     1.0  0.92066  0.14176  0.13808  1.0000
  H   H4770     1.0  0.87970  0.39324  0.27329  1.0000
  H   H4771     1.0  0.77856  0.09955  0.09307  1.0000
  H   H4772     1.0  0.94161  0.28678  0.25876  1.0000
  C   C2698     1.0  0.77840  0.06495  0.11700  1.0000
  H   H4773     1.0  0.74506  0.11024  0.29414  1.0000
  H   H4774     1.0  0.97377  0.25986  0.26615  1.0000
  C   C2699     1.0  0.85788  0.45017  0.28223  1.0000
  H   H4775     1.0  0.92070  0.24305  0.23594  1.0000
  H   H4776     1.0  0.95069  0.16742  0.12653  1.0000
  H   H4777     1.0  0.93402  0.21993  0.23352  1.0000
  H   H4778     1.0  0.78926  0.09069  0.07170  1.0000
  N   N149      1.0  0.94479  0.11399  0.15945  1.0000
  H   H4779     1.0  0.97904  0.31846  0.13983  1.0000
  H   H4780     1.0  0.84255  0.44940  0.28613  1.0000
  H   H4781     1.0  0.74597  0.45960  0.16456  1.0000
  Fe  Fe307     1.0  0.97036  0.10294  0.26779  1.0000
  H   H4782     1.0  0.75331  0.07114  0.14753  1.0000
  H   H4783     1.0  0.74395  0.14756  0.00496  1.0000
  H   H4784     1.0  0.96342  0.23979  0.19060  1.0000
  H   H4785     1.0  0.84497  0.16954  0.97421  1.0000
  H   H4786     1.0  0.77525  0.12200  0.01968  1.0000
  H   H4787     1.0  0.91191  0.12001  0.21297  1.0000
  C   C2700     1.0  0.73516  0.36690  0.21733  1.0000
  C   C2701     1.0  0.97026  0.02438  0.25940  1.0000
  H   H4788     1.0  0.94719  0.18744  0.15243  1.0000
  H   H4789     1.0  0.91430  0.07868  0.14229  1.0000
  C   C2702     1.0  0.77501  0.00526  0.10871  1.0000
  H   H4790     1.0  0.74624  0.23127  0.97043  1.0000
  H   H4791     1.0  0.94198  0.15601  0.11146  1.0000
  C   C2703     1.0  0.77606  0.03073  0.12666  1.0000
  H   H4792     1.0  0.77894  0.10085  0.25066  1.0000
  C   C2704     1.0  0.74339  0.09190  0.26988  1.0000
  C   C2705     1.0  0.75337  0.18699  0.01639  1.0000
  C   C2706     1.0  0.93227  0.14723  0.14146  1.0000
  H   H4793     1.0  0.95847  0.13860  0.15111  1.0000
  H   H4794     1.0  0.94273  0.07381  0.15779  1.0000
  H   H4795     1.0  0.79827  0.01976  0.10433  1.0000
  C   C2707     1.0  0.94084  0.25027  0.26143  1.0000
  H   H4796     1.0  0.92829  0.08354  0.17738  1.0000
  C   C2708     1.0  0.74038  0.20011  0.06810  1.0000
  C   C2709     1.0  0.95877  0.15580  0.19068  1.0000
  H   H4797     1.0  0.91596  0.12913  0.28679  1.0000
  H   H4798     1.0  0.97498  0.31903  0.28193  1.0000
  H   H4799     1.0  0.74338  0.41600  0.18166  1.0000
  H   H4800     1.0  0.88272  0.23222  0.03088  1.0000
  H   H4801     1.0  0.78694  0.05889  0.15283  1.0000
  C   C2710     1.0  0.93254  0.30391  0.28024  1.0000
  H   H4802     1.0  0.75727  0.18621  0.98073  1.0000
  C   C2711     1.0  0.92249  0.16250  0.26861  1.0000
  H   H4803     1.0  0.91166  0.06388  0.16514  1.0000
  C   C2712     1.0  0.75744  0.05685  0.15554  1.0000
  H   H4804     1.0  0.95242  0.22073  0.25729  1.0000
  Fe  Fe308     1.0  0.96018  0.11894  0.22934  1.0000
  H   H4805     1.0  0.75700  0.31363  0.26821  1.0000
  H   H4806     1.0  0.77809  0.01849  0.13823  1.0000
  C   C2713     1.0  0.96266  0.21506  0.17996  1.0000
  H   H4807     1.0  0.94477  0.00032  0.26579  1.0000
  H   H4808     1.0  0.95917  0.03719  0.26015  1.0000
  H   H4809     1.0  0.88958  0.44921  0.25830  1.0000
  H   H4810     1.0  0.74420  0.29412  0.09695  1.0000
  N   N150      1.0  0.73921  0.33786  0.29288  1.0000
  C   C2714     1.0  0.76372  0.08155  0.27214  1.0000
  H   H4811     1.0  0.83577  0.44053  0.23164  1.0000
  C   C2715     1.0  0.75212  0.15625  0.00979  1.0000
  H   H4812     1.0  0.93954  0.23122  0.05695  1.0000
  C   C2716     1.0  0.96932  0.24450  0.00239  1.0000
  H   H4813     1.0  0.94776  0.19493  0.02934  1.0000
  C   C2717     1.0  0.96733  0.19499  0.04747  1.0000
  H   H4814     1.0  0.95733  0.12759  0.13220  1.0000
  C   C2718     1.0  0.93552  0.11861  0.17864  1.0000
  H   H4815     1.0  0.91719  0.31415  0.13566  1.0000
  H   H4816     1.0  0.85907  0.46319  0.27161  1.0000
  C   C2719     1.0  0.73358  0.23160  0.07533  1.0000
  C   C2720     1.0  0.93931  0.26949  0.05227  1.0000
  C   C2721     1.0  0.94733  0.23697  0.04298  1.0000
  H   H4817     1.0  0.77566  0.31307  0.28077  1.0000
  C   C2722     1.0  0.96661  0.22507  0.01442  1.0000
  H   H4818     1.0  0.73297  0.40225  0.15880  1.0000
  H   H4819     1.0  0.93707  0.20325  0.05064  1.0000
  C   C2723     1.0  0.92104  0.42537  0.24845  1.0000
  H   H4820     1.0  0.95894  0.29988  0.19832  1.0000
  N   N151      1.0  0.96669  0.01305  0.24601  1.0000
  C   C2724     1.0  0.76138  0.21772  0.02015  1.0000
  H   H4821     1.0  0.73457  0.27649  0.07279  1.0000
  C   C2725     1.0  0.73272  0.06514  0.22777  1.0000
  N   N152      1.0  0.94869  0.22435  0.02877  1.0000
  Fe  Fe309     1.0  0.96991  0.20920  0.11918  1.0000
  H   H4822     1.0  0.96169  0.23722  0.04559  1.0000
  H   H4823     1.0  0.77312  0.08189  0.24199  1.0000
  H   H4824     1.0  0.93361  0.41133  0.16555  1.0000
  H   H4825     1.0  0.93925  0.10658  0.18993  1.0000
  H   H4826     1.0  0.96751  0.21867  0.20692  1.0000
  C   C2726     1.0  0.93295  0.10431  0.15128  1.0000
  H   H4827     1.0  0.96099  0.08766  0.17127  1.0000
  C   C2727     1.0  0.94930  0.20420  0.03893  1.0000
  H   H4828     1.0  0.90723  0.11108  0.18337  1.0000
  H   H4829     1.0  0.77951  0.00037  0.09494  1.0000
  C   C2728     1.0  0.94787  0.16955  0.17933  1.0000
  H   H4830     1.0  0.93184  0.26419  0.06645  1.0000
  C   C2729     1.0  0.96337  0.10079  0.16119  1.0000
  H   H4831     1.0  0.86738  0.36736  0.29654  1.0000
  H   H4832     1.0  0.91497  0.99221  0.25871  1.0000
  H   H4833     1.0  0.74309  0.21575  0.00192  1.0000
  S   S609      1.0  0.96083  0.09070  0.22210  1.0000
  H   H4834     1.0  0.76745  0.15132  0.03343  1.0000
  H   H4835     1.0  0.93944  0.10285  0.13647  1.0000
  H   H4836     1.0  0.94120  0.13043  0.18143  1.0000
  H   H4837     1.0  0.93312  0.17427  0.18459  1.0000
  H   H4838     1.0  0.76743  0.45562  0.18677  1.0000
  H   H4839     1.0  0.78057  0.99384  0.11965  1.0000
  C   C2730     1.0  0.75586  0.47080  0.26862  1.0000
  H   H4840     1.0  0.76336  0.06603  0.11570  1.0000
  C   C2731     1.0  0.88876  0.43524  0.26746  1.0000
  C   C2732     1.0  0.85959  0.16700  0.96631  1.0000
  H   H4841     1.0  0.75565  0.04431  0.18526  1.0000
  H   H4842     1.0  0.97183  0.25383  0.01134  1.0000
  H   H4843     1.0  0.76631  0.08565  0.08356  1.0000
  H   H4844     1.0  0.87332  0.45048  0.23551  1.0000
  H   H4845     1.0  0.77285  0.41559  0.20961  1.0000
  C   C2733     1.0  0.74260  0.18458  0.98767  1.0000
  H   H4846     1.0  0.95443  0.26899  0.05278  1.0000
  H   H4847     1.0  0.92776  0.22488  0.26656  1.0000
  C   C2734     1.0  0.96658  0.29326  0.14616  1.0000
  H   H4848     1.0  0.85450  0.39710  0.27840  1.0000
  H   H4849     1.0  0.73158  0.97703  0.96590  1.0000
  H   H4850     1.0  0.91958  0.43840  0.23774  1.0000
  H   H4851     1.0  0.93017  0.41384  0.24148  1.0000
  N   N153      1.0  0.94762  0.24971  0.27957  1.0000
  C   C2735     1.0  0.75646  0.34026  0.27799  1.0000
  H   H4852     1.0  0.75932  0.00782  0.11193  1.0000
  H   H4853     1.0  0.93764  0.15668  0.26439  1.0000
  Fe  Fe310     1.0  0.97633  0.33880  0.20307  1.0000
  H   H4854     1.0  0.95700  0.25131  0.99548  1.0000
  C   C2736     1.0  0.97242  0.30852  0.15087  1.0000
  C   C2737     1.0  0.73550  0.30089  0.08586  1.0000
  H   H4855     1.0  0.93519  0.21053  0.17707  1.0000
  H   H4856     1.0  0.97753  0.17095  0.06755  1.0000
  C   C2738     1.0  0.79551  0.17594  0.97034  1.0000
  H   H4857     1.0  0.76283  0.43205  0.28017  1.0000
  C   C2739     1.0  0.97030  0.14824  0.28720  1.0000
  H   H4858     1.0  0.96847  0.14703  0.27335  1.0000
  H   H4859     1.0  0.73728  0.98451  0.15755  1.0000
  C   C2740     1.0  0.97409  0.02687  0.29222  1.0000
  H   H4860     1.0  0.96569  0.17865  0.28168  1.0000
  H   H4861     1.0  0.96238  0.03910  0.29305  1.0000
  C   C2741     1.0  0.96880  0.16614  0.29195  1.0000
  H   H4862     1.0  0.87872  0.45718  0.29611  1.0000
  C   C2742     1.0  0.79638  0.45004  0.29613  1.0000
  H   H4863     1.0  0.91184  0.24081  0.29109  1.0000
  C   C2743     1.0  0.97485  0.17113  0.15413  1.0000
  H   H4864     1.0  0.96879  0.29148  0.13162  1.0000
  H   H4865     1.0  0.74420  0.10676  0.26293  1.0000
  H   H4866     1.0  0.74308  0.14826  0.04047  1.0000
  S   S610      1.0  0.80408  0.33426  0.29384  1.0000
  H   H4867     1.0  0.95952  0.04253  0.19175  1.0000
  H   H4868     1.0  0.97005  0.09632  0.14744  1.0000
  C   C2744     1.0  0.95988  0.05186  0.20168  1.0000
  C   C2745     1.0  0.96998  0.02413  0.22632  1.0000
  S   S611      1.0  0.97470  0.10915  0.29551  1.0000
  H   H4869     1.0  0.97208  0.11435  0.18123  1.0000
  H   H4870     1.0  0.97100  0.01506  0.21569  1.0000
  H   H4871     1.0  0.97946  0.23066  0.25444  1.0000
  C   C2746     1.0  0.97992  0.99438  0.24656  1.0000
  H   H4872     1.0  0.97785  0.98679  0.23577  1.0000
  H   H4873     1.0  0.97623  0.21688  0.27783  1.0000
  H   H4874     1.0  0.93587  0.13195  0.29504  1.0000
  C   C2747     1.0  0.98065  0.22998  0.26931  1.0000
  H   H4875     1.0  0.88058  0.14589  0.29520  1.0000
  H   H4876     1.0  0.90139  0.16403  0.29333  1.0000
  H   H4877     1.0  0.92461  0.16486  0.29652  1.0000
  C   C2748     1.0  0.94176  0.23389  0.29490  1.0000
  C   C2749     1.0  0.92022  0.13607  0.29691  1.0000
  H   H4878     1.0  0.97902  0.19047  0.03624  1.0000
  C   C2750     1.0  0.97912  0.30482  0.28906  1.0000
  H   H4879     1.0  0.97409  0.05585  0.19903  1.0000
  H   H4880     1.0  0.79363  0.19089  0.96478  1.0000
  S   S612      1.0  0.96546  0.23151  0.38111  1.0000
  S   S613      1.0  0.94505  0.22385  0.34851  1.0000
  Fe  Fe311     1.0  0.94640  0.21216  0.37872  1.0000
  S   S614      1.0  0.91971  0.21002  0.40033  1.0000
  H   H4881     1.0  0.89398  0.34096  0.31334  1.0000
  H   H4882     1.0  0.73813  0.21303  0.46016  1.0000
  H   H4883     1.0  0.91603  0.24559  0.31269  1.0000
  C   C2751     1.0  0.87325  0.32350  0.32843  1.0000
  Fe  Fe312     1.0  0.76196  0.43545  0.60269  1.0000
  S   S615      1.0  0.76537  0.41450  0.58287  1.0000
  H   H4884     1.0  0.75696  0.38869  0.61836  1.0000
  H   H4885     1.0  0.79711  0.36390  0.58107  1.0000
  Fe  Fe313     1.0  0.77907  0.27561  0.39233  1.0000
  S   S616      1.0  0.78772  0.25135  0.37655  1.0000
  S   S617      1.0  0.76880  0.30545  0.37851  1.0000
  Fe  Fe314     1.0  0.78804  0.25167  0.42933  1.0000
  S   S618      1.0  0.79808  0.22599  0.41578  1.0000
  S   S619      1.0  0.78808  0.24421  0.46080  1.0000
  Fe  Fe315     1.0  0.81266  0.24433  0.39152  1.0000
  S   S620      1.0  0.84051  0.23531  0.37312  1.0000
  Fe  Fe316     1.0  0.77233  0.23493  0.40218  1.0000
  S   S621      1.0  0.75828  0.20957  0.40491  1.0000
  S   S622      1.0  0.80497  0.26951  0.40600  1.0000
  S   S623      1.0  0.76139  0.25980  0.41698  1.0000
  H   H4886     1.0  0.74520  0.24383  0.45527  1.0000
  C   C2752     1.0  0.80740  0.01634  0.57420  1.0000
  Fe  Fe317     1.0  0.79943  0.28356  0.57750  1.0000
  S   S624      1.0  0.77359  0.28074  0.59944  1.0000
  S   S625      1.0  0.82968  0.27924  0.58260  1.0000
  Fe  Fe318     1.0  0.77617  0.29523  0.54566  1.0000
  H   H4887     1.0  0.74538  0.02748  0.53067  1.0000
  S   S626      1.0  0.77889  0.30426  0.51402  1.0000
  Fe  Fe319     1.0  0.76088  0.30840  0.58339  1.0000
  H   H4888     1.0  0.74992  0.20020  0.58967  1.0000
  Fe  Fe320     1.0  0.76360  0.26683  0.57955  1.0000
  S   S627      1.0  0.78724  0.31166  0.56232  1.0000
  S   S628      1.0  0.79076  0.26733  0.55891  1.0000
  H   H4889     1.0  0.75222  0.02854  0.56135  1.0000
  H   H4890     1.0  0.85050  0.28072  0.52995  1.0000
  C   C2753     1.0  0.78390  0.26145  0.47531  1.0000
  C   C2754     1.0  0.78417  0.28047  0.46780  1.0000
  C   C2755     1.0  0.78221  0.29355  0.47985  1.0000
  C   C2756     1.0  0.77961  0.28777  0.49946  1.0000
  C   C2757     1.0  0.77860  0.26887  0.50697  1.0000
  C   C2758     1.0  0.78104  0.25572  0.49492  1.0000
  H   H4891     1.0  0.78633  0.28504  0.45271  1.0000
  H   H4892     1.0  0.78289  0.30818  0.47395  1.0000
  H   H4893     1.0  0.77634  0.26432  0.52205  1.0000
  H   H4894     1.0  0.78091  0.24104  0.50083  1.0000
  C   C2759     1.0  0.77870  0.31340  0.35496  1.0000
  C   C2760     1.0  0.77547  0.33273  0.34749  1.0000
  C   C2761     1.0  0.78333  0.33942  0.32881  1.0000
  C   C2762     1.0  0.79419  0.32673  0.31741  1.0000
  C   C2763     1.0  0.79707  0.30741  0.32475  1.0000
  C   C2764     1.0  0.78955  0.30077  0.34350  1.0000
  H   H4895     1.0  0.76705  0.34258  0.35627  1.0000
  H   H4896     1.0  0.78096  0.35436  0.32325  1.0000
  H   H4897     1.0  0.80513  0.29750  0.31587  1.0000
  H   H4898     1.0  0.79195  0.28585  0.34900  1.0000
  H   H4899     1.0  0.97477  0.01896  0.30669  1.0000
  H   H4900     1.0  0.77811  0.08439  0.54446  1.0000
  H   H4901     1.0  0.94884  0.23282  0.30716  1.0000
  C   C2765     1.0  0.97403  0.27361  0.39354  1.0000
  H   H4902     1.0  0.80450  0.29053  0.61590  1.0000
  C   C2766     1.0  0.76375  0.03011  0.54917  1.0000
  H   H4903     1.0  0.76170  0.21191  0.46290  1.0000
  C   C2767     1.0  0.76147  0.39086  0.58833  1.0000
  C   C2768     1.0  0.76201  0.38134  0.57352  1.0000
  C   C2769     1.0  0.75957  0.02086  0.53409  1.0000
  H   H4904     1.0  0.74523  0.08842  0.30983  1.0000
  C   C2770     1.0  0.75718  0.38162  0.60686  1.0000
  H   H4905     1.0  0.85563  0.38352  0.31227  1.0000
  H   H4906     1.0  0.89337  0.11380  0.30726  1.0000
  H   H4907     1.0  0.80671  0.38689  0.58803  1.0000
  H   H4908     1.0  0.81239  0.02123  0.58532  1.0000
  C   C2771     1.0  0.87688  0.39867  0.62501  1.0000
  H   H4909     1.0  0.85304  0.24414  0.31625  1.0000
  H   H4910     1.0  0.86171  0.41421  0.59233  1.0000
  H   H4911     1.0  0.78804  0.08706  0.56414  1.0000
  C   C2772     1.0  0.89792  0.21816  0.39242  1.0000
  C   C2773     1.0  0.88181  0.22457  0.40495  1.0000
  C   C2774     1.0  0.86416  0.23054  0.39907  1.0000
  C   C2775     1.0  0.86246  0.22950  0.38081  1.0000
  C   C2776     1.0  0.87854  0.22314  0.36828  1.0000
  C   C2777     1.0  0.89624  0.21761  0.37401  1.0000
  H   H4912     1.0  0.88306  0.22502  0.41920  1.0000
  H   H4913     1.0  0.85186  0.23568  0.40872  1.0000
  H   H4914     1.0  0.87729  0.22225  0.35416  1.0000
  H   H4915     1.0  0.90846  0.21237  0.36438  1.0000
  H   H4916     1.0  0.86414  0.27625  0.59683  1.0000
  Fe  Fe321     1.0  0.96609  0.24115  0.35013  1.0000
  S   S629      1.0  0.79198  0.97356  0.61142  1.0000
  H   H4917     1.0  0.93788  0.14811  0.32114  1.0000
  H   H4918     1.0  0.79510  0.38152  0.61222  1.0000
  C   C2778     1.0  0.75683  0.20579  0.50044  1.0000
  H   H4919     1.0  0.96697  0.31140  0.57375  1.0000
  C   C2779     1.0  0.77051  0.20475  0.52967  1.0000
  H   H4920     1.0  0.77065  0.20940  0.49244  1.0000
  H   H4921     1.0  0.75873  0.19016  0.50370  1.0000
  H   H4922     1.0  0.78997  0.01531  0.61169  1.0000
  H   H4923     1.0  0.87011  0.24458  0.47923  1.0000
  H   H4924     1.0  0.75801  0.32417  0.31268  1.0000
  C   C2780     1.0  0.85112  0.47044  0.30756  1.0000
  H   H4925     1.0  0.76792  0.21014  0.54314  1.0000
  H   H4926     1.0  0.77290  0.18910  0.53284  1.0000
  H   H4927     1.0  0.78338  0.20950  0.52077  1.0000
  Fe  Fe322     1.0  0.96998  0.20121  0.34200  1.0000
  H   H4928     1.0  0.76350  0.04521  0.54306  1.0000
  H   H4929     1.0  0.86020  0.22781  0.49775  1.0000
  H   H4930     1.0  0.85312  0.41831  0.29973  1.0000
  H   H4931     1.0  0.77204  0.00943  0.59073  1.0000
  C   C2781     1.0  0.97836  0.31850  0.57534  1.0000
  H   H4932     1.0  0.86207  0.33626  0.32867  1.0000
  H   H4933     1.0  0.76300  0.09363  0.56416  1.0000
  C   C2782     1.0  0.97435  0.27999  0.31619  1.0000
  H   H4934     1.0  0.87052  0.28274  0.62656  1.0000
  H   H4935     1.0  0.83791  0.37471  0.59721  1.0000
  H   H4936     1.0  0.90030  0.27868  0.37453  1.0000
  H   H4937     1.0  0.84751  0.25451  0.45011  1.0000
  H   H4938     1.0  0.82237  0.22964  0.50821  1.0000
  H   H4939     1.0  0.81186  0.20896  0.53763  1.0000
  C   C2783     1.0  0.82554  0.36974  0.60700  1.0000
  C   C2784     1.0  0.75819  0.36281  0.57715  1.0000
  H   H4940     1.0  0.91342  0.26208  0.35973  1.0000
  C   C2785     1.0  0.75722  0.18025  0.45107  1.0000
  C   C2786     1.0  0.85772  0.13389  0.31307  1.0000
  C   C2787     1.0  0.75343  0.21224  0.51980  1.0000
  C   C2788     1.0  0.92025  0.23555  0.30257  1.0000
  H   H4941     1.0  0.93772  0.16573  0.34639  1.0000
  C   C2789     1.0  0.89898  0.26857  0.36580  1.0000
  H   H4942     1.0  0.76529  0.38836  0.55912  1.0000
  H   H4943     1.0  0.82616  0.46293  0.59054  1.0000
  H   H4944     1.0  0.74425  0.35801  0.30801  1.0000
  H   H4945     1.0  0.78377  0.00551  0.55830  1.0000
  C   C2790     1.0  0.75281  0.36329  0.61047  1.0000
  C   C2791     1.0  0.86113  0.34154  0.60147  1.0000
  C   C2792     1.0  0.91510  0.21661  0.31304  1.0000
  C   C2793     1.0  0.85248  0.28077  0.60745  1.0000
  H   H4946     1.0  0.82411  0.26858  0.45086  1.0000
  H   H4947     1.0  0.77036  0.18560  0.44368  1.0000
  H   H4948     1.0  0.82068  0.31645  0.52289  1.0000
  H   H4949     1.0  0.82371  0.40850  0.59709  1.0000
  S   S630      1.0  0.75616  0.98068  0.57637  1.0000
  C   C2794     1.0  0.77578  0.08332  0.55998  1.0000
  H   H4950     1.0  0.83997  0.22337  0.52350  1.0000
  H   H4951     1.0  0.75056  0.22781  0.51850  1.0000
  H   H4952     1.0  0.89488  0.21968  0.49076  1.0000
  N   N154      1.0  0.78862  0.02803  0.57045  1.0000
  S   S631      1.0  0.74841  0.29428  0.56546  1.0000
  H   H4953     1.0  0.89568  0.29006  0.34192  1.0000
  S   S632      1.0  0.73540  0.98656  0.61927  1.0000
  H   H4954     1.0  0.90134  0.31626  0.31231  1.0000
  H   H4955     1.0  0.90053  0.15623  0.32496  1.0000
  N   N155      1.0  0.85442  0.29656  0.34410  1.0000
  C   C2795     1.0  0.97547  0.15166  0.32294  1.0000
  C   C2796     1.0  0.84420  0.28292  0.33919  1.0000
  C   C2797     1.0  0.83951  0.31123  0.35289  1.0000
  C   C2798     1.0  0.86728  0.28666  0.35809  1.0000
  C   C2799     1.0  0.88802  0.27865  0.35002  1.0000
  H   H4956     1.0  0.87583  0.32145  0.62220  1.0000
  C   C2800     1.0  0.82625  0.30375  0.37096  1.0000
  H   H4957     1.0  0.74583  0.18642  0.44267  1.0000
  H   H4958     1.0  0.82500  0.03083  0.54968  1.0000
  N   N156      1.0  0.91116  0.12876  0.31673  1.0000
  H   H4959     1.0  0.79854  0.41492  0.60255  1.0000
  C   C2801     1.0  0.81425  0.31994  0.38039  1.0000
  C   C2802     1.0  0.90882  0.14243  0.33008  1.0000
  H   H4960     1.0  0.91882  0.17646  0.33354  1.0000
  H   H4961     1.0  0.83590  0.27572  0.35203  1.0000
  H   H4962     1.0  0.83377  0.29081  0.33011  1.0000
  H   H4963     1.0  0.83036  0.31933  0.34253  1.0000
  H   H4964     1.0  0.84620  0.32175  0.35682  1.0000
  H   H4965     1.0  0.86827  0.29636  0.36747  1.0000
  H   H4966     1.0  0.86106  0.27481  0.36768  1.0000
  H   H4967     1.0  0.85502  0.31219  0.31574  1.0000
  H   H4968     1.0  0.83338  0.25085  0.33406  1.0000
  H   H4969     1.0  0.74112  0.12344  0.32443  1.0000
  H   H4970     1.0  0.74997  0.29900  0.34258  1.0000
  H   H4971     1.0  0.83439  0.29419  0.38134  1.0000
  H   H4972     1.0  0.81633  0.29599  0.36756  1.0000
  H   H4973     1.0  0.95429  0.08137  0.32018  1.0000
  H   H4974     1.0  0.87897  0.32071  0.34172  1.0000
  H   H4975     1.0  0.80584  0.00135  0.57983  1.0000
  H   H4976     1.0  0.86373  0.35435  0.60557  1.0000
  H   H4977     1.0  0.97991  0.12120  0.32848  1.0000
  H   H4978     1.0  0.79640  0.35432  0.55118  1.0000
  H   H4979     1.0  0.80168  0.05159  0.57163  1.0000
  H   H4980     1.0  0.74128  0.20659  0.52913  1.0000
  C   C2803     1.0  0.84268  0.00711  0.56340  1.0000
  C   C2804     1.0  0.77977  0.02763  0.60633  1.0000
  H   H4981     1.0  0.73388  0.23948  0.38395  1.0000
  H   H4982     1.0  0.82330  0.32761  0.38531  1.0000
  H   H4983     1.0  0.80584  0.32995  0.37047  1.0000
  H   H4984     1.0  0.80426  0.31427  0.39274  1.0000
  N   N157      1.0  0.83972  0.16758  0.41375  1.0000
  C   C2805     1.0  0.83392  0.17913  0.39572  1.0000
  C   C2806     1.0  0.86098  0.16143  0.41107  1.0000
  C   C2807     1.0  0.83068  0.15012  0.41835  1.0000
  C   C2808     1.0  0.83284  0.17819  0.43002  1.0000
  C   C2809     1.0  0.84091  0.19633  0.42860  1.0000
  C   C2810     1.0  0.81249  0.18303  0.39478  1.0000
  C   C2811     1.0  0.83675  0.13491  0.43507  1.0000
  C   C2812     1.0  0.87327  0.17484  0.39701  1.0000
  C   C2813     1.0  0.89411  0.16893  0.39891  1.0000
  C   C2814     1.0  0.83277  0.20566  0.44594  1.0000
  C   C2815     1.0  0.80826  0.19707  0.37713  1.0000
  C   C2816     1.0  0.82800  0.11735  0.43694  1.0000
  H   H4985     1.0  0.84101  0.17179  0.38370  1.0000
  H   H4986     1.0  0.83878  0.19294  0.39241  1.0000
  H   H4987     1.0  0.86590  0.15848  0.42488  1.0000
  H   H4988     1.0  0.86515  0.14786  0.40559  1.0000
  H   H4989     1.0  0.83355  0.14318  0.40571  1.0000
  H   H4990     1.0  0.81503  0.15393  0.42197  1.0000
  H   H4991     1.0  0.81716  0.18185  0.43257  1.0000
  H   H4992     1.0  0.83651  0.16913  0.44322  1.0000
  H   H4993     1.0  0.83750  0.20671  0.41608  1.0000
  H   H4994     1.0  0.85643  0.19301  0.42798  1.0000
  H   H4995     1.0  0.80772  0.16987  0.39408  1.0000
  H   H4996     1.0  0.80385  0.18871  0.40719  1.0000
  H   H4997     1.0  0.83186  0.14026  0.44856  1.0000
  H   H4998     1.0  0.85229  0.13040  0.43330  1.0000
  H   H4999     1.0  0.87219  0.17435  0.38232  1.0000
  H   H5000     1.0  0.86883  0.18967  0.39900  1.0000
  H   H5001     1.0  0.89922  0.15395  0.39737  1.0000
  H   H5002     1.0  0.90277  0.17775  0.38780  1.0000
  H   H5003     1.0  0.89624  0.17101  0.41277  1.0000
  H   H5004     1.0  0.83792  0.21921  0.44403  1.0000
  H   H5005     1.0  0.81710  0.20867  0.44814  1.0000
  H   H5006     1.0  0.83733  0.19642  0.45872  1.0000
  H   H5007     1.0  0.79296  0.19920  0.37651  1.0000
  H   H5008     1.0  0.81186  0.21092  0.37737  1.0000
  H   H5009     1.0  0.81639  0.19178  0.36426  1.0000
  H   H5010     1.0  0.83227  0.10680  0.44912  1.0000
  H   H5011     1.0  0.81232  0.12096  0.43933  1.0000
  H   H5012     1.0  0.83292  0.11086  0.42407  1.0000
  H   H5013     1.0  0.88876  0.26854  0.34060  1.0000
  H   H5014     1.0  0.90930  0.37144  0.61622  1.0000
  H   H5015     1.0  0.86127  0.25107  0.52043  1.0000
  H   H5016     1.0  0.88760  0.40795  0.61876  1.0000
  C   C2817     1.0  0.80828  0.38503  0.60295  1.0000
  H   H5017     1.0  0.76011  0.06071  0.56561  1.0000
  C   C2818     1.0  0.73803  0.20985  0.39536  1.0000
  H   H5018     1.0  0.73639  0.10148  0.33947  1.0000
  H   H5019     1.0  0.84698  0.14586  0.30804  1.0000
  H   H5020     1.0  0.89729  0.24196  0.49567  1.0000
  C   C2819     1.0  0.78323  0.02107  0.55472  1.0000
  C   C2820     1.0  0.85702  0.42272  0.60378  1.0000
  H   H5021     1.0  0.75234  0.23963  0.48635  1.0000
  H   H5022     1.0  0.95817  0.30810  0.31390  1.0000
  H   H5023     1.0  0.84251  0.43054  0.60276  1.0000
  H   H5024     1.0  0.93131  0.09804  0.29859  1.0000
  H   H5025     1.0  0.84450  0.27882  0.43870  1.0000
  S   S633      1.0  0.96098  0.27219  0.33806  1.0000
  H   H5026     1.0  0.79697  0.23182  0.53612  1.0000
  Fe  Fe323     1.0  0.78380  0.45172  0.62509  1.0000
  H   H5027     1.0  0.97752  0.15284  0.33673  1.0000
  C   C2821     1.0  0.85614  0.28438  0.62430  1.0000
  H   H5028     1.0  0.96444  0.27215  0.38429  1.0000
  C   C2822     1.0  0.92744  0.14618  0.33421  1.0000
  H   H5029     1.0  0.75845  0.35573  0.56561  1.0000
  H   H5030     1.0  0.78291  0.45862  0.32260  1.0000
  S   S634      1.0  0.78117  0.45715  0.59448  1.0000
  C   C2823     1.0  0.77279  0.06345  0.56970  1.0000
  C   C2824     1.0  0.79084  0.46282  0.30879  1.0000
  C   C2825     1.0  0.92353  0.11077  0.32429  1.0000
  S   S635      1.0  0.75345  0.23840  0.58907  1.0000
  C   C2826     1.0  0.74515  0.32193  0.30824  1.0000
  H   H5031     1.0  0.97014  0.26513  0.40764  1.0000
  C   C2827     1.0  0.84151  0.33696  0.61186  1.0000
  H   H5032     1.0  0.81452  0.22556  0.55132  1.0000
  C   C2828     1.0  0.77438  0.02431  0.58813  1.0000
  H   H5033     1.0  0.88735  0.22470  0.51432  1.0000
  H   H5034     1.0  0.79358  0.02358  0.54154  1.0000
  H   H5035     1.0  0.86218  0.34399  0.58598  1.0000
  H   H5036     1.0  0.93008  0.34158  0.62561  1.0000
  H   H5037     1.0  0.82535  0.28292  0.53780  1.0000
  H   H5038     1.0  0.88410  0.33038  0.29849  1.0000
  S   S636      1.0  0.97017  0.18816  0.37256  1.0000
  H   H5039     1.0  0.77022  0.02273  0.52106  1.0000
  H   H5040     1.0  0.83434  0.35875  0.57518  1.0000
  H   H5041     1.0  0.83639  0.31126  0.53981  1.0000
  H   H5042     1.0  0.84598  0.31479  0.51502  1.0000
  C   C2829     1.0  0.87698  0.32543  0.60669  1.0000
  H   H5043     1.0  0.84209  0.99242  0.57086  1.0000
  H   H5044     1.0  0.85609  0.27507  0.46894  1.0000
  H   H5045     1.0  0.81157  0.40362  0.62120  1.0000
  C   C2830     1.0  0.92416  0.16374  0.34327  1.0000
  H   H5046     1.0  0.83318  0.28965  0.46898  1.0000
  H   H5047     1.0  0.84698  0.40022  0.62435  1.0000
  C   C2831     1.0  0.79067  0.04858  0.56485  1.0000
  C   C2832     1.0  0.83384  0.28308  0.60423  1.0000
  H   H5048     1.0  0.86418  0.25638  0.33956  1.0000
  H   H5049     1.0  0.88644  0.11686  0.33121  1.0000
  C   C2833     1.0  0.75338  0.35377  0.59566  1.0000
  N   N158      1.0  0.83823  0.26316  0.50509  1.0000
  C   C2834     1.0  0.83250  0.26199  0.48692  1.0000
  C   C2835     1.0  0.82598  0.25286  0.52133  1.0000
  C   C2836     1.0  0.83404  0.28370  0.50723  1.0000
  C   C2837     1.0  0.85895  0.25570  0.50558  1.0000
  C   C2838     1.0  0.86848  0.23935  0.49461  1.0000
  C   C2839     1.0  0.84096  0.27496  0.46916  1.0000
  C   C2840     1.0  0.83653  0.28781  0.52631  1.0000
  C   C2841     1.0  0.82600  0.23183  0.52135  1.0000
  C   C2842     1.0  0.81144  0.22413  0.53760  1.0000
  C   C2843     1.0  0.88820  0.23097  0.49917  1.0000
  C   C2844     1.0  0.83914  0.26879  0.45114  1.0000
  C   C2845     1.0  0.83480  0.30892  0.52586  1.0000
  H   H5050     1.0  0.81692  0.26580  0.48809  1.0000
  H   H5051     1.0  0.83584  0.24735  0.48407  1.0000
  H   H5052     1.0  0.83016  0.25312  0.53492  1.0000
  H   H5053     1.0  0.81108  0.26029  0.52214  1.0000
  H   H5054     1.0  0.81927  0.29002  0.50521  1.0000
  H   H5055     1.0  0.84328  0.29196  0.49609  1.0000
  H   H5056     1.0  0.86749  0.26713  0.49978  1.0000
  C   C2846     1.0  0.86473  0.30661  0.32620  1.0000
  H   H5057     1.0  0.89177  0.25729  0.37493  1.0000
  H   H5058     1.0  0.76035  0.03283  0.58659  1.0000
  H   H5059     1.0  0.91268  0.08859  0.31561  1.0000
  H   H5060     1.0  0.74924  0.30833  0.30288  1.0000
  H   H5061     1.0  0.91801  0.10587  0.33939  1.0000
  H   H5062     1.0  0.75973  0.16470  0.45200  1.0000
  H   H5063     1.0  0.87623  0.29673  0.31924  1.0000
  H   H5064     1.0  0.89981  0.21844  0.31911  1.0000
  H   H5065     1.0  0.79408  0.35186  0.61214  1.0000
  C   C2847     1.0  0.74823  0.20689  0.47001  1.0000
  C   C2848     1.0  0.84411  0.25629  0.32232  1.0000
  H   H5066     1.0  0.93517  0.07200  0.33661  1.0000
  C   C2849     1.0  0.85646  0.26676  0.32937  1.0000
  C   C2850     1.0  0.92612  0.09390  0.31381  1.0000
  H   H5067     1.0  0.93806  0.11338  0.32378  1.0000
  H   H5068     1.0  0.81631  0.36582  0.54902  1.0000
  C   C2851     1.0  0.82380  0.01629  0.55715  1.0000
  C   C2852     1.0  0.86796  0.38070  0.30101  1.0000
  H   H5069     1.0  0.75950  0.00558  0.53917  1.0000
  C   C2853     1.0  0.80707  0.34323  0.61686  1.0000
  S   S637      1.0  0.73542  0.45671  0.60866  1.0000
  H   H5070     1.0  0.86668  0.27185  0.31705  1.0000
  H   H5071     1.0  0.89092  0.32977  0.60078  1.0000
  C   C2854     1.0  0.76257  0.03007  0.62185  1.0000
  C   C2855     1.0  0.94029  0.07726  0.32156  1.0000
  H   H5072     1.0  0.75459  0.01831  0.62408  1.0000
  H   H5073     1.0  0.86644  0.43322  0.60193  1.0000
  H   H5074     1.0  0.91391  0.16227  0.35663  1.0000
  C   C2856     1.0  0.81079  0.40412  0.60622  1.0000
  C   C2857     1.0  0.81890  0.28877  0.61812  1.0000
  H   H5075     1.0  0.87633  0.31290  0.60081  1.0000
  C   C2858     1.0  0.85697  0.41006  0.62301  1.0000
  H   H5076     1.0  0.92327  0.21093  0.32468  1.0000
  H   H5077     1.0  0.93371  0.13406  0.34405  1.0000
  S   S638      1.0  0.96859  0.19097  0.31509  1.0000
  C   C2859     1.0  0.81011  0.35304  0.55587  1.0000
  C   C2860     1.0  0.82576  0.34856  0.58458  1.0000
  H   H5078     1.0  0.79596  0.05186  0.54946  1.0000
  H   H5079     1.0  0.85408  0.00670  0.55091  1.0000
  C   C2861     1.0  0.73597  0.29977  0.33872  1.0000
  H   H5080     1.0  0.87439  0.15212  0.31848  1.0000
  C   C2862     1.0  0.97414  0.13193  0.30037  1.0000
  H   H5081     1.0  0.83675  0.26580  0.31128  1.0000
  S   S639      1.0  0.74635  0.33138  0.60073  1.0000
  H   H5082     1.0  0.79977  0.33883  0.58341  1.0000
  C   C2863     1.0  0.73896  0.23509  0.48579  1.0000
  N   N159      1.0  0.82459  0.34998  0.60504  1.0000
  C   C2864     1.0  0.80688  0.35122  0.57726  1.0000
  H   H5083     1.0  0.87954  0.38801  0.61565  1.0000
  H   H5084     1.0  0.82808  0.36999  0.62128  1.0000
  H   H5085     1.0  0.90044  0.13719  0.34390  1.0000
  H   H5086     1.0  0.83331  0.33437  0.58168  1.0000
  H   H5087     1.0  0.91818  0.20625  0.30332  1.0000
  H   H5088     1.0  0.81963  0.34038  0.55135  1.0000
  H   H5089     1.0  0.74887  0.35645  0.62481  1.0000
  H   H5090     1.0  0.97811  0.27921  0.62825  1.0000
  H   H5091     1.0  0.82153  0.00797  0.54711  1.0000
  H   H5092     1.0  0.76946  0.06351  0.58506  1.0000
  C   C2865     1.0  0.89209  0.12398  0.31687  1.0000
  H   H5093     1.0  0.84100  0.32223  0.61080  1.0000
  H   H5094     1.0  0.84139  0.33692  0.62695  1.0000
  H   H5095     1.0  0.97223  0.32850  0.58530  1.0000
  H   H5096     1.0  0.74176  0.27234  0.46958  1.0000
  C   C2866     1.0  0.74057  0.20914  0.58063  1.0000
  H   H5097     1.0  0.94212  0.06563  0.31351  1.0000
  H   H5098     1.0  0.74000  0.06284  0.29916  1.0000
  H   H5099     1.0  0.86407  0.44136  0.31128  1.0000
  H   H5100     1.0  0.74027  0.16667  0.60679  1.0000
  C   C2867     1.0  0.75149  0.18522  0.47081  1.0000
  H   H5101     1.0  0.85274  0.12865  0.32817  1.0000
  C   C2868     1.0  0.73595  0.09967  0.30166  1.0000
  N   N160      1.0  0.74155  0.21375  0.48861  1.0000
  H   H5102     1.0  0.88125  0.37891  0.30663  1.0000
  C   C2869     1.0  0.96959  0.29859  0.30714  1.0000
  H   H5103     1.0  0.76303  0.17794  0.47866  1.0000
  H   H5104     1.0  0.85898  0.12249  0.30486  1.0000
  H   H5105     1.0  0.73659  0.28790  0.33133  1.0000
  C   C2870     1.0  0.87667  0.14048  0.31043  1.0000
  H   H5106     1.0  0.80689  0.32867  0.61486  1.0000
  H   H5107     1.0  0.75313  0.04361  0.61811  1.0000
  C   C2871     1.0  0.97130  0.16797  0.30986  1.0000
  C   C2872     1.0  0.97685  0.13373  0.31821  1.0000
  H   H5108     1.0  0.73833  0.18008  0.40495  1.0000
  H   H5109     1.0  0.73844  0.17941  0.47753  1.0000
  C   C2873     1.0  0.74002  0.22877  0.57717  1.0000
  H   H5110     1.0  0.94381  0.26786  0.30029  1.0000
  C   C2874     1.0  0.88913  0.32801  0.31210  1.0000
  C   C2875     1.0  0.73331  0.24641  0.46698  1.0000
  H   H5111     1.0  0.78662  0.04022  0.60372  1.0000
  H   H5112     1.0  0.84621  0.01528  0.57289  1.0000
  S   S640      1.0  0.79064  0.42717  0.30329  1.0000
  H   H5113     1.0  0.97200  0.28863  0.39505  1.0000
  H   H5114     1.0  0.73415  0.14381  0.60861  1.0000
  C   C2876     1.0  0.86425  0.45375  0.29980  1.0000
  H   H5115     1.0  0.83648  0.46747  0.31216  1.0000
  H   H5116     1.0  0.73159  0.41311  0.62859  1.0000
  H   H5117     1.0  0.73358  0.39265  0.30386  1.0000
  C   C2877     1.0  0.73275  0.35553  0.30149  1.0000
  H   H5118     1.0  0.73225  0.15343  0.62963  1.0000
  C   C2878     1.0  0.90672  0.36436  0.63113  1.0000
  H   H5119     1.0  0.87804  0.41408  0.29859  1.0000
  Fe  Fe324     1.0  0.83422  0.98479  0.69981  1.0000
  S   S641      1.0  0.80636  0.98968  0.68867  1.0000
  Fe  Fe325     1.0  0.86513  0.00290  0.70907  1.0000
  H   H5120     1.0  0.90937  0.46953  0.76805  1.0000
  S   S642      1.0  0.87242  0.03247  0.70477  1.0000
  H   H5121     1.0  0.84387  0.44350  0.65322  1.0000
  C   C2879     1.0  0.81260  0.98117  0.77981  1.0000
  S   S643      1.0  0.86420  0.98719  0.68585  1.0000
  S   S644      1.0  0.83454  0.00249  0.72117  1.0000
  H   H5122     1.0  0.90990  0.38943  0.63962  1.0000
  S   S645      1.0  0.74705  0.99825  0.85967  1.0000
  H   H5123     1.0  0.73832  0.46962  0.74153  1.0000
  H   H5124     1.0  0.75921  0.42737  0.81368  1.0000
  Fe  Fe326     1.0  0.88154  0.44990  0.71862  1.0000
  S   S646      1.0  0.89865  0.42121  0.71345  1.0000
  H   H5125     1.0  0.82766  0.37057  0.76827  1.0000
  S   S647      1.0  0.75695  0.01568  0.80373  1.0000
  S   S648      1.0  0.84467  0.29735  0.65845  1.0000
  C   C2880     1.0  0.93582  0.46081  0.75075  1.0000
  H   H5126     1.0  0.88956  0.44597  0.65961  1.0000
  Fe  Fe327     1.0  0.88474  0.32230  0.68996  1.0000
  S   S649      1.0  0.88734  0.32142  0.65920  1.0000
  S   S650      1.0  0.86983  0.34906  0.70169  1.0000
  Fe  Fe328     1.0  0.89624  0.27881  0.69938  1.0000
  S   S651      1.0  0.89877  0.27509  0.66948  1.0000
  S   S652      1.0  0.90334  0.25507  0.72348  1.0000
  Fe  Fe329     1.0  0.91380  0.30005  0.66277  1.0000
  H   H5127     1.0  0.82528  0.08819  0.86020  1.0000
  Fe  Fe330     1.0  0.87216  0.29668  0.66850  1.0000
  C   C2881     1.0  0.78915  0.43404  0.78357  1.0000
  S   S653      1.0  0.91250  0.30294  0.69271  1.0000
  S   S654      1.0  0.86836  0.29834  0.69921  1.0000
  Fe  Fe331     1.0  0.90798  0.10197  0.75818  1.0000
  S   S655      1.0  0.88565  0.12673  0.75085  1.0000
  S   S656      1.0  0.91110  0.07152  0.75337  1.0000
  Fe  Fe332     1.0  0.92480  0.12472  0.77989  1.0000
  S   S657      1.0  0.90281  0.15075  0.77490  1.0000
  S   S658      1.0  0.94857  0.12062  0.79692  1.0000
  Fe  Fe333     1.0  0.88204  0.13075  0.78080  1.0000
  S   S659      1.0  0.85110  0.13484  0.79396  1.0000
  Fe  Fe334     1.0  0.90808  0.14489  0.74544  1.0000
  S   S660      1.0  0.90955  0.16821  0.71982  1.0000
  S   S661      1.0  0.90329  0.10516  0.78858  1.0000
  S   S662      1.0  0.93109  0.11968  0.74998  1.0000
  Fe  Fe335     1.0  0.76609  0.12295  0.89620  1.0000
  S   S663      1.0  0.76533  0.15162  0.87767  1.0000
  S   S664      1.0  0.76741  0.09698  0.88299  1.0000
  Fe  Fe336     1.0  0.77573  0.13778  0.92888  1.0000
  S   S665      1.0  0.77569  0.16705  0.91268  1.0000
  H   H5128     1.0  0.84250  0.35172  0.67560  1.0000
  Fe  Fe337     1.0  0.74964  0.16313  0.90371  1.0000
  Fe  Fe338     1.0  0.79143  0.15304  0.88829  1.0000
  S   S666      1.0  0.81881  0.16191  0.87222  1.0000
  S   S667      1.0  0.74844  0.13434  0.92162  1.0000
  S   S668      1.0  0.79331  0.12398  0.90512  1.0000
  H   H5129     1.0  0.75927  0.00150  0.94752  1.0000
  H   H5130     1.0  0.83609  0.08803  0.93681  1.0000
  H   H5131     1.0  0.78256  0.16931  0.94939  1.0000
  C   C2882     1.0  0.80438  0.34296  0.63834  1.0000
  H   H5132     1.0  0.94019  0.25854  0.65951  1.0000
  H   H5133     1.0  0.77201  0.06495  0.86528  1.0000
  C   C2883     1.0  0.96129  0.15511  0.78782  1.0000
  H   H5134     1.0  0.85061  0.46210  0.67487  1.0000
  H   H5135     1.0  0.94964  0.16036  0.78019  1.0000
  C   C2884     1.0  0.84280  0.14223  0.81583  1.0000
  C   C2885     1.0  0.85472  0.14717  0.82581  1.0000
  C   C2886     1.0  0.84723  0.15336  0.84308  1.0000
  C   C2887     1.0  0.82794  0.15408  0.85063  1.0000
  C   C2888     1.0  0.81609  0.14907  0.84063  1.0000
  C   C2889     1.0  0.82348  0.14351  0.82313  1.0000
  H   H5136     1.0  0.86965  0.14632  0.82019  1.0000
  H   H5137     1.0  0.85643  0.15739  0.85067  1.0000
  H   H5138     1.0  0.80118  0.14987  0.84620  1.0000
  H   H5139     1.0  0.81420  0.14026  0.81514  1.0000
  C   C2890     1.0  0.90552  0.23099  0.72198  1.0000
  C   C2891     1.0  0.91107  0.21709  0.73694  1.0000
  C   C2892     1.0  0.91245  0.19781  0.73645  1.0000
  C   C2893     1.0  0.90825  0.19226  0.72099  1.0000
  C   C2894     1.0  0.90305  0.20615  0.70589  1.0000
  C   C2895     1.0  0.90159  0.22542  0.70640  1.0000
  H   H5140     1.0  0.91417  0.22127  0.74904  1.0000
  H   H5141     1.0  0.91691  0.18723  0.74795  1.0000
  H   H5142     1.0  0.89992  0.20198  0.69379  1.0000
  H   H5143     1.0  0.89726  0.23595  0.69480  1.0000
  C   C2896     1.0  0.96252  0.29567  0.64915  1.0000
  C   C2897     1.0  0.96369  0.30406  0.66413  1.0000
  H   H5144     1.0  0.83732  0.10055  0.83868  1.0000
  H   H5145     1.0  0.95111  0.31177  0.67141  1.0000
  H   H5146     1.0  0.86029  0.40677  0.79673  1.0000
  H   H5147     1.0  0.79276  0.09558  0.84949  1.0000
  H   H5148     1.0  0.76237  0.24095  0.92835  1.0000
  H   H5149     1.0  0.81457  0.06906  0.84119  1.0000
  N   N161      1.0  0.80478  0.42657  0.76874  1.0000
  H   H5150     1.0  0.74154  0.03287  0.95430  1.0000
  C   C2898     1.0  0.85180  0.41903  0.78894  1.0000
  S   S669      1.0  0.76679  0.42836  0.63249  1.0000
  C   C2899     1.0  0.75148  0.01097  0.93684  1.0000
  H   H5151     1.0  0.84466  0.07560  0.84573  1.0000
  H   H5152     1.0  0.78964  0.05244  0.79490  1.0000
  C   C2900     1.0  0.77344  0.07762  0.80555  1.0000
  H   H5153     1.0  0.92324  0.34376  0.65001  1.0000
  H   H5154     1.0  0.75683  0.23939  0.89239  1.0000
  H   H5155     1.0  0.75528  0.20545  0.89572  1.0000
  C   C2901     1.0  0.88567  0.42130  0.64990  1.0000
  C   C2902     1.0  0.78975  0.42447  0.80425  1.0000
  C   C2903     1.0  0.89028  0.40136  0.71013  1.0000
  C   C2904     1.0  0.90346  0.38592  0.70440  1.0000
  C   C2905     1.0  0.89751  0.36981  0.70165  1.0000
  C   C2906     1.0  0.87825  0.36892  0.70481  1.0000
  C   C2907     1.0  0.86506  0.38440  0.71048  1.0000
  C   C2908     1.0  0.87101  0.40059  0.71300  1.0000
  H   H5156     1.0  0.91840  0.38641  0.70213  1.0000
  H   H5157     1.0  0.90781  0.35802  0.69733  1.0000
  H   H5158     1.0  0.85014  0.38388  0.71285  1.0000
  H   H5159     1.0  0.86073  0.41240  0.71731  1.0000
  H   H5160     1.0  0.83354  0.43132  0.75797  1.0000
  Fe  Fe339     1.0  0.84498  0.97566  0.73932  1.0000
  S   S670      1.0  0.85027  0.45704  0.72809  1.0000
  H   H5161     1.0  0.80158  0.07271  0.81173  1.0000
  C   C2909     1.0  0.75221  0.08048  0.88488  1.0000
  H   H5162     1.0  0.75148  0.04177  0.86611  1.0000
  C   C2910     1.0  0.75823  0.06600  0.87404  1.0000
  C   C2911     1.0  0.81703  0.39761  0.75206  1.0000
  H   H5163     1.0  0.89737  0.42383  0.67374  1.0000
  H   H5164     1.0  0.76329  0.02934  0.71838  1.0000
  C   C2912     1.0  0.88262  0.04295  0.71909  1.0000
  C   C2913     1.0  0.87780  0.06253  0.71887  1.0000
  C   C2914     1.0  0.88614  0.07153  0.72940  1.0000
  C   C2915     1.0  0.89968  0.06105  0.74009  1.0000
  C   C2916     1.0  0.90440  0.04146  0.74039  1.0000
  C   C2917     1.0  0.89591  0.03245  0.73003  1.0000
  H   H5165     1.0  0.86769  0.07085  0.71030  1.0000
  H   H5166     1.0  0.88241  0.08660  0.72894  1.0000
  H   H5167     1.0  0.91495  0.03324  0.74849  1.0000
  H   H5168     1.0  0.90012  0.01749  0.72999  1.0000
  C   C2918     1.0  0.79585  0.97800  0.63296  1.0000
  H   H5169     1.0  0.80461  0.11232  0.83329  1.0000
  H   H5170     1.0  0.76725  0.03017  0.63521  1.0000
  C   C2919     1.0  0.77863  0.00240  0.79529  1.0000
  C   C2920     1.0  0.78810  0.00884  0.77734  1.0000
  C   C2921     1.0  0.80479  0.99808  0.76950  1.0000
  H   H5171     1.0  0.78235  0.02206  0.76934  1.0000
  H   H5172     1.0  0.73720  0.38295  0.65178  1.0000
  C   C2922     1.0  0.80296  0.98528  0.66693  1.0000
  C   C2923     1.0  0.78456  0.98929  0.66274  1.0000
  C   C2924     1.0  0.78100  0.98554  0.64594  1.0000
  H   H5173     1.0  0.77299  0.99532  0.67258  1.0000
  H   H5174     1.0  0.96907  0.12672  0.75763  1.0000
  H   H5175     1.0  0.78928  0.40469  0.76838  1.0000
  H   H5176     1.0  0.83153  0.10261  0.91484  1.0000
  H   H5177     1.0  0.74266  0.14616  0.84953  1.0000
  H   H5178     1.0  0.83346  0.36118  0.65397  1.0000
  H   H5179     1.0  0.78399  0.33693  0.66367  1.0000
  H   H5180     1.0  0.82601  0.40798  0.79777  1.0000
  C   C2925     1.0  0.92452  0.46917  0.76786  1.0000
  H   H5181     1.0  0.80546  0.35678  0.64139  1.0000
  H   H5182     1.0  0.74090  0.27883  0.93613  1.0000
  C   C2926     1.0  0.76575  0.00321  0.73878  1.0000
  C   C2927     1.0  0.78498  0.33849  0.64821  1.0000
  H   H5183     1.0  0.80733  0.39709  0.78199  1.0000
  N   N162      1.0  0.96869  0.24992  0.70631  1.0000
  H   H5184     1.0  0.73476  0.13334  0.83519  1.0000
  C   C2928     1.0  0.95526  0.25303  0.69242  1.0000
  C   C2929     1.0  0.96595  0.26780  0.71430  1.0000
  C   C2930     1.0  0.96422  0.23425  0.72240  1.0000
  H   H5185     1.0  0.89626  0.35507  0.63253  1.0000
  C   C2931     1.0  0.94563  0.27488  0.72410  1.0000
  C   C2932     1.0  0.96158  0.24211  0.67564  1.0000
  H   H5186     1.0  0.87425  0.16502  0.93834  1.0000
  C   C2933     1.0  0.82254  0.29235  0.63492  1.0000
  C   C2934     1.0  0.94375  0.29479  0.72813  1.0000
  H   H5187     1.0  0.95032  0.23585  0.65309  1.0000
  H   H5188     1.0  0.82131  0.36916  0.67552  1.0000
  H   H5189     1.0  0.94117  0.24979  0.69985  1.0000
  H   H5190     1.0  0.95251  0.26818  0.68578  1.0000
  C   C2935     1.0  0.89984  0.37936  0.64420  1.0000
  H   H5191     1.0  0.94917  0.23736  0.72926  1.0000
  H   H5192     1.0  0.81574  0.10643  0.93663  1.0000
  C   C2936     1.0  0.85936  0.16739  0.94557  1.0000
  H   H5193     1.0  0.94200  0.26556  0.73775  1.0000
  H   H5194     1.0  0.93503  0.27519  0.71536  1.0000
  H   H5195     1.0  0.93352  0.23735  0.67455  1.0000
  H   H5196     1.0  0.76408  0.46323  0.69737  1.0000
  H   H5197     1.0  0.82339  0.46099  0.81615  1.0000
  H   H5198     1.0  0.76678  0.98861  0.64296  1.0000
  H   H5199     1.0  0.78581  0.46552  0.75611  1.0000
  H   H5200     1.0  0.98125  0.11539  0.81421  1.0000
  C   C2937     1.0  0.73452  0.08140  0.89652  1.0000
  C   C2938     1.0  0.80091  0.43768  0.74982  1.0000
  H   H5201     1.0  0.95373  0.29513  0.73744  1.0000
  N   N163      1.0  0.84822  0.02582  0.77954  1.0000
  C   C2939     1.0  0.83021  0.02632  0.79384  1.0000
  C   C2940     1.0  0.84318  0.03012  0.76007  1.0000
  C   C2941     1.0  0.85901  0.00586  0.78229  1.0000
  C   C2942     1.0  0.86065  0.03910  0.78147  1.0000
  C   C2943     1.0  0.85059  0.05774  0.78851  1.0000
  C   C2944     1.0  0.83257  0.01831  0.81454  1.0000
  C   C2945     1.0  0.87733  0.00162  0.76795  1.0000
  C   C2946     1.0  0.83093  0.04953  0.75443  1.0000
  C   C2947     1.0  0.82390  0.05052  0.73610  1.0000
  C   C2948     1.0  0.86424  0.07157  0.78578  1.0000
  C   C2949     1.0  0.81436  0.02358  0.82815  1.0000
  C   C2950     1.0  0.78625  0.98541  0.80568  1.0000
  H   H5202     1.0  0.82062  0.01814  0.79029  1.0000
  H   H5203     1.0  0.82216  0.04080  0.79346  1.0000
  H   H5204     1.0  0.85608  0.02982  0.74914  1.0000
  H   H5205     1.0  0.83598  0.01892  0.75817  1.0000
  H   H5206     1.0  0.84973  0.99570  0.78209  1.0000
  H   H5207     1.0  0.86344  0.00207  0.79631  1.0000
  H   H5208     1.0  0.87055  0.03203  0.79140  1.0000
  H   H5209     1.0  0.87000  0.04283  0.76779  1.0000
  H   H5210     1.0  0.84479  0.05477  0.80374  1.0000
  H   H5211     1.0  0.83879  0.06495  0.78109  1.0000
  H   H5212     1.0  0.77368  0.35010  0.64372  1.0000
  H   H5213     1.0  0.84419  0.02352  0.81832  1.0000
  H   H5214     1.0  0.88707  0.01146  0.76743  1.0000
  H   H5215     1.0  0.87407  0.00285  0.75371  1.0000
  H   H5216     1.0  0.81826  0.05256  0.76514  1.0000
  H   H5217     1.0  0.83958  0.06080  0.75202  1.0000
  H   H5218     1.0  0.81563  0.06473  0.73208  1.0000
  H   H5219     1.0  0.83596  0.04803  0.72454  1.0000
  H   H5220     1.0  0.81467  0.03987  0.73777  1.0000
  H   H5221     1.0  0.86913  0.07631  0.77056  1.0000
  H   H5222     1.0  0.85707  0.08420  0.79208  1.0000
  H   H5223     1.0  0.87675  0.06494  0.79256  1.0000
  H   H5224     1.0  0.81085  0.03907  0.82751  1.0000
  H   H5225     1.0  0.80243  0.01852  0.82469  1.0000
  H   H5226     1.0  0.84165  0.11511  0.94824  1.0000
  H   H5227     1.0  0.84828  0.38343  0.67717  1.0000
  H   H5228     1.0  0.98081  0.21015  0.70926  1.0000
  H   H5229     1.0  0.81619  0.01688  0.84275  1.0000
  H   H5230     1.0  0.86099  0.42460  0.77585  1.0000
  H   H5231     1.0  0.84695  0.43008  0.79792  1.0000
  N   N164      1.0  0.84781  0.15088  0.92332  1.0000
  C   C2951     1.0  0.84872  0.15210  0.94326  1.0000
  C   C2952     1.0  0.83530  0.13680  0.92390  1.0000
  C   C2953     1.0  0.86756  0.14492  0.91316  1.0000
  C   C2954     1.0  0.83974  0.16973  0.91285  1.0000
  C   C2955     1.0  0.82046  0.17953  0.92238  1.0000
  C   C2956     1.0  0.74780  0.00891  0.75319  1.0000
  C   C2957     1.0  0.86895  0.13945  0.89360  1.0000
  C   C2958     1.0  0.84255  0.11618  0.93285  1.0000
  C   C2959     1.0  0.83070  0.10255  0.93006  1.0000
  C   C2960     1.0  0.81335  0.19804  0.91013  1.0000
  N   N165      1.0  0.78752  0.09908  0.82099  1.0000
  C   C2961     1.0  0.88953  0.13451  0.88429  1.0000
  C   C2962     1.0  0.81784  0.97771  0.65395  1.0000
  C   C2963     1.0  0.73880  0.97239  0.95236  1.0000
  H   H5232     1.0  0.82109  0.14078  0.93226  1.0000
  H   H5233     1.0  0.83252  0.13699  0.90956  1.0000
  H   H5234     1.0  0.87541  0.13296  0.92198  1.0000
  H   H5235     1.0  0.87588  0.15648  0.91077  1.0000
  H   H5236     1.0  0.84985  0.17977  0.90993  1.0000
  H   H5237     1.0  0.83773  0.16823  0.89879  1.0000
  H   H5238     1.0  0.82146  0.18281  0.93610  1.0000
  H   H5239     1.0  0.80972  0.17044  0.92463  1.0000
  H   H5240     1.0  0.73663  0.31326  0.92715  1.0000
  C   C2964     1.0  0.74444  0.13221  0.84526  1.0000
  H   H5241     1.0  0.86201  0.15124  0.88398  1.0000
  H   H5242     1.0  0.86220  0.12700  0.89480  1.0000
  H   H5243     1.0  0.85736  0.11114  0.92670  1.0000
  H   H5244     1.0  0.81122  0.46329  0.75122  1.0000
  H   H5245     1.0  0.81163  0.00301  0.75551  1.0000
  S   S671      1.0  0.81217  0.44654  0.63488  1.0000
  H   H5246     1.0  0.83913  0.39317  0.65580  1.0000
  H   H5247     1.0  0.81146  0.19541  0.89638  1.0000
  H   H5248     1.0  0.79947  0.20464  0.91730  1.0000
  H   H5249     1.0  0.82344  0.20799  0.90768  1.0000
  C   C2965     1.0  0.76063  0.23118  0.94203  1.0000
  H   H5250     1.0  0.88091  0.39651  0.67126  1.0000
  H   H5251     1.0  0.87746  0.43119  0.63973  1.0000
  H   H5252     1.0  0.89707  0.12234  0.89310  1.0000
  H   H5253     1.0  0.89006  0.13064  0.87038  1.0000
  H   H5254     1.0  0.89686  0.14677  0.88201  1.0000
  H   H5255     1.0  0.86537  0.36771  0.64062  1.0000
  H   H5256     1.0  0.77395  0.12559  0.84683  1.0000
  H   H5257     1.0  0.78500  0.46599  0.72273  1.0000
  Fe  Fe340     1.0  0.73945  0.00395  0.83084  1.0000
  H   H5258     1.0  0.90425  0.47210  0.83854  1.0000
  H   H5259     1.0  0.77082  0.97995  0.92368  1.0000
  H   H5260     1.0  0.93264  0.44654  0.75148  1.0000
  C   C2966     1.0  0.80398  0.40624  0.76874  1.0000
  H   H5261     1.0  0.73703  0.40381  0.66091  1.0000
  C   C2967     1.0  0.77394  0.97498  0.89567  1.0000
  H   H5262     1.0  0.76479  0.05630  0.79441  1.0000
  H   H5263     1.0  0.78924  0.44914  0.78357  1.0000
  H   H5264     1.0  0.86106  0.40918  0.66165  1.0000
  S   S672      1.0  0.94085  0.29814  0.64131  1.0000
  H   H5265     1.0  0.80280  0.46853  0.86601  1.0000
  C   C2968     1.0  0.78943  0.16371  0.96146  1.0000
  C   C2969     1.0  0.74656  0.24107  0.95680  1.0000
  H   H5266     1.0  0.78777  0.43463  0.74663  1.0000
  H   H5267     1.0  0.75988  0.01032  0.92256  1.0000
  H   H5268     1.0  0.94657  0.30485  0.71480  1.0000
  H   H5269     1.0  0.90210  0.37242  0.65873  1.0000
  N   N166      1.0  0.87957  0.38931  0.64469  1.0000
  H   H5270     1.0  0.77272  0.42508  0.83206  1.0000
  C   C2970     1.0  0.88619  0.43168  0.66563  1.0000
  H   H5271     1.0  0.81472  0.13414  0.77475  1.0000
  H   H5272     1.0  0.97494  0.26603  0.72515  1.0000
  H   H5273     1.0  0.76271  0.99516  0.72892  1.0000
  C   C2971     1.0  0.74664  0.05278  0.87455  1.0000
  H   H5274     1.0  0.78909  0.46864  0.82881  1.0000
  H   H5275     1.0  0.87396  0.36265  0.66208  1.0000
  H   H5276     1.0  0.95032  0.20338  0.74428  1.0000
  H   H5277     1.0  0.95122  0.45962  0.75031  1.0000
  N   N167      1.0  0.73669  0.99339  0.76292  1.0000
  H   H5278     1.0  0.83208  0.97460  0.65695  1.0000
  H   H5279     1.0  0.78386  0.07031  0.83190  1.0000
  H   H5280     1.0  0.83103  0.40212  0.74877  1.0000
  H   H5281     1.0  0.89217  0.97954  0.78706  1.0000
  C   C2972     1.0  0.82017  0.37608  0.75611  1.0000
  H   H5282     1.0  0.74241  0.04134  0.92930  1.0000
  H   H5283     1.0  0.78680  0.01587  0.71752  1.0000
  C   C2973     1.0  0.87625  0.40352  0.65770  1.0000
  N   N168      1.0  0.84757  0.19468  0.77134  1.0000
  C   C2974     1.0  0.85806  0.18306  0.75654  1.0000
  C   C2975     1.0  0.85907  0.19144  0.78685  1.0000
  C   C2976     1.0  0.82933  0.18733  0.77978  1.0000
  C   C2977     1.0  0.84294  0.21548  0.76347  1.0000
  C   C2978     1.0  0.85689  0.22353  0.74621  1.0000
  C   C2979     1.0  0.84650  0.18195  0.74151  1.0000
  C   C2980     1.0  0.81770  0.19509  0.79749  1.0000
  C   C2981     1.0  0.87834  0.19821  0.78152  1.0000
  C   C2982     1.0  0.88906  0.19275  0.79809  1.0000
  C   C2983     1.0  0.85234  0.24503  0.74176  1.0000
  C   C2984     1.0  0.85924  0.17615  0.72378  1.0000
  C   C2985     1.0  0.79771  0.19052  0.80191  1.0000
  H   H5284     1.0  0.86282  0.16826  0.76325  1.0000
  H   H5285     1.0  0.87137  0.18807  0.74923  1.0000
  H   H5286     1.0  0.85130  0.19890  0.79853  1.0000
  H   H5287     1.0  0.86155  0.17614  0.79300  1.0000
  H   H5288     1.0  0.83215  0.17171  0.78367  1.0000
  H   H5289     1.0  0.81982  0.19042  0.76918  1.0000
  H   H5290     1.0  0.82890  0.21895  0.75891  1.0000
  H   H5291     1.0  0.84146  0.22400  0.77469  1.0000
  H   H5292     1.0  0.85605  0.21816  0.73348  1.0000
  H   H5293     1.0  0.87170  0.21956  0.74842  1.0000
  H   H5294     1.0  0.83717  0.17125  0.74735  1.0000
  H   H5295     1.0  0.83742  0.19563  0.73739  1.0000
  H   H5296     1.0  0.81662  0.21061  0.79562  1.0000
  H   H5297     1.0  0.82446  0.18842  0.80997  1.0000
  H   H5298     1.0  0.88733  0.19190  0.76968  1.0000
  H   H5299     1.0  0.87627  0.21380  0.77773  1.0000
  H   H5300     1.0  0.90307  0.19726  0.79370  1.0000
  H   H5301     1.0  0.88110  0.19974  0.81004  1.0000
  H   H5302     1.0  0.89136  0.17724  0.80289  1.0000
  H   H5303     1.0  0.83758  0.24982  0.73922  1.0000
  H   H5304     1.0  0.85446  0.25129  0.75347  1.0000
  H   H5305     1.0  0.86196  0.25024  0.72885  1.0000
  H   H5306     1.0  0.85049  0.17476  0.71370  1.0000
  H   H5307     1.0  0.86818  0.18695  0.71685  1.0000
  H   H5308     1.0  0.86849  0.16239  0.72723  1.0000
  H   H5309     1.0  0.79819  0.17508  0.80373  1.0000
  H   H5310     1.0  0.79014  0.19534  0.81521  1.0000
  H   H5311     1.0  0.78973  0.19779  0.79045  1.0000
  C   C2986     1.0  0.81850  0.08301  0.83447  1.0000
  C   C2987     1.0  0.83224  0.08713  0.84547  1.0000
  H   H5312     1.0  0.82615  0.08177  0.82012  1.0000
  H   H5313     1.0  0.75788  0.10932  0.81930  1.0000
  C   C2988     1.0  0.83485  0.41295  0.78433  1.0000
  H   H5314     1.0  0.95561  0.21415  0.70922  1.0000
  H   H5315     1.0  0.77602  0.08644  0.79145  1.0000
  C   C2989     1.0  0.78739  0.07941  0.81802  1.0000
  C   C2990     1.0  0.80337  0.97493  0.79802  1.0000
  C   C2991     1.0  0.83542  0.36464  0.66729  1.0000
  C   C2992     1.0  0.80042  0.09835  0.83479  1.0000
  C   C2993     1.0  0.79306  0.11193  0.80274  1.0000
  H   H5316     1.0  0.96681  0.22697  0.68016  1.0000
  H   H5317     1.0  0.78244  0.11395  0.79341  1.0000
  H   H5318     1.0  0.79123  0.40895  0.80615  1.0000
  C   C2994     1.0  0.77358  0.02049  0.72709  1.0000
  H   H5319     1.0  0.92857  0.45936  0.78056  1.0000
  H   H5320     1.0  0.76845  0.13764  0.82431  1.0000
  H   H5321     1.0  0.75392  0.97246  0.95199  1.0000
  C   C2995     1.0  0.82379  0.42922  0.77164  1.0000
  H   H5322     1.0  0.83587  0.00265  0.81664  1.0000
  H   H5323     1.0  0.83425  0.15432  0.95174  1.0000
  C   C2996     1.0  0.74328  0.23477  0.89634  1.0000
  H   H5324     1.0  0.84040  0.40070  0.77700  1.0000
  H   H5325     1.0  0.77340  0.99006  0.88913  1.0000
  C   C2997     1.0  0.88770  0.98151  0.77319  1.0000
  H   H5326     1.0  0.82389  0.10727  0.79922  1.0000
  S   S673      1.0  0.84534  0.46993  0.77950  1.0000
  C   C2998     1.0  0.86710  0.37441  0.65223  1.0000
  C   C2999     1.0  0.84114  0.29044  0.63801  1.0000
  H   H5327     1.0  0.76930  0.44702  0.81599  1.0000
  C   C3000     1.0  0.81608  0.11940  0.77254  1.0000
  H   H5328     1.0  0.82902  0.37045  0.74367  1.0000
  H   H5329     1.0  0.79287  0.12627  0.80538  1.0000
  C   C3001     1.0  0.96664  0.21441  0.71740  1.0000
  H   H5330     1.0  0.80583  0.11875  0.76365  1.0000
  H   H5331     1.0  0.77515  0.43347  0.78028  1.0000
  H   H5332     1.0  0.73875  0.02072  0.74542  1.0000
  H   H5333     1.0  0.74044  0.12183  0.85801  1.0000
  H   H5334     1.0  0.81043  0.40233  0.73922  1.0000
  C   C3002     1.0  0.81291  0.10618  0.79140  1.0000
  H   H5335     1.0  0.81251  0.43328  0.73841  1.0000
  C   C3003     1.0  0.97362  0.16717  0.78871  1.0000
  C   C3004     1.0  0.84709  0.38042  0.66335  1.0000
  H   H5336     1.0  0.81085  0.29685  0.64552  1.0000
  H   H5337     1.0  0.83061  0.11515  0.76497  1.0000
  S   S674      1.0  0.87579  0.97666  0.72852  1.0000
  C   C3005     1.0  0.74244  0.21551  0.89829  1.0000
  C   C3006     1.0  0.77546  0.05727  0.80272  1.0000
  H   H5338     1.0  0.87243  0.43312  0.67533  1.0000
  C   C3007     1.0  0.76498  0.12630  0.83624  1.0000
  H   H5339     1.0  0.92912  0.29940  0.73525  1.0000
  C   C3008     1.0  0.76766  0.10708  0.82953  1.0000
  H   H5340     1.0  0.77695  0.02905  0.73632  1.0000
  H   H5341     1.0  0.77715  0.99442  0.74614  1.0000
  C   C3009     1.0  0.94536  0.24358  0.66510  1.0000
  C   C3010     1.0  0.97904  0.28592  0.63966  1.0000
  C   C3011     1.0  0.74210  0.98174  0.91709  1.0000
  H   H5342     1.0  0.90049  0.97875  0.76241  1.0000
  C   C3012     1.0  0.77163  0.43145  0.81721  1.0000
  H   H5343     1.0  0.80165  0.42819  0.80907  1.0000
  H   H5344     1.0  0.77460  0.22662  0.94660  1.0000
  H   H5345     1.0  0.77302  0.04772  0.81646  1.0000
  H   H5346     1.0  0.80648  0.37095  0.75911  1.0000
  C   C3013     1.0  0.83341  0.45510  0.65759  1.0000
  C   C3014     1.0  0.96388  0.13639  0.79711  1.0000
  C   C3015     1.0  0.79893  0.45941  0.74733  1.0000
  H   H5347     1.0  0.82226  0.44241  0.77731  1.0000
  H   H5348     1.0  0.81049  0.46329  0.71727  1.0000
  H   H5349     1.0  0.78275  0.32511  0.64498  1.0000
  C   C3016     1.0  0.73184  0.00587  0.93794  1.0000
  H   H5350     1.0  0.75694  0.98326  0.78169  1.0000
  H   H5351     1.0  0.97313  0.24818  0.66548  1.0000
  H   H5352     1.0  0.75859  0.08179  0.81227  1.0000
  H   H5353     1.0  0.76222  0.09683  0.84186  1.0000
  H   H5354     1.0  0.97253  0.23339  0.73365  1.0000
  H   H5355     1.0  0.81502  0.33191  0.64481  1.0000
  H   H5356     1.0  0.81493  0.09171  0.78840  1.0000
  H   H5357     1.0  0.96564  0.13594  0.73372  1.0000
  C   C3017     1.0  0.75015  0.97762  0.77236  1.0000
  C   C3018     1.0  0.81430  0.97426  0.63698  1.0000
  H   H5358     1.0  0.85590  0.13844  0.95033  1.0000
  S   S675      1.0  0.88825  0.46352  0.74044  1.0000
  H   H5359     1.0  0.74078  0.30636  0.95108  1.0000
  Fe  Fe341     1.0  0.74163  0.45106  0.63820  1.0000
  C   C3019     1.0  0.75495  0.47161  0.68725  1.0000
  H   H5360     1.0  0.74633  0.18765  0.94852  1.0000
  H   H5361     1.0  0.73975  0.97626  0.74159  1.0000
  C   C3020     1.0  0.81618  0.45963  0.65089  1.0000
  C   C3021     1.0  0.97638  0.12944  0.74283  1.0000
  H   H5362     1.0  0.75206  0.25357  0.95812  1.0000
  C   C3022     1.0  0.74963  0.03118  0.94009  1.0000
  H   H5363     1.0  0.75235  0.46223  0.67839  1.0000
  H   H5364     1.0  0.85253  0.18173  0.93978  1.0000
  H   H5365     1.0  0.73500  0.45652  0.71903  1.0000
  H   H5366     1.0  0.93193  0.46972  0.73755  1.0000
  H   H5367     1.0  0.77899  0.98037  0.81958  1.0000
  H   H5368     1.0  0.76389  0.03462  0.93897  1.0000
  H   H5369     1.0  0.75572  0.21857  0.94000  1.0000
  C   C3023     1.0  0.83725  0.46556  0.66990  1.0000
  H   H5370     1.0  0.74063  0.99475  0.90623  1.0000
  H   H5371     1.0  0.93642  0.36046  0.63383  1.0000
  C   C3024     1.0  0.96407  0.19952  0.73514  1.0000
  C   C3025     1.0  0.92524  0.35185  0.63545  1.0000
  H   H5372     1.0  0.96417  0.18577  0.73112  1.0000
  H   H5373     1.0  0.75226  0.01512  0.76379  1.0000
  H   H5374     1.0  0.97565  0.19792  0.74322  1.0000
  H   H5375     1.0  0.97131  0.18169  0.78173  1.0000
  H   H5376     1.0  0.90034  0.41806  0.64247  1.0000
  H   H5377     1.0  0.85151  0.41919  0.63379  1.0000
  S   S676      1.0  0.78363  0.12878  0.95804  1.0000
  C   C3026     1.0  0.81392  0.46979  0.80715  1.0000
  H   H5378     1.0  0.97047  0.27938  0.70297  1.0000
  C   C3027     1.0  0.73277  0.18381  0.95668  1.0000
  C   C3028     1.0  0.79772  0.46869  0.72696  1.0000
  C   C3029     1.0  0.97912  0.12984  0.80697  1.0000
  C   C3030     1.0  0.76348  0.97319  0.91595  1.0000
  C   C3031     1.0  0.98133  0.30318  0.66917  1.0000
  Fe  Fe342     1.0  0.88176  0.71985  0.97899  1.0000
  S   S677      1.0  0.87740  0.70173  0.00777  1.0000
  Fe  Fe343     1.0  0.83973  0.73672  0.98282  1.0000
  S   S678      1.0  0.83257  0.71988  0.01152  1.0000
  C   C3032     1.0  0.73518  0.49403  0.25013  1.0000
  Fe  Fe344     1.0  0.85871  0.72747  0.01756  1.0000
  S   S679      1.0  0.85674  0.74176  0.04296  1.0000
  Fe  Fe345     1.0  0.85161  0.69580  0.99912  1.0000
  S   S680      1.0  0.84457  0.66607  0.00413  1.0000
  S   S681      1.0  0.86453  0.74592  0.98931  1.0000
  C   C3033     1.0  0.73880  0.89672  0.21672  1.0000
  C   C3034     1.0  0.74967  0.49505  0.15864  1.0000
  Fe  Fe346     1.0  0.76633  0.61975  0.97520  1.0000
  S   S682      1.0  0.95800  0.75328  0.16527  1.0000
  H   H5379     1.0  0.80531  0.63473  0.09134  1.0000
  C   C3035     1.0  0.73697  0.76488  0.97458  1.0000
  H   H5380     1.0  0.93195  0.74036  0.25783  1.0000
  S   S683      1.0  0.77677  0.58838  0.97988  1.0000
  C   C3036     1.0  0.82394  0.79417  0.03140  1.0000
  S   S684      1.0  0.79219  0.56014  0.27320  1.0000
  C   C3037     1.0  0.81185  0.80521  0.98518  1.0000
  H   H5381     1.0  0.74985  0.84000  0.18068  1.0000
  H   H5382     1.0  0.77232  0.65937  0.04240  1.0000
  H   H5383     1.0  0.75899  0.51765  0.25450  1.0000
  C   C3038     1.0  0.81072  0.64357  0.07796  1.0000
  S   S685      1.0  0.89917  0.66851  0.28128  1.0000
  S   S686      1.0  0.86036  0.71558  0.27096  1.0000
  Fe  Fe347     1.0  0.91281  0.74858  0.12176  1.0000
  S   S687      1.0  0.88479  0.76442  0.13296  1.0000
  S   S688      1.0  0.91612  0.73207  0.09792  1.0000
  Fe  Fe348     1.0  0.93215  0.75876  0.15089  1.0000
  S   S689      1.0  0.90508  0.77549  0.16397  1.0000
  C   C3039     1.0  0.75630  0.52856  0.99191  1.0000
  Fe  Fe349     1.0  0.89159  0.75160  0.16170  1.0000
  S   S690      1.0  0.86709  0.74167  0.18270  1.0000
  Fe  Fe350     1.0  0.90066  0.78680  0.13426  1.0000
  S   S691      1.0  0.88939  0.81704  0.12265  1.0000
  S   S692      1.0  0.91863  0.73391  0.15056  1.0000
  S   S693      1.0  0.92877  0.77192  0.12106  1.0000
  Fe  Fe351     1.0  0.77173  0.89603  0.12473  1.0000
  S   S694      1.0  0.77030  0.87203  0.14919  1.0000
  S   S695      1.0  0.77298  0.89334  0.09403  1.0000
  Fe  Fe352     1.0  0.77713  0.92340  0.14920  1.0000
  S   S696      1.0  0.77663  0.90115  0.17502  1.0000
  S   S697      1.0  0.77457  0.95433  0.15168  1.0000
  Fe  Fe353     1.0  0.79477  0.88135  0.15637  1.0000
  S   S698      1.0  0.81650  0.85885  0.16983  1.0000
  Fe  Fe354     1.0  0.75233  0.89354  0.16611  1.0000
  S   S699      1.0  0.79758  0.90429  0.13100  1.0000
  S   S700      1.0  0.75153  0.91684  0.14106  1.0000
  H   H5384     1.0  0.74567  0.94176  0.98113  1.0000
  C   C3040     1.0  0.89302  0.66129  0.97384  1.0000
  H   H5385     1.0  0.74806  0.90457  0.20616  1.0000
  C   C3041     1.0  0.74500  0.56277  0.07141  1.0000
  C   C3042     1.0  0.79301  0.50915  0.23355  1.0000
  C   C3043     1.0  0.86865  0.82811  0.13560  1.0000
  C   C3044     1.0  0.85729  0.84369  0.12658  1.0000
  C   C3045     1.0  0.84094  0.85301  0.13680  1.0000
  C   C3046     1.0  0.83620  0.84706  0.15618  1.0000
  C   C3047     1.0  0.84766  0.83158  0.16518  1.0000
  C   C3048     1.0  0.86368  0.82195  0.15489  1.0000
  H   H5386     1.0  0.86115  0.84859  0.11167  1.0000
  H   H5387     1.0  0.83225  0.86504  0.12979  1.0000
  H   H5388     1.0  0.84415  0.82704  0.18020  1.0000
  H   H5389     1.0  0.87240  0.81002  0.16197  1.0000
  H   H5390     1.0  0.80119  0.94533  0.21138  1.0000
  C   C3049     1.0  0.81580  0.85240  0.09250  1.0000
  H   H5391     1.0  0.81298  0.94078  0.15970  1.0000
  H   H5392     1.0  0.81905  0.68834  0.97895  1.0000
  C   C3050     1.0  0.86408  0.72387  0.24645  1.0000
  C   C3051     1.0  0.88185  0.72177  0.23478  1.0000
  C   C3052     1.0  0.88334  0.72794  0.21509  1.0000
  C   C3053     1.0  0.86701  0.73589  0.20718  1.0000
  C   C3054     1.0  0.84949  0.73816  0.21899  1.0000
  C   C3055     1.0  0.84809  0.73253  0.23845  1.0000
  H   H5393     1.0  0.89432  0.71522  0.24088  1.0000
  H   H5394     1.0  0.89694  0.72602  0.20602  1.0000
  H   H5395     1.0  0.83684  0.74424  0.21305  1.0000
  H   H5396     1.0  0.83437  0.73445  0.24732  1.0000
  H   H5397     1.0  0.88173  0.78066  0.98863  1.0000
  H   H5398     1.0  0.86444  0.64440  0.97087  1.0000
  H   H5399     1.0  0.75741  0.84867  0.28583  1.0000
  H   H5400     1.0  0.80136  0.50731  0.24493  1.0000
  H   H5401     1.0  0.75031  0.67138  0.99977  1.0000
  H   H5402     1.0  0.87369  0.79843  0.00335  1.0000
  H   H5403     1.0  0.75373  0.80731  0.07336  1.0000
  C   C3056     1.0  0.74872  0.93796  0.96688  1.0000
  H   H5404     1.0  0.74984  0.64568  0.02761  1.0000
  C   C3057     1.0  0.89694  0.77706  0.01193  1.0000
  C   C3058     1.0  0.75442  0.55503  0.22206  1.0000
  Fe  Fe355     1.0  0.75368  0.58726  0.00531  1.0000
  H   H5405     1.0  0.81217  0.65728  0.08109  1.0000
  H   H5406     1.0  0.91333  0.75376  0.04556  1.0000
  C   C3059     1.0  0.73759  0.56413  0.25182  1.0000
  C   C3060     1.0  0.75452  0.55804  0.24032  1.0000
  H   H5407     1.0  0.76771  0.55562  0.24548  1.0000
  H   H5408     1.0  0.76759  0.55034  0.21330  1.0000
  H   H5409     1.0  0.83524  0.80104  0.02172  1.0000
  C   C3061     1.0  0.80816  0.95475  0.16319  1.0000
  H   H5410     1.0  0.89339  0.78056  0.02634  1.0000
  C   C3062     1.0  0.77752  0.49702  0.23948  1.0000
  H   H5411     1.0  0.75709  0.84412  0.04507  1.0000
  C   C3063     1.0  0.75676  0.88621  0.08314  1.0000
  C   C3064     1.0  0.75975  0.88856  0.06338  1.0000
  H   H5412     1.0  0.78344  0.65457  0.07028  1.0000
  H   H5413     1.0  0.77137  0.89523  0.05523  1.0000
  H   H5414     1.0  0.81466  0.81344  0.06149  1.0000
  C   C3065     1.0  0.87292  0.73834  0.05872  1.0000
  C   C3066     1.0  0.88706  0.72243  0.06038  1.0000
  C   C3067     1.0  0.89998  0.72057  0.07266  1.0000
  C   C3068     1.0  0.89881  0.73447  0.08356  1.0000
  C   C3069     1.0  0.88452  0.75029  0.08207  1.0000
  C   C3070     1.0  0.87165  0.75220  0.06973  1.0000
  H   H5415     1.0  0.88808  0.71159  0.05214  1.0000
  H   H5416     1.0  0.91098  0.70828  0.07371  1.0000
  H   H5417     1.0  0.88367  0.76119  0.09016  1.0000
  H   H5418     1.0  0.86080  0.76458  0.06850  1.0000
  C   C3071     1.0  0.82723  0.66031  0.99366  1.0000
  C   C3072     1.0  0.82405  0.64159  0.99714  1.0000
  C   C3073     1.0  0.81045  0.63653  0.98896  1.0000
  C   C3074     1.0  0.79987  0.65015  0.97722  1.0000
  C   C3075     1.0  0.81676  0.67388  0.98180  1.0000
  H   H5419     1.0  0.83224  0.63092  0.00611  1.0000
  H   H5420     1.0  0.80836  0.62204  0.99145  1.0000
  H   H5421     1.0  0.75043  0.83645  0.25943  1.0000
  C   C3076     1.0  0.78150  0.80408  0.97792  1.0000
  C   C3077     1.0  0.82032  0.96361  0.16958  1.0000
  C   C3078     1.0  0.79323  0.81386  0.98347  1.0000
  C   C3079     1.0  0.73926  0.89568  0.23586  1.0000
  H   H5422     1.0  0.94686  0.77544  0.05013  1.0000
  H   H5423     1.0  0.91648  0.69293  0.02739  1.0000
  H   H5424     1.0  0.82953  0.78582  0.04406  1.0000
  C   C3080     1.0  0.80443  0.85043  0.06269  1.0000
  N   N169      1.0  0.78110  0.84752  0.22824  1.0000
  C   C3081     1.0  0.93487  0.75847  0.98061  1.0000
  C   C3082     1.0  0.78697  0.86562  0.21705  1.0000
  H   H5425     1.0  0.92373  0.77095  0.97793  1.0000
  C   C3083     1.0  0.79644  0.83080  0.22461  1.0000
  C   C3084     1.0  0.81116  0.82455  0.23806  1.0000
  H   H5426     1.0  0.76425  0.86068  0.19299  1.0000
  H   H5427     1.0  0.75178  0.95204  0.23665  1.0000
  C   C3085     1.0  0.80474  0.87101  0.22127  1.0000
  C   C3086     1.0  0.80815  0.89027  0.20997  1.0000
  C   C3087     1.0  0.82765  0.81010  0.23053  1.0000
  H   H5428     1.0  0.73522  0.84549  0.20230  1.0000
  H   H5429     1.0  0.78485  0.51221  0.98896  1.0000
  H   H5430     1.0  0.78817  0.85018  0.25470  1.0000
  H   H5431     1.0  0.79006  0.86511  0.20180  1.0000
  H   H5432     1.0  0.77510  0.87759  0.21887  1.0000
  S   S701      1.0  0.94757  0.67746  0.28270  1.0000
  H   H5433     1.0  0.94348  0.73442  0.05041  1.0000
  H   H5434     1.0  0.95759  0.75435  0.06405  1.0000
  H   H5435     1.0  0.80429  0.83350  0.20992  1.0000
  H   H5436     1.0  0.80455  0.81785  0.25210  1.0000
  H   H5437     1.0  0.81705  0.83648  0.24012  1.0000
  C   C3088     1.0  0.73443  0.51826  0.28489  1.0000
  N   N170      1.0  0.73432  0.96080  0.21494  1.0000
  H   H5438     1.0  0.92979  0.74616  0.97833  1.0000
  C   C3089     1.0  0.76343  0.65002  0.02040  1.0000
  H   H5439     1.0  0.80335  0.87176  0.23635  1.0000
  H   H5440     1.0  0.81743  0.86068  0.21700  1.0000
  H   H5441     1.0  0.79552  0.90123  0.21272  1.0000
  H   H5442     1.0  0.82033  0.89433  0.21396  1.0000
  H   H5443     1.0  0.81147  0.88974  0.19467  1.0000
  H   H5444     1.0  0.82252  0.79753  0.22868  1.0000
  H   H5445     1.0  0.83534  0.81641  0.21683  1.0000
  H   H5446     1.0  0.83769  0.80542  0.24063  1.0000
  C   C3090     1.0  0.75186  0.94955  0.22223  1.0000
  H   H5447     1.0  0.77380  0.94508  0.19768  1.0000
  H   H5448     1.0  0.78714  0.92921  0.22712  1.0000
  C   C3091     1.0  0.80712  0.77720  0.97546  1.0000
  H   H5449     1.0  0.96686  0.84428  0.18217  1.0000
  H   H5450     1.0  0.95250  0.86244  0.19446  1.0000
  H   H5451     1.0  0.78211  0.53350  0.99848  1.0000
  H   H5452     1.0  0.95829  0.86709  0.16917  1.0000
  Fe  Fe356     1.0  0.79808  0.57513  0.29456  1.0000
  C   C3092     1.0  0.82951  0.60735  0.29511  1.0000
  H   H5453     1.0  0.79024  0.81803  0.22529  1.0000
  N   N171      1.0  0.82498  0.77848  0.12409  1.0000
  C   C3093     1.0  0.80794  0.79362  0.12148  1.0000
  C   C3094     1.0  0.84147  0.78364  0.10923  1.0000
  C   C3095     1.0  0.82074  0.76037  0.12059  1.0000
  C   C3096     1.0  0.82975  0.77512  0.14365  1.0000
  C   C3097     1.0  0.82563  0.79232  0.15393  1.0000
  C   C3098     1.0  0.78885  0.78892  0.13319  1.0000
  C   C3099     1.0  0.83741  0.74345  0.12038  1.0000
  C   C3100     1.0  0.84799  0.80231  0.10923  1.0000
  C   C3101     1.0  0.86253  0.80714  0.09168  1.0000
  C   C3102     1.0  0.83366  0.78713  0.17223  1.0000
  C   C3103     1.0  0.77376  0.80666  0.13379  1.0000
  C   C3104     1.0  0.83072  0.72513  0.12042  1.0000
  H   H5454     1.0  0.80616  0.79686  0.10644  1.0000
  H   H5455     1.0  0.80987  0.80710  0.12469  1.0000
  H   H5456     1.0  0.85422  0.77267  0.11062  1.0000
  H   H5457     1.0  0.83829  0.78406  0.09499  1.0000
  H   H5458     1.0  0.81566  0.76276  0.10690  1.0000
  H   H5459     1.0  0.80906  0.75549  0.13156  1.0000
  H   H5460     1.0  0.82197  0.76438  0.15326  1.0000
  H   H5461     1.0  0.84489  0.76877  0.14341  1.0000
  H   H5462     1.0  0.81019  0.79703  0.15771  1.0000
  H   H5463     1.0  0.83166  0.80452  0.14527  1.0000
  H   H5464     1.0  0.78367  0.77906  0.12670  1.0000
  H   H5465     1.0  0.79033  0.78211  0.14783  1.0000
  H   H5466     1.0  0.84447  0.74138  0.13276  1.0000
  H   H5467     1.0  0.84806  0.74575  0.10743  1.0000
  H   H5468     1.0  0.83624  0.81443  0.10944  1.0000
  H   H5469     1.0  0.85491  0.80077  0.12159  1.0000
  H   H5470     1.0  0.85657  0.80851  0.07870  1.0000
  H   H5471     1.0  0.86671  0.82077  0.09180  1.0000
  H   H5472     1.0  0.87542  0.79612  0.09146  1.0000
  H   H5473     1.0  0.82835  0.77461  0.18132  1.0000
  H   H5474     1.0  0.84934  0.78397  0.16917  1.0000
  H   H5475     1.0  0.82932  0.79907  0.18010  1.0000
  H   H5476     1.0  0.77785  0.81670  0.14095  1.0000
  H   H5477     1.0  0.77169  0.81373  0.11934  1.0000
  H   H5478     1.0  0.76011  0.80280  0.14173  1.0000
  H   H5479     1.0  0.84305  0.71348  0.11974  1.0000
  H   H5480     1.0  0.82059  0.72147  0.13348  1.0000
  H   H5481     1.0  0.82391  0.72643  0.10798  1.0000
  N   N172      1.0  0.78022  0.62880  0.04712  1.0000
  C   C3105     1.0  0.77730  0.64767  0.03428  1.0000
  C   C3106     1.0  0.79521  0.62812  0.05876  1.0000
  C   C3107     1.0  0.78736  0.61387  0.03485  1.0000
  C   C3108     1.0  0.76209  0.62430  0.05959  1.0000
  H   H5482     1.0  0.77272  0.50017  0.26871  1.0000
  H   H5483     1.0  0.75545  0.55002  0.07182  1.0000
  C   C3109     1.0  0.79248  0.59335  0.04524  1.0000
  C   C3110     1.0  0.79714  0.64695  0.06399  1.0000
  H   H5484     1.0  0.73545  0.52420  0.23952  1.0000
  H   H5485     1.0  0.80269  0.50501  0.22083  1.0000
  C   C3111     1.0  0.80308  0.58038  0.03133  1.0000
  H   H5486     1.0  0.79110  0.65054  0.02562  1.0000
  H   H5487     1.0  0.78244  0.53503  0.97376  1.0000
  H   H5488     1.0  0.79318  0.61771  0.07202  1.0000
  H   H5489     1.0  0.80955  0.62296  0.05114  1.0000
  H   H5490     1.0  0.80011  0.61742  0.02471  1.0000
  H   H5491     1.0  0.77671  0.61334  0.02630  1.0000
  C   C3112     1.0  0.79006  0.96427  0.16073  1.0000
  H   H5492     1.0  0.76484  0.61060  0.06920  1.0000
  C   C3113     1.0  0.90451  0.75561  0.01292  1.0000
  C   C3114     1.0  0.95237  0.76136  0.96574  1.0000
  H   H5493     1.0  0.86773  0.77527  0.01179  1.0000
  H   H5494     1.0  0.77944  0.58781  0.05257  1.0000
  H   H5495     1.0  0.80157  0.59235  0.05579  1.0000
  H   H5496     1.0  0.80297  0.65636  0.05120  1.0000
  S   S702      1.0  0.78518  0.83704  0.98793  1.0000
  Fe  Fe357     1.0  0.79898  0.53331  0.29356  1.0000
  N   N173      1.0  0.74771  0.49155  0.26462  1.0000
  H   H5497     1.0  0.73707  0.82023  0.05848  1.0000
  H   H5498     1.0  0.77218  0.81978  0.25892  1.0000
  H   H5499     1.0  0.81707  0.58435  0.02482  1.0000
  H   H5500     1.0  0.80527  0.56557  0.03880  1.0000
  H   H5501     1.0  0.79483  0.58122  0.02005  1.0000
  N   N174      1.0  0.85263  0.66876  0.23731  1.0000
  C   C3115     1.0  0.85025  0.67127  0.21703  1.0000
  C   C3116     1.0  0.85105  0.64884  0.24727  1.0000
  C   C3117     1.0  0.83662  0.68204  0.24676  1.0000
  C   C3118     1.0  0.87094  0.67397  0.23903  1.0000
  C   C3119     1.0  0.88938  0.66309  0.22908  1.0000
  C   C3120     1.0  0.85183  0.69111  0.20509  1.0000
  H   H5502     1.0  0.83307  0.78026  0.98277  1.0000
  C   C3121     1.0  0.85963  0.63259  0.23595  1.0000
  C   C3122     1.0  0.85941  0.61337  0.24869  1.0000
  C   C3123     1.0  0.90595  0.67350  0.22658  1.0000
  C   C3124     1.0  0.84942  0.69189  0.18485  1.0000
  H   H5503     1.0  0.89454  0.74816  0.02396  1.0000
  H   H5504     1.0  0.83627  0.66795  0.21641  1.0000
  H   H5505     1.0  0.86074  0.66111  0.20940  1.0000
  H   H5506     1.0  0.85737  0.64568  0.26031  1.0000
  H   H5507     1.0  0.83590  0.64735  0.25198  1.0000
  H   H5508     1.0  0.82291  0.68085  0.24323  1.0000
  H   H5509     1.0  0.83849  0.69693  0.24150  1.0000
  H   H5510     1.0  0.87072  0.68926  0.23395  1.0000
  H   H5511     1.0  0.87246  0.67192  0.25401  1.0000
  H   H5512     1.0  0.88829  0.66117  0.21490  1.0000
  H   H5513     1.0  0.89296  0.64905  0.23783  1.0000
  H   H5514     1.0  0.84079  0.70215  0.21089  1.0000
  H   H5515     1.0  0.86590  0.69475  0.20448  1.0000
  C   C3125     1.0  0.74956  0.51985  0.97750  1.0000
  C   C3126     1.0  0.74295  0.57457  0.05409  1.0000
  H   H5516     1.0  0.85111  0.63317  0.22496  1.0000
  H   H5517     1.0  0.87435  0.63328  0.22897  1.0000
  H   H5518     1.0  0.84466  0.61150  0.25499  1.0000
  H   H5519     1.0  0.86580  0.60198  0.24036  1.0000
  H   H5520     1.0  0.86761  0.61193  0.26015  1.0000
  H   H5521     1.0  0.90770  0.67637  0.24024  1.0000
  H   H5522     1.0  0.91920  0.66479  0.22063  1.0000
  H   H5523     1.0  0.90366  0.68708  0.21674  1.0000
  H   H5524     1.0  0.83533  0.68885  0.18448  1.0000
  H   H5525     1.0  0.85063  0.70623  0.17673  1.0000
  H   H5526     1.0  0.86062  0.68160  0.17800  1.0000
  C   C3127     1.0  0.80670  0.80890  0.03683  1.0000
  H   H5527     1.0  0.73503  0.61904  0.09166  1.0000
  C   C3128     1.0  0.73795  0.48545  0.17622  1.0000
  N   N175      1.0  0.92362  0.83147  0.16030  1.0000
  C   C3129     1.0  0.91824  0.81704  0.17735  1.0000
  C   C3130     1.0  0.90648  0.84609  0.15610  1.0000
  C   C3131     1.0  0.93056  0.82128  0.14371  1.0000
  C   C3132     1.0  0.93947  0.84064  0.16244  1.0000
  C   C3133     1.0  0.93683  0.84919  0.18046  1.0000
  C   C3134     1.0  0.93419  0.80043  0.18247  1.0000
  C   C3135     1.0  0.93483  0.83389  0.12417  1.0000
  C   C3136     1.0  0.89109  0.85120  0.17301  1.0000
  C   C3137     1.0  0.87623  0.86795  0.16676  1.0000
  C   C3138     1.0  0.95474  0.85616  0.18156  1.0000
  C   C3139     1.0  0.92806  0.78822  0.20132  1.0000
  C   C3140     1.0  0.94193  0.82196  0.10864  1.0000
  H   H5528     1.0  0.90636  0.81088  0.17525  1.0000
  H   H5529     1.0  0.91263  0.82364  0.19003  1.0000
  H   H5530     1.0  0.91089  0.85937  0.14769  1.0000
  H   H5531     1.0  0.89871  0.84118  0.14706  1.0000
  H   H5532     1.0  0.92015  0.81257  0.14283  1.0000
  H   H5533     1.0  0.94383  0.81125  0.14554  1.0000
  H   H5534     1.0  0.95306  0.83049  0.16155  1.0000
  H   H5535     1.0  0.94194  0.85235  0.15049  1.0000
  H   H5536     1.0  0.93389  0.83872  0.19337  1.0000
  H   H5537     1.0  0.92524  0.86150  0.18033  1.0000
  H   H5538     1.0  0.93775  0.79116  0.17173  1.0000
  H   H5539     1.0  0.94714  0.80544  0.18339  1.0000
  H   H5540     1.0  0.94596  0.84213  0.12384  1.0000
  H   H5541     1.0  0.92200  0.84383  0.12055  1.0000
  H   H5542     1.0  0.88362  0.83910  0.17932  1.0000
  H   H5543     1.0  0.89707  0.85476  0.18414  1.0000
  H   H5544     1.0  0.86476  0.87057  0.17884  1.0000
  H   H5545     1.0  0.88264  0.88087  0.16147  1.0000
  H   H5546     1.0  0.86985  0.86503  0.15549  1.0000
  C   C3141     1.0  0.97566  0.78383  0.14794  1.0000
  H   H5547     1.0  0.75222  0.50858  0.16121  1.0000
  H   H5548     1.0  0.93953  0.77605  0.20408  1.0000
  H   H5549     1.0  0.92520  0.79646  0.21292  1.0000
  H   H5550     1.0  0.91519  0.78263  0.20107  1.0000
  H   H5551     1.0  0.95503  0.81193  0.11132  1.0000
  H   H5552     1.0  0.93098  0.81396  0.10773  1.0000
  H   H5553     1.0  0.94508  0.83127  0.09489  1.0000
  C   C3142     1.0  0.96786  0.66375  0.29098  1.0000
  Fe  Fe358     1.0  0.87905  0.69416  0.28901  1.0000
  H   H5554     1.0  0.93567  0.71623  0.25411  1.0000
  H   H5555     1.0  0.74193  0.94921  0.18923  1.0000
  H   H5556     1.0  0.76021  0.63893  0.08305  1.0000
  H   H5557     1.0  0.78681  0.52427  0.23024  1.0000
  S   S703      1.0  0.73695  0.56754  0.27518  1.0000
  H   H5558     1.0  0.76980  0.82131  0.04194  1.0000
  C   C3143     1.0  0.87893  0.78316  0.00338  1.0000
  S   S704      1.0  0.85733  0.71225  0.96990  1.0000
  C   C3144     1.0  0.73743  0.55792  0.21507  1.0000
  S   S705      1.0  0.75770  0.56856  0.03323  1.0000
  H   H5559     1.0  0.76355  0.48598  0.15505  1.0000
  C   C3145     1.0  0.74913  0.83797  0.19614  1.0000
  H   H5560     1.0  0.76978  0.49942  0.22755  1.0000
  Fe  Fe359     1.0  0.75362  0.84719  0.99145  1.0000
  S   S706      1.0  0.78247  0.64463  0.96663  1.0000
  H   H5561     1.0  0.96535  0.73526  0.26433  1.0000
  C   C3146     1.0  0.74777  0.88251  0.05403  1.0000
  H   H5562     1.0  0.74586  0.92344  0.96821  1.0000
  C   C3147     1.0  0.74151  0.87779  0.09347  1.0000
  C   C3148     1.0  0.80333  0.66877  0.97349  1.0000
  H   H5563     1.0  0.95826  0.74680  0.23118  1.0000
  H   H5564     1.0  0.96366  0.74877  0.96726  1.0000
  S   S707      1.0  0.81040  0.60230  0.28694  1.0000
  H   H5565     1.0  0.95652  0.74931  0.03182  1.0000
  H   H5566     1.0  0.96808  0.71175  0.26104  1.0000
  C   C3149     1.0  0.75909  0.67049  0.01062  1.0000
  H   H5567     1.0  0.74321  0.48812  0.23752  1.0000
  H   H5568     1.0  0.74367  0.48930  0.29489  1.0000
  H   H5569     1.0  0.78647  0.95231  0.23240  1.0000
  H   H5570     1.0  0.82493  0.63651  0.07195  1.0000
  S   S708      1.0  0.74211  0.87621  0.99848  1.0000
  H   H5571     1.0  0.74574  0.48308  0.18811  1.0000
  C   C3150     1.0  0.77131  0.95242  0.20994  1.0000
  C   C3151     1.0  0.81805  0.69416  0.27630  1.0000
  H   H5572     1.0  0.73483  0.70557  0.97810  1.0000
  H   H5573     1.0  0.93233  0.76143  0.06821  1.0000
  H   H5574     1.0  0.77878  0.83766  0.19437  1.0000
  H   H5575     1.0  0.80990  0.86771  0.09061  1.0000
  S   S709      1.0  0.73595  0.83263  0.01632  1.0000
  H   H5576     1.0  0.96189  0.72277  0.22763  1.0000
  H   H5577     1.0  0.74112  0.83058  0.07699  1.0000
  H   H5578     1.0  0.75211  0.62203  0.05113  1.0000
  H   H5579     1.0  0.90765  0.78550  0.00349  1.0000
  H   H5580     1.0  0.75148  0.85610  0.22608  1.0000
  C   C3152     1.0  0.76520  0.84583  0.20038  1.0000
  H   H5581     1.0  0.78618  0.84546  0.02509  1.0000
  H   H5582     1.0  0.81658  0.87882  0.99414  1.0000
  H   H5583     1.0  0.81950  0.63719  0.28964  1.0000
  C   C3153     1.0  0.94516  0.76087  0.05714  1.0000
  H   H5584     1.0  0.95776  0.77400  0.96698  1.0000
  H   H5585     1.0  0.79604  0.86494  0.06239  1.0000
  H   H5586     1.0  0.77074  0.84525  0.07119  1.0000
  H   H5587     1.0  0.81471  0.84695  0.10783  1.0000
  H   H5588     1.0  0.93705  0.71842  0.99461  1.0000
  H   H5589     1.0  0.83096  0.85043  0.08596  1.0000
  H   H5590     1.0  0.79028  0.84296  0.09201  1.0000
  H   H5591     1.0  0.76618  0.86324  0.25023  1.0000
  H   H5592     1.0  0.75124  0.67962  0.02092  1.0000
  C   C3154     1.0  0.77775  0.52716  0.98797  1.0000
  H   H5593     1.0  0.81661  0.69192  0.29185  1.0000
  H   H5594     1.0  0.82101  0.81279  0.98931  1.0000
  H   H5595     1.0  0.78174  0.82110  0.07395  1.0000
  H   H5596     1.0  0.82516  0.82674  0.04070  1.0000
  S   S710      1.0  0.73820  0.55216  0.19262  1.0000
  C   C3155     1.0  0.81175  0.47362  0.27349  1.0000
  H   H5597     1.0  0.74199  0.49813  0.14655  1.0000
  H   H5598     1.0  0.75934  0.83141  0.22893  1.0000
  H   H5599     1.0  0.74847  0.65310  0.06420  1.0000
  H   H5600     1.0  0.80172  0.81662  0.02370  1.0000
  C   C3156     1.0  0.73746  0.96328  0.19373  1.0000
  H   H5601     1.0  0.90982  0.67943  0.98050  1.0000
  C   C3157     1.0  0.81019  0.85907  0.01992  1.0000
  H   H5602     1.0  0.81889  0.86491  0.02711  1.0000
  H   H5603     1.0  0.82127  0.70854  0.27058  1.0000
  S   S711      1.0  0.81510  0.50786  0.28054  1.0000
  H   H5604     1.0  0.79572  0.88728  0.00990  1.0000
  C   C3158     1.0  0.80398  0.87469  0.00410  1.0000
  C   C3159     1.0  0.76362  0.84513  0.22181  1.0000
  C   C3160     1.0  0.94370  0.74913  0.04283  1.0000
  C   C3161     1.0  0.95772  0.73206  0.23838  1.0000
  C   C3162     1.0  0.78853  0.78590  0.97365  1.0000
  C   C3163     1.0  0.92778  0.69566  0.01509  1.0000
  H   H5605     1.0  0.84981  0.61684  0.97211  1.0000
  H   H5606     1.0  0.95257  0.61482  0.27456  1.0000
  H   H5607     1.0  0.75624  0.50473  0.97949  1.0000
  C   C3164     1.0  0.73317  0.74939  0.96560  1.0000
  H   H5608     1.0  0.90067  0.66291  0.00025  1.0000
  H   H5609     1.0  0.73898  0.87592  0.10866  1.0000
  S   S712      1.0  0.81574  0.75473  0.96924  1.0000
  H   H5610     1.0  0.81914  0.85230  0.05618  1.0000
  Fe  Fe360     1.0  0.76287  0.56129  0.28964  1.0000
  H   H5611     1.0  0.77222  0.96741  0.20444  1.0000
  H   H5612     1.0  0.92814  0.73531  0.23615  1.0000
  H   H5613     1.0  0.75015  0.54367  0.99137  1.0000
  C   C3165     1.0  0.83072  0.62630  0.29430  1.0000
  H   H5614     1.0  0.74920  0.90238  0.23993  1.0000
  H   H5615     1.0  0.92418  0.77238  0.03095  1.0000
  C   C3166     1.0  0.76372  0.83046  0.05258  1.0000
  H   H5616     1.0  0.83451  0.95637  0.17092  1.0000
  C   C3167     1.0  0.81870  0.78681  0.98148  1.0000
  H   H5617     1.0  0.79568  0.80108  0.04567  1.0000
  H   H5618     1.0  0.96739  0.78560  0.13696  1.0000
  C   C3168     1.0  0.77857  0.83385  0.06321  1.0000
  C   C3169     1.0  0.75162  0.63875  0.07239  1.0000
  C   C3170     1.0  0.81152  0.82233  0.04803  1.0000
  H   H5619     1.0  0.76982  0.64146  0.00924  1.0000
  C   C3171     1.0  0.76401  0.50222  0.25749  1.0000
  H   H5620     1.0  0.90291  0.75162  0.99973  1.0000
  H   H5621     1.0  0.75028  0.82268  0.20192  1.0000
  C   C3172     1.0  0.80660  0.48623  0.28634  1.0000
  S   S713      1.0  0.74494  0.61856  0.00185  1.0000
  H   H5622     1.0  0.79514  0.86981  0.99619  1.0000
  H   H5623     1.0  0.94304  0.72275  0.02441  1.0000
  C   C3173     1.0  0.80484  0.84188  0.08379  1.0000
  H   H5624     1.0  0.75192  0.93417  0.22370  1.0000
  H   H5625     1.0  0.78232  0.86484  0.03675  1.0000
  C   C3174     1.0  0.92548  0.75675  0.03417  1.0000
  C   C3175     1.0  0.97069  0.72600  0.25353  1.0000
  H   H5626     1.0  0.84694  0.68026  0.27339  1.0000
  C   C3176     1.0  0.76456  0.83459  0.28250  1.0000
  H   H5627     1.0  0.91177  0.72125  0.00302  1.0000
  H   H5628     1.0  0.98035  0.58036  0.29337  1.0000
  N   N176      1.0  0.92442  0.74915  0.01694  1.0000
  H   H5629     1.0  0.81159  0.82688  0.08565  1.0000
  N   N177      1.0  0.79676  0.83941  0.05161  1.0000
  C   C3177     1.0  0.92586  0.71674  0.00717  1.0000
  C   C3178     1.0  0.83392  0.67932  0.26855  1.0000
  H   H5630     1.0  0.94166  0.77017  0.00213  1.0000
  H   H5631     1.0  0.95305  0.74667  0.00149  1.0000
  C   C3179     1.0  0.76529  0.83405  0.26176  1.0000
  H   H5632     1.0  0.75015  0.88458  0.03884  1.0000
  H   H5633     1.0  0.82995  0.66545  0.27502  1.0000
  H   H5634     1.0  0.76713  0.81066  0.97654  1.0000
  C   C3180     1.0  0.79286  0.85223  0.03350  1.0000
  H   H5635     1.0  0.75237  0.52108  0.00646  1.0000
  H   H5636     1.0  0.80441  0.69310  0.27266  1.0000
  H   H5637     1.0  0.81988  0.78428  0.02403  1.0000
  H   H5638     1.0  0.77236  0.67574  0.00353  1.0000
  H   H5639     1.0  0.92641  0.68798  0.00412  1.0000
  C   C3181     1.0  0.92829  0.72789  0.02184  1.0000
  C   C3182     1.0  0.93914  0.75612  0.00083  1.0000
  H   H5640     1.0  0.91908  0.72320  0.03523  1.0000
  H   H5641     1.0  0.94180  0.69013  0.01938  1.0000
  C   C3183     1.0  0.74801  0.82157  0.06627  1.0000
  H   H5642     1.0  0.81918  0.84718  0.01342  1.0000
  H   H5643     1.0  0.82002  0.47771  0.25986  1.0000
  H   H5644     1.0  0.97225  0.76334  0.24817  1.0000
  C   C3184     1.0  0.93714  0.73092  0.24722  1.0000
  C   C3185     1.0  0.77571  0.84951  0.24873  1.0000
  C   C3186     1.0  0.78747  0.94425  0.22096  1.0000
  H   H5645     1.0  0.74928  0.97095  0.18718  1.0000
  H   H5646     1.0  0.94733  0.62674  0.29447  1.0000
  C   C3187     1.0  0.73361  0.56738  0.08826  1.0000
  C   C3188     1.0  0.73664  0.49730  0.28287  1.0000
  C   C3189     1.0  0.95464  0.61350  0.28930  1.0000
  H   H5647     1.0  0.98118  0.62304  0.28172  1.0000
  C   C3190     1.0  0.97565  0.61050  0.29031  1.0000
  H   H5648     1.0  0.74831  0.52159  0.28559  1.0000
  H   H5649     1.0  0.73534  0.55824  0.10154  1.0000
  H   H5650     1.0  0.78462  0.48209  0.24188  1.0000
  H   H5651     1.0  0.77956  0.77856  0.96895  1.0000
  H   H5652     1.0  0.75641  0.82386  0.29143  1.0000
  H   H5653     1.0  0.77903  0.83149  0.28595  1.0000
  H   H5654     1.0  0.87981  0.67147  0.97660  1.0000
  C   C3191     1.0  0.73281  0.63341  0.08312  1.0000
  C   C3192     1.0  0.73260  0.87399  0.06433  1.0000
  H   H5655     1.0  0.89031  0.64673  0.97938  1.0000
  C   C3193     1.0  0.90688  0.66481  0.98506  1.0000
  H   H5656     1.0  0.87511  0.61023  0.96961  1.0000
  H   H5657     1.0  0.74854  0.77169  0.96535  1.0000
  C   C3194     1.0  0.97395  0.76899  0.16310  1.0000
  H   H5658     1.0  0.85094  0.48343  0.29671  1.0000
  H   H5659     1.0  0.92037  0.65472  0.98316  1.0000
  H   H5660     1.0  0.74129  0.75896  0.98848  1.0000
  S   S714      1.0  0.73352  0.84879  0.97166  1.0000
  S   S715      1.0  0.73240  0.58285  0.98964  1.0000
  C   C3195     1.0  0.74039  0.67753  0.49614  1.0000
  Fe  Fe361     1.0  0.74426  0.95385  0.58073  1.0000
  H   H5661     1.0  0.75366  0.74702  0.40320  1.0000
  H   H5662     1.0  0.75119  0.60775  0.37635  1.0000
  C   C3196     1.0  0.76732  0.56109  0.37495  1.0000
  H   H5663     1.0  0.79591  0.80425  0.51590  1.0000
  H   H5664     1.0  0.84410  0.66293  0.44235  1.0000
  S   S716      1.0  0.96759  0.72254  0.60793  1.0000
  H   H5665     1.0  0.79543  0.92644  0.62305  1.0000
  H   H5666     1.0  0.79083  0.82962  0.59325  1.0000
  H   H5667     1.0  0.74608  0.68367  0.50588  1.0000
  S   S717      1.0  0.88063  0.62285  0.31172  1.0000
  S   S718      1.0  0.95070  0.74341  0.55801  1.0000
  C   C3197     1.0  0.76727  0.56850  0.40586  1.0000
  Fe  Fe362     1.0  0.75955  0.57750  0.48570  1.0000
  C   C3198     1.0  0.84390  0.59325  0.30136  1.0000
  C   C3199     1.0  0.90159  0.64406  0.43370  1.0000
  H   H5668     1.0  0.75150  0.90041  0.50807  1.0000
  H   H5669     1.0  0.90575  0.64361  0.44745  1.0000
  S   S719      1.0  0.74619  0.85923  0.47394  1.0000
  Fe  Fe363     1.0  0.74301  0.82871  0.48345  1.0000
  S   S720      1.0  0.76223  0.80112  0.49170  1.0000
  S   S721      1.0  0.78157  0.58346  0.45984  1.0000
  C   C3200     1.0  0.82193  0.54495  0.36387  1.0000
  Fe  Fe364     1.0  0.75764  0.60039  0.44582  1.0000
  S   S722      1.0  0.75495  0.60437  0.41486  1.0000
  Fe  Fe365     1.0  0.78214  0.60979  0.47060  1.0000
  S   S723      1.0  0.81055  0.61865  0.46809  1.0000
  Fe  Fe366     1.0  0.88243  0.71136  0.49831  1.0000
  S   S724      1.0  0.88988  0.72918  0.47000  1.0000
  S   S725      1.0  0.90203  0.70253  0.52056  1.0000
  Fe  Fe367     1.0  0.84643  0.70375  0.48755  1.0000
  S   S726      1.0  0.85154  0.72114  0.45887  1.0000
  S   S727      1.0  0.81822  0.69352  0.49402  1.0000
  Fe  Fe368     1.0  0.88172  0.70718  0.45761  1.0000
  S   S728      1.0  0.90046  0.69705  0.43169  1.0000
  Fe  Fe369     1.0  0.85896  0.74173  0.47339  1.0000
  S   S729      1.0  0.84918  0.77288  0.46378  1.0000
  S   S730      1.0  0.87638  0.68811  0.48555  1.0000
  S   S731      1.0  0.85180  0.72550  0.50250  1.0000
  Fe  Fe370     1.0  0.77747  0.55099  0.32772  1.0000
  S   S732      1.0  0.80791  0.54819  0.31332  1.0000
  H   H5670     1.0  0.86759  0.64485  0.35219  1.0000
  H   H5671     1.0  0.73775  0.54033  0.42743  1.0000
  C   C3201     1.0  0.84204  0.66586  0.42745  1.0000
  S   S733      1.0  0.76939  0.53390  0.30935  1.0000
  Fe  Fe371     1.0  0.88478  0.68468  0.33028  1.0000
  S   S734      1.0  0.90602  0.65838  0.32552  1.0000
  S   S735      1.0  0.86980  0.69556  0.35740  1.0000
  C   C3202     1.0  0.81169  0.68867  0.43537  1.0000
  H   H5672     1.0  0.75209  0.76325  0.49170  1.0000
  H   H5673     1.0  0.83369  0.54123  0.37203  1.0000
  H   H5674     1.0  0.85696  0.58345  0.42785  1.0000
  S   S736      1.0  0.86411  0.67781  0.31507  1.0000
  H   H5675     1.0  0.81567  0.68843  0.44916  1.0000
  C   C3203     1.0  0.80669  0.51020  0.59259  1.0000
  H   H5676     1.0  0.81862  0.51532  0.58209  1.0000
  C   C3204     1.0  0.86079  0.61720  0.30533  1.0000
  H   H5677     1.0  0.81360  0.65881  0.43791  1.0000
  H   H5678     1.0  0.84323  0.57861  0.30186  1.0000
  H   H5679     1.0  0.83585  0.48318  0.57704  1.0000
  H   H5680     1.0  0.76725  0.57040  0.56456  1.0000
  H   H5681     1.0  0.77650  0.50544  0.45786  1.0000
  H   H5682     1.0  0.81670  0.70073  0.42517  1.0000
  C   C3205     1.0  0.75132  0.54731  0.53875  1.0000
  H   H5683     1.0  0.95383  0.65438  0.31898  1.0000
  C   C3206     1.0  0.89197  0.69726  0.41083  1.0000
  C   C3207     1.0  0.90452  0.69064  0.39549  1.0000
  C   C3208     1.0  0.89808  0.69008  0.37891  1.0000
  C   C3209     1.0  0.87902  0.69629  0.37752  1.0000
  C   C3210     1.0  0.86653  0.70307  0.39279  1.0000
  C   C3211     1.0  0.87294  0.70351  0.40937  1.0000
  H   H5684     1.0  0.91928  0.68575  0.39649  1.0000
  H   H5685     1.0  0.90784  0.68482  0.36726  1.0000
  H   H5686     1.0  0.85174  0.70778  0.39185  1.0000
  H   H5687     1.0  0.86311  0.70839  0.42113  1.0000
  C   C3212     1.0  0.76004  0.58740  0.39980  1.0000
  C   C3213     1.0  0.75674  0.59314  0.38120  1.0000
  C   C3214     1.0  0.76051  0.58010  0.36877  1.0000
  H   H5688     1.0  0.85454  0.59519  0.44759  1.0000
  H   H5689     1.0  0.87791  0.66267  0.40794  1.0000
  H   H5690     1.0  0.75790  0.58471  0.35449  1.0000
  C   C3215     1.0  0.81221  0.63898  0.47650  1.0000
  C   C3216     1.0  0.79624  0.65228  0.48131  1.0000
  C   C3217     1.0  0.79822  0.66882  0.48695  1.0000
  C   C3218     1.0  0.81620  0.67233  0.48748  1.0000
  C   C3219     1.0  0.83213  0.65901  0.48271  1.0000
  C   C3220     1.0  0.83010  0.64230  0.47751  1.0000
  H   H5691     1.0  0.78240  0.64979  0.48069  1.0000
  H   H5692     1.0  0.78582  0.67897  0.49082  1.0000
  H   H5693     1.0  0.84600  0.66145  0.48334  1.0000
  H   H5694     1.0  0.84248  0.63184  0.47442  1.0000
  C   C3221     1.0  0.78620  0.79384  0.48269  1.0000
  C   C3222     1.0  0.79767  0.80641  0.47164  1.0000
  C   C3223     1.0  0.81705  0.79992  0.46588  1.0000
  C   C3224     1.0  0.82491  0.78087  0.47096  1.0000
  C   C3225     1.0  0.81331  0.76833  0.48170  1.0000
  C   C3226     1.0  0.79408  0.77483  0.48763  1.0000
  H   H5695     1.0  0.79172  0.82112  0.46788  1.0000
  H   H5696     1.0  0.82600  0.80970  0.45762  1.0000
  H   H5697     1.0  0.81920  0.75363  0.48568  1.0000
  H   H5698     1.0  0.78536  0.76508  0.49637  1.0000
  C   C3227     1.0  0.87364  0.64950  0.41671  1.0000
  H   H5699     1.0  0.76252  0.47532  0.44641  1.0000
  H   H5700     1.0  0.82916  0.51749  0.61011  1.0000
  N   N178      1.0  0.85286  0.65003  0.41729  1.0000
  H   H5701     1.0  0.82368  0.48717  0.61002  1.0000
  C   C3228     1.0  0.73728  0.83328  0.55548  1.0000
  C   C3229     1.0  0.74444  0.90438  0.52139  1.0000
  C   C3230     1.0  0.93685  0.73159  0.54842  1.0000
  C   C3231     1.0  0.93943  0.71192  0.55044  1.0000
  C   C3232     1.0  0.92854  0.70336  0.54200  1.0000
  C   C3233     1.0  0.91483  0.71424  0.53148  1.0000
  C   C3234     1.0  0.91209  0.73388  0.52966  1.0000
  C   C3235     1.0  0.92307  0.74245  0.53798  1.0000
  H   H5702     1.0  0.94992  0.70330  0.55840  1.0000
  H   H5703     1.0  0.93079  0.68816  0.54359  1.0000
  H   H5704     1.0  0.90145  0.74250  0.52190  1.0000
  H   H5705     1.0  0.92083  0.75765  0.53637  1.0000
  H   H5706     1.0  0.73937  0.50996  0.42532  1.0000
  H   H5707     1.0  0.79393  0.83542  0.51116  1.0000
  H   H5708     1.0  0.79867  0.83229  0.54158  1.0000
  C   C3236     1.0  0.84842  0.65436  0.39752  1.0000
  C   C3237     1.0  0.95242  0.68836  0.48069  1.0000
  H   H5709     1.0  0.77190  0.83480  0.50512  1.0000
  H   H5710     1.0  0.80315  0.77128  0.52999  1.0000
  H   H5711     1.0  0.78391  0.88332  0.48413  1.0000
  C   C3238     1.0  0.75312  0.51886  0.56306  1.0000
  C   C3239     1.0  0.76357  0.51675  0.52985  1.0000
  H   H5712     1.0  0.80352  0.60793  0.42701  1.0000
  H   H5713     1.0  0.76532  0.92069  0.52269  1.0000
  C   C3240     1.0  0.78086  0.54718  0.58327  1.0000
  C   C3241     1.0  0.78934  0.77962  0.53528  1.0000
  H   H5714     1.0  0.90749  0.65562  0.42347  1.0000
  H   H5715     1.0  0.90777  0.63043  0.42885  1.0000
  H   H5716     1.0  0.76140  0.81031  0.52856  1.0000
  S   S737      1.0  0.75985  0.62721  0.45474  1.0000
  H   H5717     1.0  0.77044  0.56417  0.41991  1.0000
  C   C3242     1.0  0.79075  0.80055  0.53120  1.0000
  C   C3243     1.0  0.96388  0.72573  0.49425  1.0000
  H   H5718     1.0  0.80143  0.80239  0.53901  1.0000
  C   C3244     1.0  0.91581  0.76717  0.47343  1.0000
  H   H5719     1.0  0.77849  0.77703  0.52808  1.0000
  C   C3245     1.0  0.75090  0.84383  0.53972  1.0000
  H   H5720     1.0  0.96039  0.68439  0.59986  1.0000
  S   S738      1.0  0.76206  0.54658  0.50025  1.0000
  C   C3246     1.0  0.73532  0.78728  0.44017  1.0000
  C   C3247     1.0  0.92751  0.74971  0.48334  1.0000
  H   H5721     1.0  0.82593  0.96852  0.62699  1.0000
  H   H5722     1.0  0.75906  0.70124  0.43731  1.0000
  H   H5723     1.0  0.80939  0.54671  0.58730  1.0000
  H   H5724     1.0  0.76498  0.53644  0.43886  1.0000
  H   H5725     1.0  0.83516  0.64937  0.39736  1.0000
  H   H5726     1.0  0.76939  0.50819  0.51907  1.0000
  C   C3248     1.0  0.93814  0.67519  0.48940  1.0000
  C   C3249     1.0  0.77847  0.84064  0.51452  1.0000
  C   C3250     1.0  0.75888  0.53645  0.52461  1.0000
  H   H5727     1.0  0.73381  0.82140  0.55041  1.0000
  C   C3251     1.0  0.82262  0.47811  0.58459  1.0000
  H   H5728     1.0  0.75253  0.74495  0.42816  1.0000
  H   H5729     1.0  0.76036  0.86764  0.50646  1.0000
  C   C3252     1.0  0.74292  0.92218  0.54665  1.0000
  H   H5730     1.0  0.96604  0.87959  0.59291  1.0000
  C   C3253     1.0  0.77532  0.86238  0.50806  1.0000
  H   H5731     1.0  0.96657  0.71737  0.44912  1.0000
  H   H5732     1.0  0.84766  0.67906  0.42104  1.0000
  C   C3254     1.0  0.76081  0.50800  0.54893  1.0000
  H   H5733     1.0  0.79174  0.53871  0.46495  1.0000
  C   C3255     1.0  0.85601  0.64906  0.36363  1.0000
  C   C3256     1.0  0.74885  0.50368  0.43577  1.0000
  H   H5734     1.0  0.87474  0.66066  0.44189  1.0000
  H   H5735     1.0  0.82514  0.53605  0.35277  1.0000
  C   C3257     1.0  0.82029  0.67018  0.42818  1.0000
  C   C3258     1.0  0.77129  0.81274  0.53707  1.0000
  H   H5736     1.0  0.78541  0.86035  0.47840  1.0000
  H   H5737     1.0  0.80367  0.51468  0.46583  1.0000
  H   H5738     1.0  0.80836  0.82562  0.57279  1.0000
  C   C3259     1.0  0.77052  0.55533  0.39362  1.0000
  N   N179      1.0  0.81449  0.59935  0.36294  1.0000
  C   C3260     1.0  0.81343  0.57874  0.36984  1.0000
  C   C3261     1.0  0.80592  0.61057  0.37862  1.0000
  C   C3262     1.0  0.80282  0.60625  0.34742  1.0000
  C   C3263     1.0  0.83444  0.60246  0.35488  1.0000
  C   C3264     1.0  0.84915  0.59508  0.36815  1.0000
  C   C3265     1.0  0.81966  0.56574  0.35477  1.0000
  C   C3266     1.0  0.79999  0.62780  0.33980  1.0000
  C   C3267     1.0  0.80836  0.60089  0.39901  1.0000
  C   C3268     1.0  0.80262  0.61522  0.41238  1.0000
  C   C3269     1.0  0.86914  0.59666  0.35769  1.0000
  C   C3270     1.0  0.81488  0.52101  0.61864  1.0000
  C   C3271     1.0  0.78552  0.63335  0.32655  1.0000
  H   H5739     1.0  0.79866  0.57724  0.37634  1.0000
  H   H5740     1.0  0.82164  0.57265  0.38132  1.0000
  H   H5741     1.0  0.81135  0.62413  0.37561  1.0000
  H   H5742     1.0  0.79029  0.61453  0.37935  1.0000
  H   H5743     1.0  0.78857  0.60223  0.35225  1.0000
  H   H5744     1.0  0.80924  0.59932  0.33498  1.0000
  H   H5745     1.0  0.83970  0.59627  0.34190  1.0000
  H   H5746     1.0  0.83485  0.61774  0.35010  1.0000
  H   H5747     1.0  0.84925  0.58005  0.37446  1.0000
  H   H5748     1.0  0.84620  0.60371  0.37939  1.0000
  H   H5749     1.0  0.80876  0.56832  0.34566  1.0000
  H   H5750     1.0  0.83332  0.56809  0.34576  1.0000
  H   H5751     1.0  0.81349  0.63192  0.33184  1.0000
  H   H5752     1.0  0.79478  0.63626  0.35120  1.0000
  H   H5753     1.0  0.79913  0.59002  0.40413  1.0000
  H   H5754     1.0  0.82299  0.59380  0.40010  1.0000
  H   H5755     1.0  0.81211  0.62583  0.40844  1.0000
  H   H5756     1.0  0.78785  0.62255  0.41200  1.0000
  H   H5757     1.0  0.87027  0.61158  0.35175  1.0000
  H   H5758     1.0  0.87938  0.59122  0.36752  1.0000
  H   H5759     1.0  0.87303  0.58832  0.34609  1.0000
  H   H5760     1.0  0.80870  0.54177  0.37333  1.0000
  H   H5761     1.0  0.77139  0.63066  0.33427  1.0000
  H   H5762     1.0  0.78445  0.64858  0.32049  1.0000
  H   H5763     1.0  0.78979  0.62522  0.31482  1.0000
  C   C3272     1.0  0.77410  0.51883  0.46332  1.0000
  H   H5764     1.0  0.74589  0.66945  0.46015  1.0000
  S   S739      1.0  0.75361  0.93685  0.55640  1.0000
  C   C3273     1.0  0.86386  0.64667  0.38178  1.0000
  H   H5765     1.0  0.76590  0.80659  0.55174  1.0000
  Fe  Fe372     1.0  0.75513  0.47800  0.60226  1.0000
  H   H5766     1.0  0.95417  0.75361  0.46642  1.0000
  C   C3274     1.0  0.96719  0.65404  0.30945  1.0000
  H   H5767     1.0  0.76452  0.49287  0.55268  1.0000
  H   H5768     1.0  0.74686  0.49926  0.46609  1.0000
  H   H5769     1.0  0.95185  0.72899  0.50570  1.0000
  C   C3275     1.0  0.74066  0.69071  0.47716  1.0000
  H   H5770     1.0  0.75535  0.69346  0.47215  1.0000
  H   H5771     1.0  0.84973  0.66400  0.35917  1.0000
  H   H5772     1.0  0.77996  0.74018  0.48022  1.0000
  H   H5773     1.0  0.93152  0.75384  0.49542  1.0000
  H   H5774     1.0  0.93278  0.66120  0.62755  1.0000
  H   H5775     1.0  0.75857  0.54725  0.45905  1.0000
  H   H5776     1.0  0.77592  0.54068  0.39848  1.0000
  C   C3276     1.0  0.74218  0.75293  0.49623  1.0000
  H   H5777     1.0  0.78308  0.85341  0.54485  1.0000
  H   H5778     1.0  0.93432  0.67490  0.50483  1.0000
  S   S740      1.0  0.89811  0.70284  0.30452  1.0000
  H   H5779     1.0  0.74949  0.73687  0.47261  1.0000
  Fe  Fe373     1.0  0.97364  0.73361  0.57680  1.0000
  H   H5780     1.0  0.78513  0.50277  0.62689  1.0000
  C   C3277     1.0  0.79457  0.83414  0.57782  1.0000
  H   H5781     1.0  0.81369  0.50883  0.63041  1.0000
  H   H5782     1.0  0.84505  0.64015  0.36561  1.0000
  H   H5783     1.0  0.74749  0.56244  0.53499  1.0000
  H   H5784     1.0  0.90308  0.77207  0.48345  1.0000
  S   S741      1.0  0.74914  0.50869  0.58739  1.0000
  H   H5785     1.0  0.74379  0.84700  0.52722  1.0000
  C   C3278     1.0  0.78764  0.86793  0.48909  1.0000
  C   C3279     1.0  0.75217  0.91608  0.52966  1.0000
  H   H5786     1.0  0.75083  0.85787  0.54323  1.0000
  H   H5787     1.0  0.95026  0.66600  0.59508  1.0000
  H   H5788     1.0  0.79827  0.52844  0.44373  1.0000
  H   H5789     1.0  0.76254  0.50867  0.43043  1.0000
  H   H5790     1.0  0.74381  0.51279  0.49566  1.0000
  H   H5791     1.0  0.97534  0.90308  0.61869  1.0000
  H   H5792     1.0  0.74736  0.79420  0.43222  1.0000
  H   H5793     1.0  0.74698  0.64726  0.41699  1.0000
  H   H5794     1.0  0.73893  0.47674  0.44175  1.0000
  H   H5795     1.0  0.77045  0.72954  0.41496  1.0000
  H   H5796     1.0  0.76702  0.54412  0.59140  1.0000
  C   C3280     1.0  0.94504  0.66853  0.62460  1.0000
  H   H5797     1.0  0.81290  0.47965  0.57446  1.0000
  H   H5798     1.0  0.91105  0.76385  0.46133  1.0000
  H   H5799     1.0  0.77814  0.81606  0.57170  1.0000
  S   S742      1.0  0.76792  0.57848  0.30969  1.0000
  H   H5800     1.0  0.79596  0.84926  0.57505  1.0000
  H   H5801     1.0  0.93522  0.68761  0.60030  1.0000
  S   S743      1.0  0.73527  0.59270  0.47070  1.0000
  H   H5802     1.0  0.78561  0.77468  0.55064  1.0000
  H   H5803     1.0  0.81638  0.67151  0.41419  1.0000
  H   H5804     1.0  0.80280  0.86460  0.49045  1.0000
  H   H5805     1.0  0.79130  0.57168  0.56523  1.0000
  H   H5806     1.0  0.97680  0.61000  0.30517  1.0000
  H   H5807     1.0  0.79145  0.55348  0.60584  1.0000
  C   C3281     1.0  0.97257  0.71839  0.46151  1.0000
  C   C3282     1.0  0.73901  0.77847  0.46003  1.0000
  C   C3283     1.0  0.75238  0.48233  0.43678  1.0000
  H   H5808     1.0  0.74921  0.66356  0.49449  1.0000
  N   N180      1.0  0.95670  0.72355  0.47720  1.0000
  H   H5809     1.0  0.95472  0.86896  0.62770  1.0000
  H   H5810     1.0  0.92510  0.67987  0.48306  1.0000
  H   H5811     1.0  0.93234  0.71290  0.47358  1.0000
  H   H5812     1.0  0.74189  0.74858  0.51163  1.0000
  H   H5813     1.0  0.75849  0.47887  0.42256  1.0000
  H   H5814     1.0  0.77854  0.86993  0.51819  1.0000
  H   H5815     1.0  0.75106  0.67607  0.42693  1.0000
  H   H5816     1.0  0.97532  0.90130  0.58575  1.0000
  C   C3284     1.0  0.94788  0.67723  0.60372  1.0000
  H   H5817     1.0  0.95679  0.68704  0.46560  1.0000
  H   H5818     1.0  0.78521  0.53875  0.57179  1.0000
  H   H5819     1.0  0.94435  0.66065  0.48691  1.0000
  C   C3285     1.0  0.85959  0.59819  0.30625  1.0000
  H   H5820     1.0  0.92416  0.77876  0.46839  1.0000
  H   H5821     1.0  0.74571  0.71532  0.40758  1.0000
  C   C3286     1.0  0.79597  0.54305  0.59621  1.0000
  H   H5822     1.0  0.76577  0.83970  0.57410  1.0000
  H   H5823     1.0  0.74346  0.82736  0.56832  1.0000
  C   C3287     1.0  0.75093  0.73493  0.48756  1.0000
  C   C3288     1.0  0.77195  0.72913  0.48867  1.0000
  H   H5824     1.0  0.94104  0.74155  0.45644  1.0000
  C   C3289     1.0  0.74410  0.70866  0.43844  1.0000
  C   C3290     1.0  0.79308  0.52564  0.45912  1.0000
  H   H5825     1.0  0.77423  0.72670  0.50348  1.0000
  H   H5826     1.0  0.77770  0.71584  0.48303  1.0000
  H   H5827     1.0  0.87088  0.58724  0.31067  1.0000
  C   C3291     1.0  0.73958  0.50922  0.45523  1.0000
  H   H5828     1.0  0.91826  0.73897  0.48886  1.0000
  H   H5829     1.0  0.93602  0.70920  0.49709  1.0000
  C   C3292     1.0  0.81331  0.48912  0.60050  1.0000
  C   C3293     1.0  0.94545  0.74230  0.46982  1.0000
  H   H5830     1.0  0.74377  0.72309  0.49551  1.0000
  H   H5831     1.0  0.79545  0.51021  0.58451  1.0000
  H   H5832     1.0  0.77005  0.51589  0.47873  1.0000
  C   C3294     1.0  0.78190  0.51728  0.61902  1.0000
  C   C3295     1.0  0.75553  0.73689  0.41640  1.0000
  H   H5833     1.0  0.87576  0.65466  0.37860  1.0000
  C   C3296     1.0  0.75902  0.53384  0.45410  1.0000
  H   H5834     1.0  0.80103  0.48261  0.60844  1.0000
  H   H5835     1.0  0.97520  0.71974  0.52882  1.0000
  C   C3297     1.0  0.77916  0.83123  0.56812  1.0000
  H   H5836     1.0  0.77175  0.51636  0.61014  1.0000
  C   C3298     1.0  0.97479  0.88843  0.59667  1.0000
  H   H5837     1.0  0.97115  0.73815  0.49104  1.0000
  H   H5838     1.0  0.79606  0.69075  0.43722  1.0000
  N   N181      1.0  0.84666  0.76666  0.40520  1.0000
  C   C3299     1.0  0.84978  0.75695  0.38844  1.0000
  C   C3300     1.0  0.83591  0.75517  0.42172  1.0000
  C   C3301     1.0  0.83583  0.78631  0.40053  1.0000
  C   C3302     1.0  0.86516  0.76810  0.41023  1.0000
  C   C3303     1.0  0.87957  0.74947  0.41276  1.0000
  C   C3304     1.0  0.86242  0.76554  0.37046  1.0000
  C   C3305     1.0  0.82897  0.79737  0.41718  1.0000
  C   C3306     1.0  0.81527  0.75437  0.42045  1.0000
  C   C3307     1.0  0.80550  0.74391  0.43884  1.0000
  C   C3308     1.0  0.89743  0.75271  0.41827  1.0000
  C   C3309     1.0  0.86596  0.75336  0.35520  1.0000
  C   C3310     1.0  0.81749  0.81671  0.41107  1.0000
  H   H5839     1.0  0.83606  0.75697  0.38429  1.0000
  H   H5840     1.0  0.85589  0.74181  0.39214  1.0000
  H   H5841     1.0  0.84324  0.74031  0.42362  1.0000
  H   H5842     1.0  0.83583  0.76009  0.43503  1.0000
  H   H5843     1.0  0.82340  0.78608  0.39418  1.0000
  H   H5844     1.0  0.84469  0.79506  0.38948  1.0000
  H   H5845     1.0  0.87229  0.77870  0.39967  1.0000
  H   H5846     1.0  0.86257  0.77353  0.42369  1.0000
  H   H5847     1.0  0.88391  0.74343  0.39963  1.0000
  H   H5848     1.0  0.87355  0.73884  0.42406  1.0000
  H   H5849     1.0  0.85546  0.77985  0.36472  1.0000
  H   H5850     1.0  0.87639  0.76654  0.37325  1.0000
  H   H5851     1.0  0.84113  0.79964  0.42268  1.0000
  H   H5852     1.0  0.81981  0.78979  0.42891  1.0000
  H   H5853     1.0  0.80669  0.76862  0.41780  1.0000
  H   H5854     1.0  0.81501  0.74680  0.40900  1.0000
  H   H5855     1.0  0.80481  0.75142  0.45064  1.0000
  H   H5856     1.0  0.79087  0.74319  0.43760  1.0000
  H   H5857     1.0  0.81327  0.72931  0.44217  1.0000
  H   H5858     1.0  0.89392  0.75837  0.43166  1.0000
  H   H5859     1.0  0.90732  0.73910  0.42035  1.0000
  H   H5860     1.0  0.90460  0.76271  0.40704  1.0000
  H   H5861     1.0  0.85243  0.75203  0.35152  1.0000
  H   H5862     1.0  0.87473  0.75989  0.34232  1.0000
  H   H5863     1.0  0.87365  0.73904  0.36000  1.0000
  H   H5864     1.0  0.82618  0.82531  0.39974  1.0000
  H   H5865     1.0  0.80473  0.81522  0.40601  1.0000
  H   H5866     1.0  0.81281  0.82427  0.42324  1.0000
  C   C3311     1.0  0.84648  0.63200  0.42797  1.0000
  C   C3312     1.0  0.85611  0.61372  0.42028  1.0000
  C   C3313     1.0  0.88006  0.64749  0.43592  1.0000
  C   C3314     1.0  0.85016  0.59638  0.43379  1.0000
  H   H5867     1.0  0.88247  0.63802  0.40959  1.0000
  H   H5868     1.0  0.84800  0.62990  0.44292  1.0000
  H   H5869     1.0  0.83110  0.63292  0.42847  1.0000
  H   H5870     1.0  0.87170  0.61184  0.41832  1.0000
  H   H5871     1.0  0.85170  0.61394  0.40674  1.0000
  H   H5872     1.0  0.87500  0.63557  0.44620  1.0000
  H   H5873     1.0  0.86973  0.63160  0.38572  1.0000
  H   H5874     1.0  0.83461  0.59723  0.43610  1.0000
  H   H5875     1.0  0.96492  0.68328  0.48769  1.0000
  C   C3315     1.0  0.94362  0.70913  0.48245  1.0000
  S   S744      1.0  0.77201  0.54413  0.35991  1.0000
  N   N182      1.0  0.77097  0.83365  0.53493  1.0000
  Fe  Fe374     1.0  0.88595  0.65284  0.30864  1.0000
  S   S745      1.0  0.76187  0.60271  0.49732  1.0000
  C   C3316     1.0  0.78363  0.83796  0.54664  1.0000
  C   C3317     1.0  0.74837  0.53854  0.55781  1.0000
  S   S746      1.0  0.75369  0.94389  0.60887  1.0000
  H   H5876     1.0  0.74223  0.71746  0.44940  1.0000
  N   N183      1.0  0.79962  0.52317  0.60693  1.0000
  H   H5877     1.0  0.79175  0.49049  0.31389  1.0000
  H   H5878     1.0  0.75259  0.76845  0.45875  1.0000
  H   H5879     1.0  0.95200  0.90230  0.61485  1.0000
  H   H5880     1.0  0.84567  0.66992  0.39255  1.0000
  C   C3318     1.0  0.79575  0.48092  0.30386  1.0000
  C   C3319     1.0  0.77791  0.56790  0.57392  1.0000
  H   H5881     1.0  0.74368  0.77321  0.52566  1.0000
  H   H5882     1.0  0.97860  0.86645  0.62985  1.0000
  H   H5883     1.0  0.96834  0.69733  0.51066  1.0000
  C   C3320     1.0  0.96630  0.89401  0.61588  1.0000
  H   H5884     1.0  0.77268  0.57719  0.58466  1.0000
  C   C3321     1.0  0.74211  0.72270  0.41984  1.0000
  H   H5885     1.0  0.82172  0.54922  0.61566  1.0000
  C   C3322     1.0  0.97686  0.70837  0.50330  1.0000
  C   C3323     1.0  0.73168  0.65303  0.41767  1.0000
  H   H5886     1.0  0.74224  0.54709  0.56856  1.0000
  C   C3324     1.0  0.81604  0.53833  0.62704  1.0000
  H   H5887     1.0  0.95771  0.65770  0.62706  1.0000
  H   H5888     1.0  0.73146  0.54627  0.47914  1.0000
  H   H5889     1.0  0.73264  0.69038  0.41537  1.0000
  C   C3325     1.0  0.84616  0.63122  0.29958  1.0000
  H   H5890     1.0  0.73925  0.56842  0.44105  1.0000
  C   C3326     1.0  0.73454  0.68181  0.46256  1.0000
  N   N184      1.0  0.73933  0.52933  0.45692  1.0000
  Fe  Fe375     1.0  0.73918  0.61841  0.48047  1.0000
  C   C3327     1.0  0.73566  0.68202  0.42912  1.0000
  H   H5891     1.0  0.74084  0.78984  0.46685  1.0000
  Fe  Fe376     1.0  0.76311  0.97174  0.60557  1.0000
  H   H5892     1.0  0.85607  0.47307  0.31987  1.0000
  H   H5893     1.0  0.76843  0.54462  0.62768  1.0000
  H   H5894     1.0  0.98060  0.74603  0.44812  1.0000
  H   H5895     1.0  0.73365  0.77639  0.43254  1.0000
  H   H5896     1.0  0.93340  0.69657  0.63114  1.0000
  H   H5897     1.0  0.94807  0.60163  0.29822  1.0000
  H   H5898     1.0  0.98079  0.70420  0.46553  1.0000
  Fe  Fe377     1.0  0.91769  0.67603  0.29840  1.0000
  H   H5899     1.0  0.84685  0.64584  0.29911  1.0000
  S   S747      1.0  0.88353  0.47595  0.69649  1.0000
  H   H5900     1.0  0.79575  0.55692  0.86238  1.0000
  S   S748      1.0  0.88981  0.93268  0.69942  1.0000
  H   H5901     1.0  0.73709  0.93184  0.84108  1.0000
  S   S749      1.0  0.96327  0.61692  0.74025  1.0000
  H   H5902     1.0  0.95722  0.96071  0.74034  1.0000
  H   H5903     1.0  0.96047  0.62548  0.68650  1.0000
  H   H5904     1.0  0.86257  0.67524  0.95490  1.0000
  H   H5905     1.0  0.93024  0.88589  0.64540  1.0000
  S   S750      1.0  0.93967  0.57769  0.73204  1.0000
  N   N185      1.0  0.75831  0.93770  0.68186  1.0000
  S   S751      1.0  0.95506  0.69920  0.88454  1.0000
  H   H5906     1.0  0.93862  0.82091  0.67509  1.0000
  C   C3328     1.0  0.89873  0.49662  0.81677  1.0000
  C   C3329     1.0  0.86514  0.63938  0.95759  1.0000
  C   C3330     1.0  0.95066  0.53682  0.77533  1.0000
  H   H5907     1.0  0.78646  0.95289  0.69376  1.0000
  H   H5908     1.0  0.77099  0.58538  0.86562  1.0000
  H   H5909     1.0  0.83207  0.52316  0.81547  1.0000
  H   H5910     1.0  0.75696  0.91175  0.90521  1.0000
  H   H5911     1.0  0.93784  0.68715  0.68371  1.0000
  C   C3331     1.0  0.82925  0.53287  0.64154  1.0000
  Fe  Fe378     1.0  0.88822  0.49031  0.71916  1.0000
  S   S752      1.0  0.91420  0.50454  0.71638  1.0000
  H   H5912     1.0  0.76745  0.92275  0.64792  1.0000
  C   C3332     1.0  0.78936  0.49211  0.78394  1.0000
  H   H5913     1.0  0.76224  0.51546  0.90689  1.0000
  S   S753      1.0  0.85707  0.50048  0.72805  1.0000
  H   H5914     1.0  0.94074  0.83521  0.69140  1.0000
  H   H5915     1.0  0.78897  0.96826  0.89541  1.0000
  C   C3333     1.0  0.93821  0.65027  0.68609  1.0000
  C   C3334     1.0  0.94714  0.84777  0.66182  1.0000
  C   C3335     1.0  0.77716  0.93464  0.66895  1.0000
  H   H5916     1.0  0.77999  0.52767  0.64518  1.0000
  H   H5917     1.0  0.94540  0.65689  0.69419  1.0000
  H   H5918     1.0  0.77649  0.53119  0.92590  1.0000
  H   H5919     1.0  0.95900  0.68525  0.66706  1.0000
  H   H5920     1.0  0.74519  0.53260  0.65386  1.0000
  H   H5921     1.0  0.73696  0.53240  0.81478  1.0000
  H   H5922     1.0  0.76566  0.56276  0.84763  1.0000
  N   N186      1.0  0.95889  0.87993  0.65127  1.0000
  H   H5923     1.0  0.90161  0.68041  0.91564  1.0000
  H   H5924     1.0  0.90503  0.67586  0.63893  1.0000
  H   H5925     1.0  0.74026  0.92515  0.66998  1.0000
  H   H5926     1.0  0.79547  0.67940  0.96422  1.0000
  H   H5927     1.0  0.76570  0.55646  0.81732  1.0000
  C   C3336     1.0  0.75268  0.55361  0.92956  1.0000
  H   H5928     1.0  0.78390  0.49347  0.84714  1.0000
  C   C3337     1.0  0.85936  0.68042  0.92557  1.0000
  H   H5929     1.0  0.87659  0.69122  0.65846  1.0000
  C   C3338     1.0  0.75452  0.52822  0.91177  1.0000
  C   C3339     1.0  0.76256  0.53717  0.92264  1.0000
  S   S754      1.0  0.84257  0.95781  0.71911  1.0000
  S   S755      1.0  0.74950  0.47756  0.86896  1.0000
  H   H5930     1.0  0.80759  0.48496  0.87873  1.0000
  H   H5931     1.0  0.76942  0.51793  0.82992  1.0000
  C   C3340     1.0  0.74812  0.92173  0.68200  1.0000
  H   H5932     1.0  0.95958  0.69919  0.78929  1.0000
  C   C3341     1.0  0.94349  0.68974  0.66838  1.0000
  C   C3342     1.0  0.94337  0.70651  0.90609  1.0000
  C   C3343     1.0  0.95322  0.70943  0.91924  1.0000
  C   C3344     1.0  0.94335  0.71412  0.93664  1.0000
  C   C3345     1.0  0.92357  0.71573  0.94119  1.0000
  C   C3346     1.0  0.91367  0.71325  0.92786  1.0000
  C   C3347     1.0  0.92355  0.70873  0.91038  1.0000
  H   H5933     1.0  0.96849  0.70762  0.91620  1.0000
  H   H5934     1.0  0.95115  0.71610  0.94681  1.0000
  H   H5935     1.0  0.89844  0.71487  0.93101  1.0000
  H   H5936     1.0  0.91583  0.70691  0.90009  1.0000
  H   H5937     1.0  0.75066  0.93433  0.80278  1.0000
  H   H5938     1.0  0.94707  0.71762  0.68709  1.0000
  S   S756      1.0  0.74570  0.61767  0.95699  1.0000
  H   H5939     1.0  0.73843  0.95208  0.77462  1.0000
  H   H5940     1.0  0.77990  0.50079  0.77486  1.0000
  H   H5941     1.0  0.90665  0.67712  0.94838  1.0000
  H   H5942     1.0  0.88972  0.49552  0.75972  1.0000
  C   C3348     1.0  0.93305  0.55752  0.72675  1.0000
  C   C3349     1.0  0.91370  0.55690  0.72832  1.0000
  C   C3350     1.0  0.90764  0.54104  0.72496  1.0000
  C   C3351     1.0  0.92086  0.52543  0.72003  1.0000
  C   C3352     1.0  0.94020  0.52612  0.71827  1.0000
  C   C3353     1.0  0.94627  0.54200  0.72159  1.0000
  H   H5943     1.0  0.90330  0.56880  0.73222  1.0000
  H   H5944     1.0  0.89274  0.54091  0.72618  1.0000
  H   H5945     1.0  0.95061  0.51422  0.71438  1.0000
  H   H5946     1.0  0.96118  0.54216  0.72029  1.0000
  Fe  Fe379     1.0  0.85242  0.48385  0.70725  1.0000
  H   H5947     1.0  0.73574  0.97165  0.91204  1.0000
  H   H5948     1.0  0.83200  0.69520  0.91923  1.0000
  C   C3354     1.0  0.73630  0.48112  0.69755  1.0000
  H   H5949     1.0  0.74919  0.49173  0.95823  1.0000
  H   H5950     1.0  0.80683  0.49950  0.84607  1.0000
  C   C3355     1.0  0.94304  0.65771  0.66468  1.0000
  H   H5951     1.0  0.75480  0.50865  0.65078  1.0000
  C   C3356     1.0  0.77146  0.52951  0.63395  1.0000
  C   C3357     1.0  0.77198  0.57336  0.87749  1.0000
  N   N187      1.0  0.93562  0.67825  0.65804  1.0000
  S   S757      1.0  0.82882  0.49495  0.68999  1.0000
  H   H5952     1.0  0.84359  0.52640  0.63522  1.0000
  H   H5953     1.0  0.93704  0.79872  0.86991  1.0000
  N   N188      1.0  0.88879  0.66191  0.93949  1.0000
  C   C3358     1.0  0.91322  0.92214  0.70237  1.0000
  C   C3359     1.0  0.91860  0.90249  0.70350  1.0000
  C   C3360     1.0  0.93711  0.89351  0.70575  1.0000
  C   C3361     1.0  0.95045  0.90416  0.70676  1.0000
  C   C3362     1.0  0.94517  0.92384  0.70520  1.0000
  C   C3363     1.0  0.92662  0.93279  0.70317  1.0000
  H   H5954     1.0  0.90831  0.89417  0.70282  1.0000
  H   H5955     1.0  0.94093  0.87836  0.70705  1.0000
  H   H5956     1.0  0.95547  0.93222  0.70573  1.0000
  H   H5957     1.0  0.92275  0.94794  0.70205  1.0000
  C   C3364     1.0  0.74790  0.54136  0.80868  1.0000
  H   H5958     1.0  0.94283  0.54538  0.78615  1.0000
  H   H5959     1.0  0.96613  0.71669  0.66709  1.0000
  H   H5960     1.0  0.96263  0.77177  0.78369  1.0000
  H   H5961     1.0  0.77086  0.94685  0.64076  1.0000
  H   H5962     1.0  0.76355  0.95018  0.73373  1.0000
  H   H5963     1.0  0.87642  0.69112  0.94001  1.0000
  H   H5964     1.0  0.96167  0.82303  0.67831  1.0000
  H   H5965     1.0  0.96787  0.93830  0.73336  1.0000
  H   H5966     1.0  0.92365  0.76269  0.84821  1.0000
  C   C3365     1.0  0.79452  0.47418  0.81438  1.0000
  H   H5967     1.0  0.79636  0.49717  0.67301  1.0000
  C   C3366     1.0  0.89967  0.66542  0.91967  1.0000
  H   H5968     1.0  0.78669  0.93705  0.72636  1.0000
  H   H5969     1.0  0.92924  0.75091  0.89869  1.0000
  H   H5970     1.0  0.78487  0.94651  0.66739  1.0000
  C   C3367     1.0  0.91953  0.65318  0.91585  1.0000
  C   C3368     1.0  0.93870  0.78688  0.86209  1.0000
  H   H5971     1.0  0.88294  0.47367  0.82913  1.0000
  S   S758      1.0  0.74255  0.94524  0.88099  1.0000
  H   H5972     1.0  0.77041  0.51366  0.87257  1.0000
  C   C3369     1.0  0.91397  0.91992  0.65227  1.0000
  H   H5973     1.0  0.75757  0.57208  0.88547  1.0000
  H   H5974     1.0  0.96760  0.89217  0.67159  1.0000
  C   C3370     1.0  0.79619  0.92633  0.63796  1.0000
  C   C3371     1.0  0.80275  0.47468  0.65674  1.0000
  C   C3372     1.0  0.89384  0.76732  0.90721  1.0000
  H   H5975     1.0  0.89150  0.66316  0.90943  1.0000
  H   H5976     1.0  0.88174  0.63846  0.93019  1.0000
  H   H5977     1.0  0.78395  0.48004  0.88179  1.0000
  C   C3373     1.0  0.96005  0.86107  0.66423  1.0000
  H   H5978     1.0  0.73974  0.49064  0.70570  1.0000
  Fe  Fe380     1.0  0.96719  0.58754  0.73345  1.0000
  C   C3374     1.0  0.94682  0.80983  0.83188  1.0000
  H   H5979     1.0  0.91901  0.63804  0.92132  1.0000
  H   H5980     1.0  0.92963  0.65772  0.92260  1.0000
  C   C3375     1.0  0.92835  0.76608  0.89209  1.0000
  H   H5981     1.0  0.94122  0.62400  0.70599  1.0000
  H   H5982     1.0  0.82507  0.52476  0.79313  1.0000
  H   H5983     1.0  0.76523  0.95796  0.92207  1.0000
  H   H5984     1.0  0.90784  0.65623  0.65813  1.0000
  H   H5985     1.0  0.80840  0.53466  0.84156  1.0000
  C   C3376     1.0  0.78339  0.51645  0.86225  1.0000
  H   H5986     1.0  0.95425  0.77990  0.83485  1.0000
  H   H5987     1.0  0.97637  0.76646  0.67391  1.0000
  H   H5988     1.0  0.92486  0.78826  0.85774  1.0000
  H   H5989     1.0  0.73249  0.49689  0.93103  1.0000
  Fe  Fe381     1.0  0.85699  0.47298  0.74812  1.0000
  H   H5990     1.0  0.96964  0.73873  0.89343  1.0000
  H   H5991     1.0  0.90373  0.77013  0.87751  1.0000
  N   N189      1.0  0.91681  0.50016  0.78232  1.0000
  H   H5992     1.0  0.82362  0.52271  0.65372  1.0000
  C   C3377     1.0  0.92880  0.48902  0.76759  1.0000
  C   C3378     1.0  0.92881  0.51257  0.78667  1.0000
  C   C3379     1.0  0.90002  0.51279  0.77488  1.0000
  C   C3380     1.0  0.88445  0.50297  0.77188  1.0000
  H   H5993     1.0  0.76765  0.96778  0.88732  1.0000
  C   C3381     1.0  0.93750  0.52623  0.76962  1.0000
  C   C3382     1.0  0.74191  0.96026  0.78410  1.0000
  C   C3383     1.0  0.94706  0.83072  0.67766  1.0000
  C   C3384     1.0  0.86706  0.51742  0.76743  1.0000
  N   N190      1.0  0.77853  0.53344  0.84755  1.0000
  H   H5994     1.0  0.96725  0.79079  0.84659  1.0000
  H   H5995     1.0  0.79340  0.51910  0.87041  1.0000
  H   H5996     1.0  0.92814  0.49729  0.75320  1.0000
  H   H5997     1.0  0.88357  0.48901  0.84503  1.0000
  H   H5998     1.0  0.94061  0.50371  0.79354  1.0000
  H   H5999     1.0  0.92045  0.52170  0.79681  1.0000
  H   H6000     1.0  0.89338  0.52346  0.78406  1.0000
  H   H6001     1.0  0.90466  0.52123  0.76098  1.0000
  Fe  Fe382     1.0  0.75456  0.58599  0.96358  1.0000
  C   C3385     1.0  0.73596  0.90813  0.93033  1.0000
  H   H6002     1.0  0.90694  0.50488  0.82203  1.0000
  H   H6003     1.0  0.88598  0.50609  0.81236  1.0000
  H   H6004     1.0  0.92621  0.53697  0.76384  1.0000
  H   H6005     1.0  0.94584  0.51864  0.75828  1.0000
  H   H6006     1.0  0.93149  0.88542  0.66918  1.0000
  H   H6007     1.0  0.95883  0.84705  0.76110  1.0000
  C   C3386     1.0  0.95910  0.94520  0.74508  1.0000
  H   H6008     1.0  0.94586  0.82140  0.83977  1.0000
  C   C3387     1.0  0.95306  0.79072  0.84366  1.0000
  H   H6009     1.0  0.86140  0.52578  0.77889  1.0000
  H   H6010     1.0  0.87062  0.52705  0.75398  1.0000
  H   H6011     1.0  0.85582  0.51001  0.76605  1.0000
  H   H6012     1.0  0.96263  0.52685  0.78081  1.0000
  H   H6013     1.0  0.93231  0.85499  0.66185  1.0000
  C   C3388     1.0  0.73425  0.91552  0.70015  1.0000
  H   H6014     1.0  0.74335  0.52482  0.63279  1.0000
  N   N191      1.0  0.92415  0.90892  0.76461  1.0000
  C   C3389     1.0  0.90741  0.92094  0.75651  1.0000
  C   C3390     1.0  0.94194  0.91718  0.75620  1.0000
  C   C3391     1.0  0.92688  0.88971  0.75917  1.0000
  C   C3392     1.0  0.92086  0.90635  0.78579  1.0000
  C   C3393     1.0  0.91572  0.92457  0.79443  1.0000
  C   C3394     1.0  0.88827  0.91384  0.76343  1.0000
  C   C3395     1.0  0.94478  0.87558  0.76413  1.0000
  C   C3396     1.0  0.93982  0.93897  0.75061  1.0000
  C   C3397     1.0  0.75527  0.54712  0.82418  1.0000
  C   C3398     1.0  0.91047  0.92006  0.81583  1.0000
  C   C3399     1.0  0.87222  0.92825  0.75587  1.0000
  C   C3400     1.0  0.94650  0.85730  0.75665  1.0000
  H   H6015     1.0  0.91039  0.92232  0.74092  1.0000
  H   H6016     1.0  0.90501  0.93558  0.75921  1.0000
  H   H6017     1.0  0.95259  0.91231  0.76573  1.0000
  H   H6018     1.0  0.94893  0.91182  0.74298  1.0000
  H   H6019     1.0  0.92733  0.89125  0.74376  1.0000
  H   H6020     1.0  0.91469  0.88251  0.76603  1.0000
  H   H6021     1.0  0.90974  0.89755  0.79202  1.0000
  H   H6022     1.0  0.93373  0.89820  0.79123  1.0000
  H   H6023     1.0  0.90352  0.93428  0.78918  1.0000
  H   H6024     1.0  0.92808  0.93186  0.79126  1.0000
  H   H6025     1.0  0.88863  0.90057  0.75835  1.0000
  H   H6026     1.0  0.88462  0.91145  0.77898  1.0000
  H   H6027     1.0  0.94407  0.87182  0.77958  1.0000
  H   H6028     1.0  0.95792  0.88139  0.75792  1.0000
  H   H6029     1.0  0.93251  0.94387  0.73825  1.0000
  C   C3401     1.0  0.90755  0.77414  0.88967  1.0000
  H   H6030     1.0  0.94401  0.48649  0.76892  1.0000
  C   C3402     1.0  0.93494  0.91183  0.65186  1.0000
  H   H6031     1.0  0.93292  0.81037  0.82788  1.0000
  H   H6032     1.0  0.92237  0.91063  0.82201  1.0000
  H   H6033     1.0  0.90724  0.93331  0.82172  1.0000
  H   H6034     1.0  0.89776  0.91318  0.81994  1.0000
  H   H6035     1.0  0.85867  0.92288  0.76080  1.0000
  H   H6036     1.0  0.87073  0.94174  0.76097  1.0000
  H   H6037     1.0  0.87491  0.93090  0.74026  1.0000
  C   C3403     1.0  0.82105  0.47640  0.78825  1.0000
  H   H6038     1.0  0.93367  0.85078  0.76223  1.0000
  H   H6039     1.0  0.94867  0.86009  0.74103  1.0000
  C   C3404     1.0  0.96810  0.70863  0.79240  1.0000
  C   C3405     1.0  0.75466  0.69181  0.94809  1.0000
  S   S759      1.0  0.97636  0.83845  0.70869  1.0000
  C   C3406     1.0  0.84018  0.69256  0.93087  1.0000
  H   H6040     1.0  0.75845  0.90864  0.67964  1.0000
  C   C3407     1.0  0.73468  0.56111  0.92518  1.0000
  H   H6041     1.0  0.86645  0.68784  0.91209  1.0000
  C   C3408     1.0  0.75644  0.94713  0.79513  1.0000
  H   H6042     1.0  0.93814  0.64838  0.65739  1.0000
  H   H6043     1.0  0.76372  0.69219  0.93400  1.0000
  C   C3409     1.0  0.93611  0.73511  0.84280  1.0000
  H   H6044     1.0  0.75980  0.95430  0.80559  1.0000
  C   C3410     1.0  0.76387  0.52981  0.83773  1.0000
  C   C3411     1.0  0.77674  0.95042  0.72321  1.0000
  S   S760      1.0  0.97944  0.75505  0.63836  1.0000
  C   C3412     1.0  0.82400  0.48087  0.67540  1.0000
  C   C3413     1.0  0.79298  0.49789  0.85508  1.0000
  C   C3414     1.0  0.76946  0.54974  0.85779  1.0000
  H   H6045     1.0  0.77086  0.92345  0.70610  1.0000
  C   C3415     1.0  0.80671  0.48538  0.66877  1.0000
  H   H6046     1.0  0.95055  0.73843  0.87427  1.0000
  S   S761      1.0  0.76347  0.56381  0.94379  1.0000
  H   H6047     1.0  0.78638  0.92176  0.67508  1.0000
  H   H6048     1.0  0.78302  0.54405  0.88290  1.0000
  H   H6049     1.0  0.84195  0.70635  0.93355  1.0000
  H   H6050     1.0  0.82352  0.54600  0.80236  1.0000
  H   H6051     1.0  0.90944  0.69797  0.65705  1.0000
  H   H6052     1.0  0.96667  0.94155  0.75726  1.0000
  H   H6053     1.0  0.96107  0.78228  0.88588  1.0000
  H   H6054     1.0  0.78347  0.96222  0.72442  1.0000
  H   H6055     1.0  0.94668  0.74006  0.83065  1.0000
  H   H6056     1.0  0.87910  0.77382  0.90548  1.0000
  H   H6057     1.0  0.94214  0.72112  0.85018  1.0000
  H   H6058     1.0  0.92364  0.73346  0.83737  1.0000
  C   C3416     1.0  0.93954  0.71149  0.66211  1.0000
  H   H6059     1.0  0.90521  0.78979  0.88757  1.0000
  H   H6060     1.0  0.95698  0.68755  0.63478  1.0000
  C   C3417     1.0  0.77646  0.93289  0.64850  1.0000
  H   H6061     1.0  0.90952  0.68130  0.67800  1.0000
  C   C3418     1.0  0.74324  0.91751  0.91241  1.0000
  S   S762      1.0  0.97364  0.80168  0.75449  1.0000
  H   H6062     1.0  0.87933  0.67149  0.67758  1.0000
  H   H6063     1.0  0.93154  0.94635  0.76208  1.0000
  H   H6064     1.0  0.91923  0.74381  0.86778  1.0000
  H   H6065     1.0  0.95869  0.65502  0.66076  1.0000
  C   C3419     1.0  0.94490  0.62898  0.69062  1.0000
  H   H6066     1.0  0.91426  0.65224  0.95176  1.0000
  H   H6067     1.0  0.74910  0.93846  0.71171  1.0000
  H   H6068     1.0  0.89500  0.75175  0.90941  1.0000
  H   H6069     1.0  0.92433  0.71714  0.66614  1.0000
  C   C3420     1.0  0.93854  0.88997  0.65449  1.0000
  C   C3421     1.0  0.97377  0.77685  0.78771  1.0000
  H   H6070     1.0  0.83044  0.54559  0.64680  1.0000
  S   S763      1.0  0.75765  0.49118  0.81081  1.0000
  C   C3422     1.0  0.94689  0.75181  0.86464  1.0000
  C   C3423     1.0  0.87179  0.67741  0.94094  1.0000
  H   H6071     1.0  0.93798  0.62132  0.68324  1.0000
  C   C3424     1.0  0.91099  0.48710  0.80035  1.0000
  H   H6072     1.0  0.95649  0.54653  0.76283  1.0000
  H   H6073     1.0  0.75574  0.96769  0.67214  1.0000
  C   C3425     1.0  0.73653  0.53577  0.90732  1.0000
  H   H6074     1.0  0.92277  0.65303  0.69118  1.0000
  C   C3426     1.0  0.88212  0.67592  0.66206  1.0000
  N   N192      1.0  0.94356  0.76830  0.87483  1.0000
  H   H6075     1.0  0.73150  0.88940  0.69218  1.0000
  H   H6076     1.0  0.74148  0.55412  0.79969  1.0000
  H   H6077     1.0  0.92827  0.67047  0.88882  1.0000
  H   H6078     1.0  0.83198  0.68522  0.94362  1.0000
  C   C3427     1.0  0.76230  0.93734  0.70123  1.0000
  H   H6079     1.0  0.74455  0.95621  0.65994  1.0000
  H   H6080     1.0  0.78936  0.47809  0.65194  1.0000
  H   H6081     1.0  0.80934  0.96185  0.80611  1.0000
  C   C3428     1.0  0.79608  0.53827  0.83406  1.0000
  C   C3429     1.0  0.74729  0.95638  0.67418  1.0000
  H   H6082     1.0  0.94363  0.71574  0.64672  1.0000
  H   H6083     1.0  0.81407  0.49292  0.76216  1.0000
  H   H6084     1.0  0.95650  0.75273  0.91047  1.0000
  C   C3430     1.0  0.77263  0.95304  0.70326  1.0000
  C   C3431     1.0  0.88356  0.64246  0.94338  1.0000
  S   S764      1.0  0.98109  0.61259  0.78913  1.0000
  H   H6085     1.0  0.80193  0.91178  0.64435  1.0000
  C   C3432     1.0  0.78218  0.48542  0.80278  1.0000
  C   C3433     1.0  0.80871  0.48764  0.77670  1.0000
  C   C3434     1.0  0.97184  0.89080  0.65647  1.0000
  H   H6086     1.0  0.97460  0.85286  0.66230  1.0000
  H   H6087     1.0  0.90535  0.91352  0.66534  1.0000
  C   C3435     1.0  0.93008  0.74933  0.85625  1.0000
  Fe  Fe383     1.0  0.87272  0.96082  0.70652  1.0000
  S   S765      1.0  0.91205  0.72105  0.96359  1.0000
  H   H6088     1.0  0.95956  0.75227  0.85337  1.0000
  C   C3436     1.0  0.94265  0.68368  0.63717  1.0000
  H   H6089     1.0  0.85250  0.64710  0.95154  1.0000
  C   C3437     1.0  0.78148  0.55506  0.87029  1.0000
  H   H6090     1.0  0.94200  0.64717  0.89254  1.0000
  H   H6091     1.0  0.97491  0.70110  0.80461  1.0000
  H   H6092     1.0  0.75586  0.54684  0.86695  1.0000
  H   H6093     1.0  0.93071  0.77342  0.90298  1.0000
  C   C3438     1.0  0.79703  0.48193  0.87144  1.0000
  C   C3439     1.0  0.73861  0.70877  0.94775  1.0000
  Fe  Fe384     1.0  0.74077  0.48565  0.84038  1.0000
  H   H6094     1.0  0.89683  0.77132  0.91988  1.0000
  H   H6095     1.0  0.76260  0.48254  0.67799  1.0000
  C   C3440     1.0  0.91437  0.68287  0.66252  1.0000
  C   C3441     1.0  0.95069  0.72112  0.67153  1.0000
  H   H6096     1.0  0.76357  0.69205  0.95847  1.0000
  H   H6097     1.0  0.85699  0.66680  0.92307  1.0000
  H   H6098     1.0  0.95851  0.72159  0.79616  1.0000
  H   H6099     1.0  0.74404  0.89530  0.93681  1.0000
  H   H6100     1.0  0.92381  0.47831  0.80551  1.0000
  C   C3442     1.0  0.96743  0.75270  0.89761  1.0000
  S   S766      1.0  0.83408  0.96794  0.77048  1.0000
  H   H6101     1.0  0.80057  0.51407  0.81868  1.0000
  S   S767      1.0  0.97359  0.89366  0.71075  1.0000
  C   C3443     1.0  0.92748  0.65544  0.89480  1.0000
  H   H6102     1.0  0.74236  0.90786  0.71142  1.0000
  C   C3444     1.0  0.82184  0.53095  0.80620  1.0000
  H   H6103     1.0  0.79466  0.55378  0.82904  1.0000
  H   H6104     1.0  0.97480  0.75615  0.81315  1.0000
  H   H6105     1.0  0.97052  0.90546  0.64869  1.0000
  H   H6106     1.0  0.87965  0.49287  0.78446  1.0000
  C   C3445     1.0  0.73294  0.93419  0.90374  1.0000
  H   H6107     1.0  0.95674  0.86324  0.67915  1.0000
  H   H6108     1.0  0.93942  0.91631  0.66352  1.0000
  H   H6109     1.0  0.79217  0.53635  0.80573  1.0000
  C   C3446     1.0  0.80165  0.52918  0.81594  1.0000
  C   C3447     1.0  0.89201  0.48189  0.83334  1.0000
  C   C3448     1.0  0.90147  0.66337  0.95266  1.0000
  H   H6110     1.0  0.74897  0.67840  0.95181  1.0000
  H   H6111     1.0  0.97392  0.76763  0.86943  1.0000
  H   H6112     1.0  0.73936  0.48427  0.76853  1.0000
  H   H6113     1.0  0.76388  0.93801  0.96084  1.0000
  H   H6114     1.0  0.76385  0.96716  0.70023  1.0000
  H   H6115     1.0  0.86344  0.61295  0.94956  1.0000
  H   H6116     1.0  0.76968  0.94269  0.78551  1.0000
  H   H6117     1.0  0.90294  0.47687  0.79798  1.0000
  H   H6118     1.0  0.89539  0.63170  0.94832  1.0000
  H   H6119     1.0  0.90913  0.91727  0.63991  1.0000
  H   H6120     1.0  0.87441  0.66804  0.65572  1.0000
  C   C3449     1.0  0.90327  0.67165  0.65444  1.0000
  C   C3450     1.0  0.96176  0.76862  0.88127  1.0000
  H   H6121     1.0  0.75190  0.52501  0.84834  1.0000
  H   H6122     1.0  0.78036  0.57636  0.88711  1.0000
  C   C3451     1.0  0.73353  0.49385  0.96090  1.0000
  H   H6123     1.0  0.97550  0.72012  0.76331  1.0000
  H   H6124     1.0  0.87845  0.97116  0.77371  1.0000
  H   H6125     1.0  0.91856  0.65026  0.88720  1.0000
  H   H6126     1.0  0.74493  0.72172  0.94324  1.0000
  S   S768      1.0  0.75908  0.47396  0.63256  1.0000
  H   H6127     1.0  0.73940  0.94711  0.94018  1.0000
  H   H6128     1.0  0.94728  0.73665  0.66724  1.0000
  H   H6129     1.0  0.95736  0.81199  0.81878  1.0000
  H   H6130     1.0  0.79684  0.48417  0.72546  1.0000
  H   H6131     1.0  0.75961  0.53346  0.79969  1.0000
  H   H6132     1.0  0.95245  0.84233  0.64839  1.0000
  H   H6133     1.0  0.94870  0.76338  0.95150  1.0000
  H   H6134     1.0  0.74325  0.55561  0.83233  1.0000
  C   C3452     1.0  0.98066  0.76797  0.80435  1.0000
  C   C3453     1.0  0.86335  0.61854  0.96246  1.0000
  C   C3454     1.0  0.73618  0.95162  0.95409  1.0000
  H   H6135     1.0  0.73751  0.50152  0.74745  1.0000
  H   H6136     1.0  0.80597  0.93591  0.63818  1.0000
  H   H6137     1.0  0.76184  0.97182  0.76181  1.0000
  H   H6138     1.0  0.80212  0.54488  0.63400  1.0000
  H   H6139     1.0  0.97949  0.62698  0.82297  1.0000
  H   H6140     1.0  0.75601  0.52619  0.96317  1.0000
  C   C3455     1.0  0.75255  0.52348  0.64339  1.0000
  H   H6141     1.0  0.94278  0.91830  0.63842  1.0000
  H   H6142     1.0  0.91157  0.93538  0.65195  1.0000
  H   H6143     1.0  0.73407  0.47306  0.94365  1.0000
  H   H6144     1.0  0.74650  0.73911  0.96373  1.0000
  C   C3456     1.0  0.96488  0.87636  0.63133  1.0000
