data_image0
_chemical_formula_structural       H3CHFeS2HCSHSFeSFeSH3FeS2FeS2FeCFeS3HCH6CH2CHC6H5CFeH2C6H5C3H4C2SHCH2CH2CHCHNC11H13CH13CHNCHC2HCH2C3H2CSCH7CH2CH3NH2CHNC2H2S2C2HCH4C3H4CH5CH2CH2C2NHFeH2SCH2CHFeH5CHCHCHC3H5CH5C2H5C2HCSCH2C2HNCH2CH2CHFeSHCHC3H2CHSC2H4CFeS2H2C2HSCH4CH2SH3SFeS2H2FeCS2FeS2FeS2FeSFeS3H2CH4SFeS2HCH4C2HCHCFeC6H4C2H3C3H2C7H4CH3C6H5CHCHCN2CH3FeH2CH2CHCHCHNCH2CH12CHCHCH4CHC2HCH8FeCH3C3H2C2H15CH3CH5C2H3CH5CH3CH3NH3SHCH3NCH2CH4CH2C4H2CH2C2H2CHCH7C3HCHCHNH7CHCH3CH3C2HCHSC2H3CH3CHCSHCHCH3SHCH2CH2C2H3CHSCSFeS3FeS2FeS2FeSFeS3FeS2FeS2FeSFeS3HCH7CHC7H5C2H2CFeHC3H4C8H5CHCH5CHCFeH6CHSC2H3CH4CH3CH3CH6NHC4HC5SHNH6SH3CH2CH3FeH4FeH6C2H3CH5CHCH2CH2CNC12H28C3FeHC4HCHC2H2CHC2H6CH2CH3CNHSH2CH2C2H2CH2CHCH2CH2CH3CH3CH3CHNCH6C2HCH5C2HNH2SHCHFeS2FeS2C2HFeS2FeHSCHFeS3CSH2SHFeCFeS3H2CH4C5H4FeCNCH2CH3C6H6CHC3H2C2H4C2H2CH2C2H6CH2CHC2HCH4C2SH3CH2C2H7CH2CHCHCFeH3CHCHCHCHSH3CH4CH3C2H3CH2CHC2H4NH3C2HSH6CHC3HC2HCHCH3CH6CH3CNCH4CHCH3SH4C3HNC2HCH2C2H2FeH3SH4CH2CH2SCH2C2H3C3Fe2C2FeS2FeHFeHS2CHSFeS2FeS2FeSFeS4FeS2FeS2H10SHC6H5C2H3C7H5C6H4C6H4CH4C4HCHC4HCH6CHSH4FeCH3CH2C2HNC3H2CHC3H2CHC3H6SHC2H9CHCHCH5CNCH13NHC2HC3H8CH7C2H12CHCHFe2H4CHCH3C2H2NH2CH2C2HNC7H5SCFeHSHCH11FeS2FeS2FeSFeS3FeS2FeS2FeSFeS3FeCSH3CH3FeS2HCH4C4H2C6H6CHCH4C6H4C8H4C2HC2H2CHC2H4NC11H13CH15CHCH4CHCHCHCNC12H27CH3SCH2C3HCHCHCH2CHCHCHCH9C3HCH4CNH2C2H3CH4CH2CH2C2H5SHCHC3HC2H2C2HC2H6CH4CHC2H4CNH5NCSH3C2H2CHNHCHFeCH3C2NH2NSH3CHCH4FeH4CH7C4FeSCFeCSFeSH3CHCHC2SCSCH2CHC2HCH5C3SH2FeCH2CHCH4CHCHC3H2SH3SH4CH2CH10CH2NC4HSH2CH3CSHCHCH3SH2CHCH2CHCHCSCFeC2HCH3SH3FeS2HFeCFeS3CFeS2FeCFeHS2H4SHC2H6CH2C2H2FeC6H4CNCHC3H2CH3CHC2H4CH5CHNC5HC6HCH7C2H8C2HS2CH9CHFeH2CH2CHCH3SCH2C2FeS2FeS2FeSFeS3FeS2FeSCFeSFeS3C3H3CH2CHC2HCH2C6H5CSH8CHCHCH2C2HN2H2C2H2CH4C2H3CH3CH5C3H2CH3CSCHNC12H22C2H2CH3CH2C3H2CH9CN2CHC2H4C4HCHCH3CHCSC3H2CH4C2H2CH5CH3CH2CFeS2HC3SHFeS2H3CH4C4HFeHC2HC2HC4H4C2HC2SC3H4C2HNC11NH25CH4C2H2C2HSH4FeH5SHCHCHSCSHC3HC2H5NH5CHC2H2CHCH4SCH4CH3CH3S2HCH7CHCH2CH3CHFeHCHFeS2FeSFeS3FeS2FeSFeS3FeCSFeS2H3CH3SH2C6H6C6H4C6H3CHCHCHSCH5SH2NH4CH4SH2SH7CHCH7NC7H6CH7C2NCHC3H2CSCFe2CH6CHCHCHCH2SCHCH8CHCHCH4CHC2FeHCSH2SCH2CH4CHCHCHCH2CH4NC3HC2H2CHCFeCH2CHC4H6C2H2CH3FeS2FeS2FeSFeS3FeS2FeS2FeSFeS3C2SFeH5C7HCHC3H2C6H4C6H4C3HC4HC3H4SHCH6CH9C3H7CHCH7CHC3H2CHCHCH8CH4SH2CH3CH2CSH2CH3NHCHNC3NC12H18NH3CH10CHCHCH3C3H3CFeH8CH2CHCH3CH2CH4CH3C2H2C2H2CHFeCFeS2Fe2S2HSCSFeSFeS2C6H2C8H7C3H2C4H5C2H5SH2CH2C3H2CH4CH2CH3CH2CHC2FeH3CH2CH6FeH2CH2CH2CH3C2SH10CHCH9CHC3HNHNH10C2H2CH2C3HCHC2H4CHCHC2H3C5H3NC2H4CHCH10CH3C5H2C2H3CSH4C2HCSHC2HCH3CH3NH2SH7CHS2HC2HSCH5CH9CH4SH2C2HS2CH3C6H7CNC6HC5H12C2H12C2HCSHCNCH3CHSH2CHC2HC4FeC2H3SHCFeSH3NC7SCH3CHCH5CH3CHC2H2CHCH2C2HCNH4FeCHCHCH3SCHCH5CHCHCH3CH2FeCFeHSH7CHSH2SCHC3SH2C2H4SFeCH3CHSCHC2H2CHCSHCHCH2FeSH7CH2CH5CHNH4C2H4NH3CHC3H3C2HC2H2C2H5SH7CHC2HCFeHCHCH3CH3CH4C2H2C2H2CHFeH5C4SH3NH2C2HC3H4C2SH5CH3C3SHC3H2C2HCH3FeCH2CHCH3CHNH3CH2CH2SCSFeSFeSCHSHSFeSFeSH3C6H4C5H5CH2C4H3C6H3CNCNH9SCHNC3H5CHCH4CH11CHNH5C3H2C3H3C2H3C2HCHC4HCH5CHCHCHC2H6C2HC2HC2H2SH4CHCHSH4CH3CHFeCH3CNH2CHCH3CH11SHCH6CSHCH2FeSHCHC2HC2HFeH2FeHCH14CHCH5CH2CH2CH2SHCH3SCHC6H5C2H2C2H3CH10C2H3CHCH3CH3CHCHNCHC2SCSCNCH3CH4FeH8CH2CH4CH6CH2CH2NH2CH3CH2C2H3CH2CH2CHC2H2CH5CHFeSH5CHCHCH6CHCHC2H3SH2SH2CH3SHCHC3HCH4CHSHFeS2CSHSH2FeS2H2Fe2S2FeS2FeSFeHS2HC4H4C6H7C6H4CH7CH2CHCHFeHCH3CH8SCFeH3FeH3CSH3CHCHSH6CH4CH2CH3CHC2SH3CHC3HNH2NC2H2CHC2HC3H9CHC2HC3H2SNH2NH3CH2CH2C2HCH5C3H3CHCH5CHCHC2H2CHCH2C2FeCH4CH3CHCH3C2H2CH3CH2NCH2CFeSHC3HCHNHC6H3SH2CH3CSHC2HCSH4SCFeS2FeS2FeS2FeSFeS3FeS2HC4HC3HCH5C6H4C2H5CH3C6H5NC8H9NC5NCH2CHCH4CH5CSH5CH4CH3CH2C3H2C3HCH4CH3CH4CH2C2H3CH3CHCH2FeH2CH5CH2NH5C2H4CH2CH2CH4CHC2HCH2CHCH2C2HCHCH6NCH6C2HFeHCH2CHCH2CH4SH4CH2C2H2C2H2C2H3SH4CH5SH2CH6CHCH3SHCHNHFeCSH2CH2FeC2NH3CFeS3HSC4FeS2FeS2FeSFeS3FeSHFeS2FeSFeS3C3HC2H3C6H4CHFeH4SHC3H5C6H4CH2C4H3C2HCH9C4NHC2H2CHS2H5NCH2C2H3CH2CHCHCHCNC11H7CH12C2H4FeHCH3CHFeHCH6CH7CH3CSCH5CH3C4HC2HCH10C2H6CH3SH4CFeHSH3FeSCH3SHSC2SHCHFeSCFeS2FeS2FeHFeS3H2CH3C3H2C6H9C3HCH2CH3C6H4CHC7HCH3CHCH5FeH3C2NHCHC2HC2HCHCHCH2CH2NH7CHSHSCH2CH5NSHCH2C2HCH2C2H2NH3CHCH10CHC2H10CH3NC8SC3H17CH10NC4H5CFeSCHCH5C2H8CH2C2HFeS2FeH2SH2FeS2FeS2FeSFeS3FeS2H2CFeS2H4NCH3CSC7H8CSC6H4C6H4C7H3C2FeNC12H30C2NC4FeNHCH4C2H2CH7SH2SC5HCH3C2H2C2HC2H3C2H4CH2CH3SC2SCH4CSH2C2HNC2H2CH3CH7FeHC2H2CH2C2H8CSH3CHCH3FeC3H7C2H6SH4SCHSHCH6CH2C3FeS2FeS2FeSFeS3FeS2FeS2FeSFeS3NH4CH2SH6SHCH2CH4CH2C6H4C2H3CHC7H4C11HC3HNC12H27SCH4C4HC3H2CH6FeCNH5C2SH4CHC3H3CH11C2H7SC3HCH2CH2C2H4CFeHCH4CH4CH5NCH2CHSCH2C2H2CH2C2HC2H2C2NH2C2HCH7C3HC3HSH5CH2CH4CFeHCH4FeCH5CH5CHCH7NHCH4C5H2CHCH3CNHCH
_chemical_formula_sum              "H3456 C1944 Fe216 S432 N108"
_cell_length_a       48.4562
_cell_length_b       48.0152
_cell_length_c       112.958
_cell_angle_alpha    91.1323
_cell_angle_beta     90.8802
_cell_angle_gamma    113.989

_space_group_name_H-M_alt    "P 1"
_space_group_IT_number       1

loop_
  _space_group_symop_operation_xyz
  'x, y, z'

loop_
  _atom_site_type_symbol
  _atom_site_label
  _atom_site_symmetry_multiplicity
  _atom_site_fract_x
  _atom_site_fract_y
  _atom_site_fract_z
  _atom_site_occupancy
  H   H1        1.0  0.38090  0.22240  0.96469  1.0000
  H   H2        1.0  0.29954  0.04986  0.02041  1.0000
  H   H3        1.0  0.37282  0.02567  0.01163  1.0000
  C   C1        1.0  0.42184  0.39977  0.03761  1.0000
  H   H4        1.0  0.35130  0.14954  0.01556  1.0000
  Fe  Fe1       1.0  0.28862  0.24481  0.97179  1.0000
  S   S1        1.0  0.32830  0.26641  0.98524  1.0000
  S   S2        1.0  0.24911  0.20103  0.97528  1.0000
  H   H5        1.0  0.21842  0.23674  0.10777  1.0000
  C   C2        1.0  0.32698  0.03855  0.04533  1.0000
  S   S3        1.0  0.41076  0.03807  0.06351  1.0000
  H   H6        1.0  0.23270  0.09686  0.99920  1.0000
  S   S4        1.0  0.40358  0.03686  0.09279  1.0000
  Fe  Fe2       1.0  0.38202  0.04815  0.07692  1.0000
  S   S5        1.0  0.36221  0.08337  0.07619  1.0000
  Fe  Fe3       1.0  0.43013  0.02281  0.07926  1.0000
  S   S6        1.0  0.34501  0.00136  0.07517  1.0000
  H   H7        1.0  0.39636  0.23899  0.10730  1.0000
  H   H8        1.0  0.28912  0.06839  0.03877  1.0000
  H   H9        1.0  0.26013  0.03739  0.02362  1.0000
  Fe  Fe4       1.0  0.36912  0.27223  0.05647  1.0000
  S   S7        1.0  0.41908  0.28608  0.05495  1.0000
  S   S8        1.0  0.33245  0.25379  0.04165  1.0000
  Fe  Fe5       1.0  0.37408  0.27807  0.08432  1.0000
  S   S9        1.0  0.42482  0.29325  0.08430  1.0000
  S   S10       1.0  0.34131  0.25937  0.09977  1.0000
  Fe  Fe6       1.0  0.42482  0.32262  0.06888  1.0000
  C   C3        1.0  0.40244  0.21900  0.10809  1.0000
  Fe  Fe7       1.0  0.41541  0.25610  0.07038  1.0000
  S   S11       1.0  0.44029  0.22516  0.07143  1.0000
  S   S12       1.0  0.37427  0.31004  0.06973  1.0000
  S   S13       1.0  0.36529  0.23972  0.07100  1.0000
  H   H10       1.0  0.35450  0.14366  0.99232  1.0000
  C   C4        1.0  0.33984  0.26354  0.11549  1.0000
  H   H11       1.0  0.99214  0.10897  0.99316  1.0000
  H   H12       1.0  0.36692  0.13649  0.10174  1.0000
  H   H13       1.0  0.38138  0.30351  0.11772  1.0000
  H   H14       1.0  0.29756  0.22415  0.11646  1.0000
  H   H15       1.0  0.97840  0.13864  0.99384  1.0000
  H   H16       1.0  0.39875  0.41540  0.01699  1.0000
  C   C5        1.0  0.38971  0.15046  0.10563  1.0000
  H   H17       1.0  0.37201  0.33598  0.02233  1.0000
  H   H18       1.0  0.32825  0.07855  0.98491  1.0000
  C   C6        1.0  0.34792  0.18526  0.10960  1.0000
  H   H19       1.0  0.30090  0.14618  0.09436  1.0000
  C   C7        1.0  0.38481  0.12227  0.07426  1.0000
  C   C8        1.0  0.41635  0.13431  0.07532  1.0000
  C   C9        1.0  0.43329  0.16591  0.07433  1.0000
  C   C10       1.0  0.41879  0.18547  0.07217  1.0000
  C   C11       1.0  0.38736  0.17313  0.07081  1.0000
  C   C12       1.0  0.37045  0.14175  0.07195  1.0000
  H   H20       1.0  0.42762  0.11940  0.07710  1.0000
  H   H21       1.0  0.31850  0.08379  0.05777  1.0000
  H   H22       1.0  0.37596  0.18769  0.06890  1.0000
  H   H23       1.0  0.34610  0.13261  0.07111  1.0000
  H   H24       1.0  0.41973  0.33145  0.02636  1.0000
  C   C13       1.0  0.28065  0.09578  0.05859  1.0000
  Fe  Fe8       1.0  0.37498  0.99022  0.06284  1.0000
  H   H25       1.0  0.01004  0.36661  0.07769  1.0000
  H   H26       1.0  0.38200  0.01466  0.03239  1.0000
  C   C14       1.0  0.33217  0.25678  0.02591  1.0000
  C   C15       1.0  0.35851  0.27184  0.01960  1.0000
  C   C16       1.0  0.35693  0.27442  0.00719  1.0000
  C   C17       1.0  0.32907  0.26162  0.00086  1.0000
  C   C18       1.0  0.30284  0.24576  0.00713  1.0000
  C   C19       1.0  0.30442  0.24347  0.01956  1.0000
  H   H27       1.0  0.38004  0.28151  0.02432  1.0000
  H   H28       1.0  0.37741  0.28647  0.00243  1.0000
  H   H29       1.0  0.28124  0.23579  0.00244  1.0000
  H   H30       1.0  0.28388  0.23163  0.02431  1.0000
  H   H31       1.0  0.36999  0.21707  0.98610  1.0000
  C   C20       1.0  0.42981  0.98256  0.01579  1.0000
  C   C21       1.0  0.40444  0.12852  0.10846  1.0000
  C   C22       1.0  0.23332  0.04593  0.96396  1.0000
  H   H32       1.0  0.34881  0.23012  0.96850  1.0000
  H   H33       1.0  0.25476  0.99760  0.05416  1.0000
  H   H34       1.0  0.40275  0.21103  0.09882  1.0000
  H   H35       1.0  0.34424  0.05400  0.02779  1.0000
  C   C23       1.0  0.01027  0.36127  0.08721  1.0000
  C   C24       1.0  0.33347  0.32747  0.04182  1.0000
  S   S14       1.0  0.33125  0.99068  0.99315  1.0000
  H   H36       1.0  0.31919  0.06177  0.99919  1.0000
  C   C25       1.0  0.37888  0.20882  0.12737  1.0000
  H   H37       1.0  0.31186  0.17000  0.08162  1.0000
  H   H38       1.0  0.03006  0.37965  0.09168  1.0000
  C   C26       1.0  0.31505  0.24241  0.12148  1.0000
  H   H39       1.0  0.28673  0.05755  0.06560  1.0000
  H   H40       1.0  0.35685  0.17015  0.09195  1.0000
  C   C27       1.0  0.22741  0.09396  0.96196  1.0000
  H   H41       1.0  0.31496  0.19882  0.98615  1.0000
  C   C28       1.0  0.09715  0.16334  0.96209  1.0000
  H   H42       1.0  0.21350  0.10671  0.96265  1.0000
  N   N1        1.0  0.06197  0.21208  0.99955  1.0000
  C   C29       1.0  0.06943  0.24197  0.99352  1.0000
  C   C30       1.0  0.08816  0.20264  0.99872  1.0000
  C   C31       1.0  0.03516  0.18808  0.99294  1.0000
  C   C32       1.0  0.05301  0.21332  0.01224  1.0000
  C   C33       1.0  0.07522  0.23927  0.02040  1.0000
  C   C34       1.0  0.04434  0.25417  0.99342  1.0000
  C   C35       1.0  0.02729  0.15441  0.99625  1.0000
  C   C36       1.0  0.12062  0.22821  0.99961  1.0000
  C   C37       1.0  0.14425  0.21479  0.00054  1.0000
  C   C38       1.0  0.06048  0.24128  0.03209  1.0000
  C   C39       1.0  0.05512  0.28523  0.98766  1.0000
  H   H43       1.0  0.25870  0.99198  0.03307  1.0000
  H   H44       1.0  0.07531  0.23988  0.98416  1.0000
  H   H45       1.0  0.08989  0.26037  0.99753  1.0000
  H   H46       1.0  0.08626  0.18544  0.00550  1.0000
  H   H47       1.0  0.08731  0.19103  0.98997  1.0000
  H   H48       1.0  0.03879  0.18956  0.98323  1.0000
  H   H49       1.0  0.01445  0.19217  0.99427  1.0000
  H   H50       1.0  0.03059  0.21459  0.01253  1.0000
  H   H51       1.0  0.04966  0.19185  0.01673  1.0000
  H   H52       1.0  0.08260  0.26189  0.01635  1.0000
  H   H53       1.0  0.09525  0.23455  0.02262  1.0000
  H   H54       1.0  0.02417  0.23848  0.98827  1.0000
  H   H55       1.0  0.03761  0.25706  0.00255  1.0000
  C   C40       1.0  0.43556  0.23069  0.11286  1.0000
  H   H56       1.0  0.04478  0.14692  0.99301  1.0000
  H   H57       1.0  0.12538  0.24196  0.99150  1.0000
  H   H58       1.0  0.12395  0.24390  0.00730  1.0000
  H   H59       1.0  0.14192  0.20238  0.00891  1.0000
  H   H60       1.0  0.14185  0.19893  0.99291  1.0000
  H   H61       1.0  0.16728  0.23342  0.00041  1.0000
  H   H62       1.0  0.07705  0.25935  0.03797  1.0000
  H   H63       1.0  0.04081  0.24718  0.03049  1.0000
  H   H64       1.0  0.05276  0.21929  0.03672  1.0000
  H   H65       1.0  0.07468  0.30236  0.99273  1.0000
  H   H66       1.0  0.06161  0.28355  0.97838  1.0000
  H   H67       1.0  0.03652  0.29314  0.98757  1.0000
  H   H68       1.0  0.18042  0.23028  0.10324  1.0000
  C   C41       1.0  0.45683  0.25640  0.10539  1.0000
  H   H69       1.0  0.01268  0.33930  0.08789  1.0000
  N   N2        1.0  0.41326  0.37309  0.02886  1.0000
  C   C42       1.0  0.42036  0.38269  0.01623  1.0000
  H   H70       1.0  0.32245  0.31158  0.03421  1.0000
  C   C43       1.0  0.36785  0.33910  0.04130  1.0000
  C   C44       1.0  0.96713  0.24473  0.02619  1.0000
  H   H71       1.0  0.29637  0.99888  0.02932  1.0000
  C   C45       1.0  0.40134  0.39869  0.01067  1.0000
  H   H72       1.0  0.42587  0.00370  0.01692  1.0000
  H   H73       1.0  0.43798  0.23990  0.12206  1.0000
  C   C46       1.0  0.36223  0.28700  0.12214  1.0000
  C   C47       1.0  0.41557  0.41521  0.99944  1.0000
  C   C48       1.0  0.35731  0.21193  0.96777  1.0000
  H   H74       1.0  0.41674  0.36239  0.01040  1.0000
  H   H75       1.0  0.44456  0.39790  0.01536  1.0000
  C   C49       1.0  0.14167  0.21003  0.96642  1.0000
  S   S15       1.0  0.96399  0.29598  0.07096  1.0000
  C   C50       1.0  0.18737  0.23027  0.12228  1.0000
  H   H76       1.0  0.36701  0.36881  0.02748  1.0000
  H   H77       1.0  0.35440  0.09408  0.99740  1.0000
  H   H78       1.0  0.29056  0.09284  0.99513  1.0000
  H   H79       1.0  0.30835  0.97853  0.05339  1.0000
  H   H80       1.0  0.02563  0.15138  0.00593  1.0000
  H   H81       1.0  0.37837  0.38142  0.00815  1.0000
  H   H82       1.0  0.41795  0.39895  0.99281  1.0000
  C   C51       1.0  0.37956  0.35439  0.02936  1.0000
  H   H83       1.0  0.31020  0.16751  0.97645  1.0000
  H   H84       1.0  0.28885  0.10924  0.06700  1.0000
  C   C52       1.0  0.44946  0.42950  0.03472  1.0000
  H   H85       1.0  0.01826  0.26678  0.12153  1.0000
  H   H86       1.0  0.20520  0.26680  0.10964  1.0000
  H   H87       1.0  0.32460  0.12941  0.98163  1.0000
  N   N3        1.0  0.44842  0.97926  0.03716  1.0000
  H   H88       1.0  0.98124  0.31413  0.12465  1.0000
  H   H89       1.0  0.42373  0.34480  0.04135  1.0000
  C   C53       1.0  0.21569  0.06297  0.96495  1.0000
  H   H90       1.0  0.38852  0.06199  0.04138  1.0000
  N   N4        1.0  0.37905  0.19476  0.11526  1.0000
  C   C54       1.0  0.28756  0.14951  0.99830  1.0000
  C   C55       1.0  0.12870  0.17866  0.96386  1.0000
  H   H91       1.0  0.25706  0.04215  0.04577  1.0000
  H   H92       1.0  0.14275  0.16600  0.96379  1.0000
  S   S16       1.0  0.18017  0.22956  0.97076  1.0000
  S   S17       1.0  0.29186  0.99344  0.96386  1.0000
  C   C56       1.0  0.35486  0.98191  0.12626  1.0000
  C   C57       1.0  0.35855  0.00409  0.01533  1.0000
  H   H93       1.0  0.30879  0.04071  0.10759  1.0000
  C   C58       1.0  0.26373  0.13273  0.98837  1.0000
  H   H94       1.0  0.98229  0.32799  0.10593  1.0000
  H   H95       1.0  0.33442  0.01978  0.04379  1.0000
  H   H96       1.0  0.00066  0.36662  0.11055  1.0000
  H   H97       1.0  0.33696  0.02530  0.10760  1.0000
  C   C59       1.0  0.33985  0.16528  0.01660  1.0000
  C   C60       1.0  0.35738  0.18879  0.02630  1.0000
  C   C61       1.0  0.23252  0.11533  0.99348  1.0000
  H   H98       1.0  0.28245  0.16890  0.00164  1.0000
  H   H99       1.0  0.28316  0.13396  0.00583  1.0000
  H   H100      1.0  0.30067  0.18394  0.09482  1.0000
  H   H101      1.0  0.31673  0.15262  0.01983  1.0000
  C   C62       1.0  0.97464  0.22423  0.01926  1.0000
  H   H102      1.0  0.34609  0.20434  0.02820  1.0000
  H   H103      1.0  0.42841  0.14142  0.11133  1.0000
  H   H104      1.0  0.38094  0.20248  0.02363  1.0000
  H   H105      1.0  0.43253  0.01507  0.03985  1.0000
  H   H106      1.0  0.22545  0.13106  0.99870  1.0000
  C   C63       1.0  0.28225  0.05197  0.04603  1.0000
  H   H107      1.0  0.30948  0.01468  0.12628  1.0000
  H   H108      1.0  0.45765  0.17525  0.07532  1.0000
  C   C64       1.0  0.32385  0.18116  0.98419  1.0000
  H   H109      1.0  0.39159  0.09632  0.03426  1.0000
  H   H110      1.0  0.31588  0.10817  0.00750  1.0000
  C   C65       1.0  0.33993  0.18087  0.00472  1.0000
  C   C66       1.0  0.33016  0.08367  0.99461  1.0000
  N   N5        1.0  0.32011  0.16101  0.99472  1.0000
  H   H111      1.0  0.40268  0.40670  0.03876  1.0000
  Fe  Fe9       1.0  0.24238  0.97571  0.96695  1.0000
  H   H112      1.0  0.37633  0.99509  0.12233  1.0000
  H   H113      1.0  0.38114  0.09086  0.04955  1.0000
  S   S18       1.0  0.96424  0.17079  0.97102  1.0000
  C   C67       1.0  0.31475  0.10495  0.99777  1.0000
  H   H114      1.0  0.37374  0.31923  0.04235  1.0000
  H   H115      1.0  0.40090  0.42551  0.99548  1.0000
  C   C68       1.0  0.32954  0.13558  0.99125  1.0000
  H   H116      1.0  0.33221  0.16285  0.11296  1.0000
  Fe  Fe10      1.0  0.36803  0.98906  0.09030  1.0000
  H   H117      1.0  0.39219  0.11280  0.11552  1.0000
  H   H118      1.0  0.99763  0.13370  0.98088  1.0000
  H   H119      1.0  0.98003  0.38166  0.09186  1.0000
  H   H120      1.0  0.26177  0.14941  0.98213  1.0000
  H   H121      1.0  0.42599  0.39277  0.04658  1.0000
  C   C69       1.0  0.35668  0.19797  0.97985  1.0000
  H   H122      1.0  0.41133  0.97667  0.99781  1.0000
  C   C70       1.0  0.97983  0.35006  0.10591  1.0000
  H   H123      1.0  0.33382  0.20059  0.00653  1.0000
  C   C71       1.0  0.33558  0.98223  0.00817  1.0000
  H   H124      1.0  0.27002  0.11648  0.98317  1.0000
  C   C72       1.0  0.97383  0.22471  0.00677  1.0000
  C   C73       1.0  0.33049  0.04287  0.11176  1.0000
  C   C74       1.0  0.31262  0.17003  0.09146  1.0000
  H   H125      1.0  0.35817  0.17704  0.03460  1.0000
  H   H126      1.0  0.26610  0.02421  0.00305  1.0000
  H   H127      1.0  0.36401  0.19090  0.00220  1.0000
  H   H128      1.0  0.36818  0.18226  0.97903  1.0000
  H   H129      1.0  0.44419  0.44060  0.02701  1.0000
  C   C75       1.0  0.45425  0.01257  0.03866  1.0000
  H   H130      1.0  0.34833  0.06564  0.10993  1.0000
  H   H131      1.0  0.33467  0.04653  0.05461  1.0000
  H   H132      1.0  0.99202  0.40934  0.10973  1.0000
  H   H133      1.0  0.07756  0.22344  0.96474  1.0000
  H   H134      1.0  0.21564  0.10481  0.98617  1.0000
  C   C76       1.0  0.45793  0.45243  0.04517  1.0000
  C   C77       1.0  0.99700  0.13274  0.99068  1.0000
  H   H135      1.0  0.44351  0.21202  0.11255  1.0000
  H   H136      1.0  0.43897  0.45903  0.04713  1.0000
  H   H137      1.0  0.24811  0.98998  0.01126  1.0000
  H   H138      1.0  0.40792  0.17434  0.12240  1.0000
  H   H139      1.0  0.16693  0.23469  0.12383  1.0000
  C   C78       1.0  0.28174  0.01051  0.03226  1.0000
  C   C79       1.0  0.27839  0.02960  0.02184  1.0000
  H   H140      1.0  0.32644  0.34678  0.04172  1.0000
  C   C80       1.0  0.99497  0.25441  0.12393  1.0000
  S   S19       1.0  0.03877  0.15884  0.96154  1.0000
  C   C81       1.0  0.34538  0.06400  0.03683  1.0000
  H   H141      1.0  0.35620  0.20705  0.09244  1.0000
  H   H142      1.0  0.40390  0.11464  0.10039  1.0000
  C   C82       1.0  0.34551  0.18371  0.09589  1.0000
  C   C83       1.0  0.42877  0.35252  0.03211  1.0000
  H   H143      1.0  0.25556  0.08493  0.05858  1.0000
  N   N6        1.0  0.29305  0.02681  0.04415  1.0000
  C   C84       1.0  0.38672  0.16758  0.11697  1.0000
  H   H144      1.0  0.33823  0.20186  0.11216  1.0000
  H   H145      1.0  0.37781  0.35519  0.04893  1.0000
  C   C85       1.0  0.37866  0.07911  0.04076  1.0000
  H   H146      1.0  0.40363  0.16615  0.09890  1.0000
  H   H147      1.0  0.43813  0.43373  0.00152  1.0000
  C   C86       1.0  0.26950  0.01052  0.01030  1.0000
  H   H148      1.0  0.33713  0.08233  0.03644  1.0000
  Fe  Fe11      1.0  0.22106  0.22096  0.96504  1.0000
  S   S20       1.0  0.96856  0.25047  0.98537  1.0000
  H   H149      1.0  0.28927  0.01398  0.06260  1.0000
  C   C87       1.0  0.29353  0.07159  0.05762  1.0000
  H   H150      1.0  0.37870  0.23188  0.12647  1.0000
  C   C88       1.0  0.96681  0.24665  0.00104  1.0000
  C   C89       1.0  0.19865  0.24180  0.11000  1.0000
  C   C90       1.0  0.09166  0.21090  0.96454  1.0000
  H   H151      1.0  0.28819  0.11168  0.05113  1.0000
  H   H152      1.0  0.98090  0.20769  0.02360  1.0000
  C   C91       1.0  0.36370  0.99801  0.02715  1.0000
  H   H153      1.0  0.98060  0.45444  0.11266  1.0000
  S   S21       1.0  0.96985  0.24370  0.04191  1.0000
  C   C92       1.0  0.12303  0.22607  0.96665  1.0000
  C   C93       1.0  0.98094  0.35912  0.09278  1.0000
  H   H154      1.0  0.19271  0.05202  0.96791  1.0000
  H   H155      1.0  0.45333  0.98904  0.01287  1.0000
  H   H156      1.0  0.45555  0.24871  0.09598  1.0000
  H   H157      1.0  0.45094  0.27645  0.10596  1.0000
  C   C94       1.0  0.97051  0.40618  0.11395  1.0000
  Fe  Fe12      1.0  0.97553  0.22098  0.97044  1.0000
  S   S22       1.0  0.21683  0.00648  0.96697  1.0000
  S   S23       1.0  0.26033  0.26613  0.96279  1.0000
  H   H158      1.0  0.99061  0.18248  0.12743  1.0000
  H   H159      1.0  0.32559  0.31493  0.05012  1.0000
  C   C95       1.0  0.27955  0.00394  0.05374  1.0000
  C   C96       1.0  0.07847  0.17932  0.96259  1.0000
  H   H160      1.0  0.13293  0.25034  0.96865  1.0000
  S   S24       1.0  0.45870  0.37043  0.06364  1.0000
  C   C97       1.0  0.32717  0.03791  0.12509  1.0000
  H   H161      1.0  0.28754  0.00316  0.00771  1.0000
  H   H162      1.0  0.98059  0.43157  0.06808  1.0000
  H   H163      1.0  0.97454  0.40861  0.12369  1.0000
  H   H164      1.0  0.36922  0.15011  0.12223  1.0000
  C   C98       1.0  0.97172  0.25047  0.11557  1.0000
  H   H165      1.0  0.29970  0.06355  0.12629  1.0000
  H   H166      1.0  0.18026  0.20528  0.12208  1.0000
  S   S25       1.0  0.98137  0.26673  0.10138  1.0000
  H   H167      1.0  0.97901  0.20844  0.00158  1.0000
  H   H168      1.0  0.34336  0.19431  0.96110  1.0000
  H   H169      1.0  0.26288  0.12578  0.14561  1.0000
  S   S26       1.0  0.22911  0.00786  0.19162  1.0000
  Fe  Fe13      1.0  0.03394  0.21392  0.18341  1.0000
  S   S27       1.0  0.00821  0.24423  0.18157  1.0000
  S   S28       1.0  0.08606  0.23685  0.18330  1.0000
  H   H170      1.0  0.22314  0.99695  0.16463  1.0000
  H   H171      1.0  0.26233  0.07405  0.14281  1.0000
  Fe  Fe14      1.0  0.97975  0.21761  0.19658  1.0000
  C   C99       1.0  0.27961  0.11937  0.15032  1.0000
  S   S29       1.0  0.00400  0.17848  0.16999  1.0000
  S   S30       1.0  0.00744  0.19024  0.19928  1.0000
  Fe  Fe15      1.0  0.29227  0.18320  0.18286  1.0000
  S   S31       1.0  0.32780  0.23103  0.18550  1.0000
  S   S32       1.0  0.31067  0.14665  0.18171  1.0000
  Fe  Fe16      1.0  0.24112  0.20518  0.18094  1.0000
  S   S33       1.0  0.27362  0.25424  0.18322  1.0000
  S   S34       1.0  0.18949  0.18635  0.17846  1.0000
  Fe  Fe17      1.0  0.30333  0.24249  0.17051  1.0000
  S   S35       1.0  0.33201  0.27373  0.15610  1.0000
  Fe  Fe18      1.0  0.29538  0.23822  0.19799  1.0000
  S   S36       1.0  0.30621  0.26628  0.21560  1.0000
  S   S37       1.0  0.26946  0.19435  0.16731  1.0000
  S   S38       1.0  0.26121  0.18943  0.19625  1.0000
  H   H172      1.0  0.32306  0.13343  0.25789  1.0000
  H   H173      1.0  0.28663  0.00881  0.14330  1.0000
  C   C100      1.0  0.31913  0.06262  0.13139  1.0000
  H   H174      1.0  0.26699  0.26044  0.15665  1.0000
  H   H175      1.0  0.13594  0.18238  0.22317  1.0000
  H   H176      1.0  0.21643  0.25158  0.16245  1.0000
  H   H177      1.0  0.11474  0.21376  0.13956  1.0000
  S   S39       1.0  0.96972  0.24606  0.26722  1.0000
  Fe  Fe19      1.0  0.38465  0.27509  0.28355  1.0000
  S   S40       1.0  0.43408  0.28642  0.28688  1.0000
  S   S41       1.0  0.36814  0.25387  0.26484  1.0000
  H   H178      1.0  0.21285  0.15132  0.15075  1.0000
  C   C101      1.0  0.37909  0.07326  0.21448  1.0000
  H   H179      1.0  0.10478  0.17689  0.20510  1.0000
  H   H180      1.0  0.40149  0.02957  0.21569  1.0000
  H   H181      1.0  0.39880  0.19857  0.28462  1.0000
  H   H182      1.0  0.40861  0.30117  0.24307  1.0000
  C   C102      1.0  0.31266  0.24462  0.13389  1.0000
  C   C103      1.0  0.40192  0.05410  0.25071  1.0000
  H   H183      1.0  0.26478  0.27988  0.14346  1.0000
  C   C104      1.0  0.28287  0.02978  0.14531  1.0000
  H   H184      1.0  0.39987  0.21249  0.13252  1.0000
  C   C105      1.0  0.12317  0.22528  0.14832  1.0000
  Fe  Fe20      1.0  0.97573  0.15724  0.18572  1.0000
  C   C106      1.0  0.32334  0.26226  0.22923  1.0000
  C   C107      1.0  0.33436  0.23974  0.23076  1.0000
  C   C108      1.0  0.34808  0.23776  0.24167  1.0000
  C   C109      1.0  0.35075  0.25797  0.25128  1.0000
  C   C110      1.0  0.33978  0.28054  0.24975  1.0000
  C   C111      1.0  0.32625  0.28267  0.23880  1.0000
  H   H185      1.0  0.33253  0.22399  0.22350  1.0000
  H   H186      1.0  0.35680  0.22045  0.24263  1.0000
  H   H187      1.0  0.34149  0.29623  0.25701  1.0000
  H   H188      1.0  0.31791  0.30024  0.23775  1.0000
  C   C112      1.0  0.35944  0.28965  0.13451  1.0000
  C   C113      1.0  0.33465  0.26858  0.14049  1.0000
  H   H189      1.0  0.34896  0.03870  0.12864  1.0000
  H   H190      1.0  0.37662  0.30830  0.13950  1.0000
  H   H191      1.0  0.37638  0.20212  0.15248  1.0000
  C   C114      1.0  0.23857  0.30295  0.19927  1.0000
  C   C115      1.0  0.10427  0.19213  0.21254  1.0000
  C   C116      1.0  0.26685  0.02420  0.15737  1.0000
  H   H192      1.0  0.97857  0.36460  0.12860  1.0000
  H   H193      1.0  0.22108  0.01150  0.15026  1.0000
  C   C117      1.0  0.22205  0.25980  0.15326  1.0000
  C   C118      1.0  0.11436  0.22221  0.18182  1.0000
  C   C119      1.0  0.14503  0.24271  0.18222  1.0000
  C   C120      1.0  0.16832  0.23228  0.18120  1.0000
  C   C121      1.0  0.16124  0.20107  0.17982  1.0000
  C   C122      1.0  0.13058  0.18062  0.17928  1.0000
  C   C123      1.0  0.10730  0.19104  0.18030  1.0000
  H   H194      1.0  0.15077  0.26689  0.18330  1.0000
  H   H195      1.0  0.19168  0.24838  0.18150  1.0000
  H   H196      1.0  0.12473  0.15643  0.17814  1.0000
  H   H197      1.0  0.08388  0.17495  0.17995  1.0000
  C   C124      1.0  0.21921  0.15873  0.14155  1.0000
  H   H198      1.0  0.41094  0.38865  0.28333  1.0000
  H   H199      1.0  0.36862  0.19519  0.26622  1.0000
  H   H200      1.0  0.35662  0.05272  0.23730  1.0000
  C   C125      1.0  0.25206  0.04638  0.18888  1.0000
  C   C126      1.0  0.28305  0.05622  0.18709  1.0000
  C   C127      1.0  0.30079  0.08713  0.18505  1.0000
  C   C128      1.0  0.28771  0.10837  0.18475  1.0000
  C   C129      1.0  0.25678  0.09861  0.18662  1.0000
  C   C130      1.0  0.23905  0.06770  0.18871  1.0000
  H   H201      1.0  0.29330  0.04005  0.18735  1.0000
  H   H202      1.0  0.32477  0.09469  0.18375  1.0000
  H   H203      1.0  0.24649  0.11482  0.18641  1.0000
  H   H204      1.0  0.21510  0.06024  0.19015  1.0000
  H   H205      1.0  0.33678  0.19329  0.28203  1.0000
  C   C131      1.0  0.33797  0.05380  0.15055  1.0000
  H   H206      1.0  0.21110  0.29571  0.21458  1.0000
  C   C132      1.0  0.21940  0.21072  0.14601  1.0000
  H   H207      1.0  0.38289  0.35629  0.27538  1.0000
  C   C133      1.0  0.36765  0.04016  0.23231  1.0000
  N   N7        1.0  0.20628  0.23406  0.14434  1.0000
  N   N8        1.0  0.31197  0.05796  0.14439  1.0000
  C   C134      1.0  0.42733  0.20585  0.26982  1.0000
  H   H208      1.0  0.33577  0.02996  0.14921  1.0000
  H   H209      1.0  0.35431  0.17735  0.29199  1.0000
  H   H210      1.0  0.33748  0.09716  0.26371  1.0000
  Fe  Fe21      1.0  0.97716  0.20746  0.16893  1.0000
  H   H211      1.0  0.24404  0.22078  0.14442  1.0000
  H   H212      1.0  0.21693  0.20344  0.15539  1.0000
  C   C135      1.0  0.31658  0.14294  0.26592  1.0000
  H   H213      1.0  0.29681  0.17668  0.26888  1.0000
  H   H214      1.0  0.10072  0.21181  0.20889  1.0000
  C   C136      1.0  0.98215  0.23165  0.23231  1.0000
  H   H215      1.0  0.33128  0.10653  0.14823  1.0000
  C   C137      1.0  0.28163  0.15497  0.25187  1.0000
  H   H216      1.0  0.23214  0.97992  0.15167  1.0000
  C   C138      1.0  0.40196  0.31978  0.22012  1.0000
  H   H217      1.0  0.21892  0.26661  0.23139  1.0000
  N   N9        1.0  0.44179  0.34255  0.25146  1.0000
  C   C139      1.0  0.30811  0.03297  0.22449  1.0000
  H   H218      1.0  0.37687  0.12007  0.26715  1.0000
  H   H219      1.0  0.20994  0.13830  0.13552  1.0000
  C   C140      1.0  0.26990  0.30569  0.15969  1.0000
  H   H220      1.0  0.00659  0.24566  0.14167  1.0000
  H   H221      1.0  0.99134  0.37287  0.24366  1.0000
  H   H222      1.0  0.18171  0.26410  0.22918  1.0000
  H   H223      1.0  0.34448  0.12515  0.21678  1.0000
  H   H224      1.0  0.21388  0.27820  0.15221  1.0000
  H   H225      1.0  0.36190  0.13274  0.28750  1.0000
  H   H226      1.0  0.00311  0.23122  0.24928  1.0000
  H   H227      1.0  0.33575  0.06550  0.28155  1.0000
  H   H228      1.0  0.36626  0.99788  0.21656  1.0000
  H   H229      1.0  0.42557  0.06109  0.25401  1.0000
  H   H230      1.0  0.24000  0.22789  0.23065  1.0000
  H   H231      1.0  0.28627  0.14600  0.28557  1.0000
  C   C141      1.0  0.25705  0.27535  0.15269  1.0000
  H   H232      1.0  0.17916  0.23775  0.25990  1.0000
  C   C142      1.0  0.35462  0.10652  0.27100  1.0000
  H   H233      1.0  0.16717  0.26015  0.25014  1.0000
  C   C143      1.0  0.30619  0.16772  0.26157  1.0000
  H   H234      1.0  0.97173  0.12612  0.12936  1.0000
  H   H235      1.0  0.18251  0.18833  0.22604  1.0000
  H   H236      1.0  0.20295  0.22205  0.24363  1.0000
  H   H237      1.0  0.15647  0.24329  0.21050  1.0000
  C   C144      1.0  0.01225  0.33387  0.26872  1.0000
  H   H238      1.0  0.41461  0.07519  0.23399  1.0000
  C   C145      1.0  0.40022  0.18507  0.27677  1.0000
  C   C146      1.0  0.35166  0.98321  0.13864  1.0000
  H   H239      1.0  0.24585  0.21765  0.21592  1.0000
  C   C147      1.0  0.23317  0.18093  0.22789  1.0000
  H   H240      1.0  0.25727  0.18572  0.22978  1.0000
  H   H241      1.0  0.22031  0.17322  0.23612  1.0000
  H   H242      1.0  0.22432  0.16247  0.22096  1.0000
  H   H243      1.0  0.37515  0.07321  0.20474  1.0000
  H   H244      1.0  0.36081  0.11662  0.20376  1.0000
  H   H245      1.0  0.40501  0.16561  0.27979  1.0000
  H   H246      1.0  0.26625  0.02963  0.13836  1.0000
  H   H247      1.0  0.30114  0.13991  0.15144  1.0000
  Fe  Fe22      1.0  0.36991  0.99609  0.28456  1.0000
  C   C148      1.0  0.23381  0.00172  0.15584  1.0000
  H   H248      1.0  0.34900  0.16655  0.13618  1.0000
  H   H249      1.0  0.36185  0.06463  0.27059  1.0000
  H   H250      1.0  0.31517  0.05727  0.22702  1.0000
  C   C149      1.0  0.21181  0.28255  0.20650  1.0000
  C   C150      1.0  0.35715  0.20479  0.14794  1.0000
  C   C151      1.0  0.37068  0.17415  0.26909  1.0000
  H   H251      1.0  0.29647  0.12372  0.26930  1.0000
  H   H252      1.0  0.18145  0.17006  0.13839  1.0000
  C   C152      1.0  0.17318  0.21979  0.14725  1.0000
  C   C153      1.0  0.98842  0.24246  0.13537  1.0000
  H   H253      1.0  0.23389  0.24739  0.12883  1.0000
  H   H254      1.0  0.01163  0.33819  0.27838  1.0000
  H   H255      1.0  0.42639  0.36182  0.22996  1.0000
  H   H256      1.0  0.23810  0.25970  0.21336  1.0000
  H   H257      1.0  0.08477  0.17916  0.21812  1.0000
  H   H258      1.0  0.26256  0.32241  0.15555  1.0000
  H   H259      1.0  0.29500  0.31512  0.15974  1.0000
  H   H260      1.0  0.36188  0.09388  0.22909  1.0000
  H   H261      1.0  0.32631  0.03652  0.20693  1.0000
  H   H262      1.0  0.33848  0.08500  0.13015  1.0000
  H   H263      1.0  0.35441  0.01941  0.19581  1.0000
  H   H264      1.0  0.41102  0.36502  0.25184  1.0000
  H   H265      1.0  0.98255  0.13124  0.14480  1.0000
  H   H266      1.0  0.30700  0.02022  0.23268  1.0000
  H   H267      1.0  0.15960  0.21067  0.20405  1.0000
  C   C154      1.0  0.23090  0.20989  0.22358  1.0000
  H   H268      1.0  0.36198  0.22944  0.14769  1.0000
  H   H269      1.0  0.33663  0.19346  0.15323  1.0000
  H   H270      1.0  0.26024  0.30868  0.20426  1.0000
  C   C155      1.0  0.35206  0.19058  0.13541  1.0000
  H   H271      1.0  0.01930  0.31471  0.26742  1.0000
  H   H272      1.0  0.19328  0.19063  0.21114  1.0000
  H   H273      1.0  0.39438  0.04081  0.19608  1.0000
  H   H274      1.0  0.99034  0.37823  0.22210  1.0000
  H   H275      1.0  0.40402  0.08091  0.21533  1.0000
  C   C156      1.0  0.37714  0.02157  0.21326  1.0000
  C   C157      1.0  0.18483  0.25136  0.25176  1.0000
  H   H276      1.0  0.38676  0.29562  0.22166  1.0000
  H   H277      1.0  0.38961  0.32959  0.21434  1.0000
  H   H278      1.0  0.44796  0.21383  0.27564  1.0000
  C   C158      1.0  0.21469  0.25247  0.20968  1.0000
  H   H279      1.0  0.39236  0.11967  0.22132  1.0000
  H   H280      1.0  0.20706  0.27089  0.25327  1.0000
  H   H281      1.0  0.28861  0.97711  0.25179  1.0000
  H   H282      1.0  0.46103  0.38920  0.24568  1.0000
  H   H283      1.0  0.43012  0.30350  0.26255  1.0000
  C   C159      1.0  0.21197  0.24672  0.13202  1.0000
  H   H284      1.0  0.17004  0.20767  0.15576  1.0000
  H   H285      1.0  0.96888  0.40549  0.27240  1.0000
  H   H286      1.0  0.97438  0.41069  0.25685  1.0000
  C   C160      1.0  0.18608  0.23132  0.24128  1.0000
  H   H287      1.0  0.32519  0.18714  0.25786  1.0000
  H   H288      1.0  0.23628  0.32451  0.19733  1.0000
  H   H289      1.0  0.16388  0.21177  0.24040  1.0000
  N   N10       1.0  0.34217  0.15351  0.27501  1.0000
  H   H290      1.0  0.98319  0.32126  0.25329  1.0000
  H   H291      1.0  0.11599  0.20802  0.15533  1.0000
  H   H292      1.0  0.30559  0.08538  0.15882  1.0000
  S   S42       1.0  0.38750  0.31686  0.29389  1.0000
  H   H293      1.0  0.23914  0.29138  0.19074  1.0000
  C   C161      1.0  0.98113  0.32538  0.26287  1.0000
  H   H294      1.0  0.26651  0.04505  0.16155  1.0000
  H   H295      1.0  0.19116  0.27794  0.20102  1.0000
  H   H296      1.0  0.42390  0.22617  0.26684  1.0000
  N   N11       1.0  0.19200  0.23226  0.21827  1.0000
  C   C162      1.0  0.19808  0.20404  0.21969  1.0000
  H   H297      1.0  0.37413  0.16326  0.26079  1.0000
  H   H298      1.0  0.43611  0.35748  0.27608  1.0000
  C   C163      1.0  0.27607  0.02136  0.21919  1.0000
  H   H299      1.0  0.27544  0.03518  0.21152  1.0000
  H   H300      1.0  0.26792  0.99704  0.21626  1.0000
  H   H301      1.0  0.26044  0.02335  0.22592  1.0000
  H   H302      1.0  0.27798  0.01406  0.16357  1.0000
  C   C164      1.0  0.30620  0.15422  0.29171  1.0000
  H   H303      1.0  0.96556  0.30378  0.26671  1.0000
  H   H304      1.0  0.97612  0.33860  0.22581  1.0000
  C   C165      1.0  0.13362  0.20298  0.21996  1.0000
  C   C166      1.0  0.96440  0.24200  0.25150  1.0000
  C   C167      1.0  0.37594  0.02016  0.19949  1.0000
  C   C168      1.0  0.33607  0.17111  0.28510  1.0000
  H   H305      1.0  0.99825  0.22618  0.22732  1.0000
  H   H306      1.0  0.32374  0.11017  0.28366  1.0000
  C   C169      1.0  0.20636  0.18169  0.13793  1.0000
  H   H307      1.0  0.27448  0.17316  0.24911  1.0000
  H   H308      1.0  0.13100  0.21654  0.22759  1.0000
  C   C170      1.0  0.34285  0.06167  0.16400  1.0000
  C   C171      1.0  0.36767  0.05341  0.16929  1.0000
  H   H309      1.0  0.26244  0.30247  0.16900  1.0000
  H   H310      1.0  0.29035  0.14720  0.24399  1.0000
  C   C172      1.0  0.19507  0.24995  0.22979  1.0000
  H   H311      1.0  0.35597  0.01618  0.23514  1.0000
  C   C173      1.0  0.16094  0.22301  0.21263  1.0000
  H   H312      1.0  0.29368  0.22803  0.13833  1.0000
  H   H313      1.0  0.39834  0.33003  0.25951  1.0000
  H   H314      1.0  0.35014  0.08658  0.16560  1.0000
  H   H315      1.0  0.32202  0.04945  0.16888  1.0000
  H   H316      1.0  0.38924  0.06521  0.16467  1.0000
  H   H317      1.0  0.37130  0.06050  0.17880  1.0000
  H   H318      1.0  0.36107  0.02842  0.16861  1.0000
  C   C174      1.0  0.30939  0.08641  0.14915  1.0000
  C   C175      1.0  0.34541  0.12599  0.27992  1.0000
  C   C176      1.0  0.97152  0.35947  0.22633  1.0000
  H   H319      1.0  0.16437  0.25509  0.15708  1.0000
  C   C177      1.0  0.98487  0.23458  0.24479  1.0000
  H   H320      1.0  0.02930  0.35446  0.26468  1.0000
  C   C178      1.0  0.35711  0.07954  0.27714  1.0000
  H   H321      1.0  0.97096  0.16612  0.22681  1.0000
  N   N12       1.0  0.36339  0.04144  0.21907  1.0000
  H   H322      1.0  0.32135  0.00276  0.21434  1.0000
  H   H323      1.0  0.35980  0.06844  0.14651  1.0000
  H   H324      1.0  0.26161  0.13563  0.25517  1.0000
  H   H325      1.0  0.38999  0.33778  0.23567  1.0000
  H   H326      1.0  0.40195  0.99241  0.19777  1.0000
  H   H327      1.0  0.27082  0.11132  0.15922  1.0000
  H   H328      1.0  0.21377  0.23954  0.20126  1.0000
  C   C179      1.0  0.42637  0.32355  0.24052  1.0000
  H   H329      1.0  0.38792  0.03161  0.25445  1.0000
  C   C180      1.0  0.33004  0.02802  0.21565  1.0000
  H   H330      1.0  0.39371  0.07130  0.25393  1.0000
  H   H331      1.0  0.43086  0.19337  0.26201  1.0000
  H   H332      1.0  0.21481  0.27097  0.13214  1.0000
  C   C181      1.0  0.28430  0.09416  0.14329  1.0000
  H   H333      1.0  0.44281  0.31799  0.23526  1.0000
  H   H334      1.0  0.32832  0.08742  0.21015  1.0000
  H   H335      1.0  0.98826  0.37256  0.26286  1.0000
  C   C182      1.0  0.40072  0.05211  0.23718  1.0000
  C   C183      1.0  0.37107  0.09876  0.22013  1.0000
  H   H336      1.0  0.37580  0.08788  0.28389  1.0000
  C   C184      1.0  0.99745  0.17267  0.13520  1.0000
  H   H337      1.0  0.39861  0.39306  0.26861  1.0000
  S   S43       1.0  0.40520  0.04414  0.28706  1.0000
  C   C185      1.0  0.41107  0.33797  0.23185  1.0000
  C   C186      1.0  0.96932  0.36840  0.23924  1.0000
  H   H338      1.0  0.41127  0.03637  0.23455  1.0000
  H   H339      1.0  0.11274  0.24169  0.15005  1.0000
  H   H340      1.0  0.42222  0.32057  0.21542  1.0000
  C   C187      1.0  0.96952  0.35072  0.26504  1.0000
  H   H341      1.0  0.33063  0.19068  0.13183  1.0000
  H   H342      1.0  0.96560  0.38971  0.23918  1.0000
  H   H343      1.0  0.96668  0.35252  0.27477  1.0000
  C   C188      1.0  0.15756  0.24221  0.14848  1.0000
  H   H344      1.0  0.37085  0.99754  0.14414  1.0000
  C   C189      1.0  0.41877  0.35106  0.25764  1.0000
  S   S44       1.0  0.29530  0.97928  0.18924  1.0000
  H   H345      1.0  0.29063  0.10235  0.13419  1.0000
  C   C190      1.0  0.40376  0.37735  0.27445  1.0000
  H   H346      1.0  0.15995  0.20168  0.14066  1.0000
  C   C191      1.0  0.34984  0.10730  0.21222  1.0000
  H   H347      1.0  0.98796  0.33533  0.14532  1.0000
  H   H348      1.0  0.45554  0.28718  0.24804  1.0000
  H   H349      1.0  0.24424  0.16894  0.14099  1.0000
  S   S45       1.0  0.33560  0.98512  0.26890  1.0000
  H   H350      1.0  0.00024  0.18782  0.14309  1.0000
  C   C192      1.0  0.42918  0.37000  0.26935  1.0000
  H   H351      1.0  0.16399  0.25894  0.14130  1.0000
  H   H352      1.0  0.21291  0.18764  0.12864  1.0000
  C   C193      1.0  0.97384  0.14057  0.13739  1.0000
  H   H353      1.0  0.37988  0.99246  0.18474  1.0000
  H   H354      1.0  0.44805  0.39227  0.26783  1.0000
  C   C194      1.0  0.45074  0.32249  0.25937  1.0000
  C   C195      1.0  0.38012  0.99229  0.19458  1.0000
  H   H355      1.0  0.01957  0.17184  0.13340  1.0000
  H   H356      1.0  0.96978  0.29429  0.14470  1.0000
  H   H357      1.0  0.46264  0.33501  0.26757  1.0000
  C   C196      1.0  0.96705  0.31547  0.14243  1.0000
  H   H358      1.0  0.96312  0.45152  0.26681  1.0000
  S   S46       1.0  0.39907  0.97497  0.29336  1.0000
  C   C197      1.0  0.36795  0.12642  0.34677  1.0000
  S   S47       1.0  0.41409  0.02807  0.31481  1.0000
  Fe  Fe23      1.0  0.37728  0.28859  0.31025  1.0000
  S   S48       1.0  0.42564  0.29906  0.31484  1.0000
  S   S49       1.0  0.34714  0.29795  0.32374  1.0000
  S   S50       1.0  0.44029  0.22457  0.30615  1.0000
  Fe  Fe24      1.0  0.30128  0.34706  0.40579  1.0000
  S   S51       1.0  0.32740  0.31784  0.40881  1.0000
  S   S52       1.0  0.24967  0.32166  0.40554  1.0000
  Fe  Fe25      1.0  0.35934  0.40382  0.40281  1.0000
  S   S53       1.0  0.38857  0.37853  0.40553  1.0000
  S   S54       1.0  0.38039  0.45474  0.40024  1.0000
  Fe  Fe26      1.0  0.35517  0.34248  0.39340  1.0000
  S   S55       1.0  0.37335  0.31912  0.37960  1.0000
  Fe  Fe27      1.0  0.35856  0.35645  0.42069  1.0000
  S   S56       1.0  0.38474  0.35981  0.43820  1.0000
  S   S57       1.0  0.32753  0.36933  0.38972  1.0000
  S   S58       1.0  0.33077  0.38408  0.41860  1.0000
  Fe  Fe28      1.0  0.03575  0.31465  0.39313  1.0000
  S   S59       1.0  0.07509  0.35892  0.38974  1.0000
  S   S60       1.0  0.00680  0.27808  0.37941  1.0000
  Fe  Fe29      1.0  0.03321  0.33181  0.41977  1.0000
  S   S61       1.0  0.07227  0.37746  0.41795  1.0000
  S   S62       1.0  0.99998  0.31911  0.43520  1.0000
  Fe  Fe30      1.0  0.05065  0.38081  0.40069  1.0000
  S   S63       1.0  0.04253  0.42059  0.39349  1.0000
  Fe  Fe31      1.0  0.09453  0.35218  0.40723  1.0000
  S   S64       1.0  0.14632  0.37210  0.40986  1.0000
  S   S65       1.0  0.01026  0.33722  0.40297  1.0000
  S   S66       1.0  0.05648  0.30585  0.41009  1.0000
  H   H359      1.0  0.38653  0.98929  0.34315  1.0000
  C   C198      1.0  0.99966  0.31285  0.45076  1.0000
  H   H360      1.0  0.46060  0.38245  0.44374  1.0000
  H   H361      1.0  0.38744  0.13677  0.34086  1.0000
  H   H362      1.0  0.38564  0.04453  0.38772  1.0000
  H   H363      1.0  0.30683  0.13437  0.29638  1.0000
  H   H364      1.0  0.41195  0.35740  0.31866  1.0000
  H   H365      1.0  0.33231  0.37954  0.46009  1.0000
  H   H366      1.0  0.13360  0.44045  0.43728  1.0000
  C   C199      1.0  0.16939  0.44786  0.42461  1.0000
  H   H367      1.0  0.04347  0.31165  0.45209  1.0000
  C   C200      1.0  0.31894  0.99570  0.33233  1.0000
  C   C201      1.0  0.22132  0.33621  0.40679  1.0000
  C   C202      1.0  0.22833  0.36690  0.40956  1.0000
  C   C203      1.0  0.20500  0.37719  0.41066  1.0000
  C   C204      1.0  0.17446  0.35726  0.40867  1.0000
  C   C205      1.0  0.16746  0.32655  0.40595  1.0000
  C   C206      1.0  0.19073  0.31606  0.40519  1.0000
  H   H368      1.0  0.25166  0.38263  0.41099  1.0000
  H   H369      1.0  0.21063  0.40079  0.41308  1.0000
  H   H370      1.0  0.14409  0.31082  0.40457  1.0000
  H   H371      1.0  0.18493  0.29214  0.40333  1.0000
  H   H372      1.0  0.22690  0.30526  0.45276  1.0000
  C   C207      1.0  0.37626  0.33896  0.45152  1.0000
  C   C208      1.0  0.33914  0.41899  0.45007  1.0000
  H   H373      1.0  0.33842  0.29985  0.44447  1.0000
  H   H374      1.0  0.97862  0.41603  0.29786  1.0000
  C   C209      1.0  0.99484  0.28839  0.33928  1.0000
  Fe  Fe32      1.0  0.43273  0.02347  0.29704  1.0000
  H   H375      1.0  0.01681  0.39642  0.34842  1.0000
  C   C210      1.0  0.00289  0.28225  0.36392  1.0000
  C   C211      1.0  0.02599  0.30377  0.35755  1.0000
  C   C212      1.0  0.02207  0.30650  0.34529  1.0000
  H   H376      1.0  0.39715  0.09961  0.36371  1.0000
  H   H377      1.0  0.31342  0.02031  0.44014  1.0000
  H   H378      1.0  0.04713  0.31788  0.36202  1.0000
  H   H379      1.0  0.04027  0.32280  0.34040  1.0000
  C   C213      1.0  0.15166  0.45271  0.41391  1.0000
  C   C214      1.0  0.05906  0.45639  0.40091  1.0000
  C   C215      1.0  0.35655  0.30574  0.33910  1.0000
  C   C216      1.0  0.37586  0.29507  0.34492  1.0000
  C   C217      1.0  0.38088  0.29957  0.35729  1.0000
  C   C218      1.0  0.36698  0.31509  0.36398  1.0000
  C   C219      1.0  0.34850  0.32671  0.35809  1.0000
  C   C220      1.0  0.34314  0.32184  0.34574  1.0000
  H   H380      1.0  0.38620  0.28251  0.33996  1.0000
  H   H381      1.0  0.39534  0.29061  0.36173  1.0000
  H   H382      1.0  0.33819  0.33924  0.36307  1.0000
  H   H383      1.0  0.32842  0.33045  0.34129  1.0000
  H   H384      1.0  0.10956  0.43401  0.39465  1.0000
  C   C221      1.0  0.24046  0.32958  0.45093  1.0000
  H   H385      1.0  0.41663  0.36476  0.35296  1.0000
  C   C222      1.0  0.41792  0.13319  0.30548  1.0000
  H   H386      1.0  0.42349  0.43137  0.39202  1.0000
  H   H387      1.0  0.39443  0.36688  0.33107  1.0000
  H   H388      1.0  0.39674  0.38566  0.36931  1.0000
  H   H389      1.0  0.44189  0.38996  0.42211  1.0000
  H   H390      1.0  0.26207  0.24625  0.42989  1.0000
  C   C223      1.0  0.41949  0.18472  0.30724  1.0000
  H   H391      1.0  0.32995  0.42987  0.45680  1.0000
  C   C224      1.0  0.38658  0.06411  0.38239  1.0000
  Fe  Fe33      1.0  0.41897  0.25820  0.30308  1.0000
  H   H392      1.0  0.32698  0.04185  0.32942  1.0000
  H   H393      1.0  0.09435  0.43586  0.37432  1.0000
  H   H394      1.0  0.98844  0.33761  0.37187  1.0000
  H   H395      1.0  0.18919  0.34178  0.44749  1.0000
  H   H396      1.0  0.99354  0.38667  0.37761  1.0000
  H   H397      1.0  0.36280  0.98942  0.45280  1.0000
  C   C225      1.0  0.97141  0.33747  0.36512  1.0000
  H   H398      1.0  0.03228  0.43348  0.33005  1.0000
  S   S67       1.0  0.36716  0.08111  0.31026  1.0000
  C   C226      1.0  0.35223  0.31033  0.45225  1.0000
  C   C227      1.0  0.97179  0.26650  0.34559  1.0000
  H   H399      1.0  0.28167  0.38362  0.45556  1.0000
  H   H400      1.0  0.13829  0.42964  0.40991  1.0000
  H   H401      1.0  0.45317  0.43229  0.34750  1.0000
  C   C228      1.0  0.07592  0.46051  0.41145  1.0000
  H   H402      1.0  0.23788  0.36012  0.43688  1.0000
  H   H403      1.0  0.17761  0.43500  0.39780  1.0000
  H   H404      1.0  0.13320  0.40597  0.43034  1.0000
  H   H405      1.0  0.18413  0.33267  0.43186  1.0000
  C   C229      1.0  0.11192  0.45698  0.37832  1.0000
  H   H406      1.0  0.26483  0.27919  0.42180  1.0000
  H   H407      1.0  0.00340  0.41498  0.36671  1.0000
  H   H408      1.0  0.40286  0.39241  0.34796  1.0000
  C   C230      1.0  0.97398  0.31018  0.45716  1.0000
  H   H409      1.0  0.28631  0.37694  0.44029  1.0000
  H   H410      1.0  0.40062  0.39366  0.30624  1.0000
  H   H411      1.0  0.96687  0.40822  0.39101  1.0000
  C   C231      1.0  0.34978  0.03973  0.34633  1.0000
  H   H412      1.0  0.27774  0.32851  0.43238  1.0000
  H   H413      1.0  0.40807  0.04253  0.34191  1.0000
  H   H414      1.0  0.43352  0.42358  0.32851  1.0000
  H   H415      1.0  0.07785  0.44118  0.41550  1.0000
  H   H416      1.0  0.97083  0.32018  0.35835  1.0000
  H   H417      1.0  0.07361  0.41236  0.35115  1.0000
  N   N13       1.0  0.36946  0.07312  0.34876  1.0000
  H   H418      1.0  0.00971  0.35703  0.34776  1.0000
  C   C232      1.0  0.37539  0.07945  0.36199  1.0000
  C   C233      1.0  0.35238  0.09135  0.34439  1.0000
  C   C234      1.0  0.39874  0.08355  0.34224  1.0000
  C   C235      1.0  0.41930  0.06678  0.34487  1.0000
  H   H419      1.0  0.33570  0.37489  0.44449  1.0000
  C   C236      1.0  0.34619  0.14147  0.34419  1.0000
  C   C237      1.0  0.30229  0.00856  0.44824  1.0000
  C   C238      1.0  0.43369  0.16502  0.30469  1.0000
  C   C239      1.0  0.40778  0.37611  0.32312  1.0000
  C   C240      1.0  0.43584  0.45447  0.39534  1.0000
  S   S68       1.0  0.36960  0.24550  0.29956  1.0000
  H   H420      1.0  0.33099  0.98157  0.33512  1.0000
  N   N14       1.0  0.98099  0.36838  0.35971  1.0000
  H   H421      1.0  0.32877  0.03302  0.35152  1.0000
  H   H422      1.0  0.32945  0.08257  0.34826  1.0000
  H   H423      1.0  0.34874  0.08872  0.33462  1.0000
  H   H424      1.0  0.39437  0.08208  0.33251  1.0000
  H   H425      1.0  0.41273  0.10809  0.34429  1.0000
  H   H426      1.0  0.33722  0.13626  0.33493  1.0000
  S   S69       1.0  0.99088  0.29514  0.32404  1.0000
  H   H427      1.0  0.98433  0.45268  0.31912  1.0000
  H   H428      1.0  0.37839  0.18733  0.31287  1.0000
  H   H429      1.0  0.13439  0.46031  0.41733  1.0000
  C   C241      1.0  0.32537  0.38437  0.45123  1.0000
  H   H430      1.0  0.27600  0.27678  0.44853  1.0000
  H   H431      1.0  0.27827  0.00540  0.44786  1.0000
  C   C242      1.0  0.45716  0.44037  0.43677  1.0000
  H   H432      1.0  0.41031  0.08137  0.38249  1.0000
  H   H433      1.0  0.45700  0.17442  0.30203  1.0000
  H   H434      1.0  0.46282  0.40901  0.45546  1.0000
  Fe  Fe34      1.0  0.38418  0.04511  0.30449  1.0000
  H   H435      1.0  0.37200  0.07417  0.38657  1.0000
  H   H436      1.0  0.16120  0.42603  0.44162  1.0000
  H   H437      1.0  0.26038  0.45773  0.39919  1.0000
  H   H438      1.0  0.23539  0.34264  0.45822  1.0000
  Fe  Fe35      1.0  0.37918  0.98077  0.31085  1.0000
  H   H439      1.0  0.99228  0.40966  0.32794  1.0000
  H   H440      1.0  0.40036  0.46070  0.42562  1.0000
  H   H441      1.0  0.44078  0.41652  0.43795  1.0000
  H   H442      1.0  0.06500  0.37237  0.34858  1.0000
  H   H443      1.0  0.45872  0.45221  0.44550  1.0000
  H   H444      1.0  0.44813  0.35878  0.40579  1.0000
  C   C243      1.0  0.37376  0.14056  0.31168  1.0000
  C   C244      1.0  0.33989  0.02962  0.33327  1.0000
  H   H445      1.0  0.42906  0.11826  0.30342  1.0000
  H   H446      1.0  0.01562  0.42383  0.31536  1.0000
  H   H447      1.0  0.44511  0.08350  0.32882  1.0000
  C   C245      1.0  0.27345  0.27151  0.42970  1.0000
  H   H448      1.0  0.35829  0.16661  0.34537  1.0000
  H   H449      1.0  0.08642  0.39187  0.36158  1.0000
  H   H450      1.0  0.04240  0.40093  0.36875  1.0000
  H   H451      1.0  0.98514  0.44167  0.38234  1.0000
  H   H452      1.0  0.18282  0.43512  0.42170  1.0000
  C   C246      1.0  0.38844  0.38533  0.31458  1.0000
  H   H453      1.0  0.24201  0.27681  0.44160  1.0000
  C   C247      1.0  0.01102  0.37588  0.35392  1.0000
  H   H454      1.0  0.36113  0.02512  0.34938  1.0000
  H   H455      1.0  0.44345  0.30954  0.34531  1.0000
  C   C248      1.0  0.19320  0.32784  0.44030  1.0000
  H   H456      1.0  0.22950  0.32161  0.43180  1.0000
  H   H457      1.0  0.37627  0.13242  0.35606  1.0000
  C   C249      1.0  0.03859  0.38183  0.36239  1.0000
  N   N15       1.0  0.24791  0.29192  0.36705  1.0000
  C   C250      1.0  0.21412  0.28168  0.36597  1.0000
  C   C251      1.0  0.25953  0.28791  0.35510  1.0000
  C   C252      1.0  0.25477  0.27316  0.37627  1.0000
  C   C253      1.0  0.26337  0.32508  0.37086  1.0000
  C   C254      1.0  0.25519  0.34777  0.36352  1.0000
  C   C255      1.0  0.19861  0.28746  0.37711  1.0000
  C   C256      1.0  0.28833  0.27782  0.37754  1.0000
  C   C257      1.0  0.24955  0.25457  0.35040  1.0000
  C   C258      1.0  0.26454  0.25358  0.33868  1.0000
  C   C259      1.0  0.27191  0.38037  0.36845  1.0000
  C   C260      1.0  0.16488  0.27828  0.37468  1.0000
  C   C261      1.0  0.29206  0.25632  0.38660  1.0000
  H   H458      1.0  0.20302  0.25671  0.36398  1.0000
  H   H459      1.0  0.20798  0.29237  0.35828  1.0000
  H   H460      1.0  0.25214  0.29990  0.34824  1.0000
  H   H461      1.0  0.28460  0.29904  0.35513  1.0000
  H   H462      1.0  0.24060  0.24843  0.37468  1.0000
  H   H463      1.0  0.24841  0.27851  0.38519  1.0000
  H   H464      1.0  0.25915  0.32835  0.38034  1.0000
  H   H465      1.0  0.28826  0.33286  0.37039  1.0000
  H   H466      1.0  0.23068  0.34237  0.36373  1.0000
  H   H467      1.0  0.26162  0.34738  0.35415  1.0000
  H   H468      1.0  0.20088  0.27383  0.38458  1.0000
  H   H469      1.0  0.20848  0.31183  0.37999  1.0000
  H   H470      1.0  0.30267  0.30148  0.38061  1.0000
  H   H471      1.0  0.29720  0.27330  0.36906  1.0000
  H   H472      1.0  0.25592  0.24063  0.35669  1.0000
  H   H473      1.0  0.22472  0.24368  0.34881  1.0000
  H   H474      1.0  0.28949  0.26280  0.33994  1.0000
  H   H475      1.0  0.25652  0.22963  0.33530  1.0000
  H   H476      1.0  0.25891  0.26707  0.33191  1.0000
  H   H477      1.0  0.26599  0.38207  0.37783  1.0000
  H   H478      1.0  0.29675  0.38766  0.36793  1.0000
  H   H479      1.0  0.26543  0.39618  0.36319  1.0000
  H   H480      1.0  0.15425  0.28237  0.38280  1.0000
  H   H481      1.0  0.16132  0.29209  0.36751  1.0000
  H   H482      1.0  0.15349  0.25369  0.37211  1.0000
  H   H483      1.0  0.27967  0.23220  0.38355  1.0000
  H   H484      1.0  0.31640  0.26102  0.38770  1.0000
  H   H485      1.0  0.28354  0.25979  0.39534  1.0000
  C   C262      1.0  0.98534  0.39272  0.36917  1.0000
  C   C263      1.0  0.38941  0.17235  0.31074  1.0000
  C   C264      1.0  0.41961  0.39907  0.36589  1.0000
  Fe  Fe36      1.0  0.43602  0.32612  0.29822  1.0000
  H   H486      1.0  0.18067  0.30325  0.44209  1.0000
  C   C265      1.0  0.42112  0.38927  0.35302  1.0000
  C   C266      1.0  0.26688  0.28535  0.44104  1.0000
  C   C267      1.0  0.01168  0.42947  0.32459  1.0000
  C   C268      1.0  0.22696  0.33579  0.43922  1.0000
  H   H487      1.0  0.42527  0.06837  0.35442  1.0000
  C   C269      1.0  0.41831  0.98295  0.43365  1.0000
  H   H488      1.0  0.32025  0.18293  0.30778  1.0000
  C   C270      1.0  0.12740  0.44886  0.38876  1.0000
  C   C271      1.0  0.28218  0.32060  0.44112  1.0000
  H   H489      1.0  0.38150  0.98692  0.36508  1.0000
  H   H490      1.0  0.03540  0.36145  0.36755  1.0000
  C   C272      1.0  0.44914  0.08135  0.33840  1.0000
  H   H491      1.0  0.35986  0.03343  0.32780  1.0000
  C   C273      1.0  0.37552  0.05299  0.36971  1.0000
  C   C274      1.0  0.14794  0.42896  0.43401  1.0000
  H   H492      1.0  0.32705  0.13337  0.35035  1.0000
  H   H493      1.0  0.29811  0.27804  0.42895  1.0000
  H   H494      1.0  0.36714  0.36516  0.31236  1.0000
  H   H495      1.0  0.45566  0.97898  0.44267  1.0000
  H   H496      1.0  0.30687  0.32670  0.44132  1.0000
  H   H497      1.0  0.13942  0.43533  0.38519  1.0000
  C   C275      1.0  0.06759  0.39012  0.35545  1.0000
  H   H498      1.0  0.35777  0.08584  0.36598  1.0000
  H   H499      1.0  0.43071  0.00769  0.43213  1.0000
  C   C276      1.0  0.29043  0.37085  0.44940  1.0000
  H   H500      1.0  0.43808  0.44146  0.41911  1.0000
  H   H501      1.0  0.98487  0.17986  0.44823  1.0000
  H   H502      1.0  0.43123  0.34987  0.33670  1.0000
  C   C277      1.0  0.38791  0.12086  0.30903  1.0000
  N   N16       1.0  0.27390  0.33690  0.45109  1.0000
  H   H503      1.0  0.45014  0.40869  0.31765  1.0000
  S   S70       1.0  0.34773  0.99796  0.30178  1.0000
  H   H504      1.0  0.35048  0.13114  0.31435  1.0000
  H   H505      1.0  0.43132  0.98914  0.45203  1.0000
  C   C278      1.0  0.00139  0.46804  0.33759  1.0000
  H   H506      1.0  0.29885  0.99056  0.33790  1.0000
  H   H507      1.0  0.98667  0.44743  0.34237  1.0000
  C   C279      1.0  0.41068  0.45027  0.43203  1.0000
  C   C280      1.0  0.44167  0.45375  0.42778  1.0000
  H   H508      1.0  0.31091  0.98920  0.32302  1.0000
  H   H509      1.0  0.38261  0.40338  0.31868  1.0000
  C   C281      1.0  0.42020  0.47143  0.39950  1.0000
  H   H510      1.0  0.39410  0.97808  0.43494  1.0000
  H   H511      1.0  0.96626  0.39185  0.34664  1.0000
  C   C282      1.0  0.00479  0.45783  0.32472  1.0000
  H   H512      1.0  0.39004  0.04222  0.36613  1.0000
  C   C283      1.0  0.45503  0.36599  0.33550  1.0000
  H   H513      1.0  0.35223  0.03493  0.37020  1.0000
  H   H514      1.0  0.96781  0.14577  0.45665  1.0000
  C   C284      1.0  0.30144  0.17516  0.30106  1.0000
  H   H515      1.0  0.39540  0.42578  0.43267  1.0000
  H   H516      1.0  0.33446  0.42526  0.44107  1.0000
  C   C285      1.0  0.97605  0.26312  0.35780  1.0000
  H   H517      1.0  0.27998  0.16261  0.30566  1.0000
  H   H518      1.0  0.36400  0.42792  0.45150  1.0000
  H   H519      1.0  0.30324  0.98582  0.44825  1.0000
  C   C286      1.0  0.02360  0.30974  0.45684  1.0000
  H   H520      1.0  0.22430  0.42782  0.39502  1.0000
  H   H521      1.0  0.30012  0.19536  0.29689  1.0000
  H   H522      1.0  0.43630  0.39477  0.37157  1.0000
  C   C287      1.0  0.43831  0.40333  0.32623  1.0000
  H   H523      1.0  0.46219  0.06707  0.33932  1.0000
  H   H524      1.0  0.34254  0.03094  0.45875  1.0000
  H   H525      1.0  0.41279  0.46197  0.44079  1.0000
  C   C288      1.0  0.22212  0.46913  0.40265  1.0000
  H   H526      1.0  0.42397  0.42363  0.36657  1.0000
  N   N17       1.0  0.45841  0.39871  0.33572  1.0000
  C   C289      1.0  0.23766  0.45287  0.39528  1.0000
  H   H527      1.0  0.45048  0.99356  0.39263  1.0000
  H   H528      1.0  0.24046  0.46103  0.38605  1.0000
  H   H529      1.0  0.19145  0.46716  0.38865  1.0000
  H   H530      1.0  0.45684  0.39683  0.40091  1.0000
  H   H531      1.0  0.22295  0.46324  0.41203  1.0000
  H   H532      1.0  0.12857  0.46874  0.37148  1.0000
  C   C290      1.0  0.18917  0.46041  0.39810  1.0000
  C   C291      1.0  0.45213  0.40876  0.34776  1.0000
  H   H533      1.0  0.18452  0.46973  0.42897  1.0000
  C   C292      1.0  0.31853  0.02757  0.45925  1.0000
  H   H534      1.0  0.97467  0.35152  0.33447  1.0000
  H   H535      1.0  0.99604  0.47091  0.36149  1.0000
  H   H536      1.0  0.31683  0.04982  0.45872  1.0000
  H   H537      1.0  0.10077  0.47195  0.38129  1.0000
  H   H538      1.0  0.00732  0.47169  0.45579  1.0000
  C   C293      1.0  0.96588  0.16714  0.45409  1.0000
  C   C294      1.0  0.96416  0.42064  0.38318  1.0000
  H   H539      1.0  0.46099  0.35998  0.32659  1.0000
  N   N18       1.0  0.17022  0.47403  0.40465  1.0000
  H   H540      1.0  0.46294  0.10446  0.34223  1.0000
  H   H541      1.0  0.33593  0.09330  0.56621  1.0000
  S   S71       1.0  0.31937  0.33957  0.62339  1.0000
  H   H542      1.0  0.98321  0.37549  0.53195  1.0000
  C   C295      1.0  0.31536  0.10530  0.49351  1.0000
  H   H543      1.0  0.27903  0.24171  0.60160  1.0000
  Fe  Fe37      1.0  0.05117  0.34034  0.61704  1.0000
  S   S72       1.0  0.00911  0.32235  0.60446  1.0000
  S   S73       1.0  0.09762  0.37492  0.61303  1.0000
  Fe  Fe38      1.0  0.36403  0.35580  0.61422  1.0000
  S   S74       1.0  0.37277  0.40541  0.61575  1.0000
  S   S75       1.0  0.37203  0.32994  0.59825  1.0000
  C   C296      1.0  0.44605  0.98160  0.62085  1.0000
  C   C297      1.0  0.02163  0.30371  0.46908  1.0000
  H   H544      1.0  0.28016  0.32072  0.60190  1.0000
  Fe  Fe39      1.0  0.38887  0.29698  0.50282  1.0000
  S   S76       1.0  0.42744  0.28233  0.50230  1.0000
  S   S77       1.0  0.35642  0.28751  0.48673  1.0000
  Fe  Fe40      1.0  0.40529  0.32303  0.52849  1.0000
  H   H545      1.0  0.97060  0.21846  0.59568  1.0000
  S   S78       1.0  0.39559  0.35222  0.54289  1.0000
  C   C298      1.0  0.02025  0.23073  0.49560  1.0000
  H   H546      1.0  0.26256  0.33258  0.55817  1.0000
  Fe  Fe41      1.0  0.41517  0.26572  0.52077  1.0000
  S   S79       1.0  0.42032  0.22499  0.52941  1.0000
  S   S80       1.0  0.41697  0.34381  0.51041  1.0000
  S   S81       1.0  0.37402  0.27686  0.52089  1.0000
  C   C299      1.0  0.26101  0.30203  0.46965  1.0000
  S   S82       1.0  0.41655  0.03827  0.53450  1.0000
  H   H547      1.0  0.02885  0.36897  0.52211  1.0000
  H   H548      1.0  0.28702  0.27531  0.61080  1.0000
  S   S83       1.0  0.42676  0.02595  0.50610  1.0000
  H   H549      1.0  0.39780  0.99251  0.56286  1.0000
  Fe  Fe42      1.0  0.43831  0.01258  0.52393  1.0000
  C   C300      1.0  0.27403  0.27884  0.59245  1.0000
  Fe  Fe43      1.0  0.40144  0.04829  0.51671  1.0000
  S   S84       1.0  0.39609  0.09054  0.50987  1.0000
  S   S85       1.0  0.35818  0.00578  0.51636  1.0000
  S   S86       1.0  0.99048  0.29191  0.54832  1.0000
  H   H550      1.0  0.41108  0.06443  0.48797  1.0000
  H   H551      1.0  0.32371  0.97857  0.49303  1.0000
  C   C301      1.0  0.99592  0.30099  0.47546  1.0000
  H   H552      1.0  0.31583  0.33198  0.57360  1.0000
  H   H553      1.0  0.36032  0.12252  0.54910  1.0000
  H   H554      1.0  0.00272  0.37203  0.56234  1.0000
  H   H555      1.0  0.27972  0.00219  0.46981  1.0000
  C   C302      1.0  0.41349  0.18774  0.52376  1.0000
  C   C303      1.0  0.40181  0.17768  0.51231  1.0000
  C   C304      1.0  0.39676  0.14794  0.50825  1.0000
  C   C305      1.0  0.40341  0.12788  0.51553  1.0000
  C   C306      1.0  0.41512  0.13790  0.52698  1.0000
  H   H556      1.0  0.25825  0.34383  0.61923  1.0000
  H   H557      1.0  0.39667  0.19283  0.50658  1.0000
  H   H558      1.0  0.38778  0.14052  0.49937  1.0000
  H   H559      1.0  0.44782  0.35885  0.57083  1.0000
  Fe  Fe44      1.0  0.37520  0.99413  0.53345  1.0000
  C   C307      1.0  0.36508  0.30743  0.47319  1.0000
  N   N19       1.0  0.35778  0.06479  0.55948  1.0000
  C   C308      1.0  0.38931  0.33587  0.47241  1.0000
  H   H560      1.0  0.33633  0.05597  0.52244  1.0000
  H   H561      1.0  0.40363  0.34589  0.48014  1.0000
  C   C309      1.0  0.35908  0.09470  0.56458  1.0000
  H   H562      1.0  0.02462  0.43289  0.60715  1.0000
  H   H563      1.0  0.02878  0.23969  0.48677  1.0000
  H   H564      1.0  0.96371  0.42063  0.47011  1.0000
  C   C310      1.0  0.38900  0.34549  0.55826  1.0000
  C   C311      1.0  0.38581  0.31803  0.56332  1.0000
  C   C312      1.0  0.38055  0.31376  0.57554  1.0000
  C   C313      1.0  0.37852  0.33683  0.58290  1.0000
  C   C314      1.0  0.38186  0.36438  0.57786  1.0000
  C   C315      1.0  0.38684  0.36855  0.56561  1.0000
  H   H565      1.0  0.38736  0.30006  0.55781  1.0000
  H   H566      1.0  0.37810  0.29238  0.57934  1.0000
  H   H567      1.0  0.38078  0.38248  0.58340  1.0000
  H   H568      1.0  0.38930  0.38990  0.56180  1.0000
  H   H569      1.0  0.97193  0.46941  0.53806  1.0000
  H   H570      1.0  0.99503  0.22197  0.61529  1.0000
  C   C316      1.0  0.99491  0.30091  0.56392  1.0000
  H   H571      1.0  0.30939  0.04291  0.56192  1.0000
  C   C317      1.0  0.00461  0.31490  0.58877  1.0000
  C   C318      1.0  0.02899  0.31909  0.58147  1.0000
  C   C319      1.0  0.02414  0.31214  0.56917  1.0000
  H   H572      1.0  0.05160  0.32743  0.58531  1.0000
  H   H573      1.0  0.04323  0.31525  0.56369  1.0000
  C   C320      1.0  0.04035  0.37363  0.53097  1.0000
  C   C321      1.0  0.30481  0.01071  0.47067  1.0000
  H   H574      1.0  0.28177  0.02123  0.57989  1.0000
  H   H575      1.0  0.27449  0.37270  0.58045  1.0000
  H   H576      1.0  0.18235  0.30668  0.58196  1.0000
  H   H577      1.0  0.29410  0.10473  0.48945  1.0000
  C   C322      1.0  0.32896  0.07137  0.52771  1.0000
  C   C323      1.0  0.98264  0.25764  0.62314  1.0000
  H   H578      1.0  0.00626  0.37760  0.58472  1.0000
  H   H579      1.0  0.23238  0.24811  0.62612  1.0000
  C   C324      1.0  0.97538  0.30394  0.58351  1.0000
  H   H580      1.0  0.40422  0.05025  0.47276  1.0000
  H   H581      1.0  0.31752  0.41708  0.59912  1.0000
  C   C325      1.0  0.37148  0.06687  0.47941  1.0000
  C   C326      1.0  0.30808  0.05562  0.48259  1.0000
  H   H582      1.0  0.31385  0.27473  0.60000  1.0000
  H   H583      1.0  0.36521  0.07088  0.47037  1.0000
  H   H584      1.0  0.98978  0.19317  0.46942  1.0000
  H   H585      1.0  0.28386  0.04884  0.48002  1.0000
  H   H586      1.0  0.43887  0.39934  0.61141  1.0000
  H   H587      1.0  0.01878  0.24940  0.50117  1.0000
  C   C327      1.0  0.24319  0.35507  0.62051  1.0000
  H   H588      1.0  0.29795  0.31395  0.54820  1.0000
  H   H589      1.0  0.45545  0.38435  0.48491  1.0000
  C   C328      1.0  0.37903  0.97861  0.56816  1.0000
  H   H590      1.0  0.97709  0.22913  0.48105  1.0000
  C   C329      1.0  0.00118  0.45890  0.47940  1.0000
  C   C330      1.0  0.97220  0.30458  0.46942  1.0000
  H   H591      1.0  0.01393  0.40824  0.48292  1.0000
  C   C331      1.0  0.01618  0.44296  0.61443  1.0000
  H   H592      1.0  0.31583  0.42482  0.58358  1.0000
  H   H593      1.0  0.33472  0.11894  0.48797  1.0000
  H   H594      1.0  0.30523  0.32628  0.46212  1.0000
  H   H595      1.0  0.44517  0.46087  0.61225  1.0000
  C   C332      1.0  0.39477  0.35154  0.46167  1.0000
  C   C333      1.0  0.99754  0.39570  0.58420  1.0000
  S   S87       1.0  0.15231  0.33031  0.61973  1.0000
  H   H596      1.0  0.33483  0.07467  0.49917  1.0000
  H   H597      1.0  0.31889  0.11674  0.50239  1.0000
  H   H598      1.0  0.37234  0.08639  0.48506  1.0000
  C   C334      1.0  0.34655  0.29481  0.46305  1.0000
  H   H599      1.0  0.41338  0.37361  0.46125  1.0000
  H   H600      1.0  0.44150  0.41265  0.48898  1.0000
  C   C335      1.0  0.98285  0.47389  0.54702  1.0000
  C   C336      1.0  0.29806  0.00732  0.49200  1.0000
  H   H601      1.0  0.35745  0.15198  0.56717  1.0000
  H   H602      1.0  0.45103  0.44818  0.58588  1.0000
  H   H603      1.0  0.32796  0.27266  0.46350  1.0000
  H   H604      1.0  0.25084  0.28120  0.46394  1.0000
  H   H605      1.0  0.38012  0.99222  0.47386  1.0000
  H   H606      1.0  0.28240  0.30064  0.56921  1.0000
  H   H607      1.0  0.04253  0.39872  0.54714  1.0000
  C   C337      1.0  0.96730  0.18689  0.46505  1.0000
  H   H608      1.0  0.18448  0.27233  0.58745  1.0000
  H   H609      1.0  0.98216  0.38073  0.47464  1.0000
  C   C338      1.0  0.99018  0.40237  0.47999  1.0000
  H   H610      1.0  0.29471  0.06070  0.50072  1.0000
  C   C339      1.0  0.32983  0.03309  0.57746  1.0000
  H   H611      1.0  0.24237  0.30767  0.47298  1.0000
  C   C340      1.0  0.42004  0.16761  0.53106  1.0000
  Fe  Fe45      1.0  0.11605  0.34761  0.62419  1.0000
  H   H612      1.0  0.06507  0.38553  0.52973  1.0000
  H   H613      1.0  0.42447  0.98337  0.62294  1.0000
  H   H614      1.0  0.42087  0.10548  0.56513  1.0000
  C   C341      1.0  0.37935  0.15266  0.56406  1.0000
  H   H615      1.0  0.38626  0.05829  0.57323  1.0000
  C   C342      1.0  0.98930  0.20402  0.49437  1.0000
  H   H616      1.0  0.39677  0.12580  0.55379  1.0000
  C   C343      1.0  0.98992  0.42451  0.54583  1.0000
  H   H617      1.0  0.04019  0.30108  0.47364  1.0000
  C   C344      1.0  0.24249  0.31408  0.58130  1.0000
  H   H618      1.0  0.03581  0.35162  0.53528  1.0000
  S   S88       1.0  0.44554  0.31106  0.52939  1.0000
  H   H619      1.0  0.23517  0.29011  0.57795  1.0000
  H   H620      1.0  0.32936  0.34884  0.55288  1.0000
  H   H621      1.0  0.25911  0.27554  0.48524  1.0000
  C   C345      1.0  0.28942  0.26703  0.60180  1.0000
  H   H622      1.0  0.29938  0.00653  0.59085  1.0000
  H   H623      1.0  0.25101  0.28820  0.62322  1.0000
  H   H624      1.0  0.33129  0.37381  0.59389  1.0000
  H   H625      1.0  0.03663  0.22313  0.49992  1.0000
  C   C346      1.0  0.99701  0.39229  0.56172  1.0000
  H   H626      1.0  0.28637  0.31459  0.48651  1.0000
  H   H627      1.0  0.00050  0.42864  0.46434  1.0000
  H   H628      1.0  0.99180  0.18508  0.48939  1.0000
  C   C347      1.0  0.27611  0.29447  0.48036  1.0000
  C   C348      1.0  0.28667  0.34204  0.56109  1.0000
  H   H629      1.0  0.01478  0.43805  0.54597  1.0000
  H   H630      1.0  0.27706  0.36450  0.59550  1.0000
  H   H631      1.0  0.39483  0.15573  0.57180  1.0000
  C   C349      1.0  0.99498  0.37748  0.54069  1.0000
  H   H632      1.0  0.30753  0.03913  0.54112  1.0000
  H   H633      1.0  0.03488  0.41517  0.53391  1.0000
  C   C350      1.0  0.28630  0.31418  0.59315  1.0000
  H   H634      1.0  0.31136  0.32300  0.59354  1.0000
  C   C351      1.0  0.97701  0.44391  0.55311  1.0000
  C   C352      1.0  0.31360  0.07300  0.49476  1.0000
  H   H635      1.0  0.27806  0.27049  0.58372  1.0000
  H   H636      1.0  0.32649  0.01715  0.55930  1.0000
  H   H637      1.0  0.24938  0.26841  0.59400  1.0000
  H   H638      1.0  0.99064  0.35379  0.54323  1.0000
  N   N20       1.0  0.27630  0.32888  0.58324  1.0000
  H   H639      1.0  0.35473  0.01769  0.48116  1.0000
  H   H640      1.0  0.35448  0.03801  0.49417  1.0000
  H   H641      1.0  0.38312  0.03679  0.55987  1.0000
  C   C353      1.0  0.44849  0.46690  0.60283  1.0000
  C   C354      1.0  0.34893  0.03638  0.48451  1.0000
  H   H642      1.0  0.40101  0.45824  0.60005  1.0000
  S   S89       1.0  0.06965  0.31101  0.62689  1.0000
  H   H643      1.0  0.34547  0.02211  0.57962  1.0000
  H   H644      1.0  0.37042  0.09942  0.57351  1.0000
  H   H645      1.0  0.33030  0.38196  0.57843  1.0000
  H   H646      1.0  0.99109  0.43267  0.61417  1.0000
  H   H647      1.0  0.98352  0.39406  0.59206  1.0000
  H   H648      1.0  0.02400  0.43715  0.62295  1.0000
  C   C355      1.0  0.22352  0.31440  0.59221  1.0000
  H   H649      1.0  0.30075  0.35008  0.54283  1.0000
  C   C356      1.0  0.41639  0.08375  0.56023  1.0000
  C   C357      1.0  0.28544  0.36211  0.58657  1.0000
  C   C358      1.0  0.46129  0.40925  0.48553  1.0000
  H   H650      1.0  0.44619  0.41051  0.57336  1.0000
  C   C359      1.0  0.02946  0.39358  0.53863  1.0000
  C   C360      1.0  0.29114  0.32508  0.57202  1.0000
  H   H651      1.0  0.42918  0.17518  0.53991  1.0000
  C   C361      1.0  0.32636  0.41526  0.59026  1.0000
  H   H652      1.0  0.41931  0.09070  0.47606  1.0000
  C   C362      1.0  0.31990  0.38209  0.58709  1.0000
  H   H653      1.0  0.27367  0.00301  0.49120  1.0000
  H   H654      1.0  0.44156  0.38108  0.59117  1.0000
  H   H655      1.0  0.30605  0.01850  0.50088  1.0000
  C   C363      1.0  0.29852  0.01119  0.58129  1.0000
  H   H656      1.0  0.29401  0.28714  0.47750  1.0000
  H   H657      1.0  0.22710  0.33813  0.59469  1.0000
  H   H658      1.0  0.22951  0.30404  0.59997  1.0000
  H   H659      1.0  0.17672  0.29797  0.59739  1.0000
  H   H660      1.0  0.01692  0.41836  0.58449  1.0000
  H   H661      1.0  0.99085  0.45587  0.48828  1.0000
  C   C364      1.0  0.30478  0.33842  0.55065  1.0000
  H   H662      1.0  0.30693  0.06960  0.52402  1.0000
  H   H663      1.0  0.42410  0.42152  0.59516  1.0000
  H   H664      1.0  0.98212  0.42384  0.53643  1.0000
  C   C365      1.0  0.25514  0.38662  0.62259  1.0000
  N   N21       1.0  0.31565  0.02808  0.48233  1.0000
  C   C366      1.0  0.32567  0.06252  0.54069  1.0000
  H   H665      1.0  0.23543  0.32581  0.57424  1.0000
  H   H666      1.0  0.34572  0.09527  0.52688  1.0000
  H   H667      1.0  0.32080  0.07222  0.47589  1.0000
  H   H668      1.0  0.37481  0.08164  0.54214  1.0000
  C   C367      1.0  0.37456  0.12349  0.55702  1.0000
  H   H669      1.0  0.33667  0.05466  0.58276  1.0000
  C   C368      1.0  0.28386  0.32958  0.46300  1.0000
  H   H670      1.0  0.96953  0.40937  0.57288  1.0000
  H   H671      1.0  0.24426  0.42543  0.62563  1.0000
  H   H672      1.0  0.41806  0.08788  0.55061  1.0000
  S   S90       1.0  0.99451  0.29238  0.49081  1.0000
  H   H673      1.0  0.35730  0.04173  0.54277  1.0000
  H   H674      1.0  0.01909  0.41237  0.56273  1.0000
  H   H675      1.0  0.97579  0.39849  0.48786  1.0000
  H   H676      1.0  0.38964  0.17264  0.55831  1.0000
  C   C369      1.0  0.18975  0.29670  0.58953  1.0000
  C   C370      1.0  0.35551  0.06293  0.54612  1.0000
  C   C371      1.0  0.38508  0.05936  0.56343  1.0000
  H   H677      1.0  0.31806  0.07823  0.54561  1.0000
  N   N22       1.0  0.98243  0.39242  0.54978  1.0000
  C   C372      1.0  0.33003  0.03898  0.56398  1.0000
  C   C373      1.0  0.44755  0.43964  0.59504  1.0000
  H   H678      1.0  0.29416  0.36680  0.56298  1.0000
  C   C374      1.0  0.40343  0.06800  0.47903  1.0000
  H   H679      1.0  0.42060  0.12290  0.53265  1.0000
  H   H680      1.0  0.43566  0.97589  0.48962  1.0000
  C   C375      1.0  0.20368  0.38404  0.62343  1.0000
  C   C376      1.0  0.44157  0.07394  0.56392  1.0000
  H   H681      1.0  0.99797  0.25647  0.59921  1.0000
  H   H682      1.0  0.28938  0.34923  0.46939  1.0000
  Fe  Fe46      1.0  0.38404  0.98312  0.50663  1.0000
  H   H683      1.0  0.00576  0.27498  0.62144  1.0000
  H   H684      1.0  0.98206  0.19628  0.50347  1.0000
  H   H685      1.0  0.43459  0.97467  0.60246  1.0000
  S   S91       1.0  0.29467  0.40885  0.62326  1.0000
  H   H686      1.0  0.43824  0.05183  0.55955  1.0000
  H   H687      1.0  0.02537  0.46398  0.48126  1.0000
  H   H688      1.0  0.35111  0.42907  0.59050  1.0000
  H   H689      1.0  0.98380  0.42227  0.50788  1.0000
  C   C377      1.0  0.19174  0.35252  0.62125  1.0000
  H   H690      1.0  0.96635  0.20823  0.46201  1.0000
  H   H691      1.0  0.44210  0.07157  0.57367  1.0000
  C   C378      1.0  0.98790  0.42764  0.47255  1.0000
  H   H692      1.0  0.98835  0.44981  0.56197  1.0000
  H   H693      1.0  0.20258  0.31370  0.61833  1.0000
  S   S92       1.0  0.96550  0.31713  0.51999  1.0000
  C   C379      1.0  0.97663  0.23002  0.61452  1.0000
  H   H694      1.0  0.96700  0.26805  0.62022  1.0000
  H   H695      1.0  0.40645  0.98426  0.58400  1.0000
  C   C380      1.0  0.97571  0.23874  0.60162  1.0000
  C   C381      1.0  0.21166  0.33810  0.61992  1.0000
  H   H696      1.0  0.18860  0.39545  0.62446  1.0000
  H   H697      1.0  0.31005  0.99021  0.47033  1.0000
  H   H698      1.0  0.29108  0.98916  0.57622  1.0000
  C   C382      1.0  0.97840  0.39149  0.57288  1.0000
  C   C383      1.0  0.23524  0.40100  0.62404  1.0000
  C   C384      1.0  0.97053  0.29692  0.57121  1.0000
  Fe  Fe47      1.0  0.32965  0.38916  0.62611  1.0000
  Fe  Fe48      1.0  0.45479  0.32825  0.51094  1.0000
  C   C385      1.0  0.96571  0.21358  0.48826  1.0000
  C   C386      1.0  0.29987  0.97578  0.49253  1.0000
  Fe  Fe49      1.0  0.03559  0.23034  0.74102  1.0000
  S   S93       1.0  0.02252  0.27008  0.74233  1.0000
  S   S94       1.0  0.08605  0.24824  0.74481  1.0000
  Fe  Fe50      1.0  0.98433  0.24027  0.75326  1.0000
  H   H699      1.0  0.14419  0.25355  0.71479  1.0000
  Fe  Fe51      1.0  0.99398  0.24973  0.72591  1.0000
  H   H700      1.0  0.06950  0.33228  0.73849  1.0000
  S   S95       1.0  0.99859  0.20132  0.75286  1.0000
  S   S96       1.0  0.00847  0.21103  0.72419  1.0000
  C   C387      1.0  0.17473  0.98752  0.74034  1.0000
  H   H701      1.0  0.08276  0.31596  0.70720  1.0000
  S   S97       1.0  0.25963  0.03320  0.74988  1.0000
  Fe  Fe52      1.0  0.22528  0.21399  0.73377  1.0000
  S   S98       1.0  0.24874  0.26484  0.73550  1.0000
  S   S99       1.0  0.17503  0.18669  0.73068  1.0000
  Fe  Fe53      1.0  0.28353  0.20523  0.73534  1.0000
  S   S100      1.0  0.31186  0.25612  0.73707  1.0000
  S   S101      1.0  0.30675  0.17213  0.73459  1.0000
  Fe  Fe54      1.0  0.27709  0.25680  0.74999  1.0000
  S   S102      1.0  0.28794  0.28949  0.76626  1.0000
  Fe  Fe55      1.0  0.28182  0.26085  0.72245  1.0000
  S   S103      1.0  0.29783  0.29861  0.70869  1.0000
  S   S104      1.0  0.25080  0.20577  0.74919  1.0000
  S   S105      1.0  0.25626  0.21011  0.71980  1.0000
  S   S106      1.0  0.38903  0.35670  0.63125  1.0000
  Fe  Fe56      1.0  0.06916  0.33707  0.64368  1.0000
  S   S107      1.0  0.05786  0.30557  0.65982  1.0000
  S   S108      1.0  0.11651  0.37252  0.64124  1.0000
  Fe  Fe57      1.0  0.34522  0.34463  0.64067  1.0000
  S   S109      1.0  0.35310  0.39368  0.64394  1.0000
  S   S110      1.0  0.32681  0.30465  0.65331  1.0000
  H   H702      1.0  0.06079  0.44393  0.64276  1.0000
  H   H703      1.0  0.20430  0.31031  0.71610  1.0000
  H   H704      1.0  0.06644  0.26229  0.70901  1.0000
  H   H705      1.0  0.02471  0.25332  0.63754  1.0000
  H   H706      1.0  0.09041  0.25314  0.71861  1.0000
  H   H707      1.0  0.05541  0.32968  0.72346  1.0000
  H   H708      1.0  0.19829  0.27088  0.71741  1.0000
  H   H709      1.0  0.04184  0.20572  0.70282  1.0000
  H   H710      1.0  0.06932  0.19905  0.71205  1.0000
  H   H711      1.0  0.29525  0.12186  0.77960  1.0000
  S   S111      1.0  0.99594  0.28216  0.71080  1.0000
  H   H712      1.0  0.28283  0.34782  0.66426  1.0000
  C   C388      1.0  0.30651  0.29962  0.69335  1.0000
  C   C389      1.0  0.30159  0.27327  0.68655  1.0000
  C   C390      1.0  0.30820  0.27533  0.67437  1.0000
  C   C391      1.0  0.32002  0.30370  0.66882  1.0000
  C   C392      1.0  0.32505  0.33005  0.67563  1.0000
  C   C393      1.0  0.31816  0.32796  0.68778  1.0000
  H   H713      1.0  0.29262  0.25131  0.69067  1.0000
  H   H714      1.0  0.30419  0.25476  0.66921  1.0000
  H   H715      1.0  0.33432  0.35206  0.67156  1.0000
  H   H716      1.0  0.32214  0.34851  0.69295  1.0000
  H   H717      1.0  0.25527  0.13666  0.78422  1.0000
  C   C394      1.0  0.29804  0.28884  0.78143  1.0000
  C   C395      1.0  0.00360  0.35116  0.77606  1.0000
  H   H718      1.0  0.23180  0.26370  0.79033  1.0000
  H   H719      1.0  0.29583  0.24329  0.78101  1.0000
  H   H720      1.0  0.25114  0.06933  0.72110  1.0000
  C   C396      1.0  0.24974  0.02705  0.71433  1.0000
  C   C397      1.0  0.27330  0.07161  0.74534  1.0000
  C   C398      1.0  0.30065  0.08589  0.73960  1.0000
  C   C399      1.0  0.31046  0.11660  0.73632  1.0000
  C   C400      1.0  0.29296  0.13330  0.73864  1.0000
  C   C401      1.0  0.26562  0.11901  0.74439  1.0000
  C   C402      1.0  0.25604  0.08848  0.74782  1.0000
  H   H721      1.0  0.31442  0.07340  0.73780  1.0000
  H   H722      1.0  0.33177  0.12749  0.73194  1.0000
  H   H723      1.0  0.25181  0.13145  0.74617  1.0000
  H   H724      1.0  0.23489  0.07771  0.75232  1.0000
  H   H725      1.0  0.41114  0.32553  0.79181  1.0000
  C   C403      1.0  0.10989  0.23006  0.74098  1.0000
  C   C404      1.0  0.09907  0.20176  0.73499  1.0000
  C   C405      1.0  0.11923  0.18860  0.73186  1.0000
  C   C406      1.0  0.15021  0.20358  0.73476  1.0000
  C   C407      1.0  0.16087  0.23168  0.74089  1.0000
  C   C408      1.0  0.14079  0.24489  0.74395  1.0000
  H   H726      1.0  0.07521  0.18997  0.73286  1.0000
  H   H727      1.0  0.11082  0.16671  0.72721  1.0000
  H   H728      1.0  0.18458  0.24323  0.74328  1.0000
  H   H729      1.0  0.14925  0.26672  0.74865  1.0000
  C   C409      1.0  0.01351  0.28840  0.69667  1.0000
  C   C410      1.0  0.02550  0.26885  0.69176  1.0000
  C   C411      1.0  0.03917  0.27475  0.68059  1.0000
  C   C412      1.0  0.04075  0.29999  0.67401  1.0000
  C   C413      1.0  0.02847  0.31938  0.67885  1.0000
  C   C414      1.0  0.01502  0.31362  0.69009  1.0000
  H   H730      1.0  0.02371  0.24886  0.69649  1.0000
  H   H731      1.0  0.04839  0.25945  0.67696  1.0000
  H   H732      1.0  0.02935  0.33885  0.67395  1.0000
  H   H733      1.0  0.00566  0.32884  0.69372  1.0000
  C   C415      1.0  0.99288  0.26494  0.78428  1.0000
  H   H734      1.0  0.16709  0.36042  0.67812  1.0000
  H   H735      1.0  0.13550  0.35078  0.69540  1.0000
  H   H736      1.0  0.97981  0.20678  0.65401  1.0000
  H   H737      1.0  0.17804  0.11527  0.72144  1.0000
  C   C416      1.0  0.07178  0.46708  0.63979  1.0000
  C   C417      1.0  0.22649  0.14745  0.77229  1.0000
  C   C418      1.0  0.32456  0.18368  0.78695  1.0000
  C   C419      1.0  0.20296  0.12398  0.72068  1.0000
  H   H738      1.0  0.08237  0.24292  0.69141  1.0000
  C   C420      1.0  0.26123  0.34924  0.66155  1.0000
  H   H739      1.0  0.21153  0.04262  0.73320  1.0000
  C   C421      1.0  0.00102  0.22703  0.65245  1.0000
  C   C422      1.0  0.23658  0.29587  0.66691  1.0000
  C   C423      1.0  0.19857  0.25164  0.77624  1.0000
  C   C424      1.0  0.20835  0.32033  0.65495  1.0000
  H   H740      1.0  0.13065  0.27422  0.65307  1.0000
  C   C425      1.0  0.30021  0.26340  0.78647  1.0000
  H   H741      1.0  0.12951  0.28480  0.69155  1.0000
  H   H742      1.0  0.20915  0.08390  0.70411  1.0000
  H   H743      1.0  0.29382  0.42396  0.65144  1.0000
  H   H744      1.0  0.21323  0.24628  0.76992  1.0000
  H   H745      1.0  0.22535  0.25921  0.64682  1.0000
  H   H746      1.0  0.35814  0.09726  0.77673  1.0000
  C   C426      1.0  0.00122  0.23707  0.63950  1.0000
  H   H747      1.0  0.19536  0.99773  0.74609  1.0000
  S   S112      1.0  0.04727  0.36425  0.63404  1.0000
  H   H748      1.0  0.25251  0.32590  0.63930  1.0000
  H   H749      1.0  0.21359  0.31423  0.67968  1.0000
  H   H750      1.0  0.30210  0.33465  0.78487  1.0000
  H   H751      1.0  0.35075  0.14146  0.78537  1.0000
  Fe  Fe58      1.0  0.39542  0.40578  0.63334  1.0000
  C   C427      1.0  0.02724  0.21786  0.65496  1.0000
  H   H752      1.0  0.22097  0.28606  0.69709  1.0000
  H   H753      1.0  0.98623  0.27765  0.65259  1.0000
  H   H754      1.0  0.18570  0.29351  0.78951  1.0000
  C   C428      1.0  0.28752  0.40628  0.65829  1.0000
  H   H755      1.0  0.32825  0.09068  0.76592  1.0000
  H   H756      1.0  0.20960  0.13456  0.71193  1.0000
  C   C429      1.0  0.17913  0.29093  0.65644  1.0000
  C   C430      1.0  0.28295  0.03769  0.71115  1.0000
  H   H757      1.0  0.25328  0.35739  0.66955  1.0000
  N   N23       1.0  0.23820  0.31819  0.65743  1.0000
  C   C431      1.0  0.23126  0.30509  0.67963  1.0000
  C   C432      1.0  0.23917  0.05336  0.71362  1.0000
  C   C433      1.0  0.97300  0.32387  0.64898  1.0000
  H   H758      1.0  0.22342  0.14950  0.76263  1.0000
  H   H759      1.0  0.19387  0.05197  0.68913  1.0000
  C   C434      1.0  0.33664  0.09975  0.77503  1.0000
  H   H760      1.0  0.25804  0.29255  0.66735  1.0000
  C   C435      1.0  0.21829  0.27440  0.78578  1.0000
  C   C436      1.0  0.18194  0.99661  0.72749  1.0000
  C   C437      1.0  0.15157  0.29433  0.65103  1.0000
  H   H761      1.0  0.26847  0.27062  0.63321  1.0000
  H   H762      1.0  0.24754  0.01897  0.72354  1.0000
  C   C438      1.0  0.02107  0.26344  0.78513  1.0000
  H   H763      1.0  0.36875  0.41264  0.79180  1.0000
  C   C439      1.0  0.06480  0.20586  0.70315  1.0000
  C   C440      1.0  0.19980  0.07287  0.71257  1.0000
  C   C441      1.0  0.23040  0.27788  0.64049  1.0000
  H   H764      1.0  0.22245  0.03701  0.69039  1.0000
  H   H765      1.0  0.18322  0.23008  0.78026  1.0000
  H   H766      1.0  0.15336  0.29580  0.64125  1.0000
  H   H767      1.0  0.25270  0.12138  0.76953  1.0000
  H   H768      1.0  0.25257  0.32302  0.68340  1.0000
  H   H769      1.0  0.31985  0.08592  0.78149  1.0000
  S   S113      1.0  0.44384  0.43752  0.63891  1.0000
  H   H770      1.0  0.18041  0.27053  0.65224  1.0000
  C   C442      1.0  0.18836  0.02199  0.70433  1.0000
  C   C443      1.0  0.15112  0.33667  0.67987  1.0000
  H   H771      1.0  0.23880  0.26787  0.68779  1.0000
  H   H772      1.0  0.22769  0.16845  0.77701  1.0000
  H   H773      1.0  0.10854  0.31583  0.73247  1.0000
  H   H774      1.0  0.16599  0.33889  0.69796  1.0000
  H   H775      1.0  0.03029  0.25704  0.77739  1.0000
  H   H776      1.0  0.18541  0.28912  0.72878  1.0000
  H   H777      1.0  0.28316  0.37164  0.64539  1.0000
  H   H778      1.0  0.18472  0.98558  0.68415  1.0000
  H   H779      1.0  0.27299  0.31038  0.64808  1.0000
  C   C444      1.0  0.24994  0.30935  0.64631  1.0000
  H   H780      1.0  0.16163  0.32106  0.67708  1.0000
  C   C445      1.0  0.41089  0.98520  0.65491  1.0000
  H   H781      1.0  0.11060  0.23584  0.69976  1.0000
  C   C446      1.0  0.97100  0.30055  0.63921  1.0000
  H   H782      1.0  0.19940  0.26042  0.68519  1.0000
  H   H783      1.0  0.09986  0.29720  0.69056  1.0000
  H   H784      1.0  0.28610  0.04408  0.70171  1.0000
  H   H785      1.0  0.21355  0.14196  0.72769  1.0000
  H   H786      1.0  0.02616  0.19909  0.64880  1.0000
  C   C447      1.0  0.25498  0.14204  0.77478  1.0000
  N   N24       1.0  0.97922  0.25083  0.63619  1.0000
  C   C448      1.0  0.19383  0.03169  0.72616  1.0000
  H   H787      1.0  0.17499  0.06676  0.71200  1.0000
  H   H788      1.0  0.23381  0.29463  0.78108  1.0000
  H   H789      1.0  0.17451  0.03736  0.72867  1.0000
  H   H790      1.0  0.16269  0.27828  0.70283  1.0000
  H   H791      1.0  0.22484  0.34228  0.79333  1.0000
  H   H792      1.0  0.99196  0.32705  0.77285  1.0000
  H   H793      1.0  0.14958  0.31516  0.65458  1.0000
  H   H794      1.0  0.30859  0.40675  0.66250  1.0000
  H   H795      1.0  0.24845  0.37566  0.64835  1.0000
  H   H796      1.0  0.34334  0.23500  0.77230  1.0000
  H   H797      1.0  0.15773  0.32205  0.71629  1.0000
  H   H798      1.0  0.17502  0.28617  0.66597  1.0000
  H   H799      1.0  0.01263  0.29525  0.64170  1.0000
  N   N25       1.0  0.31416  0.16956  0.77475  1.0000
  H   H800      1.0  0.09245  0.35829  0.72778  1.0000
  C   C449      1.0  0.28396  0.16980  0.77125  1.0000
  C   C450      1.0  0.33735  0.18870  0.76610  1.0000
  H   H801      1.0  0.35980  0.22634  0.74674  1.0000
  C   C451      1.0  0.34201  0.13337  0.77624  1.0000
  C   C452      1.0  0.33877  0.22117  0.76396  1.0000
  C   C453      1.0  0.36400  0.23844  0.75551  1.0000
  H   H802      1.0  0.30445  0.12806  0.76455  1.0000
  H   H803      1.0  0.04124  0.39842  0.78897  1.0000
  H   H804      1.0  0.28194  0.17047  0.76143  1.0000
  H   H805      1.0  0.33346  0.17664  0.75731  1.0000
  H   H806      1.0  0.36048  0.19195  0.76906  1.0000
  H   H807      1.0  0.29741  0.05756  0.71682  1.0000
  H   H808      1.0  0.36478  0.26162  0.75421  1.0000
  H   H809      1.0  0.35961  0.14590  0.76984  1.0000
  C   C454      1.0  0.18037  0.00622  0.68253  1.0000
  H   H810      1.0  0.43641  0.97994  0.66959  1.0000
  H   H811      1.0  0.31730  0.22007  0.75993  1.0000
  H   H812      1.0  0.20905  0.27794  0.63682  1.0000
  H   H813      1.0  0.38628  0.24084  0.75917  1.0000
  H   H814      1.0  0.29037  0.01889  0.71252  1.0000
  H   H815      1.0  0.13004  0.33142  0.67451  1.0000
  H   H816      1.0  0.18494  0.26142  0.77118  1.0000
  C   C455      1.0  0.08849  0.23740  0.70031  1.0000
  C   C456      1.0  0.96996  0.12402  0.76405  1.0000
  H   H817      1.0  0.20784  0.32851  0.64581  1.0000
  H   H818      1.0  0.20744  0.08956  0.73130  1.0000
  H   H819      1.0  0.13503  0.29225  0.72531  1.0000
  H   H820      1.0  0.04920  0.23774  0.65401  1.0000
  H   H821      1.0  0.28245  0.19097  0.77474  1.0000
  H   H822      1.0  0.18754  0.01382  0.67343  1.0000
  H   H823      1.0  0.07242  0.28854  0.72703  1.0000
  H   H824      1.0  0.20586  0.33804  0.66083  1.0000
  H   H825      1.0  0.23866  0.10880  0.72175  1.0000
  H   H826      1.0  0.45797  0.38114  0.63119  1.0000
  H   H827      1.0  0.98934  0.14528  0.76700  1.0000
  H   H828      1.0  0.02633  0.36096  0.77213  1.0000
  C   C457      1.0  0.98822  0.28086  0.64290  1.0000
  H   H829      1.0  0.23669  0.00762  0.70825  1.0000
  C   C458      1.0  0.19815  0.03176  0.69151  1.0000
  H   H830      1.0  0.06546  0.18877  0.69652  1.0000
  Fe  Fe59      1.0  0.09473  0.39768  0.63038  1.0000
  Fe  Fe60      1.0  0.26549  0.98867  0.74594  1.0000
  H   H831      1.0  0.18995  0.99977  0.70535  1.0000
  H   H832      1.0  0.97620  0.10448  0.76549  1.0000
  H   H833      1.0  0.02606  0.20991  0.66418  1.0000
  H   H834      1.0  0.21899  0.27283  0.66474  1.0000
  C   C459      1.0  0.26912  0.37503  0.65247  1.0000
  H   H835      1.0  0.32541  0.20715  0.78743  1.0000
  C   C460      1.0  0.30361  0.31482  0.78870  1.0000
  H   H836      1.0  0.00313  0.24539  0.65893  1.0000
  H   H837      1.0  0.27408  0.41190  0.66507  1.0000
  H   H838      1.0  0.11934  0.34001  0.71315  1.0000
  C   C461      1.0  0.18830  0.28768  0.71909  1.0000
  C   C462      1.0  0.21367  0.09838  0.72229  1.0000
  H   H839      1.0  0.20640  0.12779  0.77535  1.0000
  H   H840      1.0  0.39923  0.97461  0.71009  1.0000
  N   N26       1.0  0.20556  0.04445  0.71417  1.0000
  H   H841      1.0  0.16379  0.01674  0.70486  1.0000
  H   H842      1.0  0.43671  0.37487  0.79280  1.0000
  C   C463      1.0  0.07600  0.33448  0.72906  1.0000
  H   H843      1.0  0.99695  0.33809  0.65153  1.0000
  H   H844      1.0  0.34823  0.18661  0.78879  1.0000
  C   C464      1.0  0.31238  0.13745  0.77368  1.0000
  C   C465      1.0  0.22195  0.27811  0.68788  1.0000
  H   H845      1.0  0.24846  0.06659  0.70556  1.0000
  N   N27       1.0  0.11370  0.29386  0.70853  1.0000
  C   C466      1.0  0.12100  0.30081  0.69567  1.0000
  C   C467      1.0  0.08926  0.26196  0.70964  1.0000
  C   C468      1.0  0.10160  0.31637  0.71314  1.0000
  C   C469      1.0  0.14129  0.29778  0.71594  1.0000
  C   C470      1.0  0.15796  0.27750  0.71240  1.0000
  C   C471      1.0  0.14434  0.33345  0.69305  1.0000
  C   C472      1.0  0.08988  0.31187  0.72595  1.0000
  H   H846      1.0  0.98116  0.31326  0.63114  1.0000
  H   H847      1.0  0.37629  0.27096  0.79235  1.0000
  H   H848      1.0  0.99680  0.21609  0.63409  1.0000
  H   H849      1.0  0.42080  0.01039  0.65619  1.0000
  H   H850      1.0  0.15732  0.99499  0.74368  1.0000
  S   S114      1.0  0.11449  0.44966  0.62965  1.0000
  C   C473      1.0  0.00630  0.35229  0.78957  1.0000
  Fe  Fe61      1.0  0.96932  0.18545  0.73616  1.0000
  H   H851      1.0  0.99021  0.36384  0.77300  1.0000
  S   S115      1.0  0.97132  0.25662  0.77073  1.0000
  H   H852      1.0  0.15575  0.00026  0.68308  1.0000
  C   C474      1.0  0.24665  0.27087  0.63012  1.0000
  H   H853      1.0  0.16067  0.98488  0.72218  1.0000
  H   H854      1.0  0.19848  0.98772  0.72447  1.0000
  H   H855      1.0  0.00503  0.39595  0.79256  1.0000
  H   H856      1.0  0.01885  0.33850  0.79211  1.0000
  H   H857      1.0  0.39902  0.97730  0.67304  1.0000
  H   H858      1.0  0.31811  0.98294  0.67859  1.0000
  H   H859      1.0  0.98313  0.34072  0.79297  1.0000
  H   H860      1.0  0.38705  0.97785  0.65180  1.0000
  H   H861      1.0  0.42378  0.97911  0.64804  1.0000
  H   H862      1.0  0.96531  0.16354  0.79003  1.0000
  H   H863      1.0  0.96553  0.12493  0.75443  1.0000
  Fe  Fe62      1.0  0.04702  0.31031  0.83756  1.0000
  S   S116      1.0  0.08705  0.35484  0.84099  1.0000
  S   S117      1.0  0.04816  0.28727  0.81966  1.0000
  Fe  Fe63      1.0  0.02508  0.31198  0.86296  1.0000
  S   S118      1.0  0.06298  0.35734  0.86763  1.0000
  S   S119      1.0  0.98983  0.28633  0.87658  1.0000
  Fe  Fe64      1.0  0.05479  0.37164  0.84953  1.0000
  S   S120      1.0  0.06416  0.41964  0.84324  1.0000
  Fe  Fe65      1.0  0.09191  0.33710  0.85867  1.0000
  S   S121      1.0  0.13457  0.34182  0.86860  1.0000
  S   S122      1.0  0.01417  0.32773  0.84528  1.0000
  S   S123      1.0  0.05455  0.29117  0.85486  1.0000
  Fe  Fe66      1.0  0.29454  0.36131  0.84640  1.0000
  S   S124      1.0  0.29228  0.31432  0.84949  1.0000
  S   S125      1.0  0.25401  0.36965  0.84002  1.0000
  Fe  Fe67      1.0  0.36440  0.39097  0.84624  1.0000
  S   S126      1.0  0.36641  0.34547  0.84903  1.0000
  S   S127      1.0  0.40272  0.43603  0.84081  1.0000
  Fe  Fe68      1.0  0.32782  0.32551  0.83562  1.0000
  S   S128      1.0  0.32446  0.29027  0.82101  1.0000
  Fe  Fe69      1.0  0.33048  0.33802  0.86278  1.0000
  S   S129      1.0  0.33829  0.31831  0.88037  1.0000
  S   S130      1.0  0.32816  0.37105  0.83193  1.0000
  S   S131      1.0  0.33048  0.38490  0.86055  1.0000
  Fe  Fe70      1.0  0.99147  0.22380  0.94355  1.0000
  C   C475      1.0  0.45986  0.41838  0.80140  1.0000
  S   S132      1.0  0.01851  0.25576  0.92899  1.0000
  H   H864      1.0  0.15482  0.29646  0.83219  1.0000
  H   H865      1.0  0.23404  0.09462  0.93076  1.0000
  H   H866      1.0  0.43973  0.43501  0.86166  1.0000
  C   C476      1.0  0.44365  0.38326  0.80207  1.0000
  H   H867      1.0  0.40939  0.42669  0.80757  1.0000
  H   H868      1.0  0.26090  0.01090  0.94042  1.0000
  H   H869      1.0  0.31460  0.33532  0.80634  1.0000
  Fe  Fe71      1.0  0.26679  0.24619  0.94536  1.0000
  S   S133      1.0  0.26438  0.26905  0.92781  1.0000
  S   S134      1.0  0.22676  0.20142  0.94744  1.0000
  H   H870      1.0  0.30972  0.24438  0.80241  1.0000
  C   C477      1.0  0.14402  0.29507  0.82332  1.0000
  H   H871      1.0  0.06584  0.42105  0.90865  1.0000
  H   H872      1.0  0.20366  0.99873  0.91002  1.0000
  H   H873      1.0  0.22517  0.22614  0.82754  1.0000
  H   H874      1.0  0.20387  0.31880  0.82176  1.0000
  C   C478      1.0  0.36332  0.41084  0.80135  1.0000
  C   C479      1.0  0.19620  0.01771  0.93455  1.0000
  C   C480      1.0  0.23813  0.24817  0.82329  1.0000
  C   C481      1.0  0.31095  0.31536  0.80086  1.0000
  H   H875      1.0  0.07063  0.38644  0.89687  1.0000
  H   H876      1.0  0.16629  0.99583  0.94897  1.0000
  C   C482      1.0  0.31768  0.30594  0.89366  1.0000
  C   C483      1.0  0.33074  0.29593  0.90300  1.0000
  C   C484      1.0  0.31528  0.28550  0.91363  1.0000
  C   C485      1.0  0.28629  0.28456  0.91506  1.0000
  C   C486      1.0  0.27340  0.29496  0.90580  1.0000
  C   C487      1.0  0.28888  0.30549  0.89517  1.0000
  H   H877      1.0  0.35308  0.29639  0.90200  1.0000
  H   H878      1.0  0.32580  0.27817  0.92070  1.0000
  H   H879      1.0  0.25108  0.29458  0.90679  1.0000
  H   H880      1.0  0.27849  0.31316  0.88814  1.0000
  H   H881      1.0  0.01026  0.34234  0.81186  1.0000
  H   H882      1.0  0.11872  0.39191  0.80303  1.0000
  C   C488      1.0  0.22800  0.00896  0.91280  1.0000
  H   H883      1.0  0.29546  0.01206  0.92246  1.0000
  C   C489      1.0  0.99300  0.33684  0.91758  1.0000
  H   H884      1.0  0.20674  0.40408  0.89105  1.0000
  H   H885      1.0  0.27033  0.35417  0.81441  1.0000
  H   H886      1.0  0.31657  0.03578  0.94204  1.0000
  H   H887      1.0  0.05411  0.34676  0.89264  1.0000
  C   C490      1.0  0.16709  0.34731  0.86050  1.0000
  C   C491      1.0  0.16769  0.35195  0.84833  1.0000
  C   C492      1.0  0.19455  0.35877  0.84219  1.0000
  C   C493      1.0  0.22070  0.35993  0.84809  1.0000
  C   C494      1.0  0.21992  0.35440  0.86022  1.0000
  C   C495      1.0  0.19322  0.34841  0.86643  1.0000
  H   H888      1.0  0.14751  0.35053  0.84367  1.0000
  H   H889      1.0  0.19504  0.36306  0.83281  1.0000
  H   H890      1.0  0.24003  0.35534  0.86483  1.0000
  H   H891      1.0  0.19288  0.34477  0.87585  1.0000
  C   C496      1.0  0.99788  0.27447  0.89060  1.0000
  C   C497      1.0  0.04240  0.44900  0.91301  1.0000
  C   C498      1.0  0.97973  0.25208  0.90986  1.0000
  C   C499      1.0  0.00944  0.25999  0.91396  1.0000
  C   C500      1.0  0.03319  0.27423  0.90615  1.0000
  C   C501      1.0  0.02748  0.28127  0.89455  1.0000
  C   C502      1.0  0.97404  0.25949  0.89829  1.0000
  C   C503      1.0  0.09486  0.30610  0.94995  1.0000
  H   H892      1.0  0.05624  0.28052  0.90916  1.0000
  H   H893      1.0  0.04605  0.29249  0.88872  1.0000
  H   H894      1.0  0.32664  0.20534  0.81006  1.0000
  H   H895      1.0  0.03140  0.39504  0.92419  1.0000
  C   C504      1.0  0.03500  0.44490  0.85843  1.0000
  C   C505      1.0  0.16145  0.28643  0.81379  1.0000
  H   H896      1.0  0.02431  0.42260  0.86219  1.0000
  C   C506      1.0  0.30800  0.26410  0.79861  1.0000
  C   C507      1.0  0.18535  0.40650  0.88896  1.0000
  H   H897      1.0  0.05800  0.46841  0.90790  1.0000
  H   H898      1.0  0.15548  0.44056  0.88166  1.0000
  C   C508      1.0  0.43908  0.46130  0.84655  1.0000
  H   H899      1.0  0.18273  0.41999  0.85274  1.0000
  C   C509      1.0  0.06326  0.39382  0.80915  1.0000
  C   C510      1.0  0.23715  0.33371  0.79972  1.0000
  H   H900      1.0  0.21306  0.03476  0.94061  1.0000
  H   H901      1.0  0.07482  0.45526  0.81064  1.0000
  H   H902      1.0  0.19485  0.41097  0.87047  1.0000
  H   H903      1.0  0.07050  0.39921  0.81866  1.0000
  N   N28       1.0  0.10749  0.24981  0.92723  1.0000
  C   C511      1.0  0.10982  0.25309  0.91396  1.0000
  C   C512      1.0  0.07997  0.22127  0.92985  1.0000
  C   C513      1.0  0.10229  0.27668  0.93224  1.0000
  C   C514      1.0  0.13560  0.24946  0.93313  1.0000
  C   C515      1.0  0.15399  0.23535  0.92590  1.0000
  C   C516      1.0  0.13272  0.28440  0.90968  1.0000
  C   C517      1.0  0.09561  0.27606  0.94564  1.0000
  C   C518      1.0  0.07966  0.19063  0.92516  1.0000
  C   C519      1.0  0.04857  0.16466  0.92656  1.0000
  C   C520      1.0  0.17857  0.23207  0.93364  1.0000
  C   C521      1.0  0.13878  0.28313  0.89648  1.0000
  H   H904      1.0  0.10986  0.42031  0.86043  1.0000
  H   H905      1.0  0.08735  0.24939  0.90995  1.0000
  H   H906      1.0  0.11556  0.23516  0.90975  1.0000
  H   H907      1.0  0.07709  0.21833  0.93955  1.0000
  H   H908      1.0  0.05917  0.22328  0.92639  1.0000
  H   H909      1.0  0.08321  0.27905  0.92739  1.0000
  H   H910      1.0  0.12245  0.29828  0.93096  1.0000
  H   H911      1.0  0.15196  0.27304  0.93568  1.0000
  H   H912      1.0  0.12976  0.23737  0.94166  1.0000
  H   H913      1.0  0.16538  0.25023  0.91849  1.0000
  H   H914      1.0  0.13962  0.21258  0.92206  1.0000
  H   H915      1.0  0.12344  0.30192  0.91097  1.0000
  H   H916      1.0  0.15454  0.29207  0.91471  1.0000
  C   C522      1.0  0.10306  0.37218  0.80797  1.0000
  H   H917      1.0  0.96917  0.36658  0.80756  1.0000
  H   H918      1.0  0.08493  0.19114  0.91564  1.0000
  H   H919      1.0  0.09613  0.18488  0.93039  1.0000
  H   H920      1.0  0.04209  0.16261  0.93598  1.0000
  H   H921      1.0  0.03114  0.16867  0.92122  1.0000
  H   H922      1.0  0.04907  0.14275  0.92350  1.0000
  H   H923      1.0  0.19431  0.25460  0.93744  1.0000
  H   H924      1.0  0.16841  0.21637  0.94099  1.0000
  H   H925      1.0  0.19188  0.22265  0.92823  1.0000
  H   H926      1.0  0.15432  0.30611  0.89361  1.0000
  H   H927      1.0  0.14950  0.26701  0.89468  1.0000
  H   H928      1.0  0.11740  0.27592  0.89116  1.0000
  H   H929      1.0  0.12046  0.27746  0.82351  1.0000
  H   H930      1.0  0.21869  0.01459  0.88871  1.0000
  H   H931      1.0  0.98528  0.30779  0.94617  1.0000
  C   C523      1.0  0.39033  0.37609  0.80508  1.0000
  H   H932      1.0  0.09167  0.33760  0.90546  1.0000
  C   C524      1.0  0.31547  0.05003  0.93456  1.0000
  H   H933      1.0  0.97203  0.34092  0.91803  1.0000
  H   H934      1.0  0.25560  0.04122  0.93340  1.0000
  H   H935      1.0  0.40753  0.28040  0.80281  1.0000
  H   H936      1.0  0.38196  0.40605  0.81805  1.0000
  C   C525      1.0  0.97788  0.36163  0.81604  1.0000
  H   H937      1.0  0.00682  0.35632  0.93568  1.0000
  C   C526      1.0  0.18316  0.47419  0.86233  1.0000
  H   H938      1.0  0.98848  0.28591  0.81322  1.0000
  C   C527      1.0  0.25482  0.36016  0.80870  1.0000
  H   H939      1.0  0.16361  0.42445  0.82149  1.0000
  C   C528      1.0  0.15501  0.43109  0.83990  1.0000
  N   N29       1.0  0.26266  0.17793  0.91391  1.0000
  C   C529      1.0  0.28942  0.20492  0.91906  1.0000
  C   C530      1.0  0.23790  0.18823  0.91079  1.0000
  C   C531      1.0  0.25112  0.15480  0.92354  1.0000
  C   C532      1.0  0.27057  0.16310  0.90332  1.0000
  C   C533      1.0  0.29580  0.18425  0.89522  1.0000
  C   C534      1.0  0.31494  0.19744  0.92471  1.0000
  C   C535      1.0  0.22153  0.12626  0.92059  1.0000
  C   C536      1.0  0.24403  0.21082  0.90058  1.0000
  C   C537      1.0  0.21906  0.22246  0.89948  1.0000
  C   C538      1.0  0.29744  0.16740  0.88381  1.0000
  C   C539      1.0  0.34432  0.22597  0.92637  1.0000
  C   C540      1.0  0.21528  0.10223  0.93004  1.0000
  H   H940      1.0  0.28197  0.21676  0.92610  1.0000
  H   H941      1.0  0.29953  0.22247  0.91235  1.0000
  H   H942      1.0  0.21688  0.16859  0.90790  1.0000
  H   H943      1.0  0.23212  0.19859  0.91880  1.0000
  H   H944      1.0  0.24738  0.16579  0.93177  1.0000
  H   H945      1.0  0.26840  0.14605  0.92600  1.0000
  H   H946      1.0  0.27825  0.14527  0.90619  1.0000
  H   H947      1.0  0.24996  0.15063  0.89768  1.0000
  H   H948      1.0  0.31822  0.19218  0.89980  1.0000
  H   H949      1.0  0.29247  0.20482  0.89271  1.0000
  H   H950      1.0  0.30820  0.18782  0.93360  1.0000
  H   H951      1.0  0.31953  0.18038  0.91927  1.0000
  H   H952      1.0  0.22275  0.11564  0.91192  1.0000
  H   H953      1.0  0.20180  0.13244  0.92041  1.0000
  H   H954      1.0  0.26571  0.23088  0.90191  1.0000
  H   H955      1.0  0.24435  0.19919  0.89203  1.0000
  H   H956      1.0  0.21787  0.23476  0.90776  1.0000
  H   H957      1.0  0.22406  0.23862  0.89210  1.0000
  H   H958      1.0  0.19681  0.20327  0.89761  1.0000
  H   H959      1.0  0.31609  0.18282  0.87836  1.0000
  H   H960      1.0  0.30192  0.14705  0.88584  1.0000
  H   H961      1.0  0.27598  0.16021  0.87855  1.0000
  H   H962      1.0  0.36188  0.21986  0.93061  1.0000
  H   H963      1.0  0.35262  0.23622  0.91770  1.0000
  H   H964      1.0  0.34081  0.24309  0.93220  1.0000
  H   H965      1.0  0.21251  0.11169  0.93878  1.0000
  H   H966      1.0  0.19404  0.08215  0.92773  1.0000
  C   C541      1.0  0.25898  0.02005  0.93157  1.0000
  H   H967      1.0  0.23422  0.03395  0.91369  1.0000
  H   H968      1.0  0.10695  0.35164  0.80538  1.0000
  H   H969      1.0  0.18044  0.41902  0.89643  1.0000
  S   S135      1.0  0.29875  0.22908  0.95404  1.0000
  C   C542      1.0  0.18863  0.42373  0.87745  1.0000
  H   H970      1.0  0.42686  0.33142  0.81352  1.0000
  H   H971      1.0  0.97448  0.18130  0.81087  1.0000
  C   C543      1.0  0.06566  0.36328  0.89999  1.0000
  C   C544      1.0  0.32116  0.18053  0.80928  1.0000
  C   C545      1.0  0.29019  0.03115  0.92574  1.0000
  H   H972      1.0  0.98313  0.37346  0.87705  1.0000
  C   C546      1.0  0.20466  0.99029  0.93192  1.0000
  H   H973      1.0  0.39527  0.46728  0.86270  1.0000
  C   C547      1.0  0.16066  0.42186  0.85253  1.0000
  H   H974      1.0  0.14383  0.39803  0.85368  1.0000
  C   C548      1.0  0.15916  0.42733  0.87414  1.0000
  H   H975      1.0  0.14010  0.40430  0.87424  1.0000
  H   H976      1.0  0.10906  0.36537  0.89439  1.0000
  C   C549      1.0  0.16770  0.41696  0.83034  1.0000
  H   H977      1.0  0.00616  0.41837  0.81064  1.0000
  C   C550      1.0  0.16578  0.00742  0.94059  1.0000
  H   H978      1.0  0.23938  0.36583  0.81445  1.0000
  C   C551      1.0  0.27448  0.09111  0.95692  1.0000
  H   H979      1.0  0.03507  0.41727  0.89855  1.0000
  C   C552      1.0  0.02615  0.27889  0.80620  1.0000
  H   H980      1.0  0.25447  0.01604  0.88382  1.0000
  H   H981      1.0  0.29088  0.04603  0.91826  1.0000
  H   H982      1.0  0.28368  0.17046  0.79729  1.0000
  H   H983      1.0  0.00006  0.33218  0.89437  1.0000
  H   H984      1.0  0.24549  0.30731  0.81979  1.0000
  H   H985      1.0  0.20227  0.24288  0.81098  1.0000
  H   H986      1.0  0.02047  0.37093  0.89139  1.0000
  H   H987      1.0  0.28768  0.40713  0.80890  1.0000
  H   H988      1.0  0.07881  0.41332  0.80408  1.0000
  C   C553      1.0  0.45202  0.45545  0.85684  1.0000
  C   C554      1.0  0.11998  0.46210  0.87119  1.0000
  C   C555      1.0  0.19873  0.28311  0.79467  1.0000
  H   H989      1.0  0.20739  0.44647  0.87901  1.0000
  C   C556      1.0  0.97404  0.35944  0.89538  1.0000
  H   H990      1.0  0.44535  0.42730  0.79649  1.0000
  H   H991      1.0  0.25469  0.32988  0.79458  1.0000
  H   H992      1.0  0.25962  0.39748  0.79708  1.0000
  H   H993      1.0  0.39001  0.32707  0.81755  1.0000
  C   C557      1.0  0.39456  0.31788  0.79898  1.0000
  N   N30       1.0  0.41689  0.37076  0.81007  1.0000
  H   H994      1.0  0.14863  0.28340  0.80527  1.0000
  H   H995      1.0  0.36142  0.43212  0.80439  1.0000
  C   C558      1.0  0.19388  0.31161  0.81266  1.0000
  C   C559      1.0  0.23383  0.29156  0.81220  1.0000
  H   H996      1.0  0.21222  0.47375  0.84755  1.0000
  H   H997      1.0  0.05016  0.45265  0.92244  1.0000
  H   H998      1.0  0.02053  0.36750  0.82422  1.0000
  C   C560      1.0  0.99782  0.28012  0.80540  1.0000
  H   H999      1.0  0.25260  0.24441  0.81645  1.0000
  H   H1000     1.0  0.43101  0.40886  0.82284  1.0000
  H   H1001     1.0  0.26936  0.00982  0.90415  1.0000
  H   H1002     1.0  0.16155  0.26415  0.81604  1.0000
  C   C561      1.0  0.24273  0.02116  0.89139  1.0000
  H   H1003     1.0  0.13032  0.42304  0.83810  1.0000
  H   H1004     1.0  0.25286  0.26459  0.83016  1.0000
  C   C562      1.0  0.40746  0.33667  0.81068  1.0000
  H   H1005     1.0  0.07702  0.31041  0.94502  1.0000
  H   H1006     1.0  0.10807  0.37669  0.81759  1.0000
  C   C563      1.0  0.26292  0.06027  0.96004  1.0000
  C   C564      1.0  0.25683  0.10810  0.95786  1.0000
  H   H1007     1.0  0.19243  0.42422  0.83173  1.0000
  H   H1008     1.0  0.03287  0.42138  0.82202  1.0000
  H   H1009     1.0  0.96446  0.32369  0.82811  1.0000
  H   H1010     1.0  0.44199  0.35363  0.83133  1.0000
  H   H1011     1.0  0.02088  0.47239  0.80647  1.0000
  S   S136      1.0  0.01875  0.23157  0.96066  1.0000
  H   H1012     1.0  0.15636  0.39171  0.83042  1.0000
  C   C565      1.0  0.30505  0.16714  0.79744  1.0000
  H   H1013     1.0  0.10894  0.37787  0.90956  1.0000
  C   C566      1.0  0.00394  0.35554  0.89755  1.0000
  C   C567      1.0  0.21633  0.26018  0.81768  1.0000
  C   C568      1.0  0.31347  0.29008  0.80588  1.0000
  H   H1014     1.0  0.05930  0.26907  0.79651  1.0000
  C   C569      1.0  0.02128  0.39160  0.91509  1.0000
  C   C570      1.0  0.09566  0.36089  0.90258  1.0000
  H   H1015     1.0  0.20184  0.26243  0.82482  1.0000
  H   H1016     1.0  0.02336  0.33045  0.93119  1.0000
  C   C571      1.0  0.05163  0.44946  0.80701  1.0000
  C   C572      1.0  0.42451  0.38388  0.82255  1.0000
  H   H1017     1.0  0.40395  0.37452  0.82803  1.0000
  C   C573      1.0  0.04228  0.41914  0.90800  1.0000
  C   C574      1.0  0.38804  0.40648  0.80862  1.0000
  H   H1018     1.0  0.34122  0.39142  0.80254  1.0000
  H   H1019     1.0  0.14311  0.31732  0.82144  1.0000
  H   H1020     1.0  0.97710  0.37829  0.82287  1.0000
  H   H1021     1.0  0.01943  0.44884  0.91227  1.0000
  H   H1022     1.0  0.06710  0.36281  0.79537  1.0000
  H   H1023     1.0  0.09045  0.45569  0.88611  1.0000
  C   C575      1.0  0.24511  0.00328  0.90211  1.0000
  H   H1024     1.0  0.16696  0.38328  0.88804  1.0000
  H   H1025     1.0  0.05922  0.36795  0.91883  1.0000
  H   H1026     1.0  0.97324  0.28667  0.93236  1.0000
  H   H1027     1.0  0.37054  0.27504  0.80789  1.0000
  C   C576      1.0  0.02922  0.41921  0.81222  1.0000
  H   H1028     1.0  0.28991  0.38465  0.79626  1.0000
  C   C577      1.0  0.45891  0.39641  0.84086  1.0000
  C   C578      1.0  0.05530  0.44952  0.84925  1.0000
  H   H1029     1.0  0.07312  0.25794  0.94735  1.0000
  H   H1030     1.0  0.16520  0.45619  0.83898  1.0000
  H   H1031     1.0  0.30626  0.16906  0.81667  1.0000
  H   H1032     1.0  0.12652  0.45477  0.85293  1.0000
  C   C579      1.0  0.01089  0.36457  0.81502  1.0000
  N   N31       1.0  0.01628  0.36046  0.91015  1.0000
  H   H1033     1.0  0.37362  0.31994  0.79593  1.0000
  H   H1034     1.0  0.05577  0.34536  0.80956  1.0000
  H   H1035     1.0  0.38432  0.45115  0.87700  1.0000
  H   H1036     1.0  0.19033  0.33157  0.80923  1.0000
  H   H1037     1.0  0.25360  0.04607  0.89342  1.0000
  N   N32       1.0  0.03097  0.39026  0.80751  1.0000
  C   C580      1.0  0.04522  0.35546  0.91095  1.0000
  S   S137      1.0  0.27215  0.14631  0.95318  1.0000
  H   H1038     1.0  0.18153  0.26134  0.79781  1.0000
  H   H1039     1.0  0.23527  0.97876  0.89940  1.0000
  H   H1040     1.0  0.03999  0.33100  0.91242  1.0000
  C   C581      1.0  0.07023  0.36643  0.80511  1.0000
  C   C582      1.0  0.44988  0.37808  0.82917  1.0000
  H   H1041     1.0  0.31178  0.06998  0.93807  1.0000
  H   H1042     1.0  0.99929  0.39347  0.91618  1.0000
  C   C583      1.0  0.03752  0.27033  0.79601  1.0000
  H   H1043     1.0  0.33752  0.05837  0.93009  1.0000
  N   N33       1.0  0.15861  0.44221  0.86254  1.0000
  H   H1044     1.0  0.25229  0.29010  0.80689  1.0000
  C   C584      1.0  0.38681  0.28401  0.80065  1.0000
  H   H1045     1.0  0.19460  0.02913  0.92629  1.0000
  Fe  Fe72      1.0  0.00544  0.18111  0.95981  1.0000
  C   C585      1.0  0.02790  0.46910  0.86258  1.0000
  H   H1046     1.0  0.34234  0.17695  0.81020  1.0000
  H   H1047     1.0  0.11298  0.27205  0.95098  1.0000
  H   H1048     1.0  0.10350  0.42573  0.88404  1.0000
  C   C586      1.0  0.12815  0.44375  0.86133  1.0000
  C   C587      1.0  0.00263  0.33488  0.93063  1.0000
  N   N34       1.0  0.21552  0.30430  0.80492  1.0000
  H   H1049     1.0  0.01179  0.46517  0.86955  1.0000
  H   H1050     1.0  0.36881  0.35812  0.80812  1.0000
  N   N35       1.0  0.23243  0.99685  0.92460  1.0000
  S   S138      1.0  0.97960  0.17336  0.94246  1.0000
  H   H1051     1.0  0.43892  0.39113  0.84651  1.0000
  H   H1052     1.0  0.05188  0.44771  0.79720  1.0000
  H   H1053     1.0  0.22255  0.46162  0.86107  1.0000
  C   C588      1.0  0.97786  0.30893  0.93690  1.0000
  H   H1054     1.0  0.98614  0.31373  0.91335  1.0000
  C   C589      1.0  0.09574  0.44147  0.87940  1.0000
  H   H1055     1.0  0.11710  0.32538  0.94879  1.0000
  H   H1056     1.0  0.14731  0.99158  0.93468  1.0000
  H   H1057     1.0  0.16091  0.02759  0.94280  1.0000
  H   H1058     1.0  0.41126  0.98398  0.83761  1.0000
  Fe  Fe73      1.0  0.25837  0.18557  0.95735  1.0000
  H   H1059     1.0  0.29727  0.10187  0.95374  1.0000
  H   H1060     1.0  0.29994  0.14246  0.79725  1.0000
  H   H1061     1.0  0.38932  0.37378  0.79523  1.0000
  H   H1062     1.0  0.08958  0.30479  0.95951  1.0000
  C   C590      1.0  0.27417  0.38909  0.80229  1.0000
  H   H1063     1.0  0.08711  0.13887  0.96057  1.0000
  H   H1064     1.0  0.07467  0.42786  0.87423  1.0000
  H   H1065     1.0  0.27675  0.04749  0.95923  1.0000
  H   H1066     1.0  0.20715  0.98063  0.94059  1.0000
  H   H1067     1.0  0.97218  0.21018  0.80151  1.0000
  H   H1068     1.0  0.97621  0.38237  0.89841  1.0000
  H   H1069     1.0  0.46080  0.37435  0.80456  1.0000
  C   C591      1.0  0.39235  0.47269  0.87207  1.0000
  C   C592      1.0  0.96535  0.35590  0.88219  1.0000
  C   C593      1.0  0.02147  0.38573  0.79453  1.0000
  C   C594      1.0  0.98133  0.27324  0.79450  1.0000
  Fe  Fe74      1.0  0.00970  0.67919  0.98545  1.0000
  S   S139      1.0  0.00316  0.72266  0.98432  1.0000
  C   C595      1.0  0.97638  0.73245  0.01456  1.0000
  Fe  Fe75      1.0  0.03597  0.73562  0.96948  1.0000
  C   C596      1.0  0.08023  0.77472  0.99832  1.0000
  S   S140      1.0  0.04543  0.69374  0.97140  1.0000
  Fe  Fe76      1.0  0.96710  0.69852  0.97048  1.0000
  S   S141      1.0  0.24420  0.94904  0.98296  1.0000
  H   H1070     1.0  0.09030  0.68567  0.01059  1.0000
  H   H1071     1.0  0.99889  0.52816  0.01977  1.0000
  H   H1072     1.0  0.22184  0.81185  0.00364  1.0000
  C   C597      1.0  0.05730  0.78586  0.00331  1.0000
  H   H1073     1.0  0.14242  0.78554  0.99299  1.0000
  C   C598      1.0  0.11924  0.83804  0.96967  1.0000
  H   H1074     1.0  0.07649  0.70534  0.02114  1.0000
  C   C599      1.0  0.30276  0.94585  0.12435  1.0000
  C   C600      1.0  0.10693  0.68780  0.02838  1.0000
  S   S142      1.0  0.97169  0.56124  0.07271  1.0000
  C   C601      1.0  0.98812  0.62150  0.03477  1.0000
  S   S143      1.0  0.06652  0.78626  0.96820  1.0000
  C   C602      1.0  0.31747  0.95433  0.01306  1.0000
  H   H1075     1.0  0.04970  0.79709  0.99623  1.0000
  H   H1076     1.0  0.08822  0.66584  0.03057  1.0000
  C   C603      1.0  0.99170  0.52615  0.04424  1.0000
  H   H1077     1.0  0.06955  0.75996  0.99043  1.0000
  C   C604      1.0  0.17473  0.78094  0.00546  1.0000
  C   C605      1.0  0.13159  0.71793  0.98897  1.0000
  H   H1078     1.0  0.40696  0.89200  0.06106  1.0000
  C   C606      1.0  0.08925  0.75615  0.00755  1.0000
  H   H1079     1.0  0.14266  0.72832  0.01342  1.0000
  H   H1080     1.0  0.19810  0.80995  0.99099  1.0000
  H   H1081     1.0  0.09978  0.79502  0.99539  1.0000
  H   H1082     1.0  0.98700  0.51597  0.05314  1.0000
  H   H1083     1.0  0.29980  0.93723  0.00766  1.0000
  C   C607      1.0  0.42783  0.92952  0.04921  1.0000
  C   C608      1.0  0.32288  0.94812  0.02484  1.0000
  C   C609      1.0  0.15081  0.85478  0.97048  1.0000
  S   S144      1.0  0.28745  0.92478  0.96707  1.0000
  H   H1084     1.0  0.13703  0.68800  0.97541  1.0000
  H   H1085     1.0  0.09918  0.67529  0.98083  1.0000
  Fe  Fe77      1.0  0.23731  0.91045  0.96985  1.0000
  C   C610      1.0  0.15732  0.80748  0.96973  1.0000
  H   H1086     1.0  0.10309  0.74129  0.98591  1.0000
  H   H1087     1.0  0.42637  0.92855  0.06853  1.0000
  C   C611      1.0  0.01652  0.55836  0.04576  1.0000
  H   H1088     1.0  0.99519  0.48832  0.00454  1.0000
  C   C612      1.0  0.19914  0.81014  0.00082  1.0000
  H   H1089     1.0  0.06855  0.73486  0.00857  1.0000
  H   H1090     1.0  0.05040  0.67449  0.11419  1.0000
  H   H1091     1.0  0.09358  0.76877  0.01626  1.0000
  H   H1092     1.0  0.24315  0.94495  0.06151  1.0000
  C   C613      1.0  0.41189  0.91666  0.06070  1.0000
  H   H1093     1.0  0.11288  0.70305  0.03640  1.0000
  C   C614      1.0  0.10650  0.80597  0.96891  1.0000
  H   H1094     1.0  0.39013  0.91924  0.06110  1.0000
  C   C615      1.0  0.40803  0.96319  0.00595  1.0000
  C   C616      1.0  0.09682  0.70224  0.01819  1.0000
  C   C617      1.0  0.98505  0.50497  0.00295  1.0000
  H   H1095     1.0  0.16025  0.87942  0.97118  1.0000
  H   H1096     1.0  0.11344  0.70691  0.97086  1.0000
  S   S145      1.0  0.02015  0.66568  0.00392  1.0000
  H   H1097     1.0  0.30926  0.92613  0.02840  1.0000
  H   H1098     1.0  0.06764  0.80265  0.01072  1.0000
  H   H1099     1.0  0.41232  0.91668  0.04182  1.0000
  S   S146      1.0  0.97847  0.61338  0.10291  1.0000
  H   H1100     1.0  0.03105  0.65139  0.02779  1.0000
  H   H1101     1.0  0.14076  0.79789  0.00771  1.0000
  H   H1102     1.0  0.03733  0.76639  0.00650  1.0000
  H   H1103     1.0  0.00163  0.52457  0.99822  1.0000
  C   C618      1.0  0.99524  0.64256  0.01478  1.0000
  H   H1104     1.0  0.12807  0.74851  0.02290  1.0000
  H   H1105     1.0  0.17797  0.78134  0.01524  1.0000
  C   C619      1.0  0.98123  0.61204  0.11867  1.0000
  H   H1106     1.0  0.41622  0.96851  0.05119  1.0000
  H   H1107     1.0  0.15164  0.73759  0.98592  1.0000
  H   H1108     1.0  0.11631  0.76619  0.96781  1.0000
  H   H1109     1.0  0.13854  0.70605  0.99595  1.0000
  H   H1110     1.0  0.12673  0.68312  0.02585  1.0000
  H   H1111     1.0  0.03646  0.55746  0.05044  1.0000
  H   H1112     1.0  0.19632  0.83061  0.00430  1.0000
  H   H1113     1.0  0.02360  0.56865  0.03700  1.0000
  H   H1114     1.0  0.99273  0.66015  0.12122  1.0000
  H   H1115     1.0  0.07843  0.71316  0.11559  1.0000
  C   C620      1.0  0.17003  0.83957  0.97063  1.0000
  H   H1116     1.0  0.08588  0.70882  0.99445  1.0000
  H   H1117     1.0  0.17862  0.76143  0.00171  1.0000
  N   N36       1.0  0.11594  0.74898  0.00447  1.0000
  C   C621      1.0  0.12243  0.73310  0.01489  1.0000
  C   C622      1.0  0.14261  0.77893  0.00238  1.0000
  C   C623      1.0  0.00706  0.63957  0.02593  1.0000
  C   C624      1.0  0.10761  0.72897  0.99339  1.0000
  H   H1118     1.0  0.00843  0.57314  0.05106  1.0000
  S   S147      1.0  0.35365  0.95985  0.04637  1.0000
  H   H1119     1.0  0.99761  0.61964  0.04329  1.0000
  H   H1120     1.0  0.10457  0.85004  0.96970  1.0000
  C   C625      1.0  0.07203  0.68960  0.11871  1.0000
  H   H1121     1.0  0.08961  0.68144  0.11619  1.0000
  H   H1122     1.0  0.28376  0.93105  0.11886  1.0000
  H   H1123     1.0  0.98545  0.71457  0.01468  1.0000
  C   C626      1.0  0.11944  0.69567  0.97838  1.0000
  S   S148      1.0  0.20982  0.85948  0.97244  1.0000
  H   H1124     1.0  0.27263  0.93111  0.06149  1.0000
  C   C627      1.0  0.26795  0.95187  0.06230  1.0000
  H   H1125     1.0  0.00053  0.51228  0.03879  1.0000
  C   C628      1.0  0.12573  0.79075  0.96878  1.0000
  H   H1126     1.0  0.98749  0.74924  0.02189  1.0000
  H   H1127     1.0  0.41213  0.94251  0.00387  1.0000
  H   H1128     1.0  0.96841  0.53346  0.01263  1.0000
  S   S149      1.0  0.97153  0.65389  0.97241  1.0000
  H   H1129     1.0  0.98199  0.74450  0.00605  1.0000
  H   H1130     1.0  0.42015  0.94136  0.02551  1.0000
  C   C629      1.0  0.28412  0.97379  0.05255  1.0000
  H   H1131     1.0  0.97118  0.56418  0.11932  1.0000
  C   C630      1.0  0.97737  0.51625  0.01467  1.0000
  H   H1132     1.0  0.27543  0.96165  0.04394  1.0000
  H   H1133     1.0  0.96848  0.54612  0.03282  1.0000
  C   C631      1.0  0.97678  0.58511  0.12446  1.0000
  H   H1134     1.0  0.27619  0.96260  0.07120  1.0000
  C   C632      1.0  0.33043  0.96305  0.11903  1.0000
  H   H1135     1.0  0.40216  0.96407  0.03081  1.0000
  C   C633      1.0  0.34601  0.96987  0.03195  1.0000
  S   S150      1.0  0.33341  0.95936  0.10343  1.0000
  C   C634      1.0  0.96417  0.62699  0.01255  1.0000
  Fe  Fe78      1.0  0.29370  0.96495  0.97928  1.0000
  C   C635      1.0  0.43637  0.96422  0.04871  1.0000
  C   C636      1.0  0.98902  0.63911  0.12556  1.0000
  H   H1136     1.0  0.44860  0.92512  0.04906  1.0000
  C   C637      1.0  0.42423  0.96538  0.02760  1.0000
  H   H1137     1.0  0.38422  0.95618  0.00865  1.0000
  H   H1138     1.0  0.17203  0.79553  0.96969  1.0000
  H   H1139     1.0  0.45944  0.92723  0.03011  1.0000
  S   S151      1.0  0.39584  0.97401  0.07780  1.0000
  H   H1140     1.0  0.96445  0.49406  0.99720  1.0000
  H   H1141     1.0  0.96776  0.47542  0.02429  1.0000
  H   H1142     1.0  0.45326  0.97442  0.05603  1.0000
  Fe  Fe79      1.0  0.22506  0.90237  0.18420  1.0000
  S   S152      1.0  0.27318  0.90598  0.18389  1.0000
  S   S153      1.0  0.17905  0.86259  0.17979  1.0000
  H   H1143     1.0  0.16660  0.78957  0.16574  1.0000
  Fe  Fe80      1.0  0.28412  0.94812  0.17306  1.0000
  C   C638      1.0  0.21119  0.87116  0.22431  1.0000
  Fe  Fe81      1.0  0.28156  0.93736  0.20006  1.0000
  S   S154      1.0  0.31348  0.93553  0.21498  1.0000
  S   S155      1.0  0.23578  0.94248  0.17218  1.0000
  S   S156      1.0  0.23307  0.93126  0.20097  1.0000
  C   C639      1.0  0.32401  0.96594  0.14396  1.0000
  Fe  Fe82      1.0  0.03892  0.69701  0.19124  1.0000
  S   S157      1.0  0.02565  0.64599  0.19131  1.0000
  S   S158      1.0  0.08945  0.72776  0.19442  1.0000
  Fe  Fe83      1.0  0.99635  0.64348  0.17521  1.0000
  C   C640      1.0  0.98796  0.61231  0.14380  1.0000
  Fe  Fe84      1.0  0.98671  0.64306  0.20264  1.0000
  H   H1144     1.0  0.22505  0.86603  0.24957  1.0000
  S   S159      1.0  0.01159  0.69425  0.17460  1.0000
  S   S160      1.0  0.00165  0.69411  0.20364  1.0000
  H   H1145     1.0  0.02721  0.74039  0.15003  1.0000
  H   H1146     1.0  0.04386  0.75735  0.16427  1.0000
  H   H1147     1.0  0.29371  0.90375  0.25222  1.0000
  H   H1148     1.0  0.17168  0.83543  0.21501  1.0000
  S   S161      1.0  0.32158  0.96886  0.15962  1.0000
  H   H1149     1.0  0.20433  0.81683  0.24561  1.0000
  C   C641      1.0  0.99186  0.63188  0.23982  1.0000
  C   C642      1.0  0.28719  0.85046  0.20089  1.0000
  H   H1150     1.0  0.00635  0.65229  0.23543  1.0000
  H   H1151     1.0  0.19564  0.86504  0.20565  1.0000
  H   H1152     1.0  0.26308  0.84962  0.23774  1.0000
  H   H1153     1.0  0.98869  0.77247  0.22383  1.0000
  H   H1154     1.0  0.15659  0.77102  0.24460  1.0000
  H   H1155     1.0  0.04995  0.69635  0.13408  1.0000
  C   C643      1.0  0.31927  0.94956  0.22994  1.0000
  H   H1156     1.0  0.19997  0.87080  0.23281  1.0000
  H   H1157     1.0  0.17758  0.90167  0.21555  1.0000
  C   C644      1.0  0.30448  0.96986  0.24749  1.0000
  C   C645      1.0  0.97571  0.60351  0.25819  1.0000
  H   H1158     1.0  0.97721  0.56438  0.14123  1.0000
  H   H1159     1.0  0.01092  0.64881  0.25728  1.0000
  Fe  Fe85      1.0  0.24660  0.97113  0.18891  1.0000
  C   C646      1.0  0.15449  0.82533  0.18430  1.0000
  C   C647      1.0  0.16464  0.80704  0.19105  1.0000
  C   C648      1.0  0.14440  0.77741  0.19409  1.0000
  C   C649      1.0  0.11373  0.76554  0.19043  1.0000
  C   C650      1.0  0.10360  0.78375  0.18365  1.0000
  C   C651      1.0  0.12388  0.81331  0.18055  1.0000
  H   H1160     1.0  0.18818  0.81543  0.19370  1.0000
  H   H1161     1.0  0.15259  0.76345  0.19924  1.0000
  H   H1162     1.0  0.08013  0.77511  0.18083  1.0000
  H   H1163     1.0  0.11575  0.82708  0.17526  1.0000
  C   C652      1.0  0.21277  0.82001  0.22660  1.0000
  N   N37       1.0  0.23095  0.85365  0.22497  1.0000
  C   C653      1.0  0.35039  0.96156  0.24826  1.0000
  H   H1164     1.0  0.27806  0.93398  0.14066  1.0000
  C   C654      1.0  0.18583  0.86020  0.21456  1.0000
  C   C655      1.0  0.29945  0.94743  0.13672  1.0000
  C   C656      1.0  0.16473  0.87657  0.21578  1.0000
  H   H1165     1.0  0.25871  0.81752  0.21275  1.0000
  H   H1166     1.0  0.26612  0.90130  0.26308  1.0000
  C   C657      1.0  0.17155  0.77693  0.23685  1.0000
  H   H1167     1.0  0.18586  0.76381  0.23723  1.0000
  H   H1168     1.0  0.07861  0.75447  0.14209  1.0000
  H   H1169     1.0  0.27216  0.86775  0.25898  1.0000
  C   C658      1.0  0.24680  0.88130  0.24585  1.0000
  H   H1170     1.0  0.22804  0.80815  0.22794  1.0000
  C   C659      1.0  0.19113  0.81122  0.23714  1.0000
  C   C660      1.0  0.98031  0.58532  0.13690  1.0000
  H   H1171     1.0  0.28742  0.85094  0.21981  1.0000
  H   H1172     1.0  0.24513  0.90296  0.24351  1.0000
  H   H1173     1.0  0.17555  0.82288  0.23697  1.0000
  H   H1174     1.0  0.19943  0.80918  0.21837  1.0000
  C   C661      1.0  0.24690  0.85728  0.21333  1.0000
  H   H1175     1.0  0.97177  0.66629  0.26686  1.0000
  H   H1176     1.0  0.23049  0.84696  0.20586  1.0000
  H   H1177     1.0  0.30267  0.83867  0.20029  1.0000
  H   H1178     1.0  0.18820  0.76816  0.16129  1.0000
  H   H1179     1.0  0.22549  0.89573  0.22291  1.0000
  C   C662      1.0  0.06804  0.68851  0.13212  1.0000
  H   H1180     1.0  0.30099  0.87540  0.20055  1.0000
  N   N38       1.0  0.09659  0.71047  0.15214  1.0000
  C   C663      1.0  0.09799  0.70885  0.13880  1.0000
  C   C664      1.0  0.12726  0.73067  0.15753  1.0000
  C   C665      1.0  0.08803  0.67848  0.15649  1.0000
  C   C666      1.0  0.07288  0.72114  0.15615  1.0000
  C   C667      1.0  0.07571  0.75251  0.15178  1.0000
  H   H1181     1.0  0.99798  0.66017  0.14319  1.0000
  C   C668      1.0  0.08933  0.67523  0.17011  1.0000
  C   C669      1.0  0.14747  0.75885  0.15048  1.0000
  C   C670      1.0  0.17445  0.78028  0.15804  1.0000
  C   C671      1.0  0.04750  0.75795  0.15459  1.0000
  C   C672      1.0  0.99210  0.63923  0.13804  1.0000
  C   C673      1.0  0.08268  0.64231  0.17322  1.0000
  H   H1182     1.0  0.36053  0.94306  0.23213  1.0000
  C   C674      1.0  0.34483  0.95065  0.23637  1.0000
  H   H1183     1.0  0.12469  0.73879  0.16661  1.0000
  H   H1184     1.0  0.14131  0.71738  0.15876  1.0000
  H   H1185     1.0  0.10281  0.66828  0.15248  1.0000
  H   H1186     1.0  0.06444  0.66331  0.15366  1.0000
  H   H1187     1.0  0.04990  0.70379  0.15367  1.0000
  H   H1188     1.0  0.07327  0.72308  0.16599  1.0000
  H   H1189     1.0  0.15708  0.77006  0.22865  1.0000
  C   C675      1.0  0.99443  0.62979  0.25224  1.0000
  C   C676      1.0  0.27026  0.84274  0.21249  1.0000
  H   H1190     1.0  0.10557  0.73174  0.13495  1.0000
  H   H1191     1.0  0.07217  0.68150  0.17439  1.0000
  H   H1192     1.0  0.11179  0.68985  0.17408  1.0000
  H   H1193     1.0  0.14795  0.86938  0.20829  1.0000
  H   H1194     1.0  0.13508  0.77222  0.14727  1.0000
  H   H1195     1.0  0.25868  0.88192  0.21134  1.0000
  H   H1196     1.0  0.18899  0.79976  0.15271  1.0000
  H   H1197     1.0  0.27917  0.95825  0.23081  1.0000
  C   C677      1.0  0.29907  0.95919  0.23558  1.0000
  C   C678      1.0  0.25496  0.86699  0.23472  1.0000
  H   H1198     1.0  0.05029  0.78074  0.15150  1.0000
  S   S162      1.0  0.97822  0.60325  0.27401  1.0000
  S   S163      1.0  0.99304  0.61109  0.15945  1.0000
  C   C679      1.0  0.27122  0.88892  0.25560  1.0000
  H   H1199     1.0  0.09951  0.63490  0.16926  1.0000
  H   H1200     1.0  0.08385  0.64055  0.18299  1.0000
  H   H1201     1.0  0.05963  0.62675  0.16999  1.0000
  H   H1202     1.0  0.15237  0.87065  0.22420  1.0000
  H   H1203     1.0  0.15646  0.75125  0.14263  1.0000
  H   H1204     1.0  0.27113  0.84297  0.19317  1.0000
  H   H1205     1.0  0.02932  0.79253  0.20906  1.0000
  H   H1206     1.0  0.09510  0.77096  0.15643  1.0000
  H   H1207     1.0  0.27537  0.88584  0.23128  1.0000
  C   C680      1.0  0.33017  0.97119  0.25392  1.0000
  H   H1208     1.0  0.37017  0.96230  0.25308  1.0000
  Fe  Fe86      1.0  0.97337  0.68731  0.18691  1.0000
  H   H1209     1.0  0.36134  0.97097  0.19731  1.0000
  H   H1210     1.0  0.11542  0.70037  0.13626  1.0000
  C   C681      1.0  0.01211  0.79419  0.20283  1.0000
  H   H1211     1.0  0.06030  0.66427  0.13452  1.0000
  H   H1212     1.0  0.01918  0.79223  0.19365  1.0000
  C   C682      1.0  0.97009  0.77059  0.21749  1.0000
  H   H1213     1.0  0.97035  0.68253  0.25274  1.0000
  C   C683      1.0  0.97064  0.60751  0.23312  1.0000
  H   H1214     1.0  0.98342  0.74676  0.20316  1.0000
  H   H1215     1.0  0.96844  0.71867  0.22073  1.0000
  H   H1216     1.0  0.01121  0.81682  0.20404  1.0000
  S   S164      1.0  0.96564  0.60880  0.21744  1.0000
  C   C684      1.0  0.98115  0.76852  0.20480  1.0000
  H   H1217     1.0  0.96808  0.79283  0.21805  1.0000
  H   H1218     1.0  0.96525  0.77055  0.19804  1.0000
  C   C685      1.0  0.99901  0.51516  0.32908  1.0000
  C   C686      1.0  0.08239  0.71187  0.45729  1.0000
  Fe  Fe87      1.0  0.05336  0.60798  0.39589  1.0000
  S   S165      1.0  0.10313  0.62218  0.40018  1.0000
  S   S166      1.0  0.04647  0.60662  0.37552  1.0000
  Fe  Fe88      1.0  0.03828  0.60259  0.42289  1.0000
  S   S167      1.0  0.08693  0.61695  0.42831  1.0000
  S   S168      1.0  0.00078  0.58278  0.43659  1.0000
  Fe  Fe89      1.0  0.09815  0.65287  0.41443  1.0000
  S   S169      1.0  0.12903  0.70347  0.41848  1.0000
  Fe  Fe90      1.0  0.08772  0.58532  0.41356  1.0000
  S   S170      1.0  0.10821  0.55185  0.41777  1.0000
  S   S171      1.0  0.04885  0.64064  0.40976  1.0000
  S   S172      1.0  0.03873  0.56907  0.40855  1.0000
  Fe  Fe91      1.0  0.33554  0.90368  0.39584  1.0000
  S   S173      1.0  0.34044  0.85924  0.39727  1.0000
  S   S174      1.0  0.35189  0.93847  0.38091  1.0000
  Fe  Fe92      1.0  0.32322  0.90492  0.42308  1.0000
  S   S175      1.0  0.32664  0.86024  0.42595  1.0000
  C   C687      1.0  0.06900  0.72852  0.44915  1.0000
  Fe  Fe93      1.0  0.36687  0.87822  0.41421  1.0000
  S   S176      1.0  0.41473  0.88846  0.42034  1.0000
  Fe  Fe94      1.0  0.29896  0.84426  0.40884  1.0000
  S   S177      1.0  0.26430  0.79445  0.40541  1.0000
  S   S178      1.0  0.36441  0.92322  0.41216  1.0000
  S   S179      1.0  0.29291  0.88839  0.40658  1.0000
  C   C688      1.0  0.43725  0.87014  0.41522  1.0000
  C   C689      1.0  0.42533  0.84323  0.40830  1.0000
  C   C690      1.0  0.00276  0.51061  0.35047  1.0000
  H   H1219     1.0  0.03652  0.51582  0.37169  1.0000
  H   H1220     1.0  0.40140  0.83280  0.40610  1.0000
  H   H1221     1.0  0.31379  0.89257  0.45500  1.0000
  C   C691      1.0  0.97907  0.56633  0.45907  1.0000
  H   H1222     1.0  0.16557  0.73111  0.44140  1.0000
  H   H1223     1.0  0.20996  0.70245  0.44769  1.0000
  C   C692      1.0  0.41352  0.93997  0.44734  1.0000
  H   H1224     1.0  0.03151  0.63606  0.45236  1.0000
  C   C693      1.0  0.08807  0.51505  0.41151  1.0000
  C   C694      1.0  0.07059  0.51076  0.40112  1.0000
  H   H1225     1.0  0.08576  0.64933  0.44914  1.0000
  C   C695      1.0  0.01233  0.51142  0.37269  1.0000
  H   H1226     1.0  0.06875  0.53010  0.39700  1.0000
  H   H1227     1.0  0.06382  0.53154  0.44845  1.0000
  C   C696      1.0  0.16701  0.72812  0.41497  1.0000
  C   C697      1.0  0.18609  0.71784  0.40881  1.0000
  C   C698      1.0  0.21564  0.73844  0.40603  1.0000
  C   C699      1.0  0.22689  0.76956  0.40950  1.0000
  C   C700      1.0  0.20797  0.77971  0.41584  1.0000
  C   C701      1.0  0.17829  0.75916  0.41852  1.0000
  H   H1228     1.0  0.17818  0.69402  0.40620  1.0000
  H   H1229     1.0  0.23003  0.73019  0.40119  1.0000
  H   H1230     1.0  0.21611  0.80349  0.41858  1.0000
  H   H1231     1.0  0.16392  0.76749  0.42333  1.0000
  H   H1232     1.0  0.37197  0.87218  0.37387  1.0000
  C   C702      1.0  0.99948  0.58949  0.45216  1.0000
  S   S180      1.0  0.32397  0.93961  0.43751  1.0000
  H   H1233     1.0  0.40914  0.85662  0.38575  1.0000
  H   H1234     1.0  0.33007  0.89018  0.36209  1.0000
  H   H1235     1.0  0.20722  0.50416  0.41609  1.0000
  H   H1236     1.0  0.15142  0.79018  0.40298  1.0000
  H   H1237     1.0  0.04970  0.60936  0.35015  1.0000
  H   H1238     1.0  0.39040  0.93738  0.44959  1.0000
  H   H1239     1.0  0.19125  0.69889  0.43339  1.0000
  H   H1240     1.0  0.45368  0.93478  0.34252  1.0000
  C   C703      1.0  0.01755  0.59402  0.36413  1.0000
  H   H1241     1.0  0.43533  0.80890  0.39894  1.0000
  C   C704      1.0  0.00414  0.58846  0.34282  1.0000
  H   H1242     1.0  0.18298  0.56390  0.42682  1.0000
  C   C705      1.0  0.35531  0.96897  0.45792  1.0000
  H   H1243     1.0  0.42026  0.97006  0.42566  1.0000
  H   H1244     1.0  0.43273  0.94721  0.36176  1.0000
  C   C706      1.0  0.34243  0.91184  0.35804  1.0000
  C   C707      1.0  0.35523  0.93839  0.36517  1.0000
  H   H1245     1.0  0.02418  0.47525  0.34190  1.0000
  N   N39       1.0  0.98984  0.49281  0.33902  1.0000
  N   N40       1.0  0.12201  0.68796  0.45760  1.0000
  H   H1246     1.0  0.10251  0.69955  0.44215  1.0000
  H   H1247     1.0  0.01253  0.68284  0.38019  1.0000
  C   C708      1.0  0.09750  0.65609  0.45794  1.0000
  C   C709      1.0  0.34520  0.91338  0.34559  1.0000
  H   H1248     1.0  0.99646  0.53040  0.35127  1.0000
  H   H1249     1.0  0.99589  0.51518  0.45106  1.0000
  C   C710      1.0  0.38286  0.85772  0.37018  1.0000
  H   H1250     1.0  0.02669  0.65726  0.38684  1.0000
  H   H1251     1.0  0.06664  0.56442  0.31648  1.0000
  H   H1252     1.0  0.33885  0.82044  0.36725  1.0000
  H   H1253     1.0  0.00430  0.49886  0.38097  1.0000
  C   C711      1.0  0.42539  0.92358  0.35811  1.0000
  C   C712      1.0  0.04055  0.52583  0.44495  1.0000
  H   H1254     1.0  0.01110  0.59208  0.33372  1.0000
  H   H1255     1.0  0.03377  0.50577  0.43875  1.0000
  H   H1256     1.0  0.16169  0.49549  0.38919  1.0000
  C   C713      1.0  0.18981  0.50524  0.40985  1.0000
  H   H1257     1.0  0.03488  0.53410  0.30922  1.0000
  H   H1258     1.0  0.02904  0.66277  0.37105  1.0000
  H   H1259     1.0  0.42458  0.51515  0.40651  1.0000
  C   C714      1.0  0.02601  0.59831  0.35219  1.0000
  H   H1260     1.0  0.36995  0.80893  0.36715  1.0000
  H   H1261     1.0  0.41722  0.90601  0.39245  1.0000
  H   H1262     1.0  0.41793  0.90224  0.34047  1.0000
  H   H1263     1.0  0.10360  0.49296  0.42485  1.0000
  H   H1264     1.0  0.98735  0.53088  0.32980  1.0000
  C   C715      1.0  0.42517  0.91655  0.38372  1.0000
  C   C716      1.0  0.36067  0.94139  0.34007  1.0000
  C   C717      1.0  0.33691  0.94076  0.45241  1.0000
  H   H1265     1.0  0.13349  0.48712  0.40003  1.0000
  H   H1266     1.0  0.04703  0.52191  0.32996  1.0000
  C   C718      1.0  0.09050  0.48982  0.41672  1.0000
  H   H1267     1.0  0.02573  0.54044  0.46074  1.0000
  H   H1268     1.0  0.13764  0.67525  0.44130  1.0000
  H   H1269     1.0  0.06004  0.71507  0.44077  1.0000
  C   C719      1.0  0.97333  0.57410  0.34525  1.0000
  S   S181      1.0  0.36313  0.94204  0.32427  1.0000
  C   C720      1.0  0.36102  0.82440  0.37150  1.0000
  H   H1270     1.0  0.99121  0.50345  0.32033  1.0000
  N   N41       1.0  0.11838  0.71346  0.37919  1.0000
  C   C721      1.0  0.08750  0.68971  0.38193  1.0000
  C   C722      1.0  0.14155  0.70078  0.38193  1.0000
  C   C723      1.0  0.12478  0.74053  0.38753  1.0000
  C   C724      1.0  0.12063  0.72391  0.36655  1.0000
  C   C725      1.0  0.10050  0.70028  0.35699  1.0000
  C   C726      1.0  0.06152  0.70080  0.38166  1.0000
  C   C727      1.0  0.15693  0.76658  0.38708  1.0000
  C   C728      1.0  0.13975  0.67287  0.37435  1.0000
  C   C729      1.0  0.16371  0.66182  0.37848  1.0000
  C   C730      1.0  0.10934  0.71177  0.34450  1.0000
  C   C731      1.0  0.03061  0.67426  0.37983  1.0000
  C   C732      1.0  0.32798  0.91442  0.45908  1.0000
  H   H1271     1.0  0.08779  0.68057  0.39091  1.0000
  H   H1272     1.0  0.08113  0.66957  0.37589  1.0000
  H   H1273     1.0  0.16483  0.71829  0.38076  1.0000
  H   H1274     1.0  0.14017  0.69439  0.39140  1.0000
  H   H1275     1.0  0.12111  0.73301  0.39688  1.0000
  H   H1276     1.0  0.10860  0.75112  0.38575  1.0000
  H   H1277     1.0  0.11461  0.74390  0.36588  1.0000
  H   H1278     1.0  0.14454  0.73245  0.36372  1.0000
  H   H1279     1.0  0.07642  0.69619  0.35798  1.0000
  H   H1280     1.0  0.10185  0.67790  0.35758  1.0000
  H   H1281     1.0  0.06144  0.71254  0.39024  1.0000
  H   H1282     1.0  0.06438  0.71722  0.37452  1.0000
  H   H1283     1.0  0.16377  0.77267  0.37783  1.0000
  H   H1284     1.0  0.17376  0.75964  0.39142  1.0000
  H   H1285     1.0  0.11736  0.65350  0.37491  1.0000
  H   H1286     1.0  0.14444  0.67923  0.36498  1.0000
  H   H1287     1.0  0.16072  0.65536  0.38790  1.0000
  H   H1288     1.0  0.16165  0.64149  0.37305  1.0000
  H   H1289     1.0  0.18676  0.67994  0.37747  1.0000
  H   H1290     1.0  0.13290  0.71481  0.34278  1.0000
  H   H1291     1.0  0.09404  0.69486  0.33790  1.0000
  H   H1292     1.0  0.10734  0.73380  0.34333  1.0000
  C   C733      1.0  0.10941  0.70811  0.45146  1.0000
  C   C734      1.0  0.15862  0.79533  0.39370  1.0000
  H   H1293     1.0  0.97975  0.57635  0.37566  1.0000
  H   H1294     1.0  0.20264  0.52040  0.40268  1.0000
  C   C735      1.0  0.96490  0.57003  0.35720  1.0000
  H   H1295     1.0  0.96940  0.48788  0.36400  1.0000
  H   H1296     1.0  0.45511  0.47840  0.42654  1.0000
  H   H1297     1.0  0.15772  0.67274  0.45428  1.0000
  C   C736      1.0  0.44424  0.90768  0.36393  1.0000
  H   H1298     1.0  0.14402  0.80493  0.38921  1.0000
  H   H1299     1.0  0.15977  0.50814  0.42393  1.0000
  C   C737      1.0  0.98676  0.57980  0.36657  1.0000
  C   C738      1.0  0.40222  0.89671  0.46021  1.0000
  C   C739      1.0  0.37124  0.96630  0.35967  1.0000
  H   H1300     1.0  0.37962  0.88033  0.44280  1.0000
  H   H1301     1.0  0.15802  0.52771  0.41065  1.0000
  C   C740      1.0  0.03341  0.53541  0.32854  1.0000
  H   H1302     1.0  0.35736  0.81870  0.38099  1.0000
  H   H1303     1.0  0.41077  0.92690  0.43886  1.0000
  H   H1304     1.0  0.42228  0.84885  0.37200  1.0000
  H   H1305     1.0  0.40814  0.86652  0.44644  1.0000
  H   H1306     1.0  0.20936  0.56746  0.41528  1.0000
  H   H1307     1.0  0.04014  0.55364  0.33557  1.0000
  H   H1308     1.0  0.03075  0.56716  0.31557  1.0000
  H   H1309     1.0  0.21684  0.73581  0.43909  1.0000
  H   H1310     1.0  0.21078  0.54822  0.42879  1.0000
  C   C741      1.0  0.19561  0.55223  0.42221  1.0000
  N   N42       1.0  0.43676  0.89699  0.37646  1.0000
  N   N43       1.0  0.42653  0.92703  0.45697  1.0000
  C   C742      1.0  0.44450  0.82970  0.40431  1.0000
  H   H1311     1.0  0.05008  0.73155  0.45361  1.0000
  C   C743      1.0  0.43656  0.50182  0.40339  1.0000
  C   C744      1.0  0.41361  0.86439  0.37647  1.0000
  H   H1312     1.0  0.02789  0.52043  0.35051  1.0000
  H   H1313     1.0  0.01031  0.53359  0.37360  1.0000
  H   H1314     1.0  0.08636  0.75137  0.44704  1.0000
  H   H1315     1.0  0.40477  0.91758  0.37953  1.0000
  C   C745      1.0  0.01835  0.51948  0.45507  1.0000
  C   C746      1.0  0.14703  0.68673  0.45004  1.0000
  C   C747      1.0  0.99331  0.49274  0.36208  1.0000
  C   C748      1.0  0.04181  0.55113  0.31670  1.0000
  H   H1316     1.0  0.38593  0.86152  0.36055  1.0000
  C   C749      1.0  0.05620  0.48152  0.39583  1.0000
  H   H1317     1.0  0.35675  0.82598  0.44695  1.0000
  C   C750      1.0  0.19939  0.71334  0.44158  1.0000
  H   H1318     1.0  0.18230  0.81277  0.39389  1.0000
  H   H1319     1.0  0.04072  0.54550  0.43988  1.0000
  H   H1320     1.0  0.12697  0.73171  0.45081  1.0000
  C   C751      1.0  0.38990  0.87230  0.45006  1.0000
  H   H1321     1.0  0.33493  0.89273  0.34017  1.0000
  C   C752      1.0  0.17330  0.71783  0.44753  1.0000
  S   S182      1.0  0.97455  0.54831  0.30133  1.0000
  C   C753      1.0  0.01682  0.61771  0.45766  1.0000
  C   C754      1.0  0.42942  0.92531  0.34470  1.0000
  C   C755      1.0  0.37407  0.96779  0.34724  1.0000
  H   H1322     1.0  0.23576  0.49399  0.40185  1.0000
  H   H1323     1.0  0.40097  0.91168  0.35968  1.0000
  C   C756      1.0  0.17320  0.52207  0.41666  1.0000
  H   H1324     1.0  0.44246  0.88814  0.35801  1.0000
  H   H1325     1.0  0.04327  0.47844  0.38766  1.0000
  H   H1326     1.0  0.18225  0.73162  0.45580  1.0000
  H   H1327     1.0  0.41916  0.94019  0.34094  1.0000
  C   C757      1.0  0.14875  0.47812  0.39571  1.0000
  C   C758      1.0  0.36525  0.84293  0.45442  1.0000
  H   H1328     1.0  0.41928  0.97297  0.38254  1.0000
  H   H1329     1.0  0.06534  0.59326  0.45619  1.0000
  C   C759      1.0  0.45381  0.92366  0.45202  1.0000
  H   H1330     1.0  0.41840  0.96133  0.39773  1.0000
  H   H1331     1.0  0.12002  0.62561  0.45396  1.0000
  H   H1332     1.0  0.44779  0.91046  0.44345  1.0000
  H   H1333     1.0  0.02368  0.47605  0.32033  1.0000
  H   H1334     1.0  0.06389  0.68970  0.45925  1.0000
  C   C760      1.0  0.44852  0.94965  0.38648  1.0000
  H   H1335     1.0  0.46095  0.89265  0.39216  1.0000
  H   H1336     1.0  0.34600  0.84743  0.45782  1.0000
  H   H1337     1.0  0.96484  0.54471  0.45486  1.0000
  C   C761      1.0  0.43315  0.97060  0.39006  1.0000
  H   H1338     1.0  0.46152  0.96902  0.32155  1.0000
  H   H1339     1.0  0.46279  0.95948  0.37877  1.0000
  C   C762      1.0  0.43177  0.97408  0.44452  1.0000
  Fe  Fe95      1.0  0.05689  0.63320  0.62103  1.0000
  S   S183      1.0  0.09335  0.61559  0.62048  1.0000
  S   S184      1.0  0.02132  0.62404  0.60598  1.0000
  H   H1340     1.0  0.06853  0.51748  0.59332  1.0000
  C   C763      1.0  0.44737  0.65039  0.58620  1.0000
  C   C764      1.0  0.00913  0.51255  0.48160  1.0000
  C   C765      1.0  0.07757  0.56533  0.59405  1.0000
  S   S185      1.0  0.39745  0.96811  0.52374  1.0000
  H   H1341     1.0  0.15429  0.69482  0.47210  1.0000
  Fe  Fe96      1.0  0.34123  0.91831  0.61691  1.0000
  S   S186      1.0  0.32967  0.86798  0.61561  1.0000
  S   S187      1.0  0.36764  0.95056  0.60232  1.0000
  H   H1342     1.0  0.44149  0.95973  0.58518  1.0000
  H   H1343     1.0  0.96372  0.49832  0.46612  1.0000
  H   H1344     1.0  0.34058  0.80617  0.61273  1.0000
  C   C766      1.0  0.98670  0.52661  0.61275  1.0000
  H   H1345     1.0  0.42929  0.63229  0.59103  1.0000
  H   H1346     1.0  0.11932  0.57783  0.60455  1.0000
  H   H1347     1.0  0.33065  0.77101  0.62039  1.0000
  H   H1348     1.0  0.31194  0.92872  0.58745  1.0000
  C   C767      1.0  0.02050  0.53710  0.60991  1.0000
  C   C768      1.0  0.33634  0.91646  0.47120  1.0000
  C   C769      1.0  0.99090  0.60418  0.58443  1.0000
  C   C770      1.0  0.33070  0.94250  0.58213  1.0000
  H   H1349     1.0  0.99096  0.56791  0.62235  1.0000
  Fe  Fe97      1.0  0.97583  0.56795  0.53487  1.0000
  H   H1350     1.0  0.02873  0.56182  0.60811  1.0000
  C   C771      1.0  0.35987  0.95542  0.58720  1.0000
  C   C772      1.0  0.97655  0.57104  0.47134  1.0000
  H   H1351     1.0  0.11231  0.70108  0.49907  1.0000
  C   C773      1.0  0.12800  0.70940  0.49160  1.0000
  C   C774      1.0  0.32163  0.78703  0.61673  1.0000
  H   H1352     1.0  0.39802  0.86637  0.60655  1.0000
  C   C775      1.0  0.01894  0.61363  0.59055  1.0000
  C   C776      1.0  0.04400  0.61480  0.58422  1.0000
  C   C777      1.0  0.04089  0.60635  0.57204  1.0000
  C   C778      1.0  0.01283  0.59688  0.56591  1.0000
  H   H1353     1.0  0.44185  0.64663  0.57656  1.0000
  H   H1354     1.0  0.06589  0.62280  0.58865  1.0000
  H   H1355     1.0  0.06050  0.60752  0.56727  1.0000
  H   H1356     1.0  0.00264  0.53071  0.47823  1.0000
  C   C779      1.0  0.11337  0.69069  0.48035  1.0000
  C   C780      1.0  0.32571  0.94806  0.57021  1.0000
  H   H1357     1.0  0.23064  0.84489  0.57935  1.0000
  C   C781      1.0  0.06179  0.53281  0.59901  1.0000
  C   C782      1.0  0.44540  0.91099  0.59430  1.0000
  S   S188      1.0  0.01061  0.58656  0.55047  1.0000
  C   C783      1.0  0.01486  0.52566  0.58821  1.0000
  C   C784      1.0  0.11195  0.57688  0.59513  1.0000
  C   C785      1.0  0.17563  0.74264  0.62302  1.0000
  H   H1358     1.0  0.42299  0.91237  0.59444  1.0000
  H   H1359     1.0  0.02136  0.48676  0.62136  1.0000
  H   H1360     1.0  0.32859  0.89599  0.47632  1.0000
  H   H1361     1.0  0.06855  0.60431  0.47174  1.0000
  C   C786      1.0  0.43459  0.93559  0.48002  1.0000
  C   C787      1.0  0.41737  0.86067  0.60423  1.0000
  H   H1362     1.0  0.28666  0.93648  0.50370  1.0000
  N   N44       1.0  0.25891  0.77905  0.59276  1.0000
  C   C788      1.0  0.24413  0.80109  0.59119  1.0000
  C   C789      1.0  0.23586  0.74851  0.59661  1.0000
  C   C790      1.0  0.28292  0.79206  0.60248  1.0000
  C   C791      1.0  0.27439  0.77555  0.58170  1.0000
  C   C792      1.0  0.25432  0.76378  0.57037  1.0000
  C   C793      1.0  0.26538  0.83430  0.58827  1.0000
  C   C794      1.0  0.29665  0.77037  0.60746  1.0000
  C   C795      1.0  0.20296  0.73795  0.59163  1.0000
  C   C796      1.0  0.18417  0.70438  0.59410  1.0000
  C   C797      1.0  0.27350  0.76531  0.55957  1.0000
  C   C798      1.0  0.24757  0.85400  0.58674  1.0000
  N   N45       1.0  0.99823  0.48518  0.47319  1.0000
  H   H1363     1.0  0.23212  0.80214  0.59939  1.0000
  H   H1364     1.0  0.22621  0.79305  0.58417  1.0000
  H   H1365     1.0  0.24389  0.73023  0.59469  1.0000
  H   H1366     1.0  0.23333  0.74876  0.60639  1.0000
  H   H1367     1.0  0.27384  0.80028  0.61014  1.0000
  H   H1368     1.0  0.30230  0.81242  0.59937  1.0000
  H   H1369     1.0  0.29349  0.79748  0.57971  1.0000
  H   H1370     1.0  0.28505  0.75926  0.58312  1.0000
  H   H1371     1.0  0.24113  0.77742  0.56843  1.0000
  H   H1372     1.0  0.23875  0.73950  0.57130  1.0000
  H   H1373     1.0  0.28221  0.84515  0.59554  1.0000
  H   H1374     1.0  0.27742  0.83496  0.57993  1.0000
  H   H1375     1.0  0.30670  0.76151  0.60038  1.0000
  H   H1376     1.0  0.27928  0.75068  0.61185  1.0000
  H   H1377     1.0  0.19187  0.75151  0.59601  1.0000
  H   H1378     1.0  0.20188  0.74088  0.58199  1.0000
  H   H1379     1.0  0.19320  0.68959  0.58931  1.0000
  H   H1380     1.0  0.18431  0.70025  0.60374  1.0000
  H   H1381     1.0  0.16039  0.69794  0.59108  1.0000
  H   H1382     1.0  0.25854  0.75611  0.55160  1.0000
  H   H1383     1.0  0.28906  0.78930  0.55795  1.0000
  H   H1384     1.0  0.28690  0.75149  0.56088  1.0000
  H   H1385     1.0  0.23586  0.85482  0.59505  1.0000
  H   H1386     1.0  0.26327  0.87765  0.58470  1.0000
  H   H1387     1.0  0.99766  0.50640  0.49021  1.0000
  C   C799      1.0  0.10793  0.63072  0.46141  1.0000
  H   H1388     1.0  0.41891  0.96008  0.46827  1.0000
  H   H1389     1.0  0.07237  0.53358  0.60791  1.0000
  H   H1390     1.0  0.02716  0.64475  0.47397  1.0000
  H   H1391     1.0  0.07611  0.56513  0.49502  1.0000
  C   C800      1.0  0.34982  0.96602  0.56313  1.0000
  C   C801      1.0  0.01403  0.62261  0.46989  1.0000
  H   H1392     1.0  0.44793  0.67300  0.58890  1.0000
  H   H1393     1.0  0.09186  0.69294  0.47863  1.0000
  C   C802      1.0  0.05129  0.55404  0.49339  1.0000
  C   C803      1.0  0.35436  0.94467  0.47675  1.0000
  H   H1394     1.0  0.00747  0.48775  0.54620  1.0000
  S   S189      1.0  0.99073  0.60737  0.49215  1.0000
  H   H1395     1.0  0.14499  0.72630  0.46969  1.0000
  H   H1396     1.0  0.10772  0.66640  0.48224  1.0000
  H   H1397     1.0  0.13291  0.73386  0.49040  1.0000
  H   H1398     1.0  0.07086  0.58173  0.59886  1.0000
  Fe  Fe98      1.0  0.96868  0.57577  0.50754  1.0000
  H   H1399     1.0  0.96365  0.53493  0.57882  1.0000
  H   H1400     1.0  0.44963  0.90070  0.61300  1.0000
  H   H1401     1.0  0.11990  0.56176  0.58996  1.0000
  H   H1402     1.0  0.03294  0.53622  0.61816  1.0000
  H   H1403     1.0  0.97305  0.48733  0.55220  1.0000
  S   S190      1.0  0.36362  0.94563  0.49212  1.0000
  H   H1404     1.0  0.37431  0.83310  0.46154  1.0000
  C   C804      1.0  0.42362  0.47702  0.59909  1.0000
  H   H1405     1.0  0.44519  0.89872  0.58583  1.0000
  C   C805      1.0  0.28370  0.95822  0.50330  1.0000
  H   H1406     1.0  0.04032  0.54592  0.50197  1.0000
  S   S191      1.0  0.99728  0.55884  0.51849  1.0000
  C   C806      1.0  0.99400  0.59931  0.47684  1.0000
  S   S192      1.0  0.29896  0.91216  0.62672  1.0000
  H   H1407     1.0  0.05675  0.53602  0.47654  1.0000
  C   C807      1.0  0.44661  0.88961  0.60415  1.0000
  C   C808      1.0  0.13503  0.70090  0.46975  1.0000
  C   C809      1.0  0.98783  0.59594  0.57222  1.0000
  H   H1408     1.0  0.30299  0.93836  0.56646  1.0000
  C   C810      1.0  0.04351  0.52721  0.48457  1.0000
  C   C811      1.0  0.44815  0.96094  0.48950  1.0000
  H   H1409     1.0  0.41939  0.84512  0.61101  1.0000
  H   H1410     1.0  0.41282  0.84855  0.59547  1.0000
  H   H1411     1.0  0.07170  0.56563  0.58453  1.0000
  H   H1412     1.0  0.12259  0.60025  0.59163  1.0000
  H   H1413     1.0  0.12340  0.63778  0.46929  1.0000
  N   N46       1.0  0.02774  0.52029  0.59982  1.0000
  H   H1414     1.0  0.17931  0.78666  0.61735  1.0000
  H   H1415     1.0  0.31275  0.79618  0.62418  1.0000
  H   H1416     1.0  0.05100  0.51052  0.48862  1.0000
  H   H1417     1.0  0.01589  0.54930  0.58817  1.0000
  H   H1418     1.0  0.96648  0.49667  0.59183  1.0000
  C   C812      1.0  0.43506  0.94897  0.46756  1.0000
  H   H1419     1.0  0.04360  0.57129  0.48992  1.0000
  C   C813      1.0  0.08100  0.60107  0.46402  1.0000
  C   C814      1.0  0.01672  0.49148  0.46215  1.0000
  H   H1420     1.0  0.14930  0.70706  0.49394  1.0000
  H   H1421     1.0  0.38266  0.90034  0.46384  1.0000
  C   C815      1.0  0.98262  0.54307  0.62386  1.0000
  H   H1422     1.0  0.45417  0.88719  0.46363  1.0000
  C   C816      1.0  0.22170  0.78975  0.62483  1.0000
  H   H1423     1.0  0.02893  0.52431  0.58069  1.0000
  H   H1424     1.0  0.98503  0.52575  0.56761  1.0000
  H   H1425     1.0  0.97586  0.50182  0.61431  1.0000
  H   H1426     1.0  0.04013  0.49391  0.46426  1.0000
  S   S193      1.0  0.34199  0.97351  0.54833  1.0000
  C   C817      1.0  0.98232  0.50301  0.58443  1.0000
  H   H1427     1.0  0.09013  0.72587  0.46560  1.0000
  H   H1428     1.0  0.40995  0.88611  0.46743  1.0000
  H   H1429     1.0  0.99170  0.47541  0.60225  1.0000
  H   H1430     1.0  0.25915  0.95281  0.50263  1.0000
  C   C818      1.0  0.44191  0.96286  0.60935  1.0000
  H   H1431     1.0  0.44637  0.92552  0.57003  1.0000
  H   H1432     1.0  0.08909  0.58310  0.46607  1.0000
  H   H1433     1.0  0.42495  0.49656  0.60486  1.0000
  C   C819      1.0  0.36462  0.97079  0.46993  1.0000
  H   H1434     1.0  0.28865  0.96114  0.48465  1.0000
  H   H1435     1.0  0.96613  0.58889  0.56769  1.0000
  H   H1436     1.0  0.42351  0.94007  0.61070  1.0000
  S   S194      1.0  0.24017  0.82930  0.62214  1.0000
  S   S195      1.0  0.97268  0.47560  0.51165  1.0000
  H   H1437     1.0  0.11052  0.74722  0.62494  1.0000
  C   C820      1.0  0.19109  0.77422  0.62140  1.0000
  H   H1438     1.0  0.15224  0.73089  0.62015  1.0000
  H   H1439     1.0  0.97136  0.60338  0.58916  1.0000
  H   H1440     1.0  0.07946  0.65501  0.46403  1.0000
  H   H1441     1.0  0.41086  0.92167  0.48247  1.0000
  H   H1442     1.0  0.13258  0.51259  0.62443  1.0000
  H   H1443     1.0  0.09967  0.77889  0.62550  1.0000
  H   H1444     1.0  0.29315  0.97151  0.51165  1.0000
  C   C821      1.0  0.96896  0.51636  0.57489  1.0000
  H   H1445     1.0  0.44710  0.92084  0.48040  1.0000
  C   C822      1.0  0.96579  0.47780  0.46969  1.0000
  H   H1446     1.0  0.97474  0.53244  0.60540  1.0000
  H   H1447     1.0  0.44638  0.95082  0.49837  1.0000
  C   C823      1.0  0.01665  0.48652  0.60193  1.0000
  H   H1448     1.0  0.98301  0.48165  0.58075  1.0000
  H   H1449     1.0  0.45771  0.96778  0.46638  1.0000
  H   H1450     1.0  0.05353  0.48624  0.61368  1.0000
  C   C824      1.0  0.02854  0.47761  0.61345  1.0000
  H   H1451     1.0  0.42631  0.48434  0.58975  1.0000
  Fe  Fe99      1.0  0.28905  0.86187  0.62653  1.0000
  H   H1452     1.0  0.02269  0.47513  0.59432  1.0000
  C   C825      1.0  0.38391  0.97369  0.58014  1.0000
  H   H1453     1.0  0.44210  0.97294  0.56341  1.0000
  Fe  Fe100     1.0  0.05096  0.72315  0.74747  1.0000
  S   S196      1.0  0.04378  0.67405  0.74480  1.0000
  S   S197      1.0  0.10113  0.75342  0.74952  1.0000
  Fe  Fe101     1.0  0.00814  0.67098  0.73127  1.0000
  S   S198      1.0  0.99861  0.64398  0.71350  1.0000
  Fe  Fe102     1.0  0.00873  0.66424  0.75878  1.0000
  S   S199      1.0  0.00617  0.63036  0.77322  1.0000
  S   S200      1.0  0.01716  0.72070  0.73308  1.0000
  S   S201      1.0  0.01764  0.71334  0.76214  1.0000
  Fe  Fe103     1.0  0.21844  0.92248  0.74519  1.0000
  S   S202      1.0  0.25355  0.90364  0.74385  1.0000
  S   S203      1.0  0.16753  0.89751  0.74658  1.0000
  Fe  Fe104     1.0  0.27605  0.94010  0.73056  1.0000
  S   S204      1.0  0.29157  0.92021  0.71447  1.0000
  Fe  Fe105     1.0  0.27965  0.93844  0.75805  1.0000
  S   S205      1.0  0.29972  0.91924  0.77277  1.0000
  S   S206      1.0  0.23857  0.95661  0.73101  1.0000
  S   S207      1.0  0.24292  0.95495  0.76012  1.0000
  Fe  Fe106     1.0  0.35454  0.87476  0.63314  1.0000
  C   C826      1.0  0.07426  0.51898  0.63896  1.0000
  S   S208      1.0  0.06883  0.68062  0.66464  1.0000
  Fe  Fe107     1.0  0.32477  0.91440  0.64380  1.0000
  S   S209      1.0  0.31274  0.86397  0.64397  1.0000
  S   S210      1.0  0.32338  0.94469  0.65961  1.0000
  H   H1454     1.0  0.35287  0.83394  0.65827  1.0000
  H   H1455     1.0  0.31991  0.82441  0.66716  1.0000
  H   H1456     1.0  0.09280  0.76393  0.77914  1.0000
  C   C827      1.0  0.09789  0.61427  0.68467  1.0000
  H   H1457     1.0  0.01047  0.76059  0.69386  1.0000
  H   H1458     1.0  0.35354  0.82240  0.67339  1.0000
  H   H1459     1.0  0.44783  0.90051  0.66389  1.0000
  S   S211      1.0  0.97176  0.65634  0.74501  1.0000
  H   H1460     1.0  0.09428  0.76689  0.66258  1.0000
  H   H1461     1.0  0.23611  0.87020  0.76621  1.0000
  C   C828      1.0  0.29831  0.92718  0.69906  1.0000
  C   C829      1.0  0.29850  0.90343  0.69156  1.0000
  C   C830      1.0  0.30504  0.90802  0.67942  1.0000
  C   C831      1.0  0.31255  0.93680  0.67466  1.0000
  C   C832      1.0  0.13197  0.55877  0.66246  1.0000
  C   C833      1.0  0.05893  0.50971  0.70084  1.0000
  H   H1462     1.0  0.29335  0.88123  0.69519  1.0000
  H   H1463     1.0  0.30451  0.88936  0.67379  1.0000
  H   H1464     1.0  0.44902  0.95142  0.68130  1.0000
  H   H1465     1.0  0.14827  0.79161  0.63617  1.0000
  H   H1466     1.0  0.36889  0.96191  0.69916  1.0000
  H   H1467     1.0  0.30523  0.97435  0.69985  1.0000
  C   C834      1.0  0.11865  0.79326  0.74773  1.0000
  C   C835      1.0  0.10224  0.81140  0.74773  1.0000
  C   C836      1.0  0.11750  0.84335  0.74725  1.0000
  C   C837      1.0  0.14915  0.85731  0.74660  1.0000
  C   C838      1.0  0.16545  0.83910  0.74631  1.0000
  C   C839      1.0  0.15025  0.80723  0.74696  1.0000
  H   H1468     1.0  0.07790  0.80090  0.74836  1.0000
  H   H1469     1.0  0.10475  0.85734  0.74746  1.0000
  H   H1470     1.0  0.18979  0.84959  0.74573  1.0000
  H   H1471     1.0  0.16307  0.79330  0.74691  1.0000
  C   C840      1.0  0.01840  0.65455  0.69999  1.0000
  C   C841      1.0  0.00815  0.63486  0.68994  1.0000
  C   C842      1.0  0.02324  0.64232  0.67907  1.0000
  C   C843      1.0  0.04884  0.66967  0.67811  1.0000
  C   C844      1.0  0.05885  0.68945  0.68813  1.0000
  C   C845      1.0  0.04388  0.68192  0.69900  1.0000
  H   H1472     1.0  0.01488  0.62711  0.67142  1.0000
  H   H1473     1.0  0.07859  0.71060  0.68760  1.0000
  H   H1474     1.0  0.05213  0.69731  0.70662  1.0000
  C   C846      1.0  0.97186  0.73125  0.78359  1.0000
  H   H1475     1.0  0.00887  0.68012  0.78940  1.0000
  C   C847      1.0  0.45643  0.92434  0.66742  1.0000
  H   H1476     1.0  0.07663  0.54766  0.66825  1.0000
  C   C848      1.0  0.98724  0.71618  0.70178  1.0000
  H   H1477     1.0  0.03693  0.58937  0.68512  1.0000
  S   S212      1.0  0.36811  0.92510  0.63405  1.0000
  C   C849      1.0  0.23505  0.85081  0.77166  1.0000
  H   H1478     1.0  0.45226  0.97048  0.62833  1.0000
  H   H1479     1.0  0.06691  0.69186  0.77950  1.0000
  H   H1480     1.0  0.97814  0.73783  0.77432  1.0000
  H   H1481     1.0  0.42439  0.94590  0.69996  1.0000
  H   H1482     1.0  0.12819  0.56870  0.68093  1.0000
  S   S213      1.0  0.08645  0.67779  0.63060  1.0000
  H   H1483     1.0  0.08507  0.61550  0.70333  1.0000
  H   H1484     1.0  0.97686  0.53284  0.66532  1.0000
  N   N47       1.0  0.07709  0.58165  0.68136  1.0000
  H   H1485     1.0  0.10439  0.67149  0.70566  1.0000
  H   H1486     1.0  0.14309  0.78898  0.78933  1.0000
  H   H1487     1.0  0.19061  0.73212  0.65701  1.0000
  H   H1488     1.0  0.19562  0.93727  0.77841  1.0000
  C   C850      1.0  0.39891  0.93523  0.66526  1.0000
  H   H1489     1.0  0.26985  0.84545  0.76127  1.0000
  H   H1490     1.0  0.18163  0.70429  0.67591  1.0000
  H   H1491     1.0  0.03313  0.73906  0.69573  1.0000
  H   H1492     1.0  0.03815  0.51030  0.70465  1.0000
  S   S214      1.0  0.30471  0.97428  0.74478  1.0000
  H   H1493     1.0  0.42627  0.91803  0.63732  1.0000
  H   H1494     1.0  0.20546  0.81255  0.67088  1.0000
  S   S215      1.0  0.17257  0.68611  0.62965  1.0000
  H   H1495     1.0  0.14523  0.78942  0.77346  1.0000
  H   H1496     1.0  0.15306  0.70759  0.65180  1.0000
  H   H1497     1.0  0.13066  0.72475  0.66847  1.0000
  H   H1498     1.0  0.05646  0.56335  0.69791  1.0000
  H   H1499     1.0  0.16641  0.74836  0.67462  1.0000
  H   H1500     1.0  0.07782  0.51921  0.70748  1.0000
  H   H1501     1.0  0.16600  0.96232  0.74093  1.0000
  C   C851      1.0  0.44633  0.85806  0.63549  1.0000
  H   H1502     1.0  0.98835  0.61369  0.69056  1.0000
  C   C852      1.0  0.04700  0.58166  0.67766  1.0000
  H   H1503     1.0  0.34615  0.88015  0.66565  1.0000
  H   H1504     1.0  0.45536  0.54194  0.62996  1.0000
  H   H1505     1.0  0.10086  0.62910  0.67689  1.0000
  H   H1506     1.0  0.12077  0.61594  0.68721  1.0000
  H   H1507     1.0  0.99421  0.70141  0.70742  1.0000
  H   H1508     1.0  0.03990  0.48205  0.64788  1.0000
  H   H1509     1.0  0.37430  0.92817  0.66364  1.0000
  N   N48       1.0  0.15359  0.76622  0.65896  1.0000
  C   C853      1.0  0.14335  0.78571  0.66688  1.0000
  C   C854      1.0  0.13235  0.75341  0.64841  1.0000
  C   C855      1.0  0.18462  0.78568  0.65458  1.0000
  C   C856      1.0  0.12714  0.77717  0.64060  1.0000
  C   C857      1.0  0.10969  0.77118  0.67042  1.0000
  C   C858      1.0  0.10250  0.79203  0.67908  1.0000
  C   C859      1.0  0.44969  0.49590  0.63343  1.0000
  H   H1510     1.0  0.15696  0.79176  0.67530  1.0000
  H   H1511     1.0  0.14771  0.80796  0.66277  1.0000
  H   H1512     1.0  0.11003  0.73636  0.65123  1.0000
  H   H1513     1.0  0.14092  0.74035  0.64240  1.0000
  H   H1514     1.0  0.19140  0.77313  0.64764  1.0000
  H   H1515     1.0  0.18440  0.80601  0.65009  1.0000
  C   C860      1.0  0.20294  0.93402  0.78746  1.0000
  H   H1516     1.0  0.11945  0.79228  0.64585  1.0000
  H   H1517     1.0  0.10429  0.74924  0.67478  1.0000
  H   H1518     1.0  0.07831  0.78107  0.68143  1.0000
  H   H1519     1.0  0.11644  0.79603  0.68736  1.0000
  H   H1520     1.0  0.10679  0.81425  0.67502  1.0000
  H   H1521     1.0  0.24758  0.80366  0.65254  1.0000
  H   H1522     1.0  0.08868  0.58463  0.66293  1.0000
  C   C861      1.0  0.12361  0.57631  0.67220  1.0000
  C   C862      1.0  0.20079  0.88159  0.78202  1.0000
  N   N49       1.0  0.18875  0.84774  0.78411  1.0000
  C   C863      1.0  0.09015  0.57187  0.67083  1.0000
  H   H1523     1.0  0.09597  0.67795  0.77791  1.0000
  C   C864      1.0  0.15492  0.83465  0.78177  1.0000
  C   C865      1.0  0.42740  0.87376  0.63613  1.0000
  C   C866      1.0  0.44049  0.90565  0.63678  1.0000
  H   H1524     1.0  0.99499  0.53919  0.63158  1.0000
  H   H1525     1.0  0.37380  0.93484  0.70895  1.0000
  C   C867      1.0  0.30500  0.95576  0.69422  1.0000
  S   S216      1.0  0.38763  0.85277  0.63608  1.0000
  C   C868      1.0  0.09030  0.69578  0.78231  1.0000
  Fe  Fe108     1.0  0.07566  0.59512  0.63795  1.0000
  Fe  Fe109     1.0  0.12170  0.65862  0.63111  1.0000
  C   C869      1.0  0.24652  0.83125  0.76407  1.0000
  H   H1526     1.0  0.06698  0.63157  0.69323  1.0000
  H   H1527     1.0  0.15605  0.56252  0.66358  1.0000
  H   H1528     1.0  0.17590  0.67922  0.66312  1.0000
  H   H1529     1.0  0.14972  0.84282  0.77317  1.0000
  H   H1530     1.0  0.08131  0.74682  0.63483  1.0000
  H   H1531     1.0  0.45584  0.93939  0.66018  1.0000
  C   C870      1.0  0.06007  0.48876  0.64270  1.0000
  H   H1532     1.0  0.16423  0.89242  0.78947  1.0000
  C   C871      1.0  0.29983  0.92208  0.78853  1.0000
  H   H1533     1.0  0.11534  0.67605  0.69042  1.0000
  C   C872      1.0  0.06689  0.52775  0.68947  1.0000
  H   H1534     1.0  0.98546  0.56642  0.67463  1.0000
  C   C873      1.0  0.10318  0.76145  0.63089  1.0000
  H   H1535     1.0  0.04790  0.51686  0.68304  1.0000
  H   H1536     1.0  0.25079  0.86014  0.77932  1.0000
  S   S217      1.0  0.03818  0.61127  0.63835  1.0000
  C   C874      1.0  0.39271  0.94221  0.78207  1.0000
  H   H1537     1.0  0.14369  0.67992  0.67067  1.0000
  C   C875      1.0  0.02187  0.55080  0.67340  1.0000
  H   H1538     1.0  0.18884  0.82674  0.76697  1.0000
  H   H1539     1.0  0.11148  0.55061  0.62938  1.0000
  H   H1540     1.0  0.26031  0.78492  0.63258  1.0000
  H   H1541     1.0  0.11780  0.53390  0.66284  1.0000
  H   H1542     1.0  0.97921  0.70440  0.69306  1.0000
  H   H1543     1.0  0.25820  0.82734  0.66582  1.0000
  H   H1544     1.0  0.13396  0.66056  0.70081  1.0000
  H   H1545     1.0  0.00164  0.56956  0.66009  1.0000
  C   C876      1.0  0.13835  0.79924  0.78128  1.0000
  H   H1546     1.0  0.39840  0.88079  0.66312  1.0000
  C   C877      1.0  0.08826  0.62917  0.69526  1.0000
  H   H1547     1.0  0.20040  0.81016  0.77887  1.0000
  C   C878      1.0  0.21030  0.79804  0.66418  1.0000
  H   H1548     1.0  0.21325  0.77919  0.66876  1.0000
  H   H1549     1.0  0.39911  0.87171  0.67830  1.0000
  H   H1550     1.0  0.24698  0.81193  0.76918  1.0000
  H   H1551     1.0  0.01355  0.53570  0.68105  1.0000
  C   C879      1.0  0.16703  0.71913  0.65975  1.0000
  H   H1552     1.0  0.44083  0.91370  0.68538  1.0000
  C   C880      1.0  0.10410  0.78913  0.78026  1.0000
  C   C881      1.0  0.24050  0.81763  0.65872  1.0000
  Fe  Fe110     1.0  0.07095  0.65360  0.64786  1.0000
  H   H1553     1.0  0.36705  0.92357  0.68398  1.0000
  C   C882      1.0  0.15397  0.74001  0.66602  1.0000
  S   S218      1.0  0.05861  0.54526  0.64293  1.0000
  H   H1554     1.0  0.08684  0.52518  0.68578  1.0000
  H   H1555     1.0  0.19550  0.88549  0.77269  1.0000
  S   S219      1.0  0.10735  0.63607  0.64858  1.0000
  C   C883      1.0  0.07406  0.56200  0.69197  1.0000
  H   H1556     1.0  0.02486  0.75731  0.70845  1.0000
  H   H1557     1.0  0.98725  0.72168  0.78745  1.0000
  C   C884      1.0  0.34501  0.83529  0.66736  1.0000
  H   H1558     1.0  0.22802  0.94332  0.78803  1.0000
  H   H1559     1.0  0.38313  0.90253  0.69228  1.0000
  H   H1560     1.0  0.97470  0.75214  0.78880  1.0000
  H   H1561     1.0  0.34638  0.86832  0.68057  1.0000
  C   C885      1.0  0.41239  0.97042  0.66662  1.0000
  H   H1562     1.0  0.39861  0.92582  0.77673  1.0000
  C   C886      1.0  0.18908  0.90024  0.79037  1.0000
  H   H1563     1.0  0.14365  0.84284  0.78867  1.0000
  C   C887      1.0  0.20210  0.83240  0.77546  1.0000
  H   H1564     1.0  0.23193  0.82233  0.75598  1.0000
  C   C888      1.0  0.11208  0.66126  0.69818  1.0000
  H   H1565     1.0  0.13878  0.60081  0.67139  1.0000
  H   H1566     1.0  0.02962  0.53911  0.66652  1.0000
  C   C889      1.0  0.31239  0.96057  0.68215  1.0000
  H   H1567     1.0  0.36774  0.93454  0.78189  1.0000
  H   H1568     1.0  0.01666  0.59446  0.79139  1.0000
  H   H1569     1.0  0.09537  0.57097  0.69745  1.0000
  H   H1570     1.0  0.10585  0.71856  0.77928  1.0000
  N   N50       1.0  0.40446  0.91823  0.67550  1.0000
  C   C890      1.0  0.10029  0.52742  0.63227  1.0000
  C   C891      1.0  0.38897  0.92258  0.68649  1.0000
  C   C892      1.0  0.39094  0.88460  0.67206  1.0000
  H   H1571     1.0  0.40695  0.92886  0.65689  1.0000
  C   C893      1.0  0.35588  0.86850  0.67168  1.0000
  C   C894      1.0  0.99484  0.55531  0.66806  1.0000
  H   H1572     1.0  0.22582  0.89256  0.78287  1.0000
  H   H1573     1.0  0.05034  0.59835  0.67049  1.0000
  C   C895      1.0  0.16704  0.69416  0.66792  1.0000
  H   H1574     1.0  0.23888  0.83682  0.65385  1.0000
  C   C896      1.0  0.01559  0.74516  0.69985  1.0000
  Fe  Fe111     1.0  0.98260  0.70614  0.74752  1.0000
  C   C897      1.0  0.01239  0.63691  0.78882  1.0000
  H   H1575     1.0  0.09797  0.79923  0.77243  1.0000
  H   H1576     1.0  0.12877  0.56687  0.65361  1.0000
  C   C898      1.0  0.22132  0.74166  0.63147  1.0000
  H   H1577     1.0  0.05471  0.48554  0.69885  1.0000
  C   C899      1.0  0.43777  0.92743  0.67803  1.0000
  C   C900      1.0  0.38586  0.95565  0.70380  1.0000
  C   C901      1.0  0.09798  0.47554  0.63318  1.0000
  C   C902      1.0  0.40680  0.95033  0.69489  1.0000
  H   H1578     1.0  0.97062  0.73142  0.71723  1.0000
  H   H1579     1.0  0.23321  0.72906  0.63529  1.0000
  H   H1580     1.0  0.43645  0.83339  0.63505  1.0000
  H   H1581     1.0  0.40276  0.96482  0.77791  1.0000
  H   H1582     1.0  0.09551  0.79612  0.78834  1.0000
  H   H1583     1.0  0.29090  0.96240  0.78964  1.0000
  C   C903      1.0  0.23675  0.77332  0.62992  1.0000
  C   C904      1.0  0.11217  0.50582  0.62947  1.0000
  H   H1584     1.0  0.30941  0.88235  0.79056  1.0000
  H   H1585     1.0  0.42529  0.48653  0.63264  1.0000
  C   C905      1.0  0.19065  0.72618  0.62808  1.0000
  H   H1586     1.0  0.41827  0.97171  0.69012  1.0000
  H   H1587     1.0  0.13533  0.69049  0.79409  1.0000
  H   H1588     1.0  0.19522  0.94704  0.79385  1.0000
  Fe  Fe112     1.0  0.04759  0.57883  0.85955  1.0000
  S   S220      1.0  0.01474  0.60179  0.85971  1.0000
  S   S221      1.0  0.03023  0.52746  0.86302  1.0000
  Fe  Fe113     1.0  0.10166  0.63963  0.85753  1.0000
  S   S222      1.0  0.07296  0.66608  0.85766  1.0000
  S   S223      1.0  0.15284  0.66128  0.85663  1.0000
  Fe  Fe114     1.0  0.04797  0.63630  0.87257  1.0000
  S   S224      1.0  0.03783  0.66273  0.88802  1.0000
  Fe  Fe115     1.0  0.04223  0.62991  0.84479  1.0000
  S   S225      1.0  0.02526  0.65065  0.82955  1.0000
  S   S226      1.0  0.07907  0.61203  0.87322  1.0000
  S   S227      1.0  0.07272  0.60481  0.84382  1.0000
  Fe  Fe116     1.0  0.26934  0.83106  0.84788  1.0000
  S   S228      1.0  0.27037  0.87590  0.85433  1.0000
  S   S229      1.0  0.22225  0.79843  0.84183  1.0000
  Fe  Fe117     1.0  0.33879  0.85423  0.85052  1.0000
  S   S230      1.0  0.34380  0.90051  0.85730  1.0000
  S   S231      1.0  0.37613  0.83719  0.84748  1.0000
  Fe  Fe118     1.0  0.30315  0.87523  0.86855  1.0000
  S   S232      1.0  0.29342  0.87367  0.88852  1.0000
  Fe  Fe119     1.0  0.31001  0.89648  0.84241  1.0000
  S   S233      1.0  0.31112  0.93281  0.82936  1.0000
  S   S234      1.0  0.30014  0.82891  0.86248  1.0000
  S   S235      1.0  0.30714  0.85167  0.83525  1.0000
  C   C906      1.0  0.30608  0.90069  0.79515  1.0000
  C   C907      1.0  0.01228  0.66298  0.79454  1.0000
  S   S236      1.0  0.00831  0.63951  0.94309  1.0000
  Fe  Fe120     1.0  0.28097  0.95173  0.95196  1.0000
  H   H1589     1.0  0.11066  0.47725  0.86692  1.0000
  H   H1590     1.0  0.38682  0.87337  0.87215  1.0000
  H   H1591     1.0  0.10971  0.69036  0.83007  1.0000
  H   H1592     1.0  0.19233  0.83968  0.85451  1.0000
  H   H1593     1.0  0.25978  0.51223  0.85572  1.0000
  C   C908      1.0  0.29552  0.94565  0.79459  1.0000
  C   C909      1.0  0.29589  0.89874  0.90079  1.0000
  C   C910      1.0  0.30532  0.93026  0.89971  1.0000
  C   C911      1.0  0.30689  0.94890  0.90979  1.0000
  C   C912      1.0  0.29868  0.93631  0.92104  1.0000
  C   C913      1.0  0.28899  0.90480  0.92208  1.0000
  C   C914      1.0  0.28791  0.88627  0.91206  1.0000
  H   H1594     1.0  0.31170  0.94031  0.89115  1.0000
  C   C915      1.0  0.39064  0.91367  0.80093  1.0000
  H   H1595     1.0  0.08244  0.75430  0.83076  1.0000
  C   C916      1.0  0.08019  0.73065  0.82896  1.0000
  C   C917      1.0  0.30846  0.90301  0.80764  1.0000
  C   C918      1.0  0.30519  0.92715  0.81370  1.0000
  H   H1596     1.0  0.21297  0.81353  0.92701  1.0000
  H   H1597     1.0  0.31358  0.88653  0.81254  1.0000
  C   C919      1.0  0.17206  0.70032  0.85359  1.0000
  C   C920      1.0  0.20380  0.71356  0.85372  1.0000
  C   C921      1.0  0.21971  0.74423  0.85072  1.0000
  C   C922      1.0  0.20385  0.76163  0.84744  1.0000
  C   C923      1.0  0.17221  0.74872  0.84770  1.0000
  C   C924      1.0  0.15634  0.71820  0.85079  1.0000
  H   H1598     1.0  0.21610  0.69987  0.85594  1.0000
  H   H1599     1.0  0.24413  0.75399  0.85048  1.0000
  H   H1600     1.0  0.15995  0.76238  0.84543  1.0000
  H   H1601     1.0  0.13197  0.70843  0.85079  1.0000
  C   C925      1.0  0.03167  0.65615  0.90348  1.0000
  C   C926      1.0  0.03169  0.68004  0.91096  1.0000
  C   C927      1.0  0.02552  0.67566  0.92314  1.0000
  C   C928      1.0  0.01869  0.64709  0.92800  1.0000
  C   C929      1.0  0.01882  0.62326  0.92055  1.0000
  C   C930      1.0  0.02544  0.62776  0.90840  1.0000
  H   H1602     1.0  0.44535  0.55931  0.85161  1.0000
  H   H1603     1.0  0.02575  0.69428  0.92873  1.0000
  H   H1604     1.0  0.01358  0.60104  0.92418  1.0000
  H   H1605     1.0  0.02519  0.60911  0.90280  1.0000
  C   C931      1.0  0.01599  0.66657  0.80698  1.0000
  C   C932      1.0  0.02060  0.64459  0.81387  1.0000
  C   C933      1.0  0.19425  0.84112  0.79674  1.0000
  H   H1606     1.0  0.01520  0.68651  0.81131  1.0000
  C   C934      1.0  0.13033  0.66460  0.81401  1.0000
  C   C935      1.0  0.04109  0.49825  0.85768  1.0000
  C   C936      1.0  0.06177  0.50295  0.84862  1.0000
  C   C937      1.0  0.38413  0.88141  0.81846  1.0000
  H   H1607     1.0  0.07207  0.52517  0.84475  1.0000
  C   C938      1.0  0.98800  0.74447  0.92699  1.0000
  C   C939      1.0  0.36158  0.82342  0.81624  1.0000
  C   C940      1.0  0.41620  0.85632  0.84707  1.0000
  H   H1608     1.0  0.02421  0.60141  0.81328  1.0000
  H   H1609     1.0  0.41903  0.90022  0.85302  1.0000
  H   H1610     1.0  0.42141  0.81583  0.84112  1.0000
  H   H1611     1.0  0.44648  0.59982  0.90438  1.0000
  S   S237      1.0  0.99934  0.71438  0.95549  1.0000
  H   H1612     1.0  0.18567  0.71847  0.80087  1.0000
  C   C941      1.0  0.22899  0.85072  0.81480  1.0000
  H   H1613     1.0  0.44278  0.91819  0.82311  1.0000
  H   H1614     1.0  0.99055  0.76331  0.93337  1.0000
  H   H1615     1.0  0.96644  0.65778  0.90263  1.0000
  H   H1616     1.0  0.11852  0.71804  0.88717  1.0000
  H   H1617     1.0  0.18038  0.84821  0.80288  1.0000
  H   H1618     1.0  0.13769  0.72700  0.79838  1.0000
  C   C942      1.0  0.10844  0.73127  0.82295  1.0000
  H   H1619     1.0  0.31468  0.97327  0.90886  1.0000
  H   H1620     1.0  0.44080  0.83197  0.89896  1.0000
  H   H1621     1.0  0.41704  0.53103  0.86729  1.0000
  H   H1622     1.0  0.39383  0.89678  0.79491  1.0000
  H   H1623     1.0  0.08208  0.63732  0.81727  1.0000
  H   H1624     1.0  0.19859  0.89339  0.91159  1.0000
  H   H1625     1.0  0.28295  0.89477  0.93067  1.0000
  H   H1626     1.0  0.11089  0.74307  0.81444  1.0000
  H   H1627     1.0  0.08396  0.68357  0.81811  1.0000
  C   C943      1.0  0.29853  0.94832  0.80708  1.0000
  C   C944      1.0  0.02104  0.61869  0.80813  1.0000
  C   C945      1.0  0.43162  0.88714  0.85033  1.0000
  H   H1628     1.0  0.41088  0.95949  0.81798  1.0000
  H   H1629     1.0  0.96391  0.63358  0.91484  1.0000
  H   H1630     1.0  0.14671  0.66162  0.80788  1.0000
  H   H1631     1.0  0.28123  0.86209  0.91311  1.0000
  H   H1632     1.0  0.45348  0.59510  0.85932  1.0000
  H   H1633     1.0  0.45866  0.79584  0.85735  1.0000
  H   H1634     1.0  0.13798  0.66204  0.82316  1.0000
  C   C946      1.0  0.44623  0.89935  0.80633  1.0000
  H   H1635     1.0  0.19197  0.83704  0.92694  1.0000
  C   C947      1.0  0.10723  0.69867  0.82113  1.0000
  H   H1636     1.0  0.05991  0.71874  0.82316  1.0000
  H   H1637     1.0  0.35313  0.85345  0.80431  1.0000
  H   H1638     1.0  0.12803  0.74513  0.82878  1.0000
  H   H1639     1.0  0.28258  0.77942  0.88197  1.0000
  H   H1640     1.0  0.03649  0.70211  0.90728  1.0000
  H   H1641     1.0  0.40160  0.96079  0.85053  1.0000
  H   H1642     1.0  0.26869  0.74125  0.88745  1.0000
  C   C948      1.0  0.43309  0.83965  0.84374  1.0000
  H   H1643     1.0  0.14566  0.70113  0.88877  1.0000
  C   C949      1.0  0.16115  0.71875  0.81718  1.0000
  C   C950      1.0  0.18866  0.71783  0.81060  1.0000
  C   C951      1.0  0.21781  0.74496  0.81441  1.0000
  H   H1644     1.0  0.16471  0.71560  0.82673  1.0000
  H   H1645     1.0  0.16280  0.74245  0.81647  1.0000
  C   C952      1.0  0.43536  0.91994  0.81390  1.0000
  H   H1646     1.0  0.19189  0.69687  0.81273  1.0000
  C   C953      1.0  0.23818  0.51006  0.85968  1.0000
  H   H1647     1.0  0.25657  0.97066  0.91775  1.0000
  C   C954      1.0  0.45554  0.48815  0.84046  1.0000
  H   H1648     1.0  0.18642  0.81618  0.79789  1.0000
  H   H1649     1.0  0.17562  0.48922  0.85697  1.0000
  H   H1650     1.0  0.12829  0.70067  0.87458  1.0000
  H   H1651     1.0  0.23717  0.74384  0.80961  1.0000
  H   H1652     1.0  0.07696  0.71873  0.83750  1.0000
  H   H1653     1.0  0.23529  0.92090  0.90755  1.0000
  H   H1654     1.0  0.97394  0.68883  0.91915  1.0000
  H   H1655     1.0  0.19833  0.94488  0.91087  1.0000
  C   C955      1.0  0.43043  0.55811  0.89340  1.0000
  H   H1656     1.0  0.29603  0.96715  0.81165  1.0000
  H   H1657     1.0  0.19266  0.93025  0.92559  1.0000
  H   H1658     1.0  0.06042  0.49759  0.80700  1.0000
  H   H1659     1.0  0.22912  0.85121  0.92090  1.0000
  S   S238      1.0  0.23077  0.93556  0.95420  1.0000
  H   H1660     1.0  0.25240  0.74852  0.87406  1.0000
  H   H1661     1.0  0.37482  0.48202  0.87243  1.0000
  C   C956      1.0  0.10317  0.60696  0.81338  1.0000
  H   H1662     1.0  0.42701  0.94084  0.83627  1.0000
  H   H1663     1.0  0.08354  0.71006  0.79971  1.0000
  H   H1664     1.0  0.08088  0.58755  0.81184  1.0000
  C   C957      1.0  0.10001  0.63695  0.81138  1.0000
  H   H1665     1.0  0.34350  0.82184  0.82246  1.0000
  H   H1666     1.0  0.41030  0.57127  0.90834  1.0000
  C   C958      1.0  0.37252  0.85340  0.80970  1.0000
  S   S239      1.0  0.30178  0.96106  0.93348  1.0000
  H   H1667     1.0  0.22230  0.74449  0.82407  1.0000
  H   H1668     1.0  0.41788  0.50028  0.88681  1.0000
  C   C959      1.0  0.21878  0.91359  0.91479  1.0000
  H   H1669     1.0  0.21867  0.82608  0.81681  1.0000
  H   H1670     1.0  0.44163  0.88356  0.87408  1.0000
  H   H1671     1.0  0.11094  0.60610  0.82262  1.0000
  N   N51       1.0  0.13034  0.69593  0.81291  1.0000
  H   H1672     1.0  0.18438  0.97269  0.92738  1.0000
  C   C960      1.0  0.40571  0.84783  0.88296  1.0000
  H   H1673     1.0  0.37259  0.93334  0.81967  1.0000
  N   N52       1.0  0.46148  0.55232  0.87576  1.0000
  C   C961      1.0  0.12535  0.70228  0.80015  1.0000
  C   C962      1.0  0.45693  0.83358  0.87603  1.0000
  C   C963      1.0  0.39652  0.93611  0.82086  1.0000
  N   N53       1.0  0.20411  0.79363  0.89017  1.0000
  C   C964      1.0  0.22910  0.78766  0.88432  1.0000
  C   C965      1.0  0.19765  0.81752  0.88353  1.0000
  C   C966      1.0  0.21531  0.80653  0.90251  1.0000
  C   C967      1.0  0.17578  0.76483  0.89135  1.0000
  C   C968      1.0  0.16295  0.74490  0.87998  1.0000
  C   C969      1.0  0.23878  0.76415  0.89033  1.0000
  C   C970      1.0  0.19403  0.81714  0.90971  1.0000
  C   C971      1.0  0.20058  0.81762  0.86988  1.0000
  C   C972      1.0  0.18924  0.83979  0.86424  1.0000
  C   C973      1.0  0.13733  0.71443  0.88287  1.0000
  C   C974      1.0  0.26204  0.75804  0.88297  1.0000
  C   C975      1.0  0.20798  0.83050  0.92186  1.0000
  H   H1674     1.0  0.24962  0.80944  0.88380  1.0000
  H   H1675     1.0  0.22299  0.77957  0.87499  1.0000
  H   H1676     1.0  0.17466  0.81603  0.88553  1.0000
  H   H1677     1.0  0.21371  0.84091  0.88655  1.0000
  H   H1678     1.0  0.23765  0.82634  0.90205  1.0000
  H   H1679     1.0  0.21917  0.78946  0.90801  1.0000
  H   H1680     1.0  0.17935  0.75013  0.89819  1.0000
  H   H1681     1.0  0.15704  0.77029  0.89470  1.0000
  H   H1682     1.0  0.18034  0.73957  0.87541  1.0000
  H   H1683     1.0  0.15326  0.75649  0.87386  1.0000
  H   H1684     1.0  0.24947  0.77280  0.89917  1.0000
  H   H1685     1.0  0.21917  0.74205  0.89134  1.0000
  H   H1686     1.0  0.17220  0.79770  0.91126  1.0000
  H   H1687     1.0  0.18939  0.83498  0.90506  1.0000
  H   H1688     1.0  0.22469  0.82499  0.86758  1.0000
  H   H1689     1.0  0.18780  0.79488  0.86577  1.0000
  H   H1690     1.0  0.16483  0.83285  0.86589  1.0000
  H   H1691     1.0  0.20228  0.86334  0.86781  1.0000
  N   N54       1.0  0.40193  0.91242  0.81337  1.0000
  H   H1692     1.0  0.37267  0.95730  0.83970  1.0000
  H   H1693     1.0  0.39894  0.96219  0.79946  1.0000
  H   H1694     1.0  0.39739  0.87690  0.82575  1.0000
  C   C976      1.0  0.20951  0.93928  0.91854  1.0000
  H   H1695     1.0  0.40802  0.54073  0.89038  1.0000
  H   H1696     1.0  0.35986  0.84479  0.88103  1.0000
  H   H1697     1.0  0.25294  0.86023  0.81796  1.0000
  H   H1698     1.0  0.21631  0.76688  0.81242  1.0000
  H   H1699     1.0  0.99049  0.75331  0.91787  1.0000
  H   H1700     1.0  0.44583  0.49298  0.83249  1.0000
  H   H1701     1.0  0.00634  0.73681  0.92892  1.0000
  H   H1702     1.0  0.44034  0.81229  0.87989  1.0000
  H   H1703     1.0  0.43700  0.87593  0.80977  1.0000
  H   H1704     1.0  0.08444  0.48257  0.83731  1.0000
  C   C977      1.0  0.39673  0.96113  0.84091  1.0000
  H   H1705     1.0  0.35234  0.80391  0.80978  1.0000
  C   C978      1.0  0.43582  0.52478  0.87018  1.0000
  H   H1706     1.0  0.41308  0.59336  0.89534  1.0000
  C   C979      1.0  0.06871  0.47869  0.84441  1.0000
  H   H1707     1.0  0.21723  0.86270  0.81977  1.0000
  H   H1708     1.0  0.40100  0.82994  0.87591  1.0000
  H   H1709     1.0  0.19521  0.89841  0.79974  1.0000
  C   C980      1.0  0.22738  0.85534  0.80148  1.0000
  C   C981      1.0  0.43890  0.87206  0.88271  1.0000
  C   C982      1.0  0.42220  0.49552  0.87758  1.0000
  H   H1710     1.0  0.24214  0.51493  0.86936  1.0000
  H   H1711     1.0  0.38061  0.82161  0.82130  1.0000
  H   H1712     1.0  0.23115  0.52719  0.85567  1.0000
  C   C983      1.0  0.40301  0.93621  0.83437  1.0000
  Fe  Fe121     1.0  0.00676  0.67164  0.95815  1.0000
  H   H1713     1.0  0.40072  0.83666  0.89163  1.0000
  H   H1714     1.0  0.11951  0.60431  0.80715  1.0000
  H   H1715     1.0  0.38866  0.91406  0.83820  1.0000
  H   H1716     1.0  0.36332  0.88093  0.82267  1.0000
  H   H1717     1.0  0.36580  0.90703  0.80096  1.0000
  H   H1718     1.0  0.44338  0.51709  0.86194  1.0000
  H   H1719     1.0  0.24053  0.84393  0.79714  1.0000
  H   H1720     1.0  0.22910  0.90683  0.92246  1.0000
  C   C984      1.0  0.38337  0.86251  0.88092  1.0000
  H   H1721     1.0  0.09287  0.63641  0.80199  1.0000
  H   H1722     1.0  0.43500  0.57927  0.87669  1.0000
  C   C985      1.0  0.42479  0.58221  0.90078  1.0000
  H   H1723     1.0  0.04267  0.47847  0.82017  1.0000
  C   C986      1.0  0.09229  0.69399  0.79579  1.0000
  H   H1724     1.0  0.24342  0.96155  0.93209  1.0000
  H   H1725     1.0  0.43817  0.48421  0.87787  1.0000
  H   H1726     1.0  0.44860  0.94408  0.81155  1.0000
  C   C987      1.0  0.23706  0.96770  0.92336  1.0000
  H   H1727     1.0  0.07680  0.67084  0.79824  1.0000
  H   H1728     1.0  0.18746  0.48477  0.87141  1.0000
  C   C988      1.0  0.44964  0.57235  0.88253  1.0000
  H   H1729     1.0  0.96516  0.60909  0.89542  1.0000
  H   H1730     1.0  0.38600  0.87993  0.88797  1.0000
  H   H1731     1.0  0.23838  0.88019  0.80005  1.0000
  H   H1732     1.0  0.39000  0.85342  0.80352  1.0000
  C   C989      1.0  0.04330  0.47602  0.81038  1.0000
  H   H1733     1.0  0.44084  0.88970  0.88959  1.0000
  H   H1734     1.0  0.44586  0.83661  0.86774  1.0000
  H   H1735     1.0  0.44157  0.54738  0.89928  1.0000
  C   C990      1.0  0.01671  0.61480  0.79571  1.0000
  C   C991      1.0  0.21411  0.47782  0.85728  1.0000
  H   H1736     1.0  0.43957  0.89871  0.79686  1.0000
  H   H1737     1.0  0.13987  0.47744  0.87657  1.0000
  C   C992      1.0  0.40481  0.94482  0.79482  1.0000
  C   C993      1.0  0.46271  0.85117  0.89718  1.0000
  H   H1738     1.0  0.46177  0.77776  0.87093  1.0000
  H   H1739     1.0  0.42975  0.95310  0.79455  1.0000
  C   C994      1.0  0.89435  0.16390  0.04470  1.0000
  H   H1740     1.0  0.87209  0.13400  0.00640  1.0000
  Fe  Fe122     1.0  0.62982  0.00555  0.07051  1.0000
  C   C995      1.0  0.60818  0.45574  0.03918  1.0000
  Fe  Fe123     1.0  0.69107  0.05969  0.07224  1.0000
  S   S240      1.0  0.71650  0.03000  0.07160  1.0000
  S   S241      1.0  0.71544  0.11078  0.07570  1.0000
  Fe  Fe124     1.0  0.68390  0.00391  0.05677  1.0000
  Fe  Fe125     1.0  0.68291  0.00100  0.08454  1.0000
  S   S242      1.0  0.66008  0.03578  0.05666  1.0000
  S   S243      1.0  0.65897  0.03213  0.08602  1.0000
  H   H1741     1.0  0.91552  0.15398  0.06014  1.0000
  S   S244      1.0  0.89930  0.25444  0.05710  1.0000
  C   C996      1.0  0.59518  0.43487  0.04958  1.0000
  S   S245      1.0  0.90282  0.25678  0.08630  1.0000
  Fe  Fe126     1.0  0.89089  0.22105  0.07170  1.0000
  S   S246      1.0  0.85766  0.17146  0.07029  1.0000
  Fe  Fe127     1.0  0.91577  0.29119  0.07171  1.0000
  S   S247      1.0  0.89922  0.32947  0.07467  1.0000
  S   S248      1.0  0.93772  0.22254  0.07164  1.0000
  C   C997      1.0  0.49419  0.39736  0.06955  1.0000
  C   C998      1.0  0.51193  0.42208  0.06261  1.0000
  C   C999      1.0  0.53958  0.44469  0.06704  1.0000
  C   C1000     1.0  0.54988  0.44300  0.07853  1.0000
  C   C1001     1.0  0.53240  0.41804  0.08540  1.0000
  C   C1002     1.0  0.50486  0.39530  0.08093  1.0000
  H   H1742     1.0  0.50413  0.42396  0.05377  1.0000
  H   H1743     1.0  0.60743  0.39870  0.04312  1.0000
  C   C1003     1.0  0.95765  0.34495  0.12550  1.0000
  C   C1004     1.0  0.52197  0.33066  0.06799  1.0000
  C   C1005     1.0  0.75474  0.12842  0.07342  1.0000
  C   C1006     1.0  0.77002  0.11219  0.06833  1.0000
  C   C1007     1.0  0.80150  0.12605  0.06721  1.0000
  C   C1008     1.0  0.81796  0.15650  0.07093  1.0000
  C   C1009     1.0  0.80271  0.17315  0.07573  1.0000
  C   C1010     1.0  0.77116  0.15905  0.07703  1.0000
  H   H1744     1.0  0.75764  0.08893  0.06523  1.0000
  H   H1745     1.0  0.81314  0.11305  0.06346  1.0000
  H   H1746     1.0  0.81525  0.19661  0.07867  1.0000
  H   H1747     1.0  0.75943  0.17182  0.08091  1.0000
  H   H1748     1.0  0.62711  0.41240  0.10342  1.0000
  H   H1749     1.0  0.67330  0.01118  0.11633  1.0000
  H   H1750     1.0  0.49969  0.07314  0.04027  1.0000
  C   C1011     1.0  0.91621  0.37025  0.07473  1.0000
  C   C1012     1.0  0.89905  0.38643  0.07837  1.0000
  C   C1013     1.0  0.91103  0.41865  0.07826  1.0000
  H   H1751     1.0  0.87612  0.37392  0.08116  1.0000
  H   H1752     1.0  0.89730  0.43059  0.08091  1.0000
  C   C1014     1.0  0.55149  0.00045  0.07326  1.0000
  C   C1015     1.0  0.56063  0.03154  0.07592  1.0000
  C   C1016     1.0  0.53895  0.04340  0.07840  1.0000
  C   C1017     1.0  0.50783  0.02447  0.07816  1.0000
  H   H1753     1.0  0.61040  0.05055  0.09505  1.0000
  H   H1754     1.0  0.58440  0.04650  0.07605  1.0000
  H   H1755     1.0  0.54636  0.06748  0.08050  1.0000
  H   H1756     1.0  0.93675  0.47427  0.01552  1.0000
  H   H1757     1.0  0.75023  0.05441  0.12495  1.0000
  C   C1018     1.0  0.71963  0.97668  0.00641  1.0000
  C   C1019     1.0  0.90258  0.11095  0.10479  1.0000
  H   H1758     1.0  0.72302  0.05641  0.10998  1.0000
  H   H1759     1.0  0.87122  0.18771  0.00622  1.0000
  H   H1760     1.0  0.54005  0.41638  0.09429  1.0000
  H   H1761     1.0  0.91708  0.18321  0.99079  1.0000
  H   H1762     1.0  0.49979  0.07627  0.05621  1.0000
  S   S249      1.0  0.70660  0.98921  0.04148  1.0000
  H   H1763     1.0  0.84522  0.23992  0.03698  1.0000
  H   H1764     1.0  0.63077  0.02301  0.10879  1.0000
  C   C1020     1.0  0.84528  0.15247  0.02442  1.0000
  H   H1765     1.0  0.87031  0.16508  0.10355  1.0000
  H   H1766     1.0  0.63598  0.44488  0.09412  1.0000
  C   C1021     1.0  0.88756  0.18254  0.01182  1.0000
  C   C1022     1.0  0.49865  0.99338  0.07542  1.0000
  C   C1023     1.0  0.61140  0.41318  0.05135  1.0000
  H   H1767     1.0  0.84958  0.27618  0.11413  1.0000
  H   H1768     1.0  0.88176  0.26666  0.03215  1.0000
  C   C1024     1.0  0.89872  0.16771  0.03122  1.0000
  H   H1769     1.0  0.90090  0.41917  0.05406  1.0000
  H   H1770     1.0  0.83552  0.15731  0.04340  1.0000
  H   H1771     1.0  0.56326  0.36153  0.05250  1.0000
  H   H1772     1.0  0.92533  0.37325  0.11611  1.0000
  C   C1025     1.0  0.68324  0.99863  0.12141  1.0000
  H   H1773     1.0  0.87714  0.23414  0.01430  1.0000
  H   H1774     1.0  0.84063  0.20731  0.01871  1.0000
  C   C1026     1.0  0.87900  0.20734  0.02957  1.0000
  H   H1775     1.0  0.49285  0.99733  0.02937  1.0000
  H   H1776     1.0  0.84635  0.17971  0.09576  1.0000
  H   H1777     1.0  0.55259  0.46373  0.06164  1.0000
  C   C1027     1.0  0.85163  0.17269  0.10451  1.0000
  H   H1778     1.0  0.66096  0.34703  0.05811  1.0000
  H   H1779     1.0  0.51177  0.31549  0.07548  1.0000
  C   C1028     1.0  0.47583  0.03022  0.04912  1.0000
  H   H1780     1.0  0.80853  0.12455  0.09225  1.0000
  C   C1029     1.0  0.82355  0.14732  0.10937  1.0000
  C   C1030     1.0  0.61857  0.40087  0.08463  1.0000
  Fe  Fe128     1.0  0.94672  0.25693  0.05737  1.0000
  H   H1781     1.0  0.84608  0.12960  0.02446  1.0000
  H   H1782     1.0  0.58890  0.05713  0.10688  1.0000
  H   H1783     1.0  0.92045  0.32235  0.09834  1.0000
  C   C1031     1.0  0.60962  0.05363  0.10478  1.0000
  H   H1784     1.0  0.88712  0.32897  0.11371  1.0000
  H   H1785     1.0  0.60425  0.44212  0.03077  1.0000
  C   C1032     1.0  0.94581  0.38686  0.07114  1.0000
  H   H1786     1.0  0.82963  0.14282  0.11841  1.0000
  H   H1787     1.0  0.55642  0.38916  0.06130  1.0000
  H   H1788     1.0  0.46643  0.32269  0.02756  1.0000
  H   H1789     1.0  0.91141  0.09406  0.10174  1.0000
  H   H1790     1.0  0.66639  0.36243  0.07317  1.0000
  H   H1791     1.0  0.81537  0.07817  0.11599  1.0000
  Fe  Fe129     1.0  0.95027  0.26063  0.08515  1.0000
  H   H1792     1.0  0.87692  0.16275  0.98781  1.0000
  H   H1793     1.0  0.87279  0.14439  0.04648  1.0000
  C   C1033     1.0  0.90961  0.41514  0.04547  1.0000
  H   H1794     1.0  0.60192  0.37754  0.08633  1.0000
  H   H1795     1.0  0.59705  0.42068  0.09703  1.0000
  C   C1034     1.0  0.94042  0.43523  0.07443  1.0000
  H   H1796     1.0  0.90310  0.22358  0.03083  1.0000
  H   H1797     1.0  0.76234  0.11305  0.11581  1.0000
  C   C1035     1.0  0.67380  0.98155  0.02013  1.0000
  H   H1798     1.0  0.61408  0.98797  0.12589  1.0000
  H   H1799     1.0  0.95296  0.28172  0.02563  1.0000
  H   H1800     1.0  0.91745  0.43357  0.02812  1.0000
  C   C1036     1.0  0.79362  0.08067  0.11680  1.0000
  C   C1037     1.0  0.70449  0.09003  0.10946  1.0000
  S   S250      1.0  0.48168  0.04078  0.08164  1.0000
  H   H1801     1.0  0.92233  0.18445  0.02993  1.0000
  H   H1802     1.0  0.80576  0.15623  0.11004  1.0000
  H   H1803     1.0  0.62965  0.07441  0.10765  1.0000
  H   H1804     1.0  0.50850  0.34421  0.06628  1.0000
  H   H1805     1.0  0.49641  0.02550  0.04951  1.0000
  H   H1806     1.0  0.80759  0.04530  0.10051  1.0000
  H   H1807     1.0  0.78315  0.12012  0.02611  1.0000
  H   H1808     1.0  0.89839  0.30697  0.12393  1.0000
  H   H1809     1.0  0.80551  0.01919  0.08139  1.0000
  H   H1810     1.0  0.63079  0.43567  0.07166  1.0000
  C   C1038     1.0  0.66980  0.36831  0.06369  1.0000
  H   H1811     1.0  0.50108  0.35262  0.03318  1.0000
  C   C1039     1.0  0.95871  0.26573  0.02045  1.0000
  H   H1812     1.0  0.49083  0.97780  0.04264  1.0000
  H   H1813     1.0  0.86980  0.20474  0.03860  1.0000
  H   H1814     1.0  0.46396  0.02348  0.05757  1.0000
  H   H1815     1.0  0.91991  0.13575  0.04662  1.0000
  H   H1816     1.0  0.56695  0.33660  0.07265  1.0000
  H   H1817     1.0  0.80098  0.10477  0.03687  1.0000
  H   H1818     1.0  0.86620  0.28433  0.09977  1.0000
  H   H1819     1.0  0.57075  0.42191  0.04751  1.0000
  H   H1820     1.0  0.95932  0.37488  0.06826  1.0000
  C   C1040     1.0  0.70080  0.98447  0.02577  1.0000
  H   H1821     1.0  0.73757  0.97522  0.00122  1.0000
  C   C1041     1.0  0.77014  0.05083  0.12183  1.0000
  C   C1042     1.0  0.65405  0.38898  0.06031  1.0000
  C   C1043     1.0  0.61976  0.42100  0.09545  1.0000
  H   H1822     1.0  0.49158  0.37654  0.08640  1.0000
  N   N55       1.0  0.78532  0.09112  0.10528  1.0000
  H   H1823     1.0  0.83254  0.11201  0.10054  1.0000
  N   N56       1.0  0.60279  0.39344  0.06211  1.0000
  H   H1824     1.0  0.85947  0.19293  0.11064  1.0000
  H   H1825     1.0  0.84806  0.26028  0.02350  1.0000
  H   H1826     1.0  0.90937  0.20300  0.01146  1.0000
  H   H1827     1.0  0.78216  0.03630  0.07492  1.0000
  H   H1828     1.0  0.93697  0.37503  0.10133  1.0000
  H   H1829     1.0  0.92357  0.23171  0.11257  1.0000
  H   H1830     1.0  0.94139  0.13673  0.11579  1.0000
  H   H1831     1.0  0.76778  0.00917  0.08660  1.0000
  H   H1832     1.0  0.90115  0.14261  0.98787  1.0000
  H   H1833     1.0  0.76189  0.11951  0.10038  1.0000
  C   C1044     1.0  0.72366  0.98205  0.01880  1.0000
  C   C1045     1.0  0.91109  0.43977  0.03686  1.0000
  H   H1834     1.0  0.63599  0.42823  0.05173  1.0000
  H   H1835     1.0  0.89490  0.18494  0.04910  1.0000
  C   C1046     1.0  0.56911  0.37438  0.06116  1.0000
  H   H1836     1.0  0.56189  0.99988  0.11179  1.0000
  H   H1837     1.0  0.89395  0.39237  0.04188  1.0000
  C   C1047     1.0  0.79556  0.12452  0.03477  1.0000
  C   C1048     1.0  0.81280  0.11805  0.10129  1.0000
  C   C1049     1.0  0.72716  0.07755  0.10523  1.0000
  H   H1838     1.0  0.61478  0.35821  0.06944  1.0000
  C   C1050     1.0  0.61924  0.37267  0.06157  1.0000
  H   H1839     1.0  0.61083  0.03110  0.12078  1.0000
  C   C1051     1.0  0.85936  0.24915  0.02915  1.0000
  C   C1052     1.0  0.76013  0.10176  0.10693  1.0000
  H   H1840     1.0  0.68123  0.07224  0.10816  1.0000
  H   H1841     1.0  0.95330  0.28388  0.00363  1.0000
  H   H1842     1.0  0.77077  0.07549  0.08729  1.0000
  H   H1843     1.0  0.89744  0.14537  0.02775  1.0000
  C   C1053     1.0  0.92558  0.31934  0.10774  1.0000
  H   H1844     1.0  0.52051  0.31613  0.06003  1.0000
  C   C1054     1.0  0.89206  0.15585  0.00541  1.0000
  H   H1845     1.0  0.81752  0.17296  0.03326  1.0000
  C   C1055     1.0  0.86320  0.22360  0.02205  1.0000
  C   C1056     1.0  0.77663  0.06671  0.09559  1.0000
  H   H1846     1.0  0.82090  0.07219  0.08873  1.0000
  H   H1847     1.0  0.72226  0.07126  0.09567  1.0000
  H   H1848     1.0  0.91239  0.15355  0.00910  1.0000
  C   C1057     1.0  0.55491  0.35152  0.07110  1.0000
  C   C1058     1.0  0.89555  0.31076  0.11443  1.0000
  C   C1059     1.0  0.82441  0.15381  0.03455  1.0000
  C   C1060     1.0  0.89709  0.16156  0.99218  1.0000
  C   C1061     1.0  0.80066  0.05424  0.09254  1.0000
  H   H1849     1.0  0.75579  0.04665  0.09772  1.0000
  H   H1850     1.0  0.83278  0.15237  0.01604  1.0000
  H   H1851     1.0  0.66388  0.41018  0.06590  1.0000
  N   N57       1.0  0.87703  0.17728  0.02445  1.0000
  C   C1062     1.0  0.78818  0.02814  0.08331  1.0000
  C   C1063     1.0  0.91952  0.15701  0.05050  1.0000
  H   H1852     1.0  0.94182  0.17624  0.04936  1.0000
  H   H1853     1.0  0.48046  0.26353  0.10871  1.0000
  H   H1854     1.0  0.46428  0.02508  0.03053  1.0000
  H   H1855     1.0  0.78054  0.12675  0.04172  1.0000
  C   C1064     1.0  0.87078  0.28150  0.10925  1.0000
  H   H1856     1.0  0.69447  0.38035  0.06229  1.0000
  C   C1065     1.0  0.61092  0.41383  0.07313  1.0000
  H   H1857     1.0  0.55492  0.36417  0.07944  1.0000
  H   H1858     1.0  0.65946  0.39539  0.05095  1.0000
  H   H1859     1.0  0.92233  0.08641  0.12386  1.0000
  H   H1860     1.0  0.74470  0.98441  0.02303  1.0000
  H   H1861     1.0  0.59224  0.42073  0.07510  1.0000
  H   H1862     1.0  0.47088  0.33403  0.04311  1.0000
  H   H1863     1.0  0.93143  0.29917  0.10750  1.0000
  H   H1864     1.0  0.76276  0.03167  0.11522  1.0000
  H   H1865     1.0  0.64105  0.40004  0.08400  1.0000
  H   H1866     1.0  0.90842  0.12918  0.09817  1.0000
  C   C1066     1.0  0.60997  0.02592  0.11111  1.0000
  H   H1867     1.0  0.70648  0.11017  0.10427  1.0000
  H   H1868     1.0  0.46596  0.07058  0.04778  1.0000
  H   H1869     1.0  0.61043  0.35615  0.05392  1.0000
  C   C1067     1.0  0.52034  0.98152  0.07294  1.0000
  C   C1068     1.0  0.94171  0.23465  0.11884  1.0000
  C   C1069     1.0  0.95782  0.41908  0.07104  1.0000
  C   C1070     1.0  0.91660  0.12495  0.11686  1.0000
  C   C1071     1.0  0.95894  0.26691  0.00796  1.0000
  H   H1870     1.0  0.59782  0.44942  0.05764  1.0000
  H   H1871     1.0  0.87759  0.09960  0.10525  1.0000
  C   C1072     1.0  0.47788  0.97705  0.03429  1.0000
  C   C1073     1.0  0.48585  0.06466  0.04823  1.0000
  H   H1872     1.0  0.47492  0.97841  0.07548  1.0000
  H   H1873     1.0  0.70825  0.09652  0.11903  1.0000
  H   H1874     1.0  0.94102  0.43059  0.11417  1.0000
  C   C1074     1.0  0.94474  0.37472  0.11066  1.0000
  S   S251      1.0  0.70225  0.98325  0.09991  1.0000
  H   H1875     1.0  0.90848  0.14274  0.11916  1.0000
  H   H1876     1.0  0.88786  0.43881  0.03611  1.0000
  H   H1877     1.0  0.95470  0.46935  0.04423  1.0000
  H   H1878     1.0  0.57784  0.99677  0.09803  1.0000
  C   C1075     1.0  0.90931  0.10006  0.12637  1.0000
  C   C1076     1.0  0.69880  0.98358  0.11561  1.0000
  H   H1879     1.0  0.79783  0.09830  0.12393  1.0000
  C   C1077     1.0  0.58141  0.99675  0.10781  1.0000
  S   S252      1.0  0.57785  0.98389  0.07063  1.0000
  H   H1880     1.0  0.65597  0.98330  0.02532  1.0000
  C   C1078     1.0  0.66950  0.97548  0.00777  1.0000
  C   C1079     1.0  0.96220  0.43215  0.11001  1.0000
  H   H1881     1.0  0.95916  0.43140  0.10021  1.0000
  C   C1080     1.0  0.47613  0.34232  0.03397  1.0000
  H   H1882     1.0  0.87745  0.26205  0.11009  1.0000
  H   H1883     1.0  0.47378  0.38460  0.03832  1.0000
  H   H1884     1.0  0.46962  0.42531  0.03255  1.0000
  C   C1081     1.0  0.93383  0.47194  0.04133  1.0000
  H   H1885     1.0  0.60515  0.46666  0.12597  1.0000
  H   H1886     1.0  0.47153  0.37532  0.02262  1.0000
  H   H1887     1.0  0.94124  0.29478  0.12670  1.0000
  N   N58       1.0  0.95196  0.34732  0.11246  1.0000
  H   H1888     1.0  0.93223  0.41488  0.04690  1.0000
  H   H1889     1.0  0.88513  0.08397  0.12521  1.0000
  S   S253      1.0  0.58443  0.47094  0.08477  1.0000
  H   H1890     1.0  0.66133  0.46487  0.12632  1.0000
  H   H1891     1.0  0.68423  0.47383  0.10653  1.0000
  H   H1892     1.0  0.59698  0.47175  0.03838  1.0000
  H   H1893     1.0  0.63283  0.46936  0.04055  1.0000
  H   H1894     1.0  0.47801  0.47327  0.04300  1.0000
  H   H1895     1.0  0.96170  0.34206  0.08760  1.0000
  H   H1896     1.0  0.46350  0.44257  0.05321  1.0000
  C   C1082     1.0  0.46368  0.36627  0.03146  1.0000
  H   H1897     1.0  0.89574  0.14243  0.27156  1.0000
  S   S254      1.0  0.82554  0.01876  0.16985  1.0000
  S   S255      1.0  0.75016  0.00724  0.18148  1.0000
  H   H1898     1.0  0.92676  0.42372  0.27088  1.0000
  C   C1083     1.0  0.60808  0.01768  0.25091  1.0000
  C   C1084     1.0  0.61990  0.04570  0.25926  1.0000
  H   H1899     1.0  0.74144  0.12977  0.27585  1.0000
  S   S256      1.0  0.66860  0.03462  0.28141  1.0000
  C   C1085     1.0  0.54114  0.04758  0.29405  1.0000
  H   H1900     1.0  0.86705  0.36946  0.29374  1.0000
  H   H1901     1.0  0.94549  0.14916  0.15017  1.0000
  H   H1902     1.0  0.91876  0.36773  0.27003  1.0000
  H   H1903     1.0  0.50881  0.36977  0.25691  1.0000
  H   H1904     1.0  0.83775  0.27555  0.25944  1.0000
  C   C1086     1.0  0.90716  0.03331  0.15293  1.0000
  H   H1905     1.0  0.61236  0.06316  0.25594  1.0000
  H   H1906     1.0  0.48709  0.32339  0.24749  1.0000
  H   H1907     1.0  0.57549  0.97652  0.12968  1.0000
  H   H1908     1.0  0.91618  0.31717  0.27259  1.0000
  H   H1909     1.0  0.86733  0.12704  0.12983  1.0000
  H   H1910     1.0  0.94346  0.13167  0.23277  1.0000
  H   H1911     1.0  0.94347  0.32071  0.24296  1.0000
  H   H1912     1.0  0.52640  0.41582  0.24438  1.0000
  H   H1913     1.0  0.50172  0.28734  0.25801  1.0000
  C   C1087     1.0  0.83461  0.11434  0.26404  1.0000
  H   H1914     1.0  0.60157  0.43025  0.15485  1.0000
  H   H1915     1.0  0.47649  0.98334  0.29034  1.0000
  H   H1916     1.0  0.87607  0.32833  0.26165  1.0000
  H   H1917     1.0  0.83544  0.12744  0.25593  1.0000
  S   S257      1.0  0.95493  0.23373  0.21056  1.0000
  H   H1918     1.0  0.70791  0.09697  0.27146  1.0000
  H   H1919     1.0  0.86056  0.28042  0.27265  1.0000
  C   C1088     1.0  0.59595  0.43941  0.14663  1.0000
  C   C1089     1.0  0.47033  0.30752  0.25346  1.0000
  H   H1920     1.0  0.84998  0.10265  0.26251  1.0000
  S   S258      1.0  0.70318  0.97668  0.26888  1.0000
  S   S259      1.0  0.72789  0.00375  0.21379  1.0000
  C   C1090     1.0  0.88333  0.31047  0.25838  1.0000
  H   H1921     1.0  0.84812  0.12629  0.28284  1.0000
  H   H1922     1.0  0.88142  0.30919  0.24858  1.0000
  H   H1923     1.0  0.87644  0.05419  0.15057  1.0000
  C   C1091     1.0  0.85856  0.04451  0.17729  1.0000
  C   C1092     1.0  0.87207  0.07463  0.17345  1.0000
  C   C1093     1.0  0.90113  0.09438  0.17759  1.0000
  C   C1094     1.0  0.91701  0.08399  0.18552  1.0000
  C   C1095     1.0  0.90306  0.05425  0.18971  1.0000
  C   C1096     1.0  0.87387  0.03456  0.18564  1.0000
  H   H1924     1.0  0.86014  0.08238  0.16705  1.0000
  H   H1925     1.0  0.91161  0.11734  0.17441  1.0000
  H   H1926     1.0  0.66158  0.98811  0.21668  1.0000
  H   H1927     1.0  0.86388  0.01124  0.18850  1.0000
  H   H1928     1.0  0.79095  0.05930  0.13961  1.0000
  H   H1929     1.0  0.91187  0.21139  0.13281  1.0000
  H   H1930     1.0  0.47117  0.27885  0.26807  1.0000
  C   C1097     1.0  0.56256  0.03516  0.29213  1.0000
  N   N59       1.0  0.87172  0.12242  0.20970  1.0000
  C   C1098     1.0  0.85060  0.09149  0.20474  1.0000
  C   C1099     1.0  0.88075  0.14473  0.19977  1.0000
  C   C1100     1.0  0.90008  0.11974  0.21422  1.0000
  C   C1101     1.0  0.85842  0.13386  0.21974  1.0000
  C   C1102     1.0  0.82360  0.12390  0.21935  1.0000
  C   C1103     1.0  0.84400  0.06441  0.21309  1.0000
  H   H1931     1.0  0.56248  0.39415  0.27972  1.0000
  C   C1104     1.0  0.85514  0.14989  0.19313  1.0000
  C   C1105     1.0  0.86743  0.17021  0.18252  1.0000
  C   C1106     1.0  0.81412  0.14255  0.22824  1.0000
  C   C1107     1.0  0.81635  0.03638  0.20870  1.0000
  C   C1108     1.0  0.87750  0.13632  0.13869  1.0000
  H   H1932     1.0  0.86007  0.08585  0.19660  1.0000
  H   H1933     1.0  0.82867  0.09132  0.20172  1.0000
  H   H1934     1.0  0.89657  0.16781  0.20309  1.0000
  H   H1935     1.0  0.89327  0.13735  0.19310  1.0000
  H   H1936     1.0  0.90875  0.10861  0.20735  1.0000
  H   H1937     1.0  0.89504  0.10465  0.22197  1.0000
  H   H1938     1.0  0.86369  0.12627  0.22842  1.0000
  H   H1939     1.0  0.86946  0.15927  0.22041  1.0000
  H   H1940     1.0  0.81195  0.09953  0.22162  1.0000
  H   H1941     1.0  0.81495  0.12647  0.21051  1.0000
  H   H1942     1.0  0.86358  0.05795  0.21334  1.0000
  H   H1943     1.0  0.84010  0.07046  0.22225  1.0000
  C   C1109     1.0  0.50998  0.02905  0.29340  1.0000
  C   C1110     1.0  0.56353  0.43551  0.28793  1.0000
  H   H1944     1.0  0.83722  0.12824  0.18967  1.0000
  H   H1945     1.0  0.84521  0.16182  0.19908  1.0000
  H   H1946     1.0  0.87755  0.15935  0.17615  1.0000
  H   H1947     1.0  0.84880  0.17379  0.17789  1.0000
  H   H1948     1.0  0.88490  0.19283  0.18546  1.0000
  H   H1949     1.0  0.82207  0.14064  0.23732  1.0000
  H   H1950     1.0  0.82362  0.16695  0.22584  1.0000
  H   H1951     1.0  0.78908  0.13397  0.22815  1.0000
  H   H1952     1.0  0.81306  0.01677  0.21441  1.0000
  H   H1953     1.0  0.79566  0.04095  0.20899  1.0000
  H   H1954     1.0  0.81938  0.02991  0.19947  1.0000
  H   H1955     1.0  0.92195  0.34226  0.24069  1.0000
  C   C1111     1.0  0.78338  0.04111  0.13256  1.0000
  C   C1112     1.0  0.94096  0.24632  0.24554  1.0000
  H   H1956     1.0  0.61743  0.02514  0.24205  1.0000
  C   C1113     1.0  0.86083  0.27996  0.26282  1.0000
  S   S260      1.0  0.94865  0.21063  0.15290  1.0000
  H   H1957     1.0  0.61029  0.98238  0.22993  1.0000
  C   C1114     1.0  0.94303  0.14096  0.14074  1.0000
  N   N60       1.0  0.94055  0.34641  0.25852  1.0000
  C   C1115     1.0  0.49590  0.38427  0.25677  1.0000
  H   H1958     1.0  0.88566  0.16973  0.26375  1.0000
  H   H1959     1.0  0.80200  0.02122  0.28861  1.0000
  H   H1960     1.0  0.71176  0.03522  0.23245  1.0000
  C   C1116     1.0  0.52183  0.98544  0.28891  1.0000
  H   H1961     1.0  0.92494  0.25184  0.25054  1.0000
  S   S261      1.0  0.89444  0.24430  0.28335  1.0000
  H   H1962     1.0  0.83858  0.15408  0.27526  1.0000
  H   H1963     1.0  0.93527  0.43115  0.25543  1.0000
  C   C1117     1.0  0.61678  0.99204  0.25562  1.0000
  H   H1964     1.0  0.93712  0.16362  0.21027  1.0000
  C   C1118     1.0  0.93516  0.22303  0.13034  1.0000
  C   C1119     1.0  0.95720  0.40459  0.26376  1.0000
  H   H1965     1.0  0.70142  0.02534  0.25384  1.0000
  C   C1120     1.0  0.48730  0.29694  0.26260  1.0000
  C   C1121     1.0  0.70705  0.00970  0.24841  1.0000
  C   C1122     1.0  0.68074  0.99761  0.13387  1.0000
  C   C1123     1.0  0.55298  0.00400  0.28955  1.0000
  Fe  Fe130     1.0  0.94404  0.25465  0.28282  1.0000
  C   C1124     1.0  0.71996  0.99497  0.22897  1.0000
  C   C1125     1.0  0.78011  0.02347  0.28796  1.0000
  H   H1966     1.0  0.92667  0.03119  0.14860  1.0000
  H   H1967     1.0  0.93934  0.34687  0.13083  1.0000
  H   H1968     1.0  0.78625  0.12514  0.26118  1.0000
  S   S262      1.0  0.88662  0.32045  0.29397  1.0000
  H   H1969     1.0  0.80221  0.08377  0.28476  1.0000
  C   C1126     1.0  0.95181  0.14407  0.22449  1.0000
  Fe  Fe131     1.0  0.68534  0.99788  0.28372  1.0000
  S   S263      1.0  0.57894  0.98738  0.28671  1.0000
  H   H1970     1.0  0.73295  0.11931  0.26032  1.0000
  H   H1971     1.0  0.92038  0.24732  0.22851  1.0000
  H   H1972     1.0  0.79136  0.12280  0.27671  1.0000
  N   N61       1.0  0.80271  0.09120  0.26593  1.0000
  C   C1127     1.0  0.79154  0.07269  0.25454  1.0000
  C   C1128     1.0  0.78356  0.10876  0.26839  1.0000
  C   C1129     1.0  0.80312  0.07193  0.27631  1.0000
  C   C1130     1.0  0.77797  0.03907  0.27653  1.0000
  C   C1131     1.0  0.81235  0.05802  0.24954  1.0000
  C   C1132     1.0  0.74932  0.08997  0.27005  1.0000
  C   C1133     1.0  0.73197  0.11034  0.26936  1.0000
  S   S264      1.0  0.94707  0.18322  0.18376  1.0000
  C   C1134     1.0  0.79547  0.03229  0.24055  1.0000
  H   H1973     1.0  0.78842  0.08710  0.24747  1.0000
  H   H1974     1.0  0.76878  0.05418  0.25550  1.0000
  H   H1975     1.0  0.82491  0.06930  0.27687  1.0000
  C   C1135     1.0  0.92235  0.08762  0.14618  1.0000
  H   H1976     1.0  0.86907  0.09201  0.14445  1.0000
  C   C1136     1.0  0.92679  0.15006  0.21812  1.0000
  H   H1977     1.0  0.83162  0.07548  0.24498  1.0000
  H   H1978     1.0  0.82161  0.04857  0.25671  1.0000
  H   H1979     1.0  0.73908  0.07163  0.26324  1.0000
  H   H1980     1.0  0.74561  0.07975  0.27894  1.0000
  H   H1981     1.0  0.53735  0.42479  0.25979  1.0000
  C   C1137     1.0  0.52048  0.38565  0.28843  1.0000
  H   H1982     1.0  0.91524  0.04610  0.19587  1.0000
  H   H1983     1.0  0.80272  0.03570  0.12997  1.0000
  H   H1984     1.0  0.78018  0.02474  0.26909  1.0000
  C   C1138     1.0  0.93150  0.37235  0.26162  1.0000
  H   H1985     1.0  0.64150  0.00226  0.25782  1.0000
  C   C1139     1.0  0.94271  0.34305  0.24529  1.0000
  C   C1140     1.0  0.85287  0.14015  0.14597  1.0000
  H   H1986     1.0  0.94001  0.15913  0.13570  1.0000
  H   H1987     1.0  0.81123  0.02314  0.23678  1.0000
  C   C1141     1.0  0.84957  0.13790  0.27433  1.0000
  H   H1988     1.0  0.91555  0.37399  0.25474  1.0000
  C   C1142     1.0  0.70891  0.98418  0.25350  1.0000
  H   H1989     1.0  0.89042  0.04545  0.13699  1.0000
  H   H1990     1.0  0.50207  0.31633  0.26846  1.0000
  C   C1143     1.0  0.71285  0.01519  0.23626  1.0000
  C   C1144     1.0  0.95898  0.23632  0.22633  1.0000
  H   H1991     1.0  0.89424  0.12145  0.15412  1.0000
  C   C1145     1.0  0.54996  0.40417  0.28484  1.0000
  N   N62       1.0  0.91590  0.11095  0.13917  1.0000
  H   H1992     1.0  0.77716  0.01338  0.24492  1.0000
  H   H1993     1.0  0.60532  0.98568  0.26419  1.0000
  H   H1994     1.0  0.89293  0.17395  0.27950  1.0000
  H   H1995     1.0  0.61096  0.03952  0.26829  1.0000
  Fe  Fe132     1.0  0.78287  0.98592  0.17847  1.0000
  C   C1146     1.0  0.88903  0.11417  0.14462  1.0000
  H   H1996     1.0  0.64597  0.99591  0.23737  1.0000
  C   C1147     1.0  0.50039  0.99784  0.29088  1.0000
  H   H1997     1.0  0.92054  0.29711  0.25991  1.0000
  C   C1148     1.0  0.88297  0.15706  0.27208  1.0000
  H   H1998     1.0  0.94249  0.08486  0.14273  1.0000
  H   H1999     1.0  0.47803  0.36633  0.23943  1.0000
  H   H2000     1.0  0.86672  0.26103  0.25969  1.0000
  S   S265      1.0  0.95444  0.10724  0.19016  1.0000
  C   C1149     1.0  0.51779  0.41621  0.25341  1.0000
  H   H2001     1.0  0.86215  0.15057  0.15481  1.0000
  C   C1150     1.0  0.93839  0.24363  0.23303  1.0000
  H   H2002     1.0  0.58645  0.04974  0.29252  1.0000
  H   H2003     1.0  0.59370  0.42314  0.13917  1.0000
  H   H2004     1.0  0.50650  0.43224  0.25377  1.0000
  H   H2005     1.0  0.83360  0.11778  0.14711  1.0000
  H   H2006     1.0  0.78554  0.04061  0.23320  1.0000
  C   C1151     1.0  0.89690  0.05484  0.14616  1.0000
  H   H2007     1.0  0.91929  0.16403  0.22414  1.0000
  C   C1152     1.0  0.94472  0.42914  0.26423  1.0000
  H   H2008     1.0  0.64498  0.05583  0.25974  1.0000
  C   C1153     1.0  0.62092  0.47068  0.14430  1.0000
  H   H2009     1.0  0.48908  0.38582  0.26596  1.0000
  H   H2010     1.0  0.84444  0.15551  0.14138  1.0000
  H   H2011     1.0  0.58315  0.00973  0.25030  1.0000
  C   C1154     1.0  0.46854  0.37077  0.24783  1.0000
  H   H2012     1.0  0.66856  0.00920  0.13825  1.0000
  H   H2013     1.0  0.75511  0.03883  0.27586  1.0000
  Fe  Fe133     1.0  0.73553  0.97804  0.19751  1.0000
  C   C1155     1.0  0.91610  0.31720  0.26273  1.0000
  Fe  Fe134     1.0  0.62880  0.00634  0.29228  1.0000
  H   H2014     1.0  0.57399  0.44120  0.14781  1.0000
  S   S266      1.0  0.60044  0.45808  0.28300  1.0000
  H   H2015     1.0  0.76586  0.02034  0.13631  1.0000
  H   H2016     1.0  0.91364  0.04175  0.16223  1.0000
  H   H2017     1.0  0.92824  0.09570  0.15558  1.0000
  H   H2018     1.0  0.51051  0.36155  0.28613  1.0000
  H   H2019     1.0  0.76154  0.00027  0.28799  1.0000
  H   H2020     1.0  0.95023  0.35526  0.22131  1.0000
  H   H2021     1.0  0.64238  0.46791  0.14355  1.0000
  C   C1156     1.0  0.69409  0.98192  0.14072  1.0000
  H   H2022     1.0  0.89580  0.15926  0.13783  1.0000
  S   S267      1.0  0.68895  0.97998  0.15635  1.0000
  H   H2023     1.0  0.88828  0.01034  0.15313  1.0000
  H   H2024     1.0  0.94755  0.31598  0.14733  1.0000
  S   S268      1.0  0.95817  0.29900  0.29337  1.0000
  C   C1157     1.0  0.95844  0.22661  0.13865  1.0000
  H   H2025     1.0  0.96030  0.13056  0.21862  1.0000
  C   C1158     1.0  0.96161  0.31567  0.12908  1.0000
  C   C1159     1.0  0.62459  0.97513  0.23587  1.0000
  C   C1160     1.0  0.50407  0.39850  0.29496  1.0000
  S   S269      1.0  0.65070  0.02783  0.30980  1.0000
  H   H2026     1.0  0.53827  0.46151  0.32037  1.0000
  H   H2027     1.0  0.59614  0.01433  0.33499  1.0000
  C   C1161     1.0  0.90711  0.36056  0.29535  1.0000
  C   C1162     1.0  0.89142  0.37955  0.29475  1.0000
  H   H2028     1.0  0.47431  0.31817  0.33519  1.0000
  H   H2029     1.0  0.95083  0.25222  0.34106  1.0000
  H   H2030     1.0  0.82844  0.18976  0.35548  1.0000
  H   H2031     1.0  0.95532  0.31255  0.45257  1.0000
  S   S270      1.0  0.90470  0.26188  0.31215  1.0000
  Fe  Fe135     1.0  0.66789  0.99083  0.31053  1.0000
  C   C1163     1.0  0.47695  0.99311  0.32368  1.0000
  H   H2032     1.0  0.63438  0.99097  0.36347  1.0000
  H   H2033     1.0  0.65020  0.99794  0.34246  1.0000
  H   H2034     1.0  0.84140  0.25403  0.34641  1.0000
  C   C1164     1.0  0.82623  0.25674  0.31629  1.0000
  H   H2035     1.0  0.50470  0.44013  0.30271  1.0000
  S   S271      1.0  0.46678  0.37686  0.29968  1.0000
  C   C1165     1.0  0.48746  0.42738  0.42157  1.0000
  H   H2036     1.0  0.80258  0.20400  0.34993  1.0000
  C   C1166     1.0  0.53240  0.47008  0.32873  1.0000
  C   C1167     1.0  0.81246  0.22839  0.32378  1.0000
  H   H2037     1.0  0.76083  0.16591  0.29608  1.0000
  H   H2038     1.0  0.58909  0.97983  0.31461  1.0000
  C   C1168     1.0  0.90354  0.45003  0.33075  1.0000
  H   H2039     1.0  0.85755  0.23481  0.32935  1.0000
  C   C1169     1.0  0.82549  0.20451  0.34851  1.0000
  S   S272      1.0  0.86343  0.17120  0.30395  1.0000
  H   H2040     1.0  0.77793  0.03665  0.29581  1.0000
  C   C1170     1.0  0.82361  0.15291  0.30222  1.0000
  H   H2041     1.0  0.89098  0.21651  0.33253  1.0000
  C   C1171     1.0  0.69375  0.99380  0.43950  1.0000
  H   H2042     1.0  0.84666  0.16331  0.32794  1.0000
  H   H2043     1.0  0.60158  0.07458  0.31385  1.0000
  Fe  Fe136     1.0  0.90867  0.28681  0.29517  1.0000
  S   S273      1.0  0.48413  0.04606  0.29590  1.0000
  H   H2044     1.0  0.87144  0.24234  0.34913  1.0000
  H   H2045     1.0  0.81693  0.19255  0.29687  1.0000
  H   H2046     1.0  0.86320  0.27033  0.36630  1.0000
  H   H2047     1.0  0.49726  0.40956  0.32458  1.0000
  H   H2048     1.0  0.89093  0.43708  0.32271  1.0000
  H   H2049     1.0  0.79341  0.21120  0.31847  1.0000
  H   H2050     1.0  0.64620  0.97808  0.40429  1.0000
  C   C1172     1.0  0.95876  0.36853  0.35019  1.0000
  H   H2051     1.0  0.68611  0.01501  0.41775  1.0000
  H   H2052     1.0  0.62249  0.06169  0.32407  1.0000
  C   C1173     1.0  0.54708  0.44823  0.29450  1.0000
  H   H2053     1.0  0.94835  0.46385  0.34739  1.0000
  H   H2054     1.0  0.52510  0.98339  0.31778  1.0000
  H   H2055     1.0  0.95029  0.29062  0.38089  1.0000
  H   H2056     1.0  0.82487  0.24242  0.36733  1.0000
  H   H2057     1.0  0.57803  0.01895  0.31401  1.0000
  C   C1174     1.0  0.49088  0.41835  0.33287  1.0000
  H   H2058     1.0  0.74866  0.11138  0.32764  1.0000
  N   N63       1.0  0.82712  0.19157  0.33635  1.0000
  H   H2059     1.0  0.82250  0.10952  0.30743  1.0000
  H   H2060     1.0  0.92764  0.27705  0.36739  1.0000
  H   H2061     1.0  0.89608  0.43503  0.33847  1.0000
  H   H2062     1.0  0.49854  0.37065  0.34368  1.0000
  C   C1175     1.0  0.49988  0.42738  0.44305  1.0000
  C   C1176     1.0  0.78458  0.13830  0.34032  1.0000
  H   H2063     1.0  0.51730  0.46276  0.37308  1.0000
  H   H2064     1.0  0.73686  0.13031  0.33926  1.0000
  H   H2065     1.0  0.79598  0.15980  0.32346  1.0000
  H   H2066     1.0  0.47265  0.37892  0.42526  1.0000
  N   N64       1.0  0.48791  0.44186  0.43357  1.0000
  H   H2067     1.0  0.57063  0.02895  0.34060  1.0000
  H   H2068     1.0  0.46831  0.36245  0.35401  1.0000
  H   H2069     1.0  0.80870  0.26520  0.31395  1.0000
  C   C1177     1.0  0.47640  0.40047  0.44980  1.0000
  H   H2070     1.0  0.55182  0.46948  0.43673  1.0000
  C   C1178     1.0  0.80912  0.12182  0.30477  1.0000
  C   C1179     1.0  0.55891  0.97562  0.36819  1.0000
  C   C1180     1.0  0.53433  0.45437  0.37615  1.0000
  H   H2071     1.0  0.84494  0.27525  0.32124  1.0000
  H   H2072     1.0  0.48703  0.38490  0.40422  1.0000
  H   H2073     1.0  0.69964  0.01707  0.43623  1.0000
  C   C1181     1.0  0.75386  0.02597  0.43007  1.0000
  C   C1182     1.0  0.54121  0.97532  0.34685  1.0000
  H   H2074     1.0  0.78649  0.14420  0.34993  1.0000
  C   C1183     1.0  0.50236  0.99485  0.33223  1.0000
  C   C1184     1.0  0.93745  0.46027  0.32901  1.0000
  H   H2075     1.0  0.88704  0.20575  0.34789  1.0000
  H   H2076     1.0  0.90014  0.17092  0.32715  1.0000
  C   C1185     1.0  0.79627  0.16742  0.33285  1.0000
  C   C1186     1.0  0.93002  0.34778  0.33067  1.0000
  H   H2077     1.0  0.51719  0.01920  0.33411  1.0000
  H   H2078     1.0  0.48644  0.00469  0.31537  1.0000
  H   H2079     1.0  0.93620  0.36347  0.35385  1.0000
  H   H2080     1.0  0.67625  0.01959  0.45845  1.0000
  H   H2081     1.0  0.74388  0.09708  0.34243  1.0000
  S   S274      1.0  0.95954  0.46497  0.29628  1.0000
  H   H2082     1.0  0.89789  0.47007  0.33216  1.0000
  H   H2083     1.0  0.77885  0.17696  0.33329  1.0000
  H   H2084     1.0  0.85625  0.23177  0.37003  1.0000
  H   H2085     1.0  0.92232  0.32570  0.36586  1.0000
  H   H2086     1.0  0.95356  0.41304  0.36454  1.0000
  H   H2087     1.0  0.93699  0.37979  0.37329  1.0000
  H   H2088     1.0  0.58770  0.47039  0.39078  1.0000
  C   C1187     1.0  0.95790  0.40039  0.37197  1.0000
  H   H2089     1.0  0.48284  0.44085  0.41452  1.0000
  C   C1188     1.0  0.95362  0.34606  0.33944  1.0000
  C   C1189     1.0  0.90703  0.41157  0.29532  1.0000
  H   H2090     1.0  0.49815  0.41287  0.38191  1.0000
  C   C1190     1.0  0.88290  0.19710  0.33857  1.0000
  Fe  Fe137     1.0  0.95372  0.27191  0.30988  1.0000
  H   H2091     1.0  0.79991  0.02904  0.43194  1.0000
  C   C1191     1.0  0.64520  0.97636  0.34659  1.0000
  H   H2092     1.0  0.53396  0.41016  0.38042  1.0000
  C   C1192     1.0  0.75981  0.12232  0.30097  1.0000
  H   H2093     1.0  0.92731  0.33201  0.32297  1.0000
  H   H2094     1.0  0.47944  0.45387  0.39250  1.0000
  H   H2095     1.0  0.74183  0.03601  0.42434  1.0000
  C   C1193     1.0  0.93209  0.29250  0.37529  1.0000
  H   H2096     1.0  0.67309  0.00944  0.39644  1.0000
  H   H2097     1.0  0.50650  0.41725  0.33997  1.0000
  H   H2098     1.0  0.89585  0.15956  0.34246  1.0000
  C   C1194     1.0  0.70473  0.99680  0.45264  1.0000
  H   H2099     1.0  0.80319  0.23441  0.33188  1.0000
  H   H2100     1.0  0.79765  0.12437  0.33846  1.0000
  H   H2101     1.0  0.93719  0.37120  0.32728  1.0000
  H   H2102     1.0  0.76655  0.08262  0.30612  1.0000
  C   C1195     1.0  0.94099  0.32538  0.37155  1.0000
  C   C1196     1.0  0.49884  0.45283  0.33124  1.0000
  H   H2103     1.0  0.55358  0.03471  0.32015  1.0000
  H   H2104     1.0  0.69154  0.97539  0.45723  1.0000
  C   C1197     1.0  0.47398  0.35776  0.34492  1.0000
  C   C1198     1.0  0.46521  0.39362  0.41978  1.0000
  H   H2105     1.0  0.84086  0.20576  0.31856  1.0000
  H   H2106     1.0  0.48576  0.45643  0.32372  1.0000
  C   C1199     1.0  0.90243  0.17928  0.33652  1.0000
  H   H2107     1.0  0.94545  0.32213  0.34232  1.0000
  Fe  Fe138     1.0  0.89468  0.22043  0.30024  1.0000
  H   H2108     1.0  0.50487  0.37570  0.45270  1.0000
  H   H2109     1.0  0.95100  0.35963  0.29716  1.0000
  H   H2110     1.0  0.51161  0.40963  0.36736  1.0000
  H   H2111     1.0  0.75086  0.98346  0.43677  1.0000
  H   H2112     1.0  0.54875  0.07176  0.29598  1.0000
  C   C1200     1.0  0.95422  0.40591  0.29712  1.0000
  C   C1201     1.0  0.67015  0.98901  0.40160  1.0000
  C   C1202     1.0  0.49181  0.38575  0.45795  1.0000
  C   C1203     1.0  0.75148  0.11814  0.33721  1.0000
  S   S275      1.0  0.71107  0.01752  0.30090  1.0000
  H   H2113     1.0  0.84335  0.15917  0.34349  1.0000
  H   H2114     1.0  0.47010  0.41019  0.35429  1.0000
  H   H2115     1.0  0.92657  0.19437  0.33838  1.0000
  N   N65       1.0  0.54927  0.98194  0.33402  1.0000
  H   H2116     1.0  0.91125  0.28502  0.38055  1.0000
  H   H2117     1.0  0.49162  0.98481  0.34062  1.0000
  C   C1204     1.0  0.60049  0.06315  0.32240  1.0000
  C   C1205     1.0  0.93862  0.37391  0.29665  1.0000
  H   H2118     1.0  0.71479  0.00928  0.40914  1.0000
  C   C1206     1.0  0.80608  0.16861  0.29886  1.0000
  C   C1207     1.0  0.46756  0.46735  0.39554  1.0000
  C   C1208     1.0  0.83607  0.21532  0.32693  1.0000
  H   H2119     1.0  0.51015  0.42815  0.41959  1.0000
  H   H2120     1.0  0.53422  0.99284  0.35077  1.0000
  H   H2121     1.0  0.94143  0.43922  0.32785  1.0000
  H   H2122     1.0  0.51661  0.41943  0.43927  1.0000
  C   C1209     1.0  0.57330  0.01414  0.33338  1.0000
  C   C1210     1.0  0.57466  0.03139  0.32178  1.0000
  S   S276      1.0  0.71979  0.10452  0.30077  1.0000
  H   H2123     1.0  0.83504  0.25127  0.30793  1.0000
  H   H2124     1.0  0.79706  0.06307  0.42677  1.0000
  H   H2125     1.0  0.59675  0.07735  0.32955  1.0000
  H   H2126     1.0  0.75416  0.03500  0.43922  1.0000
  H   H2127     1.0  0.94317  0.33928  0.37977  1.0000
  C   C1211     1.0  0.77741  0.10649  0.30402  1.0000
  H   H2128     1.0  0.72892  0.00087  0.45343  1.0000
  H   H2129     1.0  0.90776  0.34097  0.33490  1.0000
  H   H2130     1.0  0.51255  0.44459  0.45013  1.0000
  C   C1212     1.0  0.78661  0.03775  0.42615  1.0000
  C   C1213     1.0  0.84797  0.23794  0.35144  1.0000
  C   C1214     1.0  0.77430  0.15345  0.29841  1.0000
  S   S277      1.0  0.94379  0.22865  0.29925  1.0000
  H   H2131     1.0  0.78760  0.03053  0.41682  1.0000
  C   C1215     1.0  0.84797  0.24598  0.36459  1.0000
  C   C1216     1.0  0.84897  0.17633  0.33645  1.0000
  C   C1217     1.0  0.69150  0.99828  0.41246  1.0000
  H   H2132     1.0  0.58842  0.99400  0.35369  1.0000
  H   H2133     1.0  0.49426  0.46346  0.33935  1.0000
  C   C1218     1.0  0.51861  0.41961  0.37644  1.0000
  C   C1219     1.0  0.46775  0.32391  0.34399  1.0000
  H   H2134     1.0  0.55863  0.99806  0.37057  1.0000
  C   C1220     1.0  0.51742  0.42988  0.29786  1.0000
  H   H2135     1.0  0.94503  0.42727  0.38470  1.0000
  H   H2136     1.0  0.48116  0.31847  0.35092  1.0000
  H   H2137     1.0  0.94434  0.16142  0.44902  1.0000
  Fe  Fe139     1.0  0.69231  0.05309  0.29905  1.0000
  C   C1221     1.0  0.93857  0.42490  0.29636  1.0000
  H   H2138     1.0  0.89470  0.42592  0.29471  1.0000
  H   H2139     1.0  0.57457  0.45052  0.36945  1.0000
  C   C1222     1.0  0.73881  0.99053  0.42975  1.0000
  H   H2140     1.0  0.60450  0.46529  0.35281  1.0000
  C   C1223     1.0  0.56171  0.46478  0.36776  1.0000
  H   H2141     1.0  0.95830  0.24591  0.36260  1.0000
  H   H2142     1.0  0.66858  0.98341  0.43949  1.0000
  H   H2143     1.0  0.54648  0.46726  0.33604  1.0000
  C   C1224     1.0  0.70020  0.02263  0.45926  1.0000
  H   H2144     1.0  0.54085  0.46306  0.38536  1.0000
  N   N66       1.0  0.70506  0.97557  0.43137  1.0000
  H   H2145     1.0  0.74465  0.98227  0.42125  1.0000
  H   H2146     1.0  0.55707  0.47235  0.29680  1.0000
  H   H2147     1.0  0.71500  0.04505  0.45571  1.0000
  C   C1225     1.0  0.46437  0.38301  0.40687  1.0000
  H   H2148     1.0  0.55181  0.45790  0.35864  1.0000
  H   H2149     1.0  0.46357  0.00474  0.32772  1.0000
  C   C1226     1.0  0.52056  0.97724  0.32720  1.0000
  H   H2150     1.0  0.94321  0.47347  0.32081  1.0000
  H   H2151     1.0  0.50692  0.38197  0.52681  1.0000
  S   S278      1.0  0.90484  0.26580  0.53238  1.0000
  C   C1227     1.0  0.50221  0.32966  0.55236  1.0000
  S   S279      1.0  0.90912  0.27113  0.50310  1.0000
  Fe  Fe140     1.0  0.91541  0.30254  0.51890  1.0000
  S   S280      1.0  0.89345  0.33590  0.52078  1.0000
  Fe  Fe141     1.0  0.90216  0.23489  0.51661  1.0000
  S   S281      1.0  0.86716  0.18765  0.51008  1.0000
  C   C1228     1.0  0.94171  0.16948  0.47372  1.0000
  H   H2152     1.0  0.49083  0.34560  0.55213  1.0000
  S   S282      1.0  0.66239  0.03806  0.53188  1.0000
  H   H2153     1.0  0.50748  0.26091  0.50218  1.0000
  S   S283      1.0  0.67995  0.03861  0.50379  1.0000
  Fe  Fe142     1.0  0.70329  0.04212  0.52153  1.0000
  S   S284      1.0  0.74588  0.08230  0.52896  1.0000
  Fe  Fe143     1.0  0.63859  0.03143  0.51428  1.0000
  S   S285      1.0  0.61099  0.05875  0.51047  1.0000
  H   H2154     1.0  0.51044  0.33384  0.53377  1.0000
  H   H2155     1.0  0.75008  0.21746  0.51854  1.0000
  H   H2156     1.0  0.95086  0.33467  0.55783  1.0000
  C   C1229     1.0  0.83388  0.15834  0.51566  1.0000
  C   C1230     1.0  0.82428  0.15921  0.52723  1.0000
  C   C1231     1.0  0.79751  0.13563  0.53113  1.0000
  C   C1232     1.0  0.77989  0.11085  0.52356  1.0000
  C   C1233     1.0  0.78967  0.10980  0.51204  1.0000
  C   C1234     1.0  0.81637  0.13342  0.50812  1.0000
  H   H2157     1.0  0.83746  0.17803  0.53318  1.0000
  H   H2158     1.0  0.79040  0.13662  0.54010  1.0000
  H   H2159     1.0  0.77673  0.09066  0.50619  1.0000
  H   H2160     1.0  0.82346  0.13233  0.49916  1.0000
  C   C1235     1.0  0.51391  0.01914  0.52357  1.0000
  C   C1236     1.0  0.52457  0.04598  0.51717  1.0000
  C   C1237     1.0  0.55416  0.05761  0.51287  1.0000
  C   C1238     1.0  0.57306  0.04234  0.51488  1.0000
  C   C1239     1.0  0.56193  0.01494  0.52088  1.0000
  H   H2161     1.0  0.83579  0.45656  0.48926  1.0000
  H   H2162     1.0  0.51047  0.05837  0.51594  1.0000
  H   H2163     1.0  0.56264  0.07881  0.50821  1.0000
  H   H2164     1.0  0.95237  0.30278  0.47417  1.0000
  H   H2165     1.0  0.60514  0.43012  0.50679  1.0000
  C   C1240     1.0  0.51870  0.46839  0.51482  1.0000
  H   H2166     1.0  0.54889  0.44658  0.50144  1.0000
  H   H2167     1.0  0.90124  0.33518  0.56336  1.0000
  C   C1241     1.0  0.91545  0.37469  0.51811  1.0000
  C   C1242     1.0  0.90424  0.39663  0.52106  1.0000
  C   C1243     1.0  0.92159  0.42777  0.51920  1.0000
  C   C1244     1.0  0.57541  0.06836  0.54762  1.0000
  H   H2168     1.0  0.64549  0.06734  0.57242  1.0000
  H   H2169     1.0  0.88206  0.38951  0.52479  1.0000
  H   H2170     1.0  0.91275  0.44453  0.52146  1.0000
  C   C1245     1.0  0.53093  0.38350  0.51080  1.0000
  C   C1246     1.0  0.55876  0.39709  0.50522  1.0000
  C   C1247     1.0  0.58374  0.41981  0.51115  1.0000
  C   C1248     1.0  0.58130  0.42837  0.52285  1.0000
  C   C1249     1.0  0.55365  0.41425  0.52853  1.0000
  C   C1250     1.0  0.52832  0.39231  0.52245  1.0000
  H   H2171     1.0  0.56093  0.39021  0.49622  1.0000
  H   H2172     1.0  0.57210  0.36305  0.52856  1.0000
  H   H2173     1.0  0.55187  0.42031  0.53767  1.0000
  C   C1251     1.0  0.91429  0.20081  0.48050  1.0000
  N   N67       1.0  0.46992  0.42627  0.59827  1.0000
  C   C1252     1.0  0.88454  0.11834  0.50226  1.0000
  N   N68       1.0  0.55768  0.31458  0.53095  1.0000
  H   H2174     1.0  0.61953  0.07946  0.55499  1.0000
  H   H2175     1.0  0.69893  0.18916  0.51264  1.0000
  H   H2176     1.0  0.61045  0.05357  0.54255  1.0000
  H   H2177     1.0  0.62650  0.27913  0.54879  1.0000
  H   H2178     1.0  0.74187  0.14521  0.52528  1.0000
  H   H2179     1.0  0.93891  0.32913  0.54256  1.0000
  H   H2180     1.0  0.83167  0.23738  0.52525  1.0000
  H   H2181     1.0  0.61116  0.33172  0.51840  1.0000
  H   H2182     1.0  0.59169  0.35138  0.51093  1.0000
  S   S286      1.0  0.50027  0.35547  0.50288  1.0000
  C   C1253     1.0  0.58947  0.46719  0.48342  1.0000
  H   H2183     1.0  0.59570  0.35386  0.53828  1.0000
  N   N69       1.0  0.73307  0.17124  0.51129  1.0000
  C   C1254     1.0  0.72105  0.12101  0.49909  1.0000
  C   C1255     1.0  0.69066  0.11937  0.53763  1.0000
  C   C1256     1.0  0.73215  0.10883  0.48838  1.0000
  H   H2184     1.0  0.71848  0.10534  0.50649  1.0000
  H   H2185     1.0  0.68636  0.11379  0.51867  1.0000
  H   H2186     1.0  0.66698  0.10282  0.53881  1.0000
  H   H2187     1.0  0.70569  0.10722  0.53868  1.0000
  H   H2188     1.0  0.73368  0.12300  0.48057  1.0000
  C   C1257     1.0  0.46729  0.38046  0.56889  1.0000
  H   H2189     1.0  0.71602  0.08508  0.48613  1.0000
  C   C1258     1.0  0.70913  0.18969  0.49399  1.0000
  H   H2190     1.0  0.51201  0.25794  0.52374  1.0000
  H   H2191     1.0  0.49173  0.28153  0.52615  1.0000
  H   H2192     1.0  0.89291  0.12666  0.48375  1.0000
  H   H2193     1.0  0.62572  0.39997  0.52192  1.0000
  C   C1259     1.0  0.81040  0.23718  0.52134  1.0000
  H   H2194     1.0  0.79916  0.19380  0.51283  1.0000
  H   H2195     1.0  0.78398  0.19228  0.52739  1.0000
  H   H2196     1.0  0.89657  0.30077  0.55527  1.0000
  H   H2197     1.0  0.69860  0.12024  0.49657  1.0000
  H   H2198     1.0  0.55294  0.26894  0.53492  1.0000
  H   H2199     1.0  0.94223  0.44526  0.48359  1.0000
  H   H2200     1.0  0.61781  0.00746  0.56722  1.0000
  H   H2201     1.0  0.55060  0.30400  0.51216  1.0000
  H   H2202     1.0  0.64563  0.37943  0.52862  1.0000
  H   H2203     1.0  0.76346  0.15005  0.50695  1.0000
  H   H2204     1.0  0.80107  0.24883  0.52771  1.0000
  C   C1260     1.0  0.75811  0.20277  0.51306  1.0000
  H   H2205     1.0  0.50419  0.40362  0.61131  1.0000
  N   N70       1.0  0.59358  0.03219  0.55923  1.0000
  H   H2206     1.0  0.53174  0.32594  0.51750  1.0000
  H   H2207     1.0  0.69653  0.13757  0.54462  1.0000
  H   H2208     1.0  0.67742  0.14385  0.52487  1.0000
  H   H2209     1.0  0.76475  0.21419  0.50446  1.0000
  H   H2210     1.0  0.75340  0.16664  0.49484  1.0000
  C   C1261     1.0  0.53250  0.00343  0.52522  1.0000
  C   C1262     1.0  0.72634  0.15651  0.52328  1.0000
  C   C1263     1.0  0.58691  0.02441  0.58205  1.0000
  H   H2211     1.0  0.54057  0.35994  0.54313  1.0000
  H   H2212     1.0  0.49007  0.28759  0.50394  1.0000
  C   C1264     1.0  0.50810  0.27754  0.52033  1.0000
  C   C1265     1.0  0.55700  0.97481  0.55987  1.0000
  C   C1266     1.0  0.91075  0.45994  0.47521  1.0000
  H   H2213     1.0  0.95293  0.36741  0.51093  1.0000
  H   H2214     1.0  0.57620  0.00289  0.52238  1.0000
  H   H2215     1.0  0.57833  0.28569  0.52353  1.0000
  C   C1267     1.0  0.69359  0.13282  0.52532  1.0000
  C   C1268     1.0  0.78797  0.20423  0.51887  1.0000
  H   H2216     1.0  0.52264  0.29039  0.54327  1.0000
  H   H2217     1.0  0.73090  0.17419  0.53046  1.0000
  H   H2218     1.0  0.68585  0.15294  0.50545  1.0000
  C   C1269     1.0  0.74405  0.15338  0.50289  1.0000
  C   C1270     1.0  0.49917  0.45975  0.49436  1.0000
  H   H2219     1.0  0.51474  0.33302  0.56095  1.0000
  C   C1271     1.0  0.63186  0.38022  0.52078  1.0000
  H   H2220     1.0  0.51717  0.43829  0.59435  1.0000
  C   C1272     1.0  0.53981  0.31392  0.54185  1.0000
  C   C1273     1.0  0.53785  0.30677  0.51989  1.0000
  C   C1274     1.0  0.49330  0.26824  0.50802  1.0000
  C   C1275     1.0  0.90407  0.32583  0.55461  1.0000
  H   H2221     1.0  0.94536  0.24151  0.47134  1.0000
  C   C1276     1.0  0.67511  0.04447  0.56973  1.0000
  H   H2222     1.0  0.57822  1.00000  0.54442  1.0000
  H   H2223     1.0  0.87470  0.14825  0.49093  1.0000
  H   H2224     1.0  0.55808  0.05083  0.54188  1.0000
  H   H2225     1.0  0.57669  0.05406  0.59448  1.0000
  H   H2226     1.0  0.90398  0.44255  0.46787  1.0000
  C   C1277     1.0  0.70574  0.17510  0.50632  1.0000
  H   H2227     1.0  0.66006  0.06945  0.55777  1.0000
  C   C1278     1.0  0.65048  0.05407  0.56526  1.0000
  H   H2228     1.0  0.71578  0.17656  0.48727  1.0000
  C   C1279     1.0  0.60722  0.27270  0.54234  1.0000
  H   H2229     1.0  0.55472  0.31992  0.54991  1.0000
  C   C1280     1.0  0.59746  0.29910  0.54129  1.0000
  C   C1281     1.0  0.58216  0.34620  0.52986  1.0000
  H   H2230     1.0  0.63339  0.98398  0.47546  1.0000
  H   H2231     1.0  0.92196  0.18045  0.50202  1.0000
  H   H2232     1.0  0.94785  0.28791  0.56742  1.0000
  H   H2233     1.0  0.52263  0.45279  0.53801  1.0000
  H   H2234     1.0  0.64582  0.38372  0.51279  1.0000
  H   H2235     1.0  0.81600  0.25004  0.51301  1.0000
  C   C1282     1.0  0.62162  0.02616  0.56100  1.0000
  C   C1283     1.0  0.95022  0.43703  0.51436  1.0000
  H   H2236     1.0  0.93968  0.15658  0.49698  1.0000
  C   C1284     1.0  0.60358  0.35049  0.51933  1.0000
  C   C1285     1.0  0.58730  0.09774  0.54065  1.0000
  H   H2237     1.0  0.58836  0.25206  0.54553  1.0000
  C   C1286     1.0  0.52374  0.33598  0.54203  1.0000
  C   C1287     1.0  0.57074  0.29103  0.53221  1.0000
  H   H2238     1.0  0.67169  0.20352  0.49597  1.0000
  H   H2239     1.0  0.59117  0.30412  0.55022  1.0000
  S   S287      1.0  0.95212  0.24537  0.51803  1.0000
  H   H2240     1.0  0.75465  0.10880  0.49033  1.0000
  H   H2241     1.0  0.89222  0.18241  0.47777  1.0000
  H   H2242     1.0  0.96049  0.22834  0.49475  1.0000
  H   H2243     1.0  0.62724  0.01754  0.55257  1.0000
  C   C1288     1.0  0.94270  0.46656  0.47978  1.0000
  H   H2244     1.0  0.59356  0.06499  0.57271  1.0000
  C   C1289     1.0  0.58228  0.04000  0.57069  1.0000
  H   H2245     1.0  0.54258  0.45604  0.47993  1.0000
  S   S288      1.0  0.61335  0.45362  0.53099  1.0000
  H   H2246     1.0  0.86176  0.09981  0.50059  1.0000
  H   H2247     1.0  0.57308  0.01811  0.60034  1.0000
  H   H2248     1.0  0.88958  0.33026  0.54784  1.0000
  H   H2249     1.0  0.61112  0.03415  0.58486  1.0000
  C   C1290     1.0  0.93714  0.34009  0.55108  1.0000
  H   H2250     1.0  0.66704  0.02882  0.57725  1.0000
  H   H2251     1.0  0.72613  0.21364  0.49433  1.0000
  H   H2252     1.0  0.51411  0.44396  0.51594  1.0000
  C   C1291     1.0  0.60137  0.05864  0.55098  1.0000
  H   H2253     1.0  0.50326  0.46519  0.58974  1.0000
  Fe  Fe144     1.0  0.95884  0.28294  0.50518  1.0000
  C   C1292     1.0  0.67927  0.19017  0.48966  1.0000
  H   H2254     1.0  0.48084  0.38947  0.59154  1.0000
  H   H2255     1.0  0.46621  0.41859  0.47653  1.0000
  H   H2256     1.0  0.95480  0.21084  0.61632  1.0000
  C   C1293     1.0  0.56952  0.00473  0.55298  1.0000
  N   N71       1.0  0.93685  0.18781  0.48389  1.0000
  H   H2257     1.0  0.95627  0.30046  0.58902  1.0000
  H   H2258     1.0  0.69523  0.06491  0.57281  1.0000
  C   C1294     1.0  0.51782  0.46957  0.60825  1.0000
  H   H2259     1.0  0.58585  0.44375  0.48594  1.0000
  C   C1295     1.0  0.89288  0.13998  0.49188  1.0000
  H   H2260     1.0  0.68205  0.03301  0.56245  1.0000
  H   H2261     1.0  0.61455  0.26728  0.53364  1.0000
  H   H2262     1.0  0.56428  0.07231  0.55559  1.0000
  C   C1296     1.0  0.90027  0.23790  0.46876  1.0000
  H   H2263     1.0  0.67633  0.98086  0.56181  1.0000
  H   H2264     1.0  0.61743  0.31926  0.53851  1.0000
  H   H2265     1.0  0.46847  0.43228  0.61727  1.0000
  H   H2266     1.0  0.90112  0.25195  0.47680  1.0000
  H   H2267     1.0  0.47238  0.97490  0.48786  1.0000
  H   H2268     1.0  0.89466  0.45089  0.48251  1.0000
  H   H2269     1.0  0.52353  0.45579  0.61485  1.0000
  H   H2270     1.0  0.87689  0.22037  0.46729  1.0000
  H   H2271     1.0  0.50680  0.41789  0.49063  1.0000
  H   H2272     1.0  0.90107  0.10793  0.50339  1.0000
  H   H2273     1.0  0.47086  0.24888  0.50872  1.0000
  S   S289      1.0  0.62170  0.98049  0.51428  1.0000
  H   H2274     1.0  0.56809  0.10319  0.53775  1.0000
  C   C1297     1.0  0.92260  0.22298  0.47009  1.0000
  H   H2275     1.0  0.50718  0.40276  0.46450  1.0000
  H   H2276     1.0  0.48208  0.41462  0.50268  1.0000
  H   H2277     1.0  0.59901  0.09492  0.53262  1.0000
  H   H2278     1.0  0.60323  0.11707  0.54622  1.0000
  H   H2279     1.0  0.57991  0.99960  0.58074  1.0000
  H   H2280     1.0  0.48449  0.30600  0.55164  1.0000
  C   C1298     1.0  0.56915  0.02932  0.59236  1.0000
  S   S290      1.0  0.69085  0.99118  0.52222  1.0000
  H   H2281     1.0  0.94717  0.15060  0.47709  1.0000
  C   C1299     1.0  0.48058  0.39399  0.61436  1.0000
  H   H2282     1.0  0.48861  0.37770  0.57071  1.0000
  H   H2283     1.0  0.55777  0.03493  0.56968  1.0000
  Fe  Fe145     1.0  0.66460  0.98759  0.50493  1.0000
  S   S291      1.0  0.47954  0.00678  0.53108  1.0000
  H   H2284     1.0  0.68231  0.20095  0.48089  1.0000
  C   C1300     1.0  0.50211  0.44958  0.59707  1.0000
  H   H2285     1.0  0.66148  0.16658  0.48868  1.0000
  C   C1301     1.0  0.46432  0.39967  0.58977  1.0000
  C   C1302     1.0  0.48876  0.42451  0.49384  1.0000
  H   H2286     1.0  0.90975  0.21265  0.48837  1.0000
  C   C1303     1.0  0.94853  0.37500  0.54958  1.0000
  C   C1304     1.0  0.94418  0.38409  0.51334  1.0000
  H   H2287     1.0  0.54455  0.01925  0.59017  1.0000
  Fe  Fe146     1.0  0.64847  0.98734  0.53150  1.0000
  H   H2288     1.0  0.48685  0.42762  0.57455  1.0000
  H   H2289     1.0  0.54930  0.00910  0.55070  1.0000
  Fe  Fe147     1.0  0.95536  0.27923  0.53284  1.0000
  H   H2290     1.0  0.95886  0.36911  0.57338  1.0000
  C   C1305     1.0  0.92404  0.16704  0.49416  1.0000
  H   H2291     1.0  0.48295  0.99226  0.56345  1.0000
  H   H2292     1.0  0.93861  0.37836  0.54105  1.0000
  H   H2293     1.0  0.70592  0.02242  0.46882  1.0000
  H   H2294     1.0  0.48062  0.98437  0.58522  1.0000
  H   H2295     1.0  0.47439  0.36719  0.46286  1.0000
  H   H2296     1.0  0.88390  0.13077  0.51059  1.0000
  H   H2297     1.0  0.92029  0.15798  0.46842  1.0000
  H   H2298     1.0  0.93797  0.38392  0.55646  1.0000
  H   H2299     1.0  0.52429  0.98255  0.53007  1.0000
  H   H2300     1.0  0.47947  0.46396  0.49742  1.0000
  H   H2301     1.0  0.95226  0.43213  0.55410  1.0000
  H   H2302     1.0  0.54318  0.97696  0.56728  1.0000
  H   H2303     1.0  0.46892  0.37059  0.61041  1.0000
  H   H2304     1.0  0.48979  0.98331  0.60568  1.0000
  C   C1306     1.0  0.96152  0.41515  0.51151  1.0000
  H   H2305     1.0  0.46601  0.38502  0.55934  1.0000
  C   C1307     1.0  0.46635  0.40690  0.57639  1.0000
  H   H2306     1.0  0.95807  0.46058  0.46226  1.0000
  H   H2307     1.0  0.92157  0.21030  0.46166  1.0000
  H   H2308     1.0  0.59510  0.46992  0.47390  1.0000
  H   H2309     1.0  0.95801  0.24753  0.60013  1.0000
  H   H2310     1.0  0.49730  0.47031  0.51717  1.0000
  C   C1308     1.0  0.46349  0.41373  0.61055  1.0000
  H   H2311     1.0  0.50288  0.46813  0.48515  1.0000
  H   H2312     1.0  0.90642  0.25311  0.46106  1.0000
  C   C1309     1.0  0.55294  0.46997  0.49883  1.0000
  H   H2313     1.0  0.46374  0.09140  0.56127  1.0000
  H   H2314     1.0  0.46380  0.00498  0.61994  1.0000
  C   C1310     1.0  0.56108  0.47285  0.48552  1.0000
  H   H2315     1.0  0.48746  0.45344  0.66312  1.0000
  H   H2316     1.0  0.84488  0.00559  0.70255  1.0000
  S   S292      1.0  0.80359  0.04709  0.74639  1.0000
  H   H2317     1.0  0.77409  0.01453  0.70904  1.0000
  C   C1311     1.0  0.86318  0.12840  0.70532  1.0000
  H   H2318     1.0  0.85947  0.14456  0.69926  1.0000
  H   H2319     1.0  0.82816  0.00563  0.71667  1.0000
  H   H2320     1.0  0.87655  0.18569  0.74936  1.0000
  S   S293      1.0  0.93884  0.13457  0.73241  1.0000
  C   C1312     1.0  0.75860  0.04901  0.69663  1.0000
  H   H2321     1.0  0.72161  0.04359  0.71540  1.0000
  C   C1313     1.0  0.84063  0.07076  0.74163  1.0000
  C   C1314     1.0  0.86054  0.05893  0.73715  1.0000
  C   C1315     1.0  0.89028  0.07876  0.73423  1.0000
  C   C1316     1.0  0.90060  0.11064  0.73573  1.0000
  C   C1317     1.0  0.88036  0.12245  0.73983  1.0000
  C   C1318     1.0  0.85069  0.10268  0.74282  1.0000
  H   H2322     1.0  0.85331  0.03450  0.73620  1.0000
  H   H2323     1.0  0.90560  0.06926  0.73098  1.0000
  H   H2324     1.0  0.88774  0.14685  0.74074  1.0000
  H   H2325     1.0  0.83546  0.11218  0.74616  1.0000
  H   H2326     1.0  0.84641  0.10082  0.77095  1.0000
  C   C1319     1.0  0.94701  0.22893  0.63831  1.0000
  C   C1320     1.0  0.90397  0.20355  0.65239  1.0000
  H   H2327     1.0  0.93039  0.25163  0.65186  1.0000
  H   H2328     1.0  0.87985  0.14171  0.71237  1.0000
  C   C1321     1.0  0.73333  0.06006  0.73322  1.0000
  C   C1322     1.0  0.88774  0.11885  0.78217  1.0000
  H   H2329     1.0  0.92157  0.14103  0.75932  1.0000
  H   H2330     1.0  0.71132  0.04325  0.73632  1.0000
  H   H2331     1.0  0.89539  0.22495  0.75422  1.0000
  C   C1323     1.0  0.94194  0.11988  0.77108  1.0000
  H   H2332     1.0  0.77157  0.01663  0.68677  1.0000
  H   H2333     1.0  0.94766  0.11901  0.78053  1.0000
  H   H2334     1.0  0.87285  0.11443  0.70033  1.0000
  H   H2335     1.0  0.81831  0.03479  0.69389  1.0000
  H   H2336     1.0  0.71987  0.00761  0.67987  1.0000
  H   H2337     1.0  0.84081  0.06226  0.78632  1.0000
  H   H2338     1.0  0.91062  0.21059  0.77299  1.0000
  H   H2339     1.0  0.90080  0.10806  0.78694  1.0000
  H   H2340     1.0  0.84201  0.05459  0.70627  1.0000
  H   H2341     1.0  0.73903  0.02913  0.69995  1.0000
  C   C1324     1.0  0.74108  0.04831  0.72161  1.0000
  C   C1325     1.0  0.93083  0.14546  0.76857  1.0000
  H   H2342     1.0  0.90678  0.18171  0.65193  1.0000
  H   H2343     1.0  0.74331  0.02661  0.72327  1.0000
  H   H2344     1.0  0.87717  0.09438  0.76472  1.0000
  C   C1326     1.0  0.88331  0.20126  0.75727  1.0000
  H   H2345     1.0  0.86976  0.16090  0.77612  1.0000
  C   C1327     1.0  0.88829  0.16091  0.77039  1.0000
  H   H2346     1.0  0.87141  0.05517  0.77976  1.0000
  H   H2347     1.0  0.73138  0.08206  0.73194  1.0000
  H   H2348     1.0  0.73392  0.04532  0.67373  1.0000
  C   C1328     1.0  0.82473  0.00610  0.70694  1.0000
  H   H2349     1.0  0.87700  0.14579  0.76262  1.0000
  H   H2350     1.0  0.94682  0.28641  0.63710  1.0000
  H   H2351     1.0  0.74985  0.06650  0.69438  1.0000
  C   C1329     1.0  0.93426  0.23049  0.65075  1.0000
  H   H2352     1.0  0.48455  0.41748  0.78547  1.0000
  C   C1330     1.0  0.90420  0.19348  0.76557  1.0000
  H   H2353     1.0  0.74594  0.01691  0.66792  1.0000
  N   N72       1.0  0.78336  0.06162  0.70606  1.0000
  C   C1331     1.0  0.80894  0.08933  0.70150  1.0000
  H   H2354     1.0  0.86275  0.19973  0.76193  1.0000
  C   C1332     1.0  0.77057  0.07218  0.71652  1.0000
  C   C1333     1.0  0.79339  0.03719  0.71001  1.0000
  S   S294      1.0  0.72159  0.98877  0.74517  1.0000
  C   C1334     1.0  0.83360  0.10792  0.71095  1.0000
  S   S295      1.0  0.95325  0.22333  0.73700  1.0000
  C   C1335     1.0  0.76663  0.03681  0.68499  1.0000
  N   N73       1.0  0.90826  0.14874  0.77700  1.0000
  C   C1336     1.0  0.82072  0.03496  0.70364  1.0000
  H   H2355     1.0  0.96094  0.31214  0.65693  1.0000
  H   H2356     1.0  0.80000  0.10532  0.69766  1.0000
  H   H2357     1.0  0.82008  0.08316  0.69401  1.0000
  C   C1337     1.0  0.73993  0.02611  0.67612  1.0000
  H   H2358     1.0  0.90754  0.17543  0.79256  1.0000
  H   H2359     1.0  0.76596  0.09236  0.71417  1.0000
  H   H2360     1.0  0.78737  0.07984  0.72405  1.0000
  H   H2361     1.0  0.79964  0.03997  0.71963  1.0000
  Fe  Fe148     1.0  0.77077  0.99646  0.74368  1.0000
  H   H2362     1.0  0.92472  0.19595  0.76069  1.0000
  H   H2363     1.0  0.75089  0.06317  0.74017  1.0000
  H   H2364     1.0  0.82565  0.12276  0.71631  1.0000
  H   H2365     1.0  0.83849  0.09279  0.71715  1.0000
  H   H2366     1.0  0.49381  0.41391  0.63218  1.0000
  H   H2367     1.0  0.94969  0.23052  0.65806  1.0000
  H   H2368     1.0  0.78620  0.05450  0.68072  1.0000
  H   H2369     1.0  0.89506  0.20567  0.66121  1.0000
  C   C1338     1.0  0.86584  0.09495  0.77312  1.0000
  H   H2370     1.0  0.93118  0.23248  0.63185  1.0000
  H   H2371     1.0  0.80464  0.98543  0.70399  1.0000
  C   C1339     1.0  0.92434  0.17139  0.78693  1.0000
  H   H2372     1.0  0.92413  0.09726  0.76844  1.0000
  H   H2373     1.0  0.95098  0.16748  0.76821  1.0000
  H   H2374     1.0  0.51660  0.45415  0.67339  1.0000
  H   H2375     1.0  0.83686  0.04677  0.77140  1.0000
  C   C1340     1.0  0.85303  0.06287  0.77802  1.0000
  H   H2376     1.0  0.87348  0.12287  0.78908  1.0000
  H   H2377     1.0  0.95946  0.27425  0.79399  1.0000
  H   H2378     1.0  0.49275  0.37613  0.63018  1.0000
  H   H2379     1.0  0.93893  0.19391  0.78333  1.0000
  H   H2380     1.0  0.94438  0.20506  0.63655  1.0000
  H   H2381     1.0  0.88725  0.20316  0.64547  1.0000
  C   C1341     1.0  0.50271  0.46655  0.67060  1.0000
  H   H2382     1.0  0.48850  0.46775  0.67805  1.0000
  H   H2383     1.0  0.96245  0.33907  0.64577  1.0000
  C   C1342     1.0  0.48129  0.39118  0.62780  1.0000
  H   H2384     1.0  0.49997  0.45288  0.79396  1.0000
  H   H2385     1.0  0.47046  0.38475  0.82383  1.0000
  N   N74       1.0  0.78588  0.04614  0.92244  1.0000
  H   H2386     1.0  0.88023  0.09084  0.92752  1.0000
  H   H2387     1.0  0.77921  0.03677  0.94101  1.0000
  C   C1343     1.0  0.74248  0.06306  0.94869  1.0000
  H   H2388     1.0  0.95463  0.31261  0.81267  1.0000
  H   H2389     1.0  0.70251  0.03377  0.89699  1.0000
  H   H2390     1.0  0.93412  0.14100  0.79920  1.0000
  C   C1344     1.0  0.67787  0.99253  0.85776  1.0000
  H   H2391     1.0  0.81660  0.09296  0.92649  1.0000
  H   H2392     1.0  0.67177  0.00249  0.86574  1.0000
  C   C1345     1.0  0.73828  0.03596  0.90923  1.0000
  C   C1346     1.0  0.72660  0.04881  0.89898  1.0000
  H   H2393     1.0  0.81986  0.97998  0.91511  1.0000
  H   H2394     1.0  0.93356  0.32924  0.82106  1.0000
  H   H2395     1.0  0.50528  0.42023  0.79926  1.0000
  C   C1347     1.0  0.95900  0.18734  0.80515  1.0000
  H   H2396     1.0  0.88851  0.10162  0.91237  1.0000
  H   H2397     1.0  0.82886  0.09767  0.95718  1.0000
  C   C1348     1.0  0.84096  0.07441  0.91543  1.0000
  H   H2398     1.0  0.77450  0.08012  0.91380  1.0000
  H   H2399     1.0  0.74872  0.00574  0.85388  1.0000
  C   C1349     1.0  0.48917  0.42765  0.79459  1.0000
  H   H2400     1.0  0.78265  0.09003  0.93967  1.0000
  C   C1350     1.0  0.76058  0.99235  0.85002  1.0000
  C   C1351     1.0  0.77206  0.05625  0.91224  1.0000
  H   H2401     1.0  0.75495  0.05812  0.95613  1.0000
  H   H2402     1.0  0.69505  0.01124  0.85285  1.0000
  C   C1352     1.0  0.80322  0.00350  0.92799  1.0000
  H   H2403     1.0  0.72054  0.04320  0.94707  1.0000
  H   H2404     1.0  0.82653  0.02023  0.93017  1.0000
  H   H2405     1.0  0.91149  0.08683  0.95181  1.0000
  H   H2406     1.0  0.65731  0.98137  0.85200  1.0000
  H   H2407     1.0  0.80005  0.01429  0.86180  1.0000
  C   C1353     1.0  0.88764  0.07720  0.95368  1.0000
  H   H2408     1.0  0.96205  0.33289  0.87874  1.0000
  Fe  Fe149     1.0  0.93947  0.16736  0.95367  1.0000
  S   S296      1.0  0.82175  0.99212  0.95804  1.0000
  H   H2409     1.0  0.82643  0.06580  0.93354  1.0000
  H   H2410     1.0  0.46914  0.42123  0.83916  1.0000
  H   H2411     1.0  0.79655  0.01680  0.91019  1.0000
  H   H2412     1.0  0.95103  0.25402  0.89533  1.0000
  H   H2413     1.0  0.72819  0.07199  0.90136  1.0000
  C   C1354     1.0  0.76126  0.07001  0.93753  1.0000
  H   H2414     1.0  0.80123  0.03365  0.84818  1.0000
  C   C1355     1.0  0.87196  0.09834  0.91947  1.0000
  H   H2415     1.0  0.84366  0.05293  0.91353  1.0000
  C   C1356     1.0  0.76755  0.04214  0.93343  1.0000
  H   H2416     1.0  0.72375  0.03446  0.91690  1.0000
  H   H2417     1.0  0.76323  0.99788  0.91813  1.0000
  H   H2418     1.0  0.74556  0.02199  0.93241  1.0000
  H   H2419     1.0  0.74852  0.07635  0.93062  1.0000
  H   H2420     1.0  0.73972  0.04988  0.89089  1.0000
  H   H2421     1.0  0.78460  0.05689  0.90402  1.0000
  C   C1357     1.0  0.78662  0.01590  0.91906  1.0000
  H   H2422     1.0  0.83438  0.08218  0.90709  1.0000
  C   C1358     1.0  0.94586  0.16345  0.79511  1.0000
  H   H2423     1.0  0.73515  0.01251  0.90653  1.0000
  C   C1359     1.0  0.81725  0.07024  0.92506  1.0000
  C   C1360     1.0  0.87202  0.04547  0.95504  1.0000
  H   H2424     1.0  0.75605  0.99050  0.84035  1.0000
  H   H2425     1.0  0.96118  0.24116  0.91573  1.0000
  H   H2426     1.0  0.87086  0.12060  0.92151  1.0000
  S   S297      1.0  0.88960  0.13542  0.95087  1.0000
  H   H2427     1.0  0.79055  0.99751  0.93631  1.0000
  H   H2428     1.0  0.95511  0.34184  0.90001  1.0000
  S   S298      1.0  0.94933  0.21761  0.95340  1.0000
  H   H2429     1.0  0.71102  0.98142  0.86708  1.0000
  H   H2430     1.0  0.94075  0.18852  0.81070  1.0000
  C   C1361     1.0  0.79445  0.01091  0.85215  1.0000
  H   H2431     1.0  0.46596  0.42973  0.81027  1.0000
  H   H2432     1.0  0.88412  0.03092  0.95431  1.0000
  H   H2433     1.0  0.80758  0.99920  0.84796  1.0000
  S   S299      1.0  0.73704  0.98766  0.95663  1.0000
  H   H2434     1.0  0.73783  0.08310  0.95134  1.0000
  C   C1362     1.0  0.87211  0.09617  0.95427  1.0000
  H   H2435     1.0  0.47587  0.39065  0.84575  1.0000
  C   C1363     1.0  0.84083  0.03240  0.95713  1.0000
  C   C1364     1.0  0.82557  0.05154  0.95818  1.0000
  C   C1365     1.0  0.84106  0.08319  0.95664  1.0000
  H   H2436     1.0  0.67089  0.97460  0.90348  1.0000
  C   C1366     1.0  0.95643  0.32980  0.81971  1.0000
  H   H2437     1.0  0.94385  0.35864  0.88083  1.0000
  H   H2438     1.0  0.95667  0.31260  0.93708  1.0000
  H   H2439     1.0  0.49101  0.47093  0.86875  1.0000
  H   H2440     1.0  0.80182  0.04194  0.96016  1.0000
  C   C1367     1.0  0.80548  0.97469  0.92303  1.0000
  H   H2441     1.0  0.84760  0.73019  0.99202  1.0000
  S   S300      1.0  0.74612  0.93411  0.97234  1.0000
  H   H2442     1.0  0.91805  0.65132  0.02277  1.0000
  Fe  Fe150     1.0  0.70403  0.64378  0.98094  1.0000
  S   S301      1.0  0.68427  0.60605  0.99455  1.0000
  S   S302      1.0  0.75255  0.67784  0.98124  1.0000
  C   C1368     1.0  0.64328  0.89917  0.03069  1.0000
  S   S303      1.0  0.90127  0.51697  0.06490  1.0000
  H   H2443     1.0  0.81168  0.70867  0.99846  1.0000
  S   S304      1.0  0.92263  0.52711  0.09320  1.0000
  H   H2444     1.0  0.90234  0.50569  0.03748  1.0000
  H   H2445     1.0  0.50493  0.92710  0.02074  1.0000
  Fe  Fe151     1.0  0.88833  0.53484  0.08152  1.0000
  S   S305      1.0  0.84335  0.52718  0.08959  1.0000
  S   S306      1.0  0.91807  0.58349  0.07805  1.0000
  H   H2446     1.0  0.74292  0.61988  0.02741  1.0000
  H   H2447     1.0  0.95049  0.53245  0.04615  1.0000
  Fe  Fe152     1.0  0.93819  0.51299  0.07623  1.0000
  Fe  Fe153     1.0  0.66335  0.56788  0.06413  1.0000
  S   S307      1.0  0.64761  0.51761  0.06003  1.0000
  S   S308      1.0  0.66700  0.60464  0.05082  1.0000
  Fe  Fe154     1.0  0.68254  0.56258  0.09006  1.0000
  S   S309      1.0  0.66883  0.51204  0.08731  1.0000
  S   S310      1.0  0.70921  0.58370  0.10741  1.0000
  Fe  Fe155     1.0  0.69047  0.52281  0.06969  1.0000
  S   S311      1.0  0.72070  0.50247  0.06154  1.0000
  Fe  Fe156     1.0  0.62661  0.51054  0.07804  1.0000
  H   H2448     1.0  0.64144  0.55396  0.11967  1.0000
  S   S312      1.0  0.70728  0.57311  0.07286  1.0000
  S   S313      1.0  0.63927  0.56096  0.08171  1.0000
  H   H2449     1.0  0.82292  0.70219  0.96894  1.0000
  C   C1369     1.0  0.89336  0.64339  0.02372  1.0000
  C   C1370     1.0  0.69802  0.70958  0.12106  1.0000
  C   C1371     1.0  0.73566  0.56768  0.03828  1.0000
  C   C1372     1.0  0.76086  0.64788  0.06228  1.0000
  H   H2450     1.0  0.85875  0.53826  0.11364  1.0000
  H   H2451     1.0  0.62240  0.88638  0.03560  1.0000
  H   H2452     1.0  0.88244  0.50195  0.11556  1.0000
  H   H2453     1.0  0.93655  0.67686  0.00706  1.0000
  C   C1373     1.0  0.81026  0.52165  0.08130  1.0000
  C   C1374     1.0  0.80573  0.51049  0.06957  1.0000
  C   C1375     1.0  0.77811  0.50451  0.06358  1.0000
  C   C1376     1.0  0.75527  0.51046  0.06916  1.0000
  C   C1377     1.0  0.76010  0.52223  0.08078  1.0000
  C   C1378     1.0  0.78731  0.52733  0.08687  1.0000
  H   H2454     1.0  0.53490  0.94718  0.11620  1.0000
  H   H2455     1.0  0.69345  0.49325  0.02732  1.0000
  H   H2456     1.0  0.74264  0.52682  0.08518  1.0000
  H   H2457     1.0  0.79053  0.53558  0.09597  1.0000
  H   H2458     1.0  0.74650  0.63453  0.00585  1.0000
  H   H2459     1.0  0.75037  0.85992  0.97402  1.0000
  H   H2460     1.0  0.86010  0.59179  0.98981  1.0000
  C   C1379     1.0  0.68053  0.60656  0.01026  1.0000
  C   C1380     1.0  0.68882  0.63362  0.01702  1.0000
  C   C1381     1.0  0.68478  0.63263  0.02941  1.0000
  C   C1382     1.0  0.67274  0.60468  0.03523  1.0000
  C   C1383     1.0  0.66482  0.57766  0.02849  1.0000
  C   C1384     1.0  0.66873  0.57863  0.01611  1.0000
  H   H2461     1.0  0.69781  0.65529  0.01269  1.0000
  H   H2462     1.0  0.69072  0.65369  0.03449  1.0000
  H   H2463     1.0  0.65504  0.55600  0.03280  1.0000
  H   H2464     1.0  0.66211  0.55754  0.01099  1.0000
  C   C1385     1.0  0.75554  0.59751  0.01353  1.0000
  H   H2465     1.0  0.74017  0.92670  0.01497  1.0000
  H   H2466     1.0  0.73167  0.58058  0.01286  1.0000
  H   H2467     1.0  0.64830  0.85823  0.02585  1.0000
  H   H2468     1.0  0.71311  0.92041  0.99589  1.0000
  H   H2469     1.0  0.64395  0.92977  0.10602  1.0000
  H   H2470     1.0  0.89437  0.64437  0.11665  1.0000
  H   H2471     1.0  0.71641  0.57412  0.03652  1.0000
  C   C1386     1.0  0.72969  0.53761  0.03121  1.0000
  H   H2472     1.0  0.85756  0.80059  0.96892  1.0000
  H   H2473     1.0  0.75183  0.60890  0.99521  1.0000
  C   C1387     1.0  0.69645  0.51551  0.03145  1.0000
  H   H2474     1.0  0.75233  0.64728  0.04369  1.0000
  C   C1388     1.0  0.68499  0.84892  0.00750  1.0000
  H   H2475     1.0  0.70102  0.74916  0.96353  1.0000
  Fe  Fe157     1.0  0.71130  0.95371  0.97031  1.0000
  H   H2476     1.0  0.94566  0.65520  0.10923  1.0000
  C   C1389     1.0  0.58626  0.53449  0.10686  1.0000
  H   H2477     1.0  0.73582  0.54142  0.02182  1.0000
  H   H2478     1.0  0.68394  0.88352  0.97789  1.0000
  H   H2479     1.0  0.61946  0.51680  0.10363  1.0000
  C   C1390     1.0  0.88046  0.70255  0.00399  1.0000
  H   H2480     1.0  0.67210  0.52632  0.11523  1.0000
  H   H2481     1.0  0.77477  0.60225  0.05511  1.0000
  H   H2482     1.0  0.73364  0.56148  0.04779  1.0000
  H   H2483     1.0  0.79545  0.80201  0.96324  1.0000
  H   H2484     1.0  0.81443  0.58974  0.05112  1.0000
  H   H2485     1.0  0.78131  0.55477  0.04914  1.0000
  H   H2486     1.0  0.72852  0.61304  0.05095  1.0000
  H   H2487     1.0  0.55147  0.94142  0.09022  1.0000
  S   S314      1.0  0.92665  0.71057  0.97285  1.0000
  C   C1391     1.0  0.75010  0.81530  0.97685  1.0000
  Fe  Fe158     1.0  0.73448  0.70973  0.97286  1.0000
  H   H2488     1.0  0.78360  0.66686  0.06187  1.0000
  H   H2489     1.0  0.66269  0.90795  0.03714  1.0000
  H   H2490     1.0  0.91934  0.64957  0.98959  1.0000
  Fe  Fe159     1.0  0.93398  0.56578  0.06210  1.0000
  H   H2491     1.0  0.52917  0.96030  0.09609  1.0000
  H   H2492     1.0  0.74322  0.52610  0.03520  1.0000
  H   H2493     1.0  0.57379  0.52397  0.09846  1.0000
  C   C1392     1.0  0.84565  0.69107  0.00209  1.0000
  S   S315      1.0  0.70668  0.62593  0.96252  1.0000
  H   H2494     1.0  0.79040  0.93195  0.00880  1.0000
  H   H2495     1.0  0.89459  0.62106  0.04012  1.0000
  H   H2496     1.0  0.87718  0.72752  0.97504  1.0000
  C   C1393     1.0  0.88725  0.63879  0.03694  1.0000
  H   H2497     1.0  0.92611  0.67189  0.10001  1.0000
  C   C1394     1.0  0.78630  0.57003  0.12084  1.0000
  H   H2498     1.0  0.87440  0.61617  0.97730  1.0000
  S   S316      1.0  0.68577  0.67680  0.97382  1.0000
  H   H2499     1.0  0.61967  0.83288  0.97811  1.0000
  H   H2500     1.0  0.85630  0.63734  0.99923  1.0000
  H   H2501     1.0  0.60561  0.96974  0.09492  1.0000
  H   H2502     1.0  0.58168  0.91606  0.09449  1.0000
  H   H2503     1.0  0.82316  0.50567  0.06527  1.0000
  H   H2504     1.0  0.84284  0.73358  0.00776  1.0000
  C   C1395     1.0  0.94524  0.60900  0.02137  1.0000
  H   H2505     1.0  0.67687  0.71322  0.12019  1.0000
  H   H2506     1.0  0.64315  0.84653  0.96547  1.0000
  H   H2507     1.0  0.77243  0.94580  0.99771  1.0000
  H   H2508     1.0  0.58848  0.49289  0.11244  1.0000
  C   C1396     1.0  0.88082  0.60802  0.98561  1.0000
  H   H2509     1.0  0.51414  0.94391  0.03547  1.0000
  H   H2510     1.0  0.93336  0.70397  0.99753  1.0000
  C   C1397     1.0  0.70483  0.60369  0.12026  1.0000
  H   H2511     1.0  0.63774  0.93640  0.09071  1.0000
  H   H2512     1.0  0.66544  0.60955  0.11398  1.0000
  H   H2513     1.0  0.93469  0.73739  0.01565  1.0000
  C   C1398     1.0  0.71528  0.82507  0.96356  1.0000
  H   H2514     1.0  0.79667  0.63379  0.04636  1.0000
  C   C1399     1.0  0.87960  0.65358  0.99709  1.0000
  C   C1400     1.0  0.88127  0.66616  0.01870  1.0000
  S   S317      1.0  0.75286  0.75948  0.97911  1.0000
  H   H2515     1.0  0.86470  0.50486  0.01664  1.0000
  H   H2516     1.0  0.68229  0.52465  0.02639  1.0000
  H   H2517     1.0  0.77438  0.90914  0.99555  1.0000
  C   C1401     1.0  0.73941  0.83580  0.97181  1.0000
  H   H2518     1.0  0.84240  0.60591  0.11683  1.0000
  C   C1402     1.0  0.75192  0.63049  0.05037  1.0000
  C   C1403     1.0  0.66620  0.86427  0.98234  1.0000
  C   C1404     1.0  0.66030  0.87519  0.99470  1.0000
  H   H2519     1.0  0.76932  0.82380  0.98296  1.0000
  N   N75       1.0  0.87160  0.58330  0.12145  1.0000
  H   H2520     1.0  0.85626  0.65398  0.01858  1.0000
  H   H2521     1.0  0.92948  0.63752  0.09505  1.0000
  N   N76       1.0  0.89214  0.67843  0.00665  1.0000
  C   C1405     1.0  0.55003  0.94276  0.10979  1.0000
  C   C1406     1.0  0.67801  0.89491  0.01490  1.0000
  H   H2522     1.0  0.93777  0.70868  0.02499  1.0000
  H   H2523     1.0  0.67416  0.84570  0.98300  1.0000
  C   C1407     1.0  0.64787  0.87826  0.02125  1.0000
  H   H2524     1.0  0.62205  0.89827  0.09617  1.0000
  C   C1408     1.0  0.92624  0.69359  0.00631  1.0000
  C   C1409     1.0  0.68127  0.61329  0.12132  1.0000
  H   H2525     1.0  0.88687  0.72015  0.01125  1.0000
  C   C1410     1.0  0.62737  0.92253  0.09846  1.0000
  C   C1411     1.0  0.76204  0.61307  0.02602  1.0000
  C   C1412     1.0  0.83654  0.71758  0.99996  1.0000
  H   H2526     1.0  0.56959  0.53391  0.11359  1.0000
  H   H2527     1.0  0.64716  0.81385  0.99735  1.0000
  H   H2528     1.0  0.66515  0.79689  0.02150  1.0000
  H   H2529     1.0  0.63697  0.77209  0.01105  1.0000
  H   H2530     1.0  0.88647  0.68531  0.02528  1.0000
  H   H2531     1.0  0.90465  0.62575  0.00207  1.0000
  H   H2532     1.0  0.80710  0.53835  0.12210  1.0000
  H   H2533     1.0  0.77064  0.58605  0.01141  1.0000
  H   H2534     1.0  0.91786  0.60229  0.11539  1.0000
  C   C1413     1.0  0.60449  0.51675  0.11097  1.0000
  H   H2535     1.0  0.49675  0.91144  0.08654  1.0000
  C   C1414     1.0  0.89495  0.59942  0.11239  1.0000
  C   C1415     1.0  0.79093  0.58524  0.03393  1.0000
  H   H2536     1.0  0.91746  0.51472  0.01099  1.0000
  C   C1416     1.0  0.89662  0.63114  0.10885  1.0000
  C   C1417     1.0  0.65671  0.50522  0.11956  1.0000
  C   C1418     1.0  0.92630  0.65002  0.10292  1.0000
  H   H2537     1.0  0.89048  0.58511  0.10409  1.0000
  H   H2538     1.0  0.83347  0.67919  0.00996  1.0000
  S   S318      1.0  0.93151  0.58286  0.04325  1.0000
  N   N77       1.0  0.68383  0.87882  0.00421  1.0000
  H   H2539     1.0  0.78083  0.56618  0.11120  1.0000
  H   H2540     1.0  0.81113  0.60528  0.03113  1.0000
  N   N78       1.0  0.76519  0.59455  0.03622  1.0000
  H   H2541     1.0  0.87792  0.62811  0.10243  1.0000
  H   H2542     1.0  0.71481  0.72427  0.11477  1.0000
  H   H2543     1.0  0.70078  0.84362  0.00171  1.0000
  C   C1419     1.0  0.75978  0.62085  0.00394  1.0000
  H   H2544     1.0  0.83748  0.67521  0.99428  1.0000
  H   H2545     1.0  0.60149  0.55857  0.10522  1.0000
  C   C1420     1.0  0.94220  0.71849  0.01605  1.0000
  H   H2546     1.0  0.51216  0.89119  0.09599  1.0000
  H   H2547     1.0  0.65844  0.89737  0.99341  1.0000
  C   C1421     1.0  0.65864  0.79260  0.01194  1.0000
  C   C1422     1.0  0.91207  0.50000  0.02936  1.0000
  H   H2548     1.0  0.67924  0.91767  0.01237  1.0000
  C   C1423     1.0  0.73663  0.78401  0.97376  1.0000
  H   H2549     1.0  0.69574  0.89935  0.02191  1.0000
  H   H2550     1.0  0.62977  0.87155  0.97326  1.0000
  H   H2551     1.0  0.69277  0.68538  0.11863  1.0000
  H   H2552     1.0  0.83720  0.57367  0.10758  1.0000
  H   H2553     1.0  0.51298  0.95742  0.07093  1.0000
  C   C1424     1.0  0.88900  0.69252  0.96741  1.0000
  C   C1425     1.0  0.83822  0.69169  0.96672  1.0000
  C   C1426     1.0  0.59858  0.92614  0.10182  1.0000
  H   H2554     1.0  0.67619  0.78781  0.00716  1.0000
  H   H2555     1.0  0.78275  0.63470  0.02560  1.0000
  H   H2556     1.0  0.76097  0.63248  0.06947  1.0000
  C   C1427     1.0  0.71242  0.96823  0.12247  1.0000
  H   H2557     1.0  0.58978  0.91209  0.10964  1.0000
  C   C1428     1.0  0.62374  0.53173  0.12229  1.0000
  H   H2558     1.0  0.82985  0.54784  0.04859  1.0000
  H   H2559     1.0  0.49005  0.91040  0.10222  1.0000
  H   H2560     1.0  0.74194  0.89000  0.01326  1.0000
  H   H2561     1.0  0.69470  0.85084  0.01664  1.0000
  H   H2562     1.0  0.63748  0.85940  0.99738  1.0000
  C   C1429     1.0  0.65481  0.81998  0.00672  1.0000
  H   H2563     1.0  0.62811  0.87082  0.01505  1.0000
  C   C1430     1.0  0.88385  0.52705  0.01879  1.0000
  H   H2564     1.0  0.89115  0.71490  0.99587  1.0000
  C   C1431     1.0  0.80108  0.57140  0.04458  1.0000
  C   C1432     1.0  0.50667  0.94695  0.02641  1.0000
  H   H2565     1.0  0.64087  0.91883  0.02651  1.0000
  H   H2566     1.0  0.89524  0.59580  0.98330  1.0000
  C   C1433     1.0  0.71419  0.89944  0.99950  1.0000
  H   H2567     1.0  0.72016  0.88798  0.99191  1.0000
  C   C1434     1.0  0.82116  0.55541  0.04067  1.0000
  H   H2568     1.0  0.95489  0.62861  0.00397  1.0000
  H   H2569     1.0  0.78395  0.63647  0.00331  1.0000
  C   C1435     1.0  0.63785  0.85312  0.97435  1.0000
  C   C1436     1.0  0.89832  0.63488  0.99408  1.0000
  Fe  Fe160     1.0  0.95315  0.57526  0.08904  1.0000
  C   C1437     1.0  0.77143  0.92503  0.00219  1.0000
  H   H2570     1.0  0.63645  0.82318  0.01143  1.0000
  H   H2571     1.0  0.54845  0.91979  0.11194  1.0000
  H   H2572     1.0  0.87726  0.66354  0.98851  1.0000
  H   H2573     1.0  0.80801  0.53500  0.03499  1.0000
  C   C1438     1.0  0.50686  0.91158  0.09545  1.0000
  H   H2574     1.0  0.68863  0.51167  0.04069  1.0000
  H   H2575     1.0  0.86284  0.63130  0.03866  1.0000
  H   H2576     1.0  0.78556  0.56858  0.02641  1.0000
  C   C1439     1.0  0.74142  0.90969  0.00844  1.0000
  H   H2577     1.0  0.92130  0.59702  0.01949  1.0000
  C   C1440     1.0  0.77367  0.61523  0.04718  1.0000
  H   H2578     1.0  0.84084  0.57110  0.03576  1.0000
  H   H2579     1.0  0.74422  0.65758  0.06447  1.0000
  H   H2580     1.0  0.71293  0.50996  0.11185  1.0000
  C   C1441     1.0  0.47599  0.94894  0.02673  1.0000
  C   C1442     1.0  0.86891  0.70594  0.97018  1.0000
  H   H2581     1.0  0.79093  0.59409  0.12326  1.0000
  H   H2582     1.0  0.89487  0.47800  0.02580  1.0000
  C   C1443     1.0  0.86813  0.55066  0.12219  1.0000
  H   H2583     1.0  0.72467  0.95664  0.11812  1.0000
  H   H2584     1.0  0.90025  0.66028  0.04207  1.0000
  H   H2585     1.0  0.88174  0.62083  0.01914  1.0000
  C   C1444     1.0  0.71174  0.77321  0.96590  1.0000
  H   H2586     1.0  0.88528  0.54310  0.01164  1.0000
  H   H2587     1.0  0.64200  0.49017  0.11232  1.0000
  N   N79       1.0  0.58190  0.96674  0.11142  1.0000
  C   C1445     1.0  0.84167  0.58246  0.11696  1.0000
  H   H2588     1.0  0.46910  0.95073  0.01745  1.0000
  H   H2589     1.0  0.77441  0.49522  0.05461  1.0000
  C   C1446     1.0  0.83720  0.77874  0.96809  1.0000
  Fe  Fe161     1.0  0.75419  0.66188  0.96255  1.0000
  S   S319      1.0  0.68446  0.96278  0.98542  1.0000
  H   H2590     1.0  0.93171  0.54584  0.02173  1.0000
  C   C1447     1.0  0.60438  0.96025  0.10393  1.0000
  C   C1448     1.0  0.91357  0.52311  0.01977  1.0000
  C   C1449     1.0  0.53556  0.94074  0.09727  1.0000
  H   H2591     1.0  0.87947  0.53664  0.02724  1.0000
  C   C1450     1.0  0.81352  0.56299  0.12410  1.0000
  H   H2592     1.0  0.92471  0.47780  0.04957  1.0000
  N   N80       1.0  0.94124  0.49725  0.03255  1.0000
  H   H2593     1.0  0.91507  0.55700  0.11897  1.0000
  C   C1451     1.0  0.89048  0.51162  0.12462  1.0000
  C   C1452     1.0  0.89690  0.54554  0.12527  1.0000
  C   C1453     1.0  0.96226  0.52651  0.03876  1.0000
  C   C1454     1.0  0.69733  0.48672  0.11447  1.0000
  C   C1455     1.0  0.67615  0.48860  0.12407  1.0000
  C   C1456     1.0  0.95697  0.60616  0.03257  1.0000
  H   H2594     1.0  0.91158  0.50864  0.12672  1.0000
  H   H2595     1.0  0.82231  0.77694  0.97569  1.0000
  H   H2596     1.0  0.61202  0.93721  0.12630  1.0000
  S   S320      1.0  0.95619  0.47579  0.07325  1.0000
  H   H2597     1.0  0.84457  0.75970  0.96845  1.0000
  H   H2598     1.0  0.80261  0.85567  0.96161  1.0000
  C   C1457     1.0  0.95499  0.48927  0.02177  1.0000
  H   H2599     1.0  0.52398  0.96794  0.02270  1.0000
  H   H2600     1.0  0.76623  0.55495  0.12572  1.0000
  H   H2601     1.0  0.64826  0.97265  0.00359  1.0000
  C   C1458     1.0  0.69224  0.97276  0.00083  1.0000
  S   S321      1.0  0.65204  0.97213  0.06972  1.0000
  H   H2602     1.0  0.62759  0.97256  0.10777  1.0000
  C   C1459     1.0  0.59106  0.96965  0.12439  1.0000
  C   C1460     1.0  0.87826  0.66479  0.96101  1.0000
  H   H2603     1.0  0.71112  0.47481  0.11789  1.0000
  C   C1461     1.0  0.71610  0.52928  0.24692  1.0000
  S   S322      1.0  0.94325  0.71217  0.18338  1.0000
  H   H2604     1.0  0.72195  0.77758  0.21600  1.0000
  H   H2605     1.0  0.72757  0.75883  0.24683  1.0000
  H   H2606     1.0  0.67967  0.82338  0.22527  1.0000
  H   H2607     1.0  0.68074  0.69576  0.22414  1.0000
  S   S323      1.0  0.92126  0.51804  0.28091  1.0000
  C   C1462     1.0  0.75545  0.56712  0.26746  1.0000
  Fe  Fe162     1.0  0.73540  0.92202  0.18372  1.0000
  S   S324      1.0  0.71732  0.86946  0.18431  1.0000
  S   S325      1.0  0.69956  0.94040  0.18667  1.0000
  Fe  Fe163     1.0  0.71803  0.66071  0.17294  1.0000
  S   S326      1.0  0.76643  0.69443  0.17564  1.0000
  S   S327      1.0  0.69236  0.64984  0.15497  1.0000
  Fe  Fe164     1.0  0.70861  0.65330  0.20020  1.0000
  S   S328      1.0  0.75597  0.68648  0.20436  1.0000
  S   S329      1.0  0.67472  0.62838  0.21441  1.0000
  Fe  Fe165     1.0  0.74896  0.71563  0.19018  1.0000
  S   S330      1.0  0.76808  0.76736  0.19395  1.0000
  Fe  Fe166     1.0  0.76889  0.66260  0.18959  1.0000
  S   S331      1.0  0.80366  0.64356  0.19353  1.0000
  S   S332      1.0  0.70050  0.68369  0.18678  1.0000
  S   S333      1.0  0.72152  0.62746  0.18604  1.0000
  Fe  Fe167     1.0  0.67026  0.57138  0.28331  1.0000
  S   S334      1.0  0.67806  0.52820  0.28306  1.0000
  S   S335      1.0  0.69264  0.60834  0.26951  1.0000
  H   H2608     1.0  0.69727  0.81303  0.21301  1.0000
  C   C1463     1.0  0.93054  0.65929  0.22322  1.0000
  C   C1464     1.0  0.68208  0.71938  0.22328  1.0000
  C   C1465     1.0  0.91678  0.62603  0.15030  1.0000
  C   C1466     1.0  0.71068  0.71650  0.13377  1.0000
  H   H2609     1.0  0.56383  0.94619  0.25436  1.0000
  C   C1467     1.0  0.70842  0.73985  0.24224  1.0000
  C   C1468     1.0  0.75010  0.58011  0.25558  1.0000
  C   C1469     1.0  0.64841  0.69751  0.20505  1.0000
  H   H2610     1.0  0.69121  0.78876  0.23835  1.0000
  C   C1470     1.0  0.69757  0.81561  0.22283  1.0000
  H   H2611     1.0  0.65010  0.67521  0.20584  1.0000
  H   H2612     1.0  0.93417  0.62988  0.25204  1.0000
  H   H2613     1.0  0.76791  0.75191  0.24034  1.0000
  H   H2614     1.0  0.66204  0.71934  0.22799  1.0000
  H   H2615     1.0  0.71980  0.83342  0.22584  1.0000
  C   C1471     1.0  0.68086  0.62207  0.22957  1.0000
  C   C1472     1.0  0.70756  0.63994  0.23586  1.0000
  C   C1473     1.0  0.71067  0.63529  0.24803  1.0000
  C   C1474     1.0  0.68745  0.61238  0.25406  1.0000
  C   C1475     1.0  0.66106  0.59404  0.24771  1.0000
  C   C1476     1.0  0.65771  0.59909  0.23559  1.0000
  H   H2616     1.0  0.72560  0.65767  0.23140  1.0000
  H   H2617     1.0  0.73118  0.64964  0.25284  1.0000
  H   H2618     1.0  0.64294  0.57640  0.25220  1.0000
  H   H2619     1.0  0.63690  0.58517  0.23085  1.0000
  C   C1477     1.0  0.72215  0.62355  0.14051  1.0000
  C   C1478     1.0  0.69827  0.63262  0.14165  1.0000
  H   H2620     1.0  0.52034  0.89875  0.24801  1.0000
  H   H2621     1.0  0.73801  0.62733  0.14784  1.0000
  H   H2622     1.0  0.71543  0.83593  0.16101  1.0000
  H   H2623     1.0  0.78358  0.60163  0.22986  1.0000
  H   H2624     1.0  0.65952  0.63459  0.13269  1.0000
  C   C1479     1.0  0.91579  0.74577  0.21307  1.0000
  H   H2625     1.0  0.78617  0.71942  0.22794  1.0000
  H   H2626     1.0  0.73175  0.71038  0.22574  1.0000
  H   H2627     1.0  0.70088  0.68645  0.26407  1.0000
  C   C1480     1.0  0.75354  0.79527  0.19095  1.0000
  C   C1481     1.0  0.72308  0.78743  0.18803  1.0000
  C   C1482     1.0  0.71255  0.81043  0.18601  1.0000
  C   C1483     1.0  0.73222  0.84160  0.18689  1.0000
  C   C1484     1.0  0.76268  0.84941  0.18981  1.0000
  C   C1485     1.0  0.77318  0.82639  0.19187  1.0000
  H   H2628     1.0  0.70755  0.76371  0.18748  1.0000
  H   H2629     1.0  0.68892  0.80409  0.18381  1.0000
  H   H2630     1.0  0.77811  0.87320  0.19054  1.0000
  H   H2631     1.0  0.79677  0.83281  0.19418  1.0000
  H   H2632     1.0  0.72191  0.72722  0.26524  1.0000
  N   N81       1.0  0.71108  0.74222  0.22898  1.0000
  C   C1486     1.0  0.69176  0.78527  0.22862  1.0000
  C   C1487     1.0  0.77005  0.55149  0.24265  1.0000
  C   C1488     1.0  0.90419  0.69222  0.18555  1.0000
  C   C1489     1.0  0.88416  0.70523  0.18213  1.0000
  C   C1490     1.0  0.85307  0.69028  0.18428  1.0000
  C   C1491     1.0  0.84202  0.66246  0.19002  1.0000
  C   C1492     1.0  0.86203  0.64941  0.19336  1.0000
  C   C1493     1.0  0.89296  0.66418  0.19111  1.0000
  H   H2633     1.0  0.89273  0.72694  0.17782  1.0000
  H   H2634     1.0  0.83776  0.70042  0.18163  1.0000
  H   H2635     1.0  0.85357  0.62779  0.19774  1.0000
  H   H2636     1.0  0.90811  0.65391  0.19374  1.0000
  H   H2637     1.0  0.62840  0.69681  0.20992  1.0000
  H   H2638     1.0  0.68120  0.71107  0.26300  1.0000
  H   H2639     1.0  0.68787  0.74281  0.24510  1.0000
  H   H2640     1.0  0.77204  0.63617  0.21640  1.0000
  H   H2641     1.0  0.85976  0.75303  0.21480  1.0000
  N   N82       1.0  0.73145  0.76009  0.14987  1.0000
  C   C1494     1.0  0.85447  0.64074  0.26156  1.0000
  C   C1495     1.0  0.73744  0.79324  0.15241  1.0000
  C   C1496     1.0  0.76137  0.75721  0.15062  1.0000
  C   C1497     1.0  0.71114  0.73988  0.15903  1.0000
  C   C1498     1.0  0.67854  0.73810  0.15917  1.0000
  N   N83       1.0  0.94091  0.74478  0.22088  1.0000
  C   C1499     1.0  0.78006  0.76916  0.16233  1.0000
  H   H2642     1.0  0.91678  0.63999  0.22879  1.0000
  H   H2643     1.0  0.91645  0.76921  0.21312  1.0000
  C   C1500     1.0  0.65896  0.71372  0.16753  1.0000
  H   H2644     1.0  0.90474  0.76090  0.25264  1.0000
  C   C1501     1.0  0.81126  0.76854  0.16151  1.0000
  H   H2645     1.0  0.60853  0.89878  0.27864  1.0000
  H   H2646     1.0  0.66860  0.48973  0.26009  1.0000
  H   H2647     1.0  0.73765  0.79772  0.16215  1.0000
  H   H2648     1.0  0.86895  0.61630  0.13438  1.0000
  C   C1502     1.0  0.71587  0.96390  0.24621  1.0000
  H   H2649     1.0  0.83683  0.71372  0.21066  1.0000
  H   H2650     1.0  0.71011  0.71635  0.15814  1.0000
  H   H2651     1.0  0.72079  0.74777  0.16808  1.0000
  H   H2652     1.0  0.66737  0.73233  0.15029  1.0000
  H   H2653     1.0  0.67888  0.76017  0.16246  1.0000
  C   C1503     1.0  0.72538  0.60925  0.12989  1.0000
  S   S336      1.0  0.84172  0.51143  0.28655  1.0000
  H   H2654     1.0  0.76836  0.75436  0.16966  1.0000
  H   H2655     1.0  0.78349  0.79287  0.16473  1.0000
  H   H2656     1.0  0.93593  0.56194  0.23400  1.0000
  H   H2657     1.0  0.69190  0.79086  0.14742  1.0000
  H   H2658     1.0  0.81876  0.55011  0.22992  1.0000
  C   C1504     1.0  0.94451  0.71511  0.21895  1.0000
  H   H2659     1.0  0.84550  0.55326  0.24997  1.0000
  H   H2660     1.0  0.66820  0.71936  0.17673  1.0000
  H   H2661     1.0  0.63564  0.71268  0.16736  1.0000
  H   H2662     1.0  0.65789  0.69093  0.16478  1.0000
  C   C1505     1.0  0.91281  0.61652  0.13717  1.0000
  H   H2663     1.0  0.88171  0.52887  0.24673  1.0000
  H   H2664     1.0  0.69007  0.54677  0.25856  1.0000
  H   H2665     1.0  0.82343  0.77577  0.17021  1.0000
  C   C1506     1.0  0.95746  0.67325  0.26085  1.0000
  H   H2666     1.0  0.60787  0.94659  0.27196  1.0000
  H   H2667     1.0  0.84167  0.54178  0.26509  1.0000
  C   C1507     1.0  0.84136  0.65117  0.25098  1.0000
  C   C1508     1.0  0.70626  0.70921  0.24733  1.0000
  C   C1509     1.0  0.70235  0.70863  0.26073  1.0000
  H   H2668     1.0  0.68663  0.68966  0.24336  1.0000
  H   H2669     1.0  0.72701  0.70553  0.24560  1.0000
  C   C1510     1.0  0.67720  0.72344  0.20994  1.0000
  C   C1511     1.0  0.73686  0.73498  0.22470  1.0000
  C   C1512     1.0  0.76833  0.75409  0.23059  1.0000
  H   H2670     1.0  0.62125  0.53282  0.14931  1.0000
  C   C1513     1.0  0.71697  0.77437  0.22562  1.0000
  H   H2671     1.0  0.77600  0.77855  0.22852  1.0000
  H   H2672     1.0  0.66908  0.76867  0.22558  1.0000
  H   H2673     1.0  0.79490  0.74715  0.21634  1.0000
  H   H2674     1.0  0.74313  0.51813  0.28660  1.0000
  C   C1514     1.0  0.79232  0.74381  0.22603  1.0000
  H   H2675     1.0  0.76043  0.80857  0.14950  1.0000
  H   H2676     1.0  0.72046  0.80825  0.13675  1.0000
  H   H2677     1.0  0.73950  0.73849  0.21503  1.0000
  C   C1515     1.0  0.86492  0.59347  0.27821  1.0000
  H   H2678     1.0  0.79717  0.51677  0.22089  1.0000
  H   H2679     1.0  0.77223  0.53638  0.24964  1.0000
  H   H2680     1.0  0.84013  0.58044  0.27671  1.0000
  H   H2681     1.0  0.73515  0.54688  0.26984  1.0000
  C   C1516     1.0  0.59294  0.94137  0.13007  1.0000
  H   H2682     1.0  0.73770  0.79098  0.23025  1.0000
  H   H2683     1.0  0.69653  0.72376  0.20478  1.0000
  C   C1517     1.0  0.52782  0.90440  0.23878  1.0000
  C   C1518     1.0  0.56231  0.91923  0.23841  1.0000
  H   H2684     1.0  0.62429  0.96386  0.21090  1.0000
  H   H2685     1.0  0.67480  0.74510  0.20839  1.0000
  H   H2686     1.0  0.81443  0.75765  0.23048  1.0000
  C   C1519     1.0  0.93217  0.77919  0.23718  1.0000
  H   H2687     1.0  0.73497  0.76503  0.13093  1.0000
  H   H2688     1.0  0.77074  0.60108  0.25415  1.0000
  H   H2689     1.0  0.73206  0.58844  0.25683  1.0000
  C   C1520     1.0  0.95224  0.58106  0.23906  1.0000
  H   H2690     1.0  0.51803  0.91989  0.23520  1.0000
  C   C1521     1.0  0.59919  0.94648  0.14342  1.0000
  H   H2691     1.0  0.72157  0.51576  0.25375  1.0000
  H   H2692     1.0  0.64238  0.56859  0.14255  1.0000
  Fe  Fe168     1.0  0.71732  0.96824  0.17038  1.0000
  H   H2693     1.0  0.64098  0.50394  0.25574  1.0000
  H   H2694     1.0  0.87868  0.72049  0.22525  1.0000
  C   C1522     1.0  0.92813  0.64588  0.25747  1.0000
  H   H2695     1.0  0.91632  0.73057  0.23720  1.0000
  H   H2696     1.0  0.93275  0.69303  0.23613  1.0000
  H   H2697     1.0  0.69317  0.70088  0.13957  1.0000
  H   H2698     1.0  0.71029  0.51454  0.23875  1.0000
  H   H2699     1.0  0.71681  0.58060  0.23652  1.0000
  C   C1523     1.0  0.68657  0.53226  0.25047  1.0000
  H   H2700     1.0  0.65390  0.95090  0.23322  1.0000
  H   H2701     1.0  0.86797  0.58245  0.14056  1.0000
  N   N84       1.0  0.74303  0.55879  0.24490  1.0000
  H   H2702     1.0  0.79138  0.57245  0.24343  1.0000
  H   H2703     1.0  0.64499  0.70102  0.19556  1.0000
  H   H2704     1.0  0.75803  0.73293  0.14966  1.0000
  H   H2705     1.0  0.76492  0.62275  0.23700  1.0000
  H   H2706     1.0  0.86483  0.63718  0.28495  1.0000
  C   C1524     1.0  0.64426  0.54880  0.14687  1.0000
  C   C1525     1.0  0.62085  0.94329  0.25345  1.0000
  H   H2707     1.0  0.78269  0.61170  0.27573  1.0000
  H   H2708     1.0  0.51421  0.96132  0.28684  1.0000
  H   H2709     1.0  0.86436  0.73773  0.20062  1.0000
  H   H2710     1.0  0.72660  0.95333  0.22857  1.0000
  C   C1526     1.0  0.85756  0.54911  0.25770  1.0000
  H   H2711     1.0  0.58104  0.91473  0.26355  1.0000
  H   H2712     1.0  0.81802  0.56728  0.13377  1.0000
  C   C1527     1.0  0.72115  0.96910  0.23402  1.0000
  H   H2713     1.0  0.51906  0.88296  0.23330  1.0000
  H   H2714     1.0  0.87277  0.57691  0.28229  1.0000
  C   C1528     1.0  0.66339  0.56080  0.15823  1.0000
  H   H2715     1.0  0.92341  0.80189  0.25257  1.0000
  H   H2716     1.0  0.77589  0.76935  0.14319  1.0000
  H   H2717     1.0  0.58042  0.94985  0.14785  1.0000
  H   H2718     1.0  0.95282  0.79982  0.23541  1.0000
  C   C1529     1.0  0.85970  0.73248  0.21009  1.0000
  H   H2719     1.0  0.87526  0.66034  0.26460  1.0000
  C   C1530     1.0  0.61332  0.48474  0.13310  1.0000
  C   C1531     1.0  0.61958  0.90837  0.27022  1.0000
  H   H2720     1.0  0.60139  0.92628  0.14721  1.0000
  C   C1532     1.0  0.71603  0.80588  0.14639  1.0000
  H   H2721     1.0  0.77483  0.56050  0.26692  1.0000
  H   H2722     1.0  0.92591  0.60273  0.13553  1.0000
  C   C1533     1.0  0.65880  0.53331  0.13827  1.0000
  H   H2723     1.0  0.67809  0.54227  0.24326  1.0000
  C   C1534     1.0  0.76182  0.60390  0.23054  1.0000
  H   H2724     1.0  0.87670  0.51646  0.26189  1.0000
  H   H2725     1.0  0.86940  0.61474  0.24907  1.0000
  C   C1535     1.0  0.66155  0.50106  0.25289  1.0000
  C   C1536     1.0  0.75468  0.61328  0.21842  1.0000
  H   H2726     1.0  0.73223  0.61433  0.21821  1.0000
  C   C1537     1.0  0.67801  0.62757  0.13195  1.0000
  H   H2727     1.0  0.69777  0.75388  0.13592  1.0000
  C   C1538     1.0  0.73582  0.57409  0.23448  1.0000
  H   H2728     1.0  0.83770  0.63500  0.26870  1.0000
  H   H2729     1.0  0.91278  0.78033  0.23218  1.0000
  H   H2730     1.0  0.74979  0.51335  0.22962  1.0000
  H   H2731     1.0  0.72742  0.55788  0.22673  1.0000
  H   H2732     1.0  0.75493  0.59686  0.21139  1.0000
  H   H2733     1.0  0.74526  0.85360  0.15065  1.0000
  N   N85       1.0  0.88042  0.60437  0.26658  1.0000
  C   C1539     1.0  0.79797  0.52858  0.22953  1.0000
  H   H2734     1.0  0.90491  0.55371  0.13445  1.0000
  H   H2735     1.0  0.91935  0.74114  0.20365  1.0000
  H   H2736     1.0  0.90440  0.64046  0.15243  1.0000
  H   H2737     1.0  0.73073  0.71092  0.13418  1.0000
  H   H2738     1.0  0.84523  0.50240  0.25152  1.0000
  H   H2739     1.0  0.65361  0.57378  0.16374  1.0000
  C   C1540     1.0  0.86594  0.52268  0.25423  1.0000
  C   C1541     1.0  0.88613  0.57836  0.26102  1.0000
  H   H2740     1.0  0.90911  0.64928  0.27405  1.0000
  Fe  Fe169     1.0  0.95264  0.56524  0.28691  1.0000
  H   H2741     1.0  0.85817  0.65918  0.24386  1.0000
  C   C1542     1.0  0.76251  0.59071  0.27761  1.0000
  H   H2742     1.0  0.76700  0.58116  0.28593  1.0000
  H   H2743     1.0  0.71730  0.94402  0.25003  1.0000
  C   C1543     1.0  0.72130  0.83740  0.15151  1.0000
  H   H2744     1.0  0.91442  0.65438  0.25187  1.0000
  C   C1544     1.0  0.71874  0.75034  0.13743  1.0000
  H   H2745     1.0  0.82062  0.63228  0.24738  1.0000
  H   H2746     1.0  0.90105  0.57194  0.26701  1.0000
  C   C1545     1.0  0.91090  0.63057  0.26869  1.0000
  H   H2747     1.0  0.79907  0.51356  0.23671  1.0000
  H   H2748     1.0  0.89851  0.58519  0.25265  1.0000
  H   H2749     1.0  0.87317  0.49885  0.13110  1.0000
  H   H2750     1.0  0.92587  0.62283  0.27406  1.0000
  S   S337      1.0  0.75044  0.94759  0.16675  1.0000
  H   H2751     1.0  0.78456  0.50757  0.27753  1.0000
  H   H2752     1.0  0.83547  0.67033  0.25381  1.0000
  H   H2753     1.0  0.56843  0.92353  0.22899  1.0000
  H   H2754     1.0  0.83762  0.59313  0.25737  1.0000
  C   C1546     1.0  0.86036  0.61227  0.25818  1.0000
  H   H2755     1.0  0.74377  0.60208  0.12919  1.0000
  H   H2756     1.0  0.64409  0.92160  0.27216  1.0000
  C   C1547     1.0  0.76986  0.53533  0.23059  1.0000
  C   C1548     1.0  0.78674  0.51549  0.28666  1.0000
  H   H2757     1.0  0.90113  0.68221  0.22583  1.0000
  H   H2758     1.0  0.61601  0.92970  0.22770  1.0000
  C   C1549     1.0  0.88326  0.72280  0.21569  1.0000
  C   C1550     1.0  0.93632  0.74964  0.23383  1.0000
  H   H2759     1.0  0.67851  0.55191  0.13436  1.0000
  H   H2760     1.0  0.80923  0.74515  0.15926  1.0000
  C   C1551     1.0  0.60547  0.92895  0.26511  1.0000
  C   C1552     1.0  0.92558  0.68780  0.22667  1.0000
  H   H2761     1.0  0.72052  0.95523  0.14003  1.0000
  H   H2762     1.0  0.87955  0.70006  0.21183  1.0000
  H   H2763     1.0  0.69058  0.50050  0.13186  1.0000
  S   S338      1.0  0.77090  0.95893  0.19529  1.0000
  H   H2764     1.0  0.66390  0.54164  0.16344  1.0000
  H   H2765     1.0  0.68687  0.57640  0.15614  1.0000
  H   H2766     1.0  0.61875  0.92380  0.24756  1.0000
  H   H2767     1.0  0.56721  0.96516  0.24090  1.0000
  C   C1553     1.0  0.81278  0.51920  0.29337  1.0000
  H   H2768     1.0  0.76974  0.54977  0.22306  1.0000
  H   H2769     1.0  0.66892  0.52070  0.14367  1.0000
  H   H2770     1.0  0.95468  0.66348  0.22459  1.0000
  H   H2771     1.0  0.61657  0.88923  0.26393  1.0000
  H   H2772     1.0  0.70675  0.84654  0.14671  1.0000
  S   S339      1.0  0.62230  0.54803  0.28959  1.0000
  H   H2773     1.0  0.85151  0.53841  0.12900  1.0000
  H   H2774     1.0  0.82474  0.78444  0.15471  1.0000
  C   C1554     1.0  0.87889  0.59912  0.13355  1.0000
  H   H2775     1.0  0.74295  0.59669  0.27909  1.0000
  H   H2776     1.0  0.57074  0.90258  0.24182  1.0000
  H   H2777     1.0  0.92323  0.63758  0.13202  1.0000
  H   H2778     1.0  0.92390  0.65248  0.21381  1.0000
  H   H2779     1.0  0.93966  0.70728  0.20949  1.0000
  H   H2780     1.0  0.94053  0.55844  0.25584  1.0000
  C   C1555     1.0  0.95481  0.57899  0.25147  1.0000
  H   H2781     1.0  0.59310  0.48913  0.13537  1.0000
  C   C1556     1.0  0.86962  0.61796  0.28814  1.0000
  H   H2782     1.0  0.62067  0.96665  0.14536  1.0000
  H   H2783     1.0  0.89336  0.62712  0.29160  1.0000
  H   H2784     1.0  0.94112  0.63937  0.15253  1.0000
  S   S340      1.0  0.95627  0.63641  0.18647  1.0000
  H   H2785     1.0  0.90853  0.60561  0.15591  1.0000
  C   C1557     1.0  0.92595  0.78041  0.25037  1.0000
  H   H2786     1.0  0.64552  0.95565  0.25538  1.0000
  N   N86       1.0  0.63810  0.51320  0.12854  1.0000
  H   H2787     1.0  0.95259  0.69147  0.26533  1.0000
  Fe  Fe170     1.0  0.88931  0.52383  0.29414  1.0000
  C   C1558     1.0  0.71016  0.96743  0.13493  1.0000
  S   S341      1.0  0.64418  0.96824  0.29348  1.0000
  H   H2788     1.0  0.94500  0.77990  0.25583  1.0000
  H   H2789     1.0  0.65351  0.94971  0.21170  1.0000
  C   C1559     1.0  0.57518  0.94966  0.24567  1.0000
  H   H2790     1.0  0.60875  0.53737  0.12836  1.0000
  H   H2791     1.0  0.62306  0.48553  0.15222  1.0000
  Fe  Fe171     1.0  0.63121  0.50552  0.29049  1.0000
  C   C1560     1.0  0.63427  0.95285  0.22867  1.0000
  C   C1561     1.0  0.76328  0.52155  0.29175  1.0000
  N   N87       1.0  0.60902  0.96432  0.24750  1.0000
  H   H2792     1.0  0.95583  0.74961  0.23920  1.0000
  H   H2793     1.0  0.65572  0.48617  0.24477  1.0000
  H   H2794     1.0  0.57166  0.92073  0.12873  1.0000
  C   C1562     1.0  0.64394  0.96441  0.21624  1.0000
  Fe  Fe172     1.0  0.64198  0.55782  0.30838  1.0000
  S   S342      1.0  0.64830  0.51401  0.30942  1.0000
  S   S343      1.0  0.61644  0.57181  0.32277  1.0000
  S   S344      1.0  0.73724  0.54008  0.31043  1.0000
  H   H2795     1.0  0.66341  0.95674  0.42102  1.0000
  S   S345      1.0  0.90555  0.50277  0.30884  1.0000
  C   C1563     1.0  0.54832  0.77030  0.44832  1.0000
  C   C1564     1.0  0.54281  0.48200  0.43075  1.0000
  C   C1565     1.0  0.50915  0.47519  0.43311  1.0000
  C   C1566     1.0  0.47891  0.87649  0.37739  1.0000
  Fe  Fe173     1.0  0.61491  0.60126  0.39350  1.0000
  S   S346      1.0  0.56734  0.59643  0.39093  1.0000
  S   S347      1.0  0.64568  0.60123  0.37829  1.0000
  Fe  Fe174     1.0  0.60946  0.59833  0.42113  1.0000
  S   S348      1.0  0.56115  0.59324  0.42013  1.0000
  S   S349      1.0  0.63815  0.59706  0.43736  1.0000
  Fe  Fe175     1.0  0.55529  0.56053  0.40470  1.0000
  S   S350      1.0  0.52359  0.51088  0.40115  1.0000
  Fe  Fe176     1.0  0.57777  0.63007  0.40642  1.0000
  S   S351      1.0  0.56057  0.66786  0.40508  1.0000
  S   S352      1.0  0.60264  0.56373  0.40650  1.0000
  S   S353      1.0  0.62641  0.63704  0.40827  1.0000
  Fe  Fe177     1.0  0.60528  0.90225  0.39262  1.0000
  S   S354      1.0  0.57996  0.85143  0.38977  1.0000
  H   H2796     1.0  0.55550  0.66604  0.44811  1.0000
  Fe  Fe178     1.0  0.60195  0.89765  0.42027  1.0000
  S   S355      1.0  0.57631  0.84656  0.41929  1.0000
  S   S356      1.0  0.61032  0.93012  0.43657  1.0000
  Fe  Fe179     1.0  0.60822  0.84665  0.40496  1.0000
  S   S357      1.0  0.63076  0.81296  0.40479  1.0000
  Fe  Fe180     1.0  0.54968  0.85437  0.40422  1.0000
  S   S358      1.0  0.49939  0.82657  0.40173  1.0000
  S   S359      1.0  0.63622  0.89768  0.40692  1.0000
  S   S360      1.0  0.57262  0.90520  0.40607  1.0000
  C   C1567     1.0  0.62273  0.93430  0.45178  1.0000
  C   C1568     1.0  0.46817  0.88327  0.41822  1.0000
  C   C1569     1.0  0.63499  0.91543  0.45695  1.0000
  H   H2797     1.0  0.63560  0.89638  0.45188  1.0000
  C   C1570     1.0  0.63073  0.58407  0.45219  1.0000
  C   C1571     1.0  0.58806  0.77411  0.43399  1.0000
  H   H2798     1.0  0.62210  0.49130  0.37481  1.0000
  H   H2799     1.0  0.58222  0.96188  0.33447  1.0000
  H   H2800     1.0  0.54427  0.93537  0.33157  1.0000
  C   C1572     1.0  0.58126  0.70797  0.40418  1.0000
  C   C1573     1.0  0.56562  0.72604  0.40120  1.0000
  C   C1574     1.0  0.58052  0.75812  0.40112  1.0000
  C   C1575     1.0  0.61144  0.77255  0.40389  1.0000
  C   C1576     1.0  0.62736  0.75440  0.40643  1.0000
  C   C1577     1.0  0.61236  0.72230  0.40662  1.0000
  H   H2801     1.0  0.54165  0.71516  0.39913  1.0000
  H   H2802     1.0  0.56805  0.77169  0.39897  1.0000
  H   H2803     1.0  0.65132  0.76529  0.40852  1.0000
  H   H2804     1.0  0.62475  0.70872  0.40889  1.0000
  C   C1578     1.0  0.62994  0.94452  0.36416  1.0000
  H   H2805     1.0  0.70825  0.94722  0.44562  1.0000
  Fe  Fe181     1.0  0.69432  0.54022  0.30190  1.0000
  H   H2806     1.0  0.51110  0.88017  0.41657  1.0000
  H   H2807     1.0  0.50827  0.48732  0.44152  1.0000
  H   H2808     1.0  0.54253  0.72891  0.42260  1.0000
  H   H2809     1.0  0.62037  0.77112  0.44740  1.0000
  S   S361      1.0  0.94446  0.56039  0.33386  1.0000
  H   H2810     1.0  0.52313  0.76033  0.44850  1.0000
  C   C1579     1.0  0.52625  0.76408  0.42322  1.0000
  C   C1580     1.0  0.64249  0.92503  0.34585  1.0000
  C   C1581     1.0  0.63297  0.92080  0.35770  1.0000
  H   H2811     1.0  0.73009  0.93146  0.42754  1.0000
  H   H2812     1.0  0.54536  0.47565  0.42144  1.0000
  H   H2813     1.0  0.64521  0.90665  0.34103  1.0000
  H   H2814     1.0  0.62834  0.89932  0.36186  1.0000
  H   H2815     1.0  0.46363  0.94963  0.39399  1.0000
  C   C1582     1.0  0.62568  0.58123  0.33809  1.0000
  C   C1583     1.0  0.65325  0.58414  0.34320  1.0000
  C   C1584     1.0  0.65915  0.59083  0.35546  1.0000
  C   C1585     1.0  0.63755  0.59445  0.36280  1.0000
  C   C1586     1.0  0.61016  0.59205  0.35766  1.0000
  C   C1587     1.0  0.60439  0.58566  0.34539  1.0000
  H   H2816     1.0  0.67000  0.58111  0.33772  1.0000
  H   H2817     1.0  0.68049  0.59280  0.35929  1.0000
  H   H2818     1.0  0.59337  0.59497  0.36314  1.0000
  H   H2819     1.0  0.58312  0.58375  0.34151  1.0000
  C   C1588     1.0  0.76576  0.53158  0.30359  1.0000
  H   H2820     1.0  0.58342  0.57477  0.45178  1.0000
  H   H2821     1.0  0.55432  0.69376  0.42989  1.0000
  C   C1589     1.0  0.56273  0.51596  0.43254  1.0000
  C   C1590     1.0  0.62740  0.50575  0.39840  1.0000
  C   C1591     1.0  0.52196  0.53164  0.36713  1.0000
  C   C1592     1.0  0.84943  0.60449  0.29863  1.0000
  H   H2822     1.0  0.55598  0.51299  0.37996  1.0000
  H   H2823     1.0  0.63837  0.49849  0.35681  1.0000
  H   H2824     1.0  0.85613  0.58753  0.30294  1.0000
  C   C1593     1.0  0.61640  0.49029  0.35185  1.0000
  C   C1594     1.0  0.62197  0.95879  0.45865  1.0000
  H   H2825     1.0  0.48086  0.53786  0.40696  1.0000
  C   C1595     1.0  0.62373  0.49632  0.33879  1.0000
  H   H2826     1.0  0.63787  0.65900  0.38395  1.0000
  H   H2827     1.0  0.83481  0.53144  0.31054  1.0000
  H   H2828     1.0  0.58460  0.50613  0.39358  1.0000
  H   H2829     1.0  0.79375  0.54263  0.31948  1.0000
  H   H2830     1.0  0.64198  0.49382  0.39591  1.0000
  H   H2831     1.0  0.67709  0.59152  0.45572  1.0000
  H   H2832     1.0  0.85215  0.62280  0.30529  1.0000
  H   H2833     1.0  0.61251  0.97353  0.45480  1.0000
  H   H2834     1.0  0.51986  0.86847  0.37880  1.0000
  C   C1596     1.0  0.69710  0.94473  0.43675  1.0000
  C   C1597     1.0  0.65476  0.58396  0.45935  1.0000
  C   C1598     1.0  0.54369  0.51913  0.36193  1.0000
  C   C1599     1.0  0.68251  0.68939  0.38982  1.0000
  N   N88       1.0  0.55903  0.75303  0.43943  1.0000
  H   H2835     1.0  0.47818  0.87588  0.36757  1.0000
  C   C1600     1.0  0.70573  0.92157  0.42962  1.0000
  C   C1601     1.0  0.56091  0.95885  0.32965  1.0000
  H   H2836     1.0  0.50598  0.89307  0.45932  1.0000
  H   H2837     1.0  0.50566  0.53182  0.36014  1.0000
  C   C1602     1.0  0.61584  0.78862  0.44249  1.0000
  H   H2838     1.0  0.88474  0.53965  0.45179  1.0000
  S   S362      1.0  0.61857  0.94094  0.37923  1.0000
  S   S363      1.0  0.68902  0.58467  0.30204  1.0000
  H   H2839     1.0  0.50448  0.73404  0.40798  1.0000
  H   H2840     1.0  0.69237  0.91423  0.42122  1.0000
  H   H2841     1.0  0.57958  0.50389  0.34944  1.0000
  H   H2842     1.0  0.56214  0.52332  0.44187  1.0000
  H   H2843     1.0  0.67238  0.93358  0.43819  1.0000
  N   N89       1.0  0.58300  0.49819  0.36834  1.0000
  C   C1603     1.0  0.57515  0.93179  0.31288  1.0000
  H   H2844     1.0  0.63648  0.52109  0.33743  1.0000
  H   H2845     1.0  0.68843  0.67020  0.39234  1.0000
  C   C1604     1.0  0.63622  0.97232  0.35852  1.0000
  C   C1605     1.0  0.47555  0.84311  0.40720  1.0000
  H   H2846     1.0  0.69516  0.95586  0.41354  1.0000
  H   H2847     1.0  0.47748  0.90405  0.42360  1.0000
  H   H2848     1.0  0.60282  0.48793  0.33316  1.0000
  C   C1606     1.0  0.68804  0.96999  0.41964  1.0000
  H   H2849     1.0  0.55544  0.53400  0.35457  1.0000
  H   H2850     1.0  0.82525  0.59343  0.29576  1.0000
  C   C1607     1.0  0.64872  0.95278  0.34020  1.0000
  H   H2851     1.0  0.71286  0.89805  0.44496  1.0000
  C   C1608     1.0  0.57193  0.70560  0.43681  1.0000
  H   H2852     1.0  0.46611  0.85293  0.38045  1.0000
  C   C1609     1.0  0.64429  0.80704  0.43573  1.0000
  H   H2853     1.0  0.59349  0.71901  0.43247  1.0000
  C   C1610     1.0  0.59945  0.49552  0.39018  1.0000
  N   N90       1.0  0.62207  0.69548  0.36775  1.0000
  C   C1611     1.0  0.62627  0.67752  0.35736  1.0000
  C   C1612     1.0  0.59331  0.67585  0.37376  1.0000
  C   C1613     1.0  0.62069  0.72437  0.36335  1.0000
  C   C1614     1.0  0.64798  0.70419  0.37666  1.0000
  C   C1615     1.0  0.65727  0.67820  0.38033  1.0000
  C   C1616     1.0  0.65588  0.69329  0.35051  1.0000
  C   C1617     1.0  0.61154  0.74317  0.37264  1.0000
  C   C1618     1.0  0.56364  0.66691  0.36627  1.0000
  C   C1619     1.0  0.53587  0.65150  0.37381  1.0000
  C   C1620     1.0  0.65974  0.67114  0.34144  1.0000
  C   C1621     1.0  0.61200  0.77247  0.36745  1.0000
  H   H2854     1.0  0.60757  0.67227  0.35070  1.0000
  H   H2855     1.0  0.62467  0.65487  0.36021  1.0000
  H   H2856     1.0  0.59410  0.65404  0.37646  1.0000
  H   H2857     1.0  0.59106  0.68692  0.38220  1.0000
  H   H2858     1.0  0.60512  0.71950  0.35549  1.0000
  H   H2859     1.0  0.64313  0.73989  0.36006  1.0000
  H   H2860     1.0  0.66850  0.72315  0.37343  1.0000
  C   C1622     1.0  0.79172  0.53508  0.31030  1.0000
  H   H2861     1.0  0.66576  0.66937  0.37270  1.0000
  H   H2862     1.0  0.65534  0.71295  0.34565  1.0000
  H   H2863     1.0  0.67613  0.70172  0.35648  1.0000
  H   H2864     1.0  0.62739  0.74981  0.38040  1.0000
  H   H2865     1.0  0.58837  0.73002  0.37580  1.0000
  H   H2866     1.0  0.56167  0.68699  0.36234  1.0000
  H   H2867     1.0  0.53479  0.66767  0.38078  1.0000
  H   H2868     1.0  0.68040  0.68311  0.33630  1.0000
  H   H2869     1.0  0.66219  0.65192  0.34598  1.0000
  H   H2870     1.0  0.64001  0.66181  0.33516  1.0000
  H   H2871     1.0  0.59565  0.76718  0.35986  1.0000
  H   H2872     1.0  0.60554  0.78540  0.37435  1.0000
  C   C1623     1.0  0.60847  0.50425  0.37726  1.0000
  C   C1624     1.0  0.95584  0.47942  0.33984  1.0000
  H   H2873     1.0  0.92281  0.56849  0.45275  1.0000
  H   H2874     1.0  0.64941  0.79213  0.42928  1.0000
  H   H2875     1.0  0.56261  0.65057  0.35901  1.0000
  H   H2876     1.0  0.70302  0.70790  0.38640  1.0000
  Fe  Fe182     1.0  0.93946  0.55055  0.31363  1.0000
  H   H2877     1.0  0.51413  0.72269  0.43322  1.0000
  C   C1625     1.0  0.46840  0.51472  0.40363  1.0000
  H   H2878     1.0  0.66384  0.81743  0.44202  1.0000
  H   H2879     1.0  0.58652  0.52057  0.43047  1.0000
  H   H2880     1.0  0.48319  0.88573  0.44591  1.0000
  C   C1626     1.0  0.56221  0.72615  0.44507  1.0000
  H   H2881     1.0  0.55498  0.52961  0.42659  1.0000
  Fe  Fe183     1.0  0.94015  0.50118  0.29619  1.0000
  H   H2882     1.0  0.49372  0.76548  0.41010  1.0000
  C   C1627     1.0  0.49393  0.90261  0.45327  1.0000
  H   H2883     1.0  0.52658  0.90794  0.37736  1.0000
  H   H2884     1.0  0.55521  0.91016  0.31429  1.0000
  H   H2885     1.0  0.64136  0.82564  0.43090  1.0000
  H   H2886     1.0  0.59405  0.76226  0.42660  1.0000
  H   H2887     1.0  0.62432  0.52888  0.37727  1.0000
  H   H2888     1.0  0.57882  0.73358  0.45258  1.0000
  C   C1628     1.0  0.81506  0.52881  0.30524  1.0000
  H   H2889     1.0  0.53024  0.49607  0.35805  1.0000
  H   H2890     1.0  0.51505  0.64414  0.36815  1.0000
  H   H2891     1.0  0.63500  0.78718  0.36448  1.0000
  H   H2892     1.0  0.58409  0.54272  0.37278  1.0000
  H   H2893     1.0  0.59482  0.93191  0.31811  1.0000
  H   H2894     1.0  0.61193  0.53205  0.35652  1.0000
  H   H2895     1.0  0.50215  0.48668  0.42594  1.0000
  C   C1629     1.0  0.59715  0.50728  0.35640  1.0000
  H   H2896     1.0  0.64240  0.71339  0.38498  1.0000
  H   H2897     1.0  0.53655  0.95725  0.37001  1.0000
  H   H2898     1.0  0.52140  0.95300  0.34755  1.0000
  C   C1630     1.0  0.56725  0.51874  0.37135  1.0000
  S   S364      1.0  0.92019  0.57176  0.29973  1.0000
  C   C1631     1.0  0.69906  0.89268  0.43661  1.0000
  H   H2899     1.0  0.53792  0.49478  0.32786  1.0000
  H   H2900     1.0  0.64079  0.53077  0.39796  1.0000
  H   H2901     1.0  0.62035  0.50033  0.40769  1.0000
  H   H2902     1.0  0.63796  0.48440  0.33585  1.0000
  H   H2903     1.0  0.53647  0.63113  0.37809  1.0000
  C   C1632     1.0  0.53512  0.74049  0.42967  1.0000
  H   H2904     1.0  0.67509  0.69787  0.39786  1.0000
  H   H2905     1.0  0.50905  0.51722  0.37442  1.0000
  H   H2906     1.0  0.54517  0.77910  0.41784  1.0000
  C   C1633     1.0  0.46514  0.89805  0.38263  1.0000
  C   C1634     1.0  0.48393  0.49727  0.39989  1.0000
  C   C1635     1.0  0.56845  0.95929  0.31637  1.0000
  C   C1636     1.0  0.48728  0.86985  0.41421  1.0000
  H   H2907     1.0  0.58515  0.79352  0.42981  1.0000
  C   C1637     1.0  0.49921  0.74813  0.41475  1.0000
  C   C1638     1.0  0.89897  0.56339  0.45488  1.0000
  H   H2908     1.0  0.58305  0.66624  0.43754  1.0000
  C   C1639     1.0  0.47005  0.90911  0.46009  1.0000
  H   H2909     1.0  0.46826  0.92426  0.36342  1.0000
  H   H2910     1.0  0.48325  0.92154  0.38257  1.0000
  H   H2911     1.0  0.54968  0.95864  0.31050  1.0000
  H   H2912     1.0  0.52012  0.77859  0.42949  1.0000
  H   H2913     1.0  0.47134  0.94624  0.44974  1.0000
  H   H2914     1.0  0.67472  0.88185  0.43876  1.0000
  H   H2915     1.0  0.94118  0.55911  0.35924  1.0000
  H   H2916     1.0  0.54035  0.71119  0.44900  1.0000
  H   H2917     1.0  0.51083  0.92389  0.44958  1.0000
  H   H2918     1.0  0.47905  0.73346  0.41968  1.0000
  C   C1640     1.0  0.60203  0.57438  0.45707  1.0000
  C   C1641     1.0  0.51186  0.88629  0.38145  1.0000
  H   H2919     1.0  0.53460  0.55535  0.37058  1.0000
  H   H2920     1.0  0.59508  0.69104  0.45052  1.0000
  H   H2921     1.0  0.89204  0.57947  0.45000  1.0000
  H   H2922     1.0  0.70455  0.87610  0.43121  1.0000
  H   H2923     1.0  0.50504  0.95257  0.32683  1.0000
  H   H2924     1.0  0.61233  0.80478  0.44881  1.0000
  C   C1642     1.0  0.57663  0.68078  0.44373  1.0000
  H   H2925     1.0  0.51418  0.88940  0.39122  1.0000
  H   H2926     1.0  0.58065  0.93276  0.30334  1.0000
  H   H2927     1.0  0.55494  0.79430  0.44554  1.0000
  S   S365      1.0  0.66196  0.95695  0.32538  1.0000
  H   H2928     1.0  0.94808  0.49805  0.34163  1.0000
  H   H2929     1.0  0.56963  0.95293  0.35359  1.0000
  H   H2930     1.0  0.57628  0.97247  0.37388  1.0000
  H   H2931     1.0  0.67500  0.97278  0.39573  1.0000
  C   C1643     1.0  0.56662  0.97445  0.35517  1.0000
  Fe  Fe184     1.0  0.62576  0.60919  0.61775  1.0000
  H   H2932     1.0  0.66326  0.88786  0.60153  1.0000
  S   S366      1.0  0.63908  0.58191  0.60370  1.0000
  H   H2933     1.0  0.84737  0.50047  0.47636  1.0000
  H   H2934     1.0  0.51602  0.96158  0.58773  1.0000
  H   H2935     1.0  0.73522  0.50739  0.56389  1.0000
  Fe  Fe185     1.0  0.61799  0.91420  0.61708  1.0000
  S   S367      1.0  0.56898  0.88180  0.61714  1.0000
  C   C1644     1.0  0.47800  0.64934  0.58875  1.0000
  H   H2936     1.0  0.56388  0.81758  0.46568  1.0000
  H   H2937     1.0  0.49502  0.66706  0.58349  1.0000
  H   H2938     1.0  0.54939  0.94451  0.54439  1.0000
  S   S368      1.0  0.64630  0.93776  0.60112  1.0000
  H   H2939     1.0  0.69558  0.88136  0.62343  1.0000
  S   S369      1.0  0.93051  0.52958  0.50529  1.0000
  C   C1645     1.0  0.46345  0.96975  0.56252  1.0000
  C   C1646     1.0  0.78048  0.57176  0.48229  1.0000
  S   S370      1.0  0.93816  0.52084  0.53401  1.0000
  H   H2940     1.0  0.54800  0.57073  0.50791  1.0000
  C   C1647     1.0  0.55124  0.79412  0.46887  1.0000
  H   H2941     1.0  0.91218  0.59066  0.47081  1.0000
  Fe  Fe186     1.0  0.91301  0.54129  0.52232  1.0000
  S   S371      1.0  0.86155  0.52367  0.52462  1.0000
  C   C1648     1.0  0.50084  0.94112  0.59250  1.0000
  Fe  Fe187     1.0  0.66021  0.56600  0.53308  1.0000
  S   S372      1.0  0.68115  0.53246  0.53518  1.0000
  S   S373      1.0  0.65764  0.59855  0.54776  1.0000
  Fe  Fe188     1.0  0.64536  0.54860  0.50607  1.0000
  S   S374      1.0  0.66574  0.51380  0.50667  1.0000
  S   S375      1.0  0.61463  0.55267  0.49102  1.0000
  Fe  Fe189     1.0  0.64172  0.50042  0.52396  1.0000
  H   H2942     1.0  0.65752  0.90757  0.47240  1.0000
  Fe  Fe190     1.0  0.70372  0.54906  0.51788  1.0000
  S   S376      1.0  0.75536  0.56886  0.51569  1.0000
  S   S377      1.0  0.61962  0.53315  0.52289  1.0000
  S   S378      1.0  0.68440  0.58464  0.51620  1.0000
  H   H2943     1.0  0.56552  0.49591  0.48234  1.0000
  H   H2944     1.0  0.62601  0.79872  0.58628  1.0000
  C   C1649     1.0  0.51639  0.60640  0.59810  1.0000
  H   H2945     1.0  0.84773  0.54083  0.46674  1.0000
  H   H2946     1.0  0.68337  0.90976  0.58484  1.0000
  H   H2947     1.0  0.55139  0.69804  0.58781  1.0000
  C   C1650     1.0  0.59757  0.56473  0.46891  1.0000
  C   C1651     1.0  0.62168  0.56474  0.47608  1.0000
  C   C1652     1.0  0.65032  0.57434  0.47118  1.0000
  H   H2948     1.0  0.57536  0.55756  0.47260  1.0000
  H   H2949     1.0  0.66912  0.57457  0.47653  1.0000
  C   C1653     1.0  0.83257  0.53733  0.52269  1.0000
  C   C1654     1.0  0.80217  0.51681  0.52377  1.0000
  C   C1655     1.0  0.77829  0.52610  0.52191  1.0000
  C   C1656     1.0  0.78448  0.55610  0.51885  1.0000
  C   C1657     1.0  0.81490  0.57677  0.51793  1.0000
  C   C1658     1.0  0.83880  0.56753  0.51990  1.0000
  H   H2950     1.0  0.62602  0.81575  0.62253  1.0000
  H   H2951     1.0  0.75509  0.50990  0.52266  1.0000
  H   H2952     1.0  0.82002  0.60010  0.51564  1.0000
  H   H2953     1.0  0.86201  0.58373  0.51926  1.0000
  H   H2954     1.0  0.52273  0.71126  0.59210  1.0000
  H   H2955     1.0  0.68489  0.76705  0.58674  1.0000
  H   H2956     1.0  0.50670  0.92170  0.60956  1.0000
  H   H2957     1.0  0.62138  0.87123  0.58843  1.0000
  H   H2958     1.0  0.69733  0.93044  0.56499  1.0000
  C   C1659     1.0  0.60981  0.92796  0.58067  1.0000
  C   C1660     1.0  0.60521  0.93207  0.56855  1.0000
  C   C1661     1.0  0.64648  0.81425  0.59145  1.0000
  H   H2959     1.0  0.70801  0.50478  0.55232  1.0000
  C   C1662     1.0  0.84950  0.47995  0.49284  1.0000
  H   H2960     1.0  0.59135  0.91282  0.58581  1.0000
  H   H2961     1.0  0.58304  0.92005  0.56448  1.0000
  C   C1663     1.0  0.51367  0.52427  0.50551  1.0000
  H   H2962     1.0  0.49137  0.59749  0.59786  1.0000
  H   H2963     1.0  0.82218  0.59035  0.47315  1.0000
  H   H2964     1.0  0.55131  0.51098  0.52364  1.0000
  C   C1664     1.0  0.65064  0.59240  0.56317  1.0000
  C   C1665     1.0  0.65173  0.56714  0.56880  1.0000
  C   C1666     1.0  0.64790  0.56424  0.58117  1.0000
  C   C1667     1.0  0.64254  0.58625  0.58806  1.0000
  C   C1668     1.0  0.64099  0.61125  0.58239  1.0000
  C   C1669     1.0  0.64526  0.61439  0.57005  1.0000
  H   H2965     1.0  0.65592  0.55007  0.56367  1.0000
  H   H2966     1.0  0.64921  0.54484  0.58544  1.0000
  H   H2967     1.0  0.63710  0.62849  0.58754  1.0000
  H   H2968     1.0  0.64458  0.63412  0.56582  1.0000
  C   C1670     1.0  0.84247  0.50320  0.48577  1.0000
  H   H2969     1.0  0.53831  0.51655  0.49109  1.0000
  C   C1671     1.0  0.69487  0.90688  0.56677  1.0000
  C   C1672     1.0  0.47154  0.95987  0.60599  1.0000
  C   C1673     1.0  0.63013  0.77256  0.62287  1.0000
  C   C1674     1.0  0.62899  0.95157  0.56166  1.0000
  C   C1675     1.0  0.86365  0.56207  0.47139  1.0000
  C   C1676     1.0  0.66454  0.86528  0.60160  1.0000
  C   C1677     1.0  0.53113  0.64178  0.59785  1.0000
  H   H2970     1.0  0.91288  0.63723  0.50639  1.0000
  C   C1678     1.0  0.56804  0.74158  0.59681  1.0000
  H   H2971     1.0  0.51890  0.59801  0.57917  1.0000
  H   H2972     1.0  0.94767  0.49847  0.57114  1.0000
  H   H2973     1.0  0.53080  0.64845  0.58853  1.0000
  C   C1679     1.0  0.52562  0.55848  0.50337  1.0000
  H   H2974     1.0  0.85962  0.58070  0.46707  1.0000
  C   C1680     1.0  0.89629  0.56707  0.46824  1.0000
  H   H2975     1.0  0.82478  0.60151  0.48855  1.0000
  H   H2976     1.0  0.52663  0.78854  0.46840  1.0000
  H   H2977     1.0  0.79703  0.49342  0.52598  1.0000
  H   H2978     1.0  0.77461  0.59138  0.48048  1.0000
  H   H2979     1.0  0.90937  0.48114  0.47208  1.0000
  Fe  Fe191     1.0  0.61975  0.66751  0.62660  1.0000
  H   H2980     1.0  0.46904  0.63261  0.60631  1.0000
  H   H2981     1.0  0.65178  0.89530  0.57440  1.0000
  H   H2982     1.0  0.51097  0.52122  0.51519  1.0000
  C   C1681     1.0  0.66681  0.77308  0.59037  1.0000
  C   C1682     1.0  0.63382  0.96481  0.47040  1.0000
  N   N91       1.0  0.47055  0.94252  0.59455  1.0000
  H   H2983     1.0  0.76916  0.55362  0.47542  1.0000
  C   C1683     1.0  0.64712  0.94668  0.47541  1.0000
  H   H2984     1.0  0.55559  0.64907  0.60006  1.0000
  C   C1684     1.0  0.64738  0.92182  0.46862  1.0000
  C   C1685     1.0  0.51693  0.64593  0.61827  1.0000
  H   H2985     1.0  0.56116  0.75415  0.60372  1.0000
  C   C1686     1.0  0.73242  0.51197  0.55444  1.0000
  C   C1687     1.0  0.53567  0.51099  0.50063  1.0000
  H   H2986     1.0  0.52780  0.96214  0.60867  1.0000
  C   C1688     1.0  0.61587  0.74134  0.62526  1.0000
  H   H2987     1.0  0.48198  0.92516  0.46753  1.0000
  C   C1689     1.0  0.70936  0.89157  0.61561  1.0000
  H   H2988     1.0  0.71281  0.88112  0.59734  1.0000
  C   C1690     1.0  0.63845  0.94308  0.58605  1.0000
  H   H2989     1.0  0.48090  0.67261  0.60575  1.0000
  H   H2990     1.0  0.90323  0.58229  0.50403  1.0000
  C   C1691     1.0  0.69747  0.87044  0.60468  1.0000
  H   H2991     1.0  0.65119  0.85386  0.60933  1.0000
  H   H2992     1.0  0.55846  0.52446  0.50472  1.0000
  N   N92       1.0  0.51769  0.65809  0.60596  1.0000
  H   H2993     1.0  0.57120  0.75404  0.58842  1.0000
  H   H2994     1.0  0.70877  0.91411  0.61403  1.0000
  H   H2995     1.0  0.56467  0.85055  0.59232  1.0000
  H   H2996     1.0  0.56175  0.95291  0.59384  1.0000
  H   H2997     1.0  0.64468  0.75646  0.58672  1.0000
  H   H2998     1.0  0.49794  0.92118  0.58660  1.0000
  H   H2999     1.0  0.81796  0.49723  0.48659  1.0000
  C   C1692     1.0  0.54332  0.48595  0.52434  1.0000
  H   H3000     1.0  0.48686  0.94491  0.57025  1.0000
  S   S379      1.0  0.62142  0.95677  0.54652  1.0000
  H   H3001     1.0  0.69463  0.82112  0.59071  1.0000
  S   S380      1.0  0.59098  0.62803  0.61456  1.0000
  C   C1693     1.0  0.53652  0.94801  0.55192  1.0000
  H   H3002     1.0  0.49111  0.51315  0.50107  1.0000
  H   H3003     1.0  0.54139  0.91229  0.59583  1.0000
  C   C1694     1.0  0.52640  0.59210  0.58773  1.0000
  H   H3004     1.0  0.50341  0.47920  0.61271  1.0000
  H   H3005     1.0  0.48311  0.66080  0.62585  1.0000
  H   H3006     1.0  0.51314  0.48557  0.53851  1.0000
  H   H3007     1.0  0.65302  0.78183  0.61977  1.0000
  H   H3008     1.0  0.50968  0.56767  0.50694  1.0000
  N   N93       1.0  0.65064  0.84717  0.59037  1.0000
  S   S381      1.0  0.63437  0.71726  0.62163  1.0000
  H   H3009     1.0  0.58304  0.77710  0.46252  1.0000
  C   C1695     1.0  0.61977  0.84744  0.58858  1.0000
  H   H3010     1.0  0.55141  0.60011  0.58792  1.0000
  H   H3011     1.0  0.52801  0.56292  0.49374  1.0000
  C   C1696     1.0  0.54378  0.70916  0.59497  1.0000
  C   C1697     1.0  0.59638  0.83163  0.59822  1.0000
  H   H3012     1.0  0.53978  0.64766  0.62106  1.0000
  C   C1698     1.0  0.66886  0.86110  0.57963  1.0000
  H   H3013     1.0  0.53005  0.70427  0.61282  1.0000
  H   H3014     1.0  0.58997  0.74114  0.59958  1.0000
  C   C1699     1.0  0.56474  0.82802  0.59434  1.0000
  C   C1700     1.0  0.48596  0.65339  0.60223  1.0000
  H   H3015     1.0  0.47764  0.94933  0.61368  1.0000
  H   H3016     1.0  0.57372  0.48509  0.50392  1.0000
  N   N94       1.0  0.52659  0.47728  0.50217  1.0000
  H   H3017     1.0  0.60985  0.83672  0.57980  1.0000
  H   H3018     1.0  0.68570  0.89263  0.55859  1.0000
  H   H3019     1.0  0.84395  0.48106  0.50231  1.0000
  C   C1701     1.0  0.67224  0.80559  0.58703  1.0000
  H   H3020     1.0  0.96066  0.55304  0.47649  1.0000
  C   C1702     1.0  0.66229  0.96220  0.57911  1.0000
  H   H3021     1.0  0.56207  0.93699  0.60807  1.0000
  H   H3022     1.0  0.69169  0.86103  0.58026  1.0000
  H   H3023     1.0  0.60252  0.84554  0.60657  1.0000
  H   H3024     1.0  0.59506  0.80866  0.60023  1.0000
  H   H3025     1.0  0.94704  0.63180  0.50391  1.0000
  H   H3026     1.0  0.94825  0.48408  0.48702  1.0000
  H   H3027     1.0  0.57531  0.96897  0.56338  1.0000
  H   H3028     1.0  0.52783  0.92685  0.55708  1.0000
  H   H3029     1.0  0.54638  0.74825  0.46530  1.0000
  H   H3030     1.0  0.56115  0.69428  0.61019  1.0000
  C   C1703     1.0  0.67352  0.89432  0.57703  1.0000
  H   H3031     1.0  0.74095  0.49802  0.54885  1.0000
  C   C1704     1.0  0.54791  0.93527  0.60003  1.0000
  C   C1705     1.0  0.53857  0.69153  0.60661  1.0000
  H   H3032     1.0  0.87375  0.48435  0.49228  1.0000
  H   H3033     1.0  0.54881  0.81794  0.60161  1.0000
  H   H3034     1.0  0.66719  0.77110  0.60015  1.0000
  H   H3035     1.0  0.55673  0.81263  0.58639  1.0000
  H   H3036     1.0  0.67315  0.80654  0.57721  1.0000
  H   H3037     1.0  0.77172  0.56294  0.49110  1.0000
  H   H3038     1.0  0.90352  0.55059  0.47260  1.0000
  H   H3039     1.0  0.71759  0.90767  0.56899  1.0000
  H   H3040     1.0  0.54267  0.51172  0.59904  1.0000
  H   H3041     1.0  0.65788  0.84688  0.57157  1.0000
  C   C1706     1.0  0.82375  0.55546  0.48544  1.0000
  H   H3042     1.0  0.92042  0.58919  0.48987  1.0000
  H   H3043     1.0  0.80940  0.53550  0.47972  1.0000
  H   H3044     1.0  0.64211  0.80709  0.60080  1.0000
  N   N95       1.0  0.75349  0.59999  0.55747  1.0000
  C   C1707     1.0  0.74795  0.60628  0.54482  1.0000
  C   C1708     1.0  0.73846  0.56606  0.55934  1.0000
  C   C1709     1.0  0.73811  0.61503  0.56528  1.0000
  C   C1710     1.0  0.78674  0.61241  0.56090  1.0000
  C   C1711     1.0  0.80901  0.61349  0.55093  1.0000
  C   C1712     1.0  0.75781  0.64049  0.54200  1.0000
  C   C1713     1.0  0.73689  0.60777  0.57864  1.0000
  C   C1714     1.0  0.75024  0.54575  0.55199  1.0000
  S   S382      1.0  0.66549  0.95518  0.48971  1.0000
  C   C1715     1.0  0.84027  0.61914  0.55605  1.0000
  C   C1716     1.0  0.76342  0.64622  0.52882  1.0000
  C   C1717     1.0  0.72785  0.62966  0.58599  1.0000
  H   H3045     1.0  0.72342  0.59470  0.54242  1.0000
  H   H3046     1.0  0.75893  0.59625  0.53855  1.0000
  H   H3047     1.0  0.74130  0.56091  0.56872  1.0000
  H   H3048     1.0  0.71362  0.55770  0.55766  1.0000
  H   H3049     1.0  0.71436  0.60863  0.56210  1.0000
  H   H3050     1.0  0.74934  0.64028  0.56468  1.0000
  H   H3051     1.0  0.79480  0.63623  0.56454  1.0000
  H   H3052     1.0  0.79038  0.59926  0.56833  1.0000
  H   H3053     1.0  0.81183  0.63231  0.54487  1.0000
  H   H3054     1.0  0.80118  0.59229  0.54541  1.0000
  H   H3055     1.0  0.73964  0.64783  0.54456  1.0000
  H   H3056     1.0  0.77868  0.65524  0.54702  1.0000
  H   H3057     1.0  0.75907  0.60941  0.58209  1.0000
  H   H3058     1.0  0.71958  0.58437  0.58005  1.0000
  H   H3059     1.0  0.74837  0.54868  0.54235  1.0000
  H   H3060     1.0  0.77408  0.55106  0.55452  1.0000
  H   H3061     1.0  0.81628  0.54927  0.49469  1.0000
  C   C1718     1.0  0.61492  0.79185  0.62442  1.0000
  H   H3062     1.0  0.69855  0.84848  0.60684  1.0000
  H   H3063     1.0  0.83899  0.60009  0.56176  1.0000
  H   H3064     1.0  0.85576  0.62053  0.54871  1.0000
  H   H3065     1.0  0.84978  0.64092  0.56131  1.0000
  H   H3066     1.0  0.74273  0.63254  0.52349  1.0000
  H   H3067     1.0  0.76970  0.67071  0.52711  1.0000
  H   H3068     1.0  0.78207  0.64006  0.52593  1.0000
  H   H3069     1.0  0.74561  0.65325  0.58578  1.0000
  H   H3070     1.0  0.70620  0.62951  0.58255  1.0000
  H   H3071     1.0  0.72472  0.62244  0.59534  1.0000
  N   N96       1.0  0.85679  0.56147  0.48439  1.0000
  C   C1719     1.0  0.86164  0.53610  0.49052  1.0000
  C   C1720     1.0  0.87555  0.59187  0.49050  1.0000
  C   C1721     1.0  0.81475  0.58201  0.48212  1.0000
  C   C1722     1.0  0.90670  0.59622  0.49600  1.0000
  H   H3072     1.0  0.73309  0.89518  0.61764  1.0000
  H   H3073     1.0  0.85695  0.53690  0.50010  1.0000
  H   H3074     1.0  0.88552  0.53921  0.49021  1.0000
  H   H3075     1.0  0.87904  0.61085  0.48437  1.0000
  H   H3076     1.0  0.86321  0.59594  0.49812  1.0000
  C   C1723     1.0  0.51983  0.94013  0.60357  1.0000
  Fe  Fe192     1.0  0.95822  0.51325  0.51711  1.0000
  S   S383      1.0  0.94984  0.58911  0.52401  1.0000
  C   C1724     1.0  0.55853  0.77107  0.46147  1.0000
  H   H3077     1.0  0.51629  0.56689  0.58842  1.0000
  C   C1725     1.0  0.65764  0.96640  0.56702  1.0000
  H   H3078     1.0  0.95828  0.53441  0.62592  1.0000
  H   H3079     1.0  0.50169  0.62128  0.61833  1.0000
  H   H3080     1.0  0.56287  0.47973  0.52341  1.0000
  H   H3081     1.0  0.68464  0.97371  0.58311  1.0000
  H   H3082     1.0  0.55799  0.79359  0.47828  1.0000
  C   C1726     1.0  0.54723  0.49621  0.60518  1.0000
  C   C1727     1.0  0.92521  0.62948  0.49979  1.0000
  H   H3083     1.0  0.51699  0.95213  0.54842  1.0000
  H   H3084     1.0  0.52345  0.59857  0.60634  1.0000
  H   H3085     1.0  0.47023  0.48687  0.60181  1.0000
  H   H3086     1.0  0.55822  0.50957  0.61338  1.0000
  H   H3087     1.0  0.55011  0.48926  0.54342  1.0000
  H   H3088     1.0  0.47657  0.62689  0.58541  1.0000
  H   H3089     1.0  0.60896  0.48397  0.48865  1.0000
  H   H3090     1.0  0.93023  0.64433  0.49200  1.0000
  C   C1728     1.0  0.53143  0.47780  0.53682  1.0000
  H   H3091     1.0  0.56316  0.48781  0.60103  1.0000
  H   H3092     1.0  0.46546  0.88256  0.60263  1.0000
  C   C1729     1.0  0.46444  0.95994  0.58455  1.0000
  C   C1730     1.0  0.46565  0.94784  0.57177  1.0000
  H   H3093     1.0  0.46359  0.96029  0.55347  1.0000
  Fe  Fe193     1.0  0.75272  0.92932  0.73653  1.0000
  S   S384      1.0  0.70338  0.91883  0.73723  1.0000
  S   S385      1.0  0.76474  0.89205  0.72854  1.0000
  Fe  Fe194     1.0  0.71433  0.96238  0.72780  1.0000
  H   H3094     1.0  0.91698  0.59995  0.75133  1.0000
  H   H3095     1.0  0.96172  0.74361  0.70348  1.0000
  S   S386      1.0  0.60315  0.58385  0.63398  1.0000
  H   H3096     1.0  0.71561  0.94023  0.69789  1.0000
  H   H3097     1.0  0.62482  0.54787  0.67148  1.0000
  Fe  Fe195     1.0  0.74385  0.73045  0.75081  1.0000
  S   S387      1.0  0.69510  0.70001  0.74765  1.0000
  S   S388      1.0  0.75523  0.77802  0.75841  1.0000
  Fe  Fe196     1.0  0.76438  0.67955  0.74549  1.0000
  S   S389      1.0  0.71593  0.64518  0.74207  1.0000
  S   S390      1.0  0.80225  0.66240  0.74341  1.0000
  Fe  Fe197     1.0  0.70995  0.68183  0.73149  1.0000
  S   S391      1.0  0.68006  0.67882  0.71490  1.0000
  Fe  Fe198     1.0  0.70448  0.66594  0.75848  1.0000
  S   S392      1.0  0.66761  0.63867  0.77152  1.0000
  S   S393      1.0  0.75879  0.71516  0.73404  1.0000
  S   S394      1.0  0.75292  0.69742  0.76254  1.0000
  Fe  Fe199     1.0  0.63094  0.62661  0.64483  1.0000
  S   S395      1.0  0.59601  0.64627  0.64317  1.0000
  S   S396      1.0  0.65648  0.62264  0.66170  1.0000
  H   H3098     1.0  0.88822  0.69112  0.71578  1.0000
  H   H3099     1.0  0.89525  0.56973  0.76105  1.0000
  C   C1731     1.0  0.56196  0.60178  0.66973  1.0000
  Fe  Fe200     1.0  0.62600  0.90985  0.64449  1.0000
  S   S397      1.0  0.57714  0.87748  0.64622  1.0000
  S   S398      1.0  0.66388  0.92089  0.65873  1.0000
  H   H3100     1.0  0.88464  0.74285  0.72689  1.0000
  H   H3101     1.0  0.60403  0.53270  0.68861  1.0000
  H   H3102     1.0  0.63248  0.77285  0.76653  1.0000
  H   H3103     1.0  0.84159  0.62294  0.76928  1.0000
  N   N97       1.0  0.93119  0.69786  0.70797  1.0000
  C   C1732     1.0  0.50255  0.64446  0.63987  1.0000
  H   H3104     1.0  0.60495  0.58630  0.68185  1.0000
  H   H3105     1.0  0.87785  0.60643  0.77179  1.0000
  H   H3106     1.0  0.92014  0.71214  0.72478  1.0000
  C   C1733     1.0  0.82339  0.65118  0.77811  1.0000
  S   S399      1.0  0.76438  0.95444  0.75425  1.0000
  C   C1734     1.0  0.69217  0.93153  0.68080  1.0000
  C   C1735     1.0  0.67336  0.66214  0.70025  1.0000
  C   C1736     1.0  0.65206  0.66662  0.69275  1.0000
  C   C1737     1.0  0.64662  0.65490  0.68096  1.0000
  C   C1738     1.0  0.66231  0.63828  0.67649  1.0000
  C   C1739     1.0  0.68331  0.63346  0.68403  1.0000
  C   C1740     1.0  0.68897  0.64545  0.69579  1.0000
  H   H3107     1.0  0.63978  0.67944  0.69608  1.0000
  H   H3108     1.0  0.63037  0.65881  0.67532  1.0000
  H   H3109     1.0  0.69554  0.62058  0.68072  1.0000
  H   H3110     1.0  0.70541  0.64175  0.70139  1.0000
  H   H3111     1.0  0.92905  0.71006  0.68965  1.0000
  H   H3112     1.0  0.55733  0.50450  0.67974  1.0000
  H   H3113     1.0  0.62502  0.55407  0.70847  1.0000
  H   H3114     1.0  0.53066  0.60594  0.65651  1.0000
  C   C1741     1.0  0.93902  0.70819  0.78393  1.0000
  S   S400      1.0  0.68048  0.91889  0.76856  1.0000
  C   C1742     1.0  0.90653  0.70730  0.74807  1.0000
  C   C1743     1.0  0.88931  0.72417  0.75059  1.0000
  C   C1744     1.0  0.85747  0.71089  0.74927  1.0000
  C   C1745     1.0  0.84237  0.68046  0.74538  1.0000
  C   C1746     1.0  0.85962  0.66348  0.74299  1.0000
  C   C1747     1.0  0.89144  0.67677  0.74431  1.0000
  H   H3115     1.0  0.90067  0.74783  0.75348  1.0000
  H   H3116     1.0  0.84461  0.72426  0.75119  1.0000
  H   H3117     1.0  0.84822  0.63990  0.74001  1.0000
  H   H3118     1.0  0.90432  0.66352  0.74230  1.0000
  C   C1748     1.0  0.76170  0.86039  0.73695  1.0000
  C   C1749     1.0  0.75628  0.83251  0.73110  1.0000
  C   C1750     1.0  0.75382  0.80680  0.73752  1.0000
  C   C1751     1.0  0.75760  0.80919  0.74985  1.0000
  C   C1752     1.0  0.76353  0.83720  0.75566  1.0000
  C   C1753     1.0  0.76514  0.86264  0.74927  1.0000
  H   H3119     1.0  0.75407  0.83100  0.72157  1.0000
  H   H3120     1.0  0.74963  0.78537  0.73297  1.0000
  H   H3121     1.0  0.76727  0.83927  0.76516  1.0000
  H   H3122     1.0  0.76977  0.88415  0.75384  1.0000
  C   C1754     1.0  0.67886  0.95445  0.69805  1.0000
  C   C1755     1.0  0.69725  0.94178  0.69278  1.0000
  C   C1756     1.0  0.54569  0.56650  0.67046  1.0000
  C   C1757     1.0  0.66837  0.93326  0.67394  1.0000
  C   C1758     1.0  0.64981  0.94566  0.67925  1.0000
  C   C1759     1.0  0.69267  0.95003  0.79059  1.0000
  C   C1760     1.0  0.88348  0.74318  0.71707  1.0000
  H   H3123     1.0  0.59400  0.81407  0.74441  1.0000
  H   H3124     1.0  0.63156  0.94736  0.67412  1.0000
  H   H3125     1.0  0.53038  0.51816  0.68446  1.0000
  C   C1761     1.0  0.67463  0.92389  0.78391  1.0000
  C   C1762     1.0  0.58672  0.72987  0.62972  1.0000
  Fe  Fe201     1.0  0.71480  0.94557  0.75458  1.0000
  N   N98       1.0  0.72184  0.76996  0.69665  1.0000
  C   C1763     1.0  0.71086  0.74149  0.68882  1.0000
  C   C1764     1.0  0.70420  0.76282  0.70792  1.0000
  C   C1765     1.0  0.71738  0.79488  0.69006  1.0000
  C   C1766     1.0  0.75495  0.78045  0.69988  1.0000
  C   C1767     1.0  0.76455  0.75576  0.70490  1.0000
  C   C1768     1.0  0.72810  0.74373  0.67716  1.0000
  C   C1769     1.0  0.72564  0.82539  0.69712  1.0000
  C   C1770     1.0  0.67031  0.75692  0.70674  1.0000
  C   C1771     1.0  0.65471  0.74766  0.71857  1.0000
  C   C1772     1.0  0.79756  0.76970  0.70921  1.0000
  C   C1773     1.0  0.71697  0.71281  0.67062  1.0000
  C   C1774     1.0  0.71760  0.84789  0.68997  1.0000
  H   H3126     1.0  0.68678  0.73460  0.68612  1.0000
  H   H3127     1.0  0.71121  0.72190  0.69383  1.0000
  H   H3128     1.0  0.70496  0.74223  0.71194  1.0000
  H   H3129     1.0  0.71484  0.78125  0.71476  1.0000
  H   H3130     1.0  0.69368  0.78681  0.68658  1.0000
  H   H3131     1.0  0.73159  0.80082  0.68208  1.0000
  H   H3132     1.0  0.76924  0.79063  0.69216  1.0000
  H   H3133     1.0  0.76183  0.79924  0.70669  1.0000
  H   H3134     1.0  0.76204  0.73793  0.69806  1.0000
  H   H3135     1.0  0.75067  0.74450  0.71251  1.0000
  H   H3136     1.0  0.72438  0.75984  0.67109  1.0000
  H   H3137     1.0  0.75272  0.75146  0.67883  1.0000
  H   H3138     1.0  0.75029  0.83632  0.69917  1.0000
  H   H3139     1.0  0.71354  0.82194  0.70556  1.0000
  H   H3140     1.0  0.66762  0.77773  0.70396  1.0000
  H   H3141     1.0  0.65816  0.73825  0.70020  1.0000
  H   H3142     1.0  0.66632  0.76530  0.72556  1.0000
  H   H3143     1.0  0.63085  0.74481  0.71768  1.0000
  H   H3144     1.0  0.65487  0.72562  0.72133  1.0000
  H   H3145     1.0  0.80394  0.75145  0.71253  1.0000
  H   H3146     1.0  0.81266  0.78112  0.70187  1.0000
  H   H3147     1.0  0.80086  0.78650  0.71659  1.0000
  H   H3148     1.0  0.72079  0.69581  0.67617  1.0000
  H   H3149     1.0  0.69251  0.70445  0.66828  1.0000
  H   H3150     1.0  0.72947  0.71494  0.66229  1.0000
  H   H3151     1.0  0.69279  0.83893  0.68829  1.0000
  H   H3152     1.0  0.72490  0.86995  0.69499  1.0000
  H   H3153     1.0  0.72925  0.85227  0.68137  1.0000
  H   H3154     1.0  0.70677  0.92214  0.67680  1.0000
  H   H3155     1.0  0.63171  0.84823  0.75916  1.0000
  C   C1775     1.0  0.61904  0.56811  0.70207  1.0000
  C   C1776     1.0  0.51303  0.52078  0.63566  1.0000
  N   N99       1.0  0.65604  0.82374  0.75141  1.0000
  C   C1777     1.0  0.96242  0.72347  0.70796  1.0000
  C   C1778     1.0  0.68550  0.84504  0.75740  1.0000
  C   C1779     1.0  0.65433  0.83556  0.73923  1.0000
  C   C1780     1.0  0.68670  0.84711  0.77116  1.0000
  Fe  Fe202     1.0  0.56629  0.90770  0.63359  1.0000
  N   N100      1.0  0.56529  0.55000  0.67389  1.0000
  H   H3156     1.0  0.72869  0.74518  0.78077  1.0000
  C   C1781     1.0  0.57116  0.74898  0.63091  1.0000
  H   H3157     1.0  0.70439  0.83926  0.75447  1.0000
  H   H3158     1.0  0.69147  0.86893  0.75463  1.0000
  H   H3159     1.0  0.65174  0.85758  0.74001  1.0000
  H   H3160     1.0  0.70247  0.85865  0.73520  1.0000
  C   C1782     1.0  0.49589  0.48945  0.63732  1.0000
  C   C1783     1.0  0.84656  0.63710  0.77759  1.0000
  H   H3161     1.0  0.88057  0.67932  0.78455  1.0000
  H   H3162     1.0  0.94389  0.67791  0.72298  1.0000
  C   C1784     1.0  0.91728  0.58937  0.75996  1.0000
  H   H3163     1.0  0.57128  0.61269  0.67849  1.0000
  H   H3164     1.0  0.69577  0.70978  0.77948  1.0000
  H   H3165     1.0  0.66912  0.87026  0.71963  1.0000
  H   H3166     1.0  0.82596  0.66638  0.77053  1.0000
  H   H3167     1.0  0.72650  0.89039  0.77188  1.0000
  H   H3168     1.0  0.80017  0.63286  0.77759  1.0000
  H   H3169     1.0  0.93540  0.58077  0.75983  1.0000
  S   S401      1.0  0.68520  0.96939  0.71293  1.0000
  H   H3170     1.0  0.52119  0.61014  0.67169  1.0000
  H   H3171     1.0  0.57191  0.57610  0.69040  1.0000
  S   S402      1.0  0.94675  0.72572  0.74927  1.0000
  C   C1785     1.0  0.49107  0.90591  0.63585  1.0000
  C   C1786     1.0  0.46681  0.52730  0.63192  1.0000
  C   C1787     1.0  0.87586  0.66392  0.68054  1.0000
  C   C1788     1.0  0.62967  0.82425  0.75821  1.0000
  C   C1789     1.0  0.91170  0.70867  0.71543  1.0000
  H   H3172     1.0  0.49232  0.86167  0.63463  1.0000
  C   C1790     1.0  0.66428  0.63984  0.78726  1.0000
  H   H3173     1.0  0.57501  0.79376  0.76976  1.0000
  H   H3174     1.0  0.88902  0.59605  0.72148  1.0000
  H   H3175     1.0  0.85100  0.65558  0.67917  1.0000
  C   C1791     1.0  0.65523  0.95641  0.69117  1.0000
  C   C1792     1.0  0.47801  0.87403  0.63524  1.0000
  H   H3176     1.0  0.60463  0.52116  0.64629  1.0000
  H   H3177     1.0  0.57523  0.53234  0.69839  1.0000
  C   C1793     1.0  0.48958  0.93367  0.67104  1.0000
  C   C1794     1.0  0.93387  0.67808  0.77705  1.0000
  H   H3178     1.0  0.61082  0.58327  0.70708  1.0000
  C   C1795     1.0  0.65493  0.79201  0.74977  1.0000
  C   C1796     1.0  0.93393  0.67107  0.71386  1.0000
  H   H3179     1.0  0.91551  0.62521  0.73111  1.0000
  H   H3180     1.0  0.89787  0.63432  0.76132  1.0000
  H   H3181     1.0  0.86194  0.72469  0.71381  1.0000
  C   C1797     1.0  0.52282  0.49853  0.66660  1.0000
  C   C1798     1.0  0.70366  0.73470  0.78124  1.0000
  H   H3182     1.0  0.62999  0.81676  0.76740  1.0000
  H   H3183     1.0  0.57512  0.82779  0.76307  1.0000
  H   H3184     1.0  0.94656  0.63051  0.76910  1.0000
  H   H3185     1.0  0.57064  0.54155  0.65531  1.0000
  C   C1799     1.0  0.62173  0.53357  0.65334  1.0000
  H   H3186     1.0  0.67259  0.78171  0.76625  1.0000
  H   H3187     1.0  0.52709  0.56169  0.67685  1.0000
  C   C1800     1.0  0.57321  0.80422  0.76126  1.0000
  H   H3188     1.0  0.65941  0.83208  0.71373  1.0000
  H   H3189     1.0  0.70969  0.67239  0.79114  1.0000
  H   H3190     1.0  0.63650  0.88039  0.78448  1.0000
  S   S403      1.0  0.51883  0.57982  0.63163  1.0000
  C   C1801     1.0  0.92357  0.61264  0.77019  1.0000
  C   C1802     1.0  0.71828  0.86763  0.77596  1.0000
  S   S404      1.0  0.61493  0.94198  0.63294  1.0000
  C   C1803     1.0  0.87928  0.66210  0.77758  1.0000
  H   H3191     1.0  0.82605  0.66450  0.78652  1.0000
  H   H3192     1.0  0.63684  0.52157  0.65463  1.0000
  H   H3193     1.0  0.50726  0.47482  0.63941  1.0000
  H   H3194     1.0  0.88708  0.68183  0.67402  1.0000
  C   C1804     1.0  0.68164  0.84086  0.73120  1.0000
  S   S405      1.0  0.53066  0.92733  0.63534  1.0000
  H   H3195     1.0  0.66240  0.73843  0.75208  1.0000
  H   H3196     1.0  0.88189  0.67397  0.76903  1.0000
  C   C1805     1.0  0.64408  0.73972  0.75754  1.0000
  C   C1806     1.0  0.90457  0.64168  0.71461  1.0000
  H   H3197     1.0  0.62233  0.72920  0.75245  1.0000
  N   N101      1.0  0.90445  0.65147  0.77943  1.0000
  C   C1807     1.0  0.65112  0.77293  0.76097  1.0000
  C   C1808     1.0  0.67662  0.85130  0.71895  1.0000
  H   H3198     1.0  0.63405  0.81958  0.73414  1.0000
  H   H3199     1.0  0.52471  0.64467  0.64268  1.0000
  C   C1809     1.0  0.89960  0.62622  0.77038  1.0000
  H   H3200     1.0  0.67612  0.79296  0.74575  1.0000
  H   H3201     1.0  0.68567  0.81993  0.72986  1.0000
  H   H3202     1.0  0.53740  0.53013  0.63649  1.0000
  C   C1810     1.0  0.90987  0.61748  0.72173  1.0000
  H   H3203     1.0  0.88626  0.64602  0.71892  1.0000
  H   H3204     1.0  0.63661  0.77849  0.74328  1.0000
  H   H3205     1.0  0.61798  0.60687  0.78660  1.0000
  H   H3206     1.0  0.69820  0.85980  0.71417  1.0000
  H   H3207     1.0  0.87637  0.69498  0.69447  1.0000
  H   H3208     1.0  0.73432  0.85707  0.77414  1.0000
  H   H3209     1.0  0.49994  0.95783  0.67425  1.0000
  Fe  Fe203     1.0  0.57009  0.60493  0.63133  1.0000
  H   H3210     1.0  0.48219  0.94622  0.63735  1.0000
  C   C1811     1.0  0.91951  0.68974  0.69532  1.0000
  C   C1812     1.0  0.88467  0.67677  0.69319  1.0000
  H   H3211     1.0  0.71109  0.96811  0.78643  1.0000
  H   H3212     1.0  0.89694  0.63162  0.70560  1.0000
  C   C1813     1.0  0.54006  0.61531  0.66546  1.0000
  H   H3213     1.0  0.48569  0.62045  0.63887  1.0000
  H   H3214     1.0  0.88358  0.76541  0.71448  1.0000
  C   C1814     1.0  0.91056  0.73921  0.71179  1.0000
  C   C1815     1.0  0.65072  0.90067  0.78953  1.0000
  H   H3215     1.0  0.88232  0.64447  0.67894  1.0000
  H   H3216     1.0  0.63571  0.55701  0.65043  1.0000
  H   H3217     1.0  0.58086  0.60846  0.66353  1.0000
  H   H3218     1.0  0.69443  0.74450  0.77420  1.0000
  H   H3219     1.0  0.87219  0.65845  0.69931  1.0000
  H   H3220     1.0  0.65744  0.77633  0.78794  1.0000
  H   H3221     1.0  0.64229  0.72631  0.76560  1.0000
  H   H3222     1.0  0.95362  0.67254  0.77883  1.0000
  C   C1816     1.0  0.49852  0.53994  0.63310  1.0000
  S   S406      1.0  0.56336  0.80208  0.62815  1.0000
  H   H3223     1.0  0.93132  0.75861  0.71516  1.0000
  H   H3224     1.0  0.90941  0.74088  0.70203  1.0000
  H   H3225     1.0  0.55215  0.64046  0.66496  1.0000
  C   C1817     1.0  0.59480  0.54739  0.69324  1.0000
  H   H3226     1.0  0.64717  0.72471  0.78724  1.0000
  C   C1818     1.0  0.59780  0.80459  0.75286  1.0000
  H   H3227     1.0  0.68008  0.82456  0.77510  1.0000
  H   H3228     1.0  0.59928  0.57468  0.66138  1.0000
  H   H3229     1.0  0.63979  0.58239  0.69736  1.0000
  Fe  Fe204     1.0  0.58376  0.85405  0.62967  1.0000
  C   C1819     1.0  0.54447  0.51776  0.67679  1.0000
  C   C1820     1.0  0.58451  0.56640  0.68465  1.0000
  C   C1821     1.0  0.58476  0.55082  0.66349  1.0000
  H   H3230     1.0  0.92494  0.71901  0.77984  1.0000
  H   H3231     1.0  0.49172  0.91880  0.67808  1.0000
  H   H3232     1.0  0.50228  0.93123  0.66325  1.0000
  H   H3233     1.0  0.67126  0.85725  0.77442  1.0000
  H   H3234     1.0  0.92853  0.61253  0.71797  1.0000
  H   H3235     1.0  0.55059  0.79062  0.75714  1.0000
  H   H3236     1.0  0.59478  0.78066  0.75122  1.0000
  C   C1822     1.0  0.60648  0.53476  0.66497  1.0000
  C   C1823     1.0  0.63654  0.62151  0.79232  1.0000
  H   H3237     1.0  0.53451  0.55810  0.66162  1.0000
  H   H3238     1.0  0.71763  0.87095  0.78569  1.0000
  H   H3239     1.0  0.93523  0.68319  0.76746  1.0000
  H   H3240     1.0  0.92776  0.67310  0.69142  1.0000
  H   H3241     1.0  0.59453  0.51100  0.66785  1.0000
  H   H3242     1.0  0.94970  0.66373  0.70900  1.0000
  S   S407      1.0  0.76318  0.97159  0.72605  1.0000
  H   H3243     1.0  0.52155  0.68494  0.63007  1.0000
  H   H3244     1.0  0.57593  0.70609  0.63191  1.0000
  H   H3245     1.0  0.92289  0.60030  0.77845  1.0000
  H   H3246     1.0  0.50758  0.50913  0.66352  1.0000
  S   S408      1.0  0.65638  0.65014  0.62877  1.0000
  C   C1824     1.0  0.47217  0.92158  0.63673  1.0000
  H   H3247     1.0  0.49502  0.65607  0.64691  1.0000
  S   S409      1.0  0.63290  0.88452  0.62851  1.0000
  H   H3248     1.0  0.53581  0.49582  0.65900  1.0000
  C   C1825     1.0  0.58503  0.77994  0.62809  1.0000
  H   H3249     1.0  0.54823  0.73981  0.63397  1.0000
  H   H3250     1.0  0.63630  0.81563  0.78926  1.0000
  H   H3251     1.0  0.64092  0.96626  0.69511  1.0000
  H   H3252     1.0  0.84322  0.62211  0.78528  1.0000
  H   H3253     1.0  0.93267  0.70392  0.79333  1.0000
  H   H3254     1.0  0.88690  0.61570  0.79217  1.0000
  C   C1826     1.0  0.90313  0.64006  0.79190  1.0000
  H   H3255     1.0  0.94666  0.63456  0.79201  1.0000
  H   H3256     1.0  0.61875  0.76091  0.79245  1.0000
  C   C1827     1.0  0.46416  0.47687  0.63628  1.0000
  C   C1828     1.0  0.50551  0.66106  0.62824  1.0000
  C   C1829     1.0  0.69424  0.74140  0.79345  1.0000
  Fe  Fe205     1.0  0.61938  0.90252  0.83537  1.0000
  S   S410      1.0  0.57213  0.87025  0.83005  1.0000
  S   S411      1.0  0.65552  0.93526  0.82344  1.0000
  Fe  Fe206     1.0  0.61178  0.88143  0.86163  1.0000
  S   S412      1.0  0.56391  0.84713  0.85791  1.0000
  S   S413      1.0  0.63554  0.87869  0.87909  1.0000
  Fe  Fe207     1.0  0.58175  0.83616  0.84096  1.0000
  S   S414      1.0  0.57819  0.79128  0.83294  1.0000
  Fe  Fe208     1.0  0.55793  0.88403  0.84739  1.0000
  S   S415      1.0  0.52050  0.90140  0.84967  1.0000
  S   S416      1.0  0.62964  0.86774  0.84527  1.0000
  S   S417      1.0  0.60511  0.91910  0.85215  1.0000
  Fe  Fe209     1.0  0.61718  0.62603  0.84259  1.0000
  S   S418      1.0  0.56613  0.60996  0.84276  1.0000
  S   S419      1.0  0.65211  0.64418  0.82785  1.0000
  Fe  Fe210     1.0  0.62288  0.62611  0.87011  1.0000
  S   S420      1.0  0.57297  0.60991  0.87209  1.0000
  S   S421      1.0  0.65946  0.63881  0.88487  1.0000
  Fe  Fe211     1.0  0.56716  0.57715  0.85673  1.0000
  S   S422      1.0  0.53417  0.52786  0.86042  1.0000
  Fe  Fe212     1.0  0.57495  0.64333  0.85818  1.0000
  S   S423      1.0  0.54969  0.67266  0.86272  1.0000
  S   S424      1.0  0.61773  0.59109  0.85565  1.0000
  S   S425      1.0  0.62527  0.66178  0.85711  1.0000
  N   N102      1.0  0.64740  0.73084  0.80631  1.0000
  H   H3257     1.0  0.71921  0.95096  0.82818  1.0000
  H   H3258     1.0  0.95027  0.62872  0.81345  1.0000
  H   H3259     1.0  0.60247  0.71406  0.79830  1.0000
  H   H3260     1.0  0.47257  0.60296  0.83913  1.0000
  C   C1830     1.0  0.65187  0.76389  0.80666  1.0000
  H   H3261     1.0  0.70674  0.93025  0.87132  1.0000
  H   H3262     1.0  0.49236  0.85844  0.91936  1.0000
  S   S426      1.0  0.74805  0.93159  0.94316  1.0000
  H   H3263     1.0  0.95898  0.65637  0.93425  1.0000
  H   H3264     1.0  0.54094  0.54972  0.88873  1.0000
  H   H3265     1.0  0.86381  0.62093  0.91890  1.0000
  H   H3266     1.0  0.62904  0.53154  0.94160  1.0000
  H   H3267     1.0  0.74983  0.64245  0.91652  1.0000
  H   H3268     1.0  0.94920  0.69943  0.91041  1.0000
  S   S427      1.0  0.65538  0.65242  0.94118  1.0000
  H   H3269     1.0  0.53239  0.94503  0.87613  1.0000
  C   C1831     1.0  0.63250  0.62192  0.80469  1.0000
  H   H3270     1.0  0.75310  0.96553  0.86555  1.0000
  H   H3271     1.0  0.87017  0.63060  0.93458  1.0000
  C   C1832     1.0  0.84171  0.64821  0.92571  1.0000
  H   H3272     1.0  0.82100  0.62820  0.92806  1.0000
  H   H3273     1.0  0.49689  0.52918  0.83970  1.0000
  H   H3274     1.0  0.70339  0.49382  0.93871  1.0000
  H   H3275     1.0  0.67325  0.95238  0.86707  1.0000
  C   C1833     1.0  0.71749  0.91829  0.84207  1.0000
  H   H3276     1.0  0.70751  0.73499  0.80014  1.0000
  H   H3277     1.0  0.71707  0.62255  0.93387  1.0000
  C   C1834     1.0  0.65781  0.64494  0.90040  1.0000
  C   C1835     1.0  0.63056  0.63840  0.90613  1.0000
  C   C1836     1.0  0.63035  0.64155  0.91858  1.0000
  C   C1837     1.0  0.65727  0.65118  0.92546  1.0000
  C   C1838     1.0  0.68458  0.65851  0.91970  1.0000
  C   C1839     1.0  0.68481  0.65549  0.90725  1.0000
  H   H3278     1.0  0.60961  0.63036  0.90099  1.0000
  H   H3279     1.0  0.60910  0.63594  0.92294  1.0000
  H   H3280     1.0  0.70548  0.66609  0.92485  1.0000
  H   H3281     1.0  0.70602  0.66076  0.90291  1.0000
  C   C1840     1.0  0.52974  0.55698  0.89595  1.0000
  C   C1841     1.0  0.65622  0.64079  0.81223  1.0000
  H   H3282     1.0  0.55556  0.80825  0.90028  1.0000
  H   H3283     1.0  0.68842  0.53651  0.94167  1.0000
  H   H3284     1.0  0.72387  0.72391  0.93004  1.0000
  C   C1842     1.0  0.49763  0.50276  0.85476  1.0000
  H   H3285     1.0  0.70268  0.67344  0.81289  1.0000
  C   C1843     1.0  0.68406  0.65887  0.80719  1.0000
  C   C1844     1.0  0.57001  0.75879  0.84153  1.0000
  C   C1845     1.0  0.58038  0.73688  0.83775  1.0000
  C   C1846     1.0  0.57438  0.71045  0.84421  1.0000
  C   C1847     1.0  0.55725  0.70546  0.85440  1.0000
  C   C1848     1.0  0.54635  0.72714  0.85812  1.0000
  C   C1849     1.0  0.55303  0.75399  0.85177  1.0000
  H   H3286     1.0  0.59328  0.74065  0.82982  1.0000
  H   H3287     1.0  0.58259  0.69370  0.84126  1.0000
  H   H3288     1.0  0.53287  0.72323  0.86595  1.0000
  H   H3289     1.0  0.54458  0.77062  0.85465  1.0000
  C   C1850     1.0  0.48044  0.88379  0.84773  1.0000
  C   C1851     1.0  0.78285  0.83014  0.94505  1.0000
  C   C1852     1.0  0.82014  0.77672  0.95638  1.0000
  C   C1853     1.0  0.84218  0.83524  0.93299  1.0000
  C   C1854     1.0  0.48742  0.84046  0.90118  1.0000
  C   C1855     1.0  0.65204  0.90290  0.89178  1.0000
  C   C1856     1.0  0.66303  0.89126  0.90123  1.0000
  C   C1857     1.0  0.67667  0.90937  0.91145  1.0000
  C   C1858     1.0  0.67970  0.93960  0.91236  1.0000
  C   C1859     1.0  0.50692  0.56826  0.89076  1.0000
  C   C1860     1.0  0.65497  0.93311  0.89268  1.0000
  H   H3290     1.0  0.48794  0.89557  0.80171  1.0000
  C   C1861     1.0  0.48116  0.47593  0.86085  1.0000
  C   C1862     1.0  0.66235  0.93002  0.80821  1.0000
  C   C1863     1.0  0.72375  0.89682  0.86620  1.0000
  H   H3291     1.0  0.62601  0.88568  0.80570  1.0000
  N   N103      1.0  0.62236  0.77525  0.87967  1.0000
  C   C1864     1.0  0.60658  0.74260  0.88341  1.0000
  C   C1865     1.0  0.60025  0.79012  0.88016  1.0000
  C   C1866     1.0  0.63096  0.77461  0.86688  1.0000
  C   C1867     1.0  0.65064  0.79343  0.88702  1.0000
  C   C1868     1.0  0.65124  0.78446  0.90015  1.0000
  C   C1869     1.0  0.62389  0.72212  0.88102  1.0000
  C   C1870     1.0  0.64336  0.80571  0.86065  1.0000
  C   C1871     1.0  0.58809  0.79331  0.89245  1.0000
  C   C1872     1.0  0.56367  0.80571  0.89135  1.0000
  C   C1873     1.0  0.67915  0.80723  0.90689  1.0000
  C   C1874     1.0  0.61122  0.69291  0.88806  1.0000
  C   C1875     1.0  0.65757  0.80371  0.84886  1.0000
  H   H3292     1.0  0.58425  0.73130  0.87868  1.0000
  H   H3293     1.0  0.60093  0.74130  0.89291  1.0000
  H   H3294     1.0  0.61066  0.81376  0.87695  1.0000
  H   H3295     1.0  0.58058  0.77765  0.87407  1.0000
  H   H3296     1.0  0.61124  0.75882  0.86146  1.0000
  H   H3297     1.0  0.64848  0.76528  0.86610  1.0000
  H   H3298     1.0  0.67082  0.79181  0.88301  1.0000
  H   H3299     1.0  0.65533  0.81817  0.88695  1.0000
  H   H3300     1.0  0.65206  0.76175  0.90065  1.0000
  H   H3301     1.0  0.63106  0.78328  0.90493  1.0000
  H   H3302     1.0  0.62156  0.71529  0.87147  1.0000
  H   H3303     1.0  0.64834  0.73427  0.88327  1.0000
  H   H3304     1.0  0.66062  0.82376  0.86629  1.0000
  H   H3305     1.0  0.62460  0.81267  0.85863  1.0000
  H   H3306     1.0  0.57800  0.77116  0.89689  1.0000
  H   H3307     1.0  0.60660  0.80992  0.89813  1.0000
  H   H3308     1.0  0.72817  0.86880  0.88037  1.0000
  H   H3309     1.0  0.54416  0.78988  0.88586  1.0000
  H   H3310     1.0  0.70013  0.80846  0.90265  1.0000
  H   H3311     1.0  0.67894  0.83026  0.90718  1.0000
  H   H3312     1.0  0.67929  0.79985  0.91615  1.0000
  H   H3313     1.0  0.61458  0.69823  0.89772  1.0000
  H   H3314     1.0  0.58676  0.67994  0.88596  1.0000
  H   H3315     1.0  0.62317  0.67825  0.88566  1.0000
  H   H3316     1.0  0.64029  0.78714  0.84273  1.0000
  H   H3317     1.0  0.66637  0.82634  0.84470  1.0000
  H   H3318     1.0  0.67655  0.79666  0.85018  1.0000
  S   S428      1.0  0.70309  0.84983  0.95582  1.0000
  C   C1876     1.0  0.66379  0.72561  0.81694  1.0000
  H   H3319     1.0  0.69852  0.89892  0.81868  1.0000
  H   H3320     1.0  0.57293  0.82847  0.88726  1.0000
  H   H3321     1.0  0.66526  0.70317  0.81613  1.0000
  H   H3322     1.0  0.83799  0.65577  0.91682  1.0000
  C   C1877     1.0  0.62943  0.56672  0.95365  1.0000
  C   C1878     1.0  0.89835  0.66731  0.92329  1.0000
  C   C1879     1.0  0.72965  0.93504  0.83044  1.0000
  C   C1880     1.0  0.66887  0.95134  0.90287  1.0000
  H   H3323     1.0  0.49198  0.53013  0.87789  1.0000
  C   C1881     1.0  0.61393  0.71119  0.80649  1.0000
  C   C1882     1.0  0.65037  0.72745  0.82916  1.0000
  C   C1883     1.0  0.60471  0.67640  0.80742  1.0000
  H   H3324     1.0  0.67413  0.93524  0.84751  1.0000
  H   H3325     1.0  0.49761  0.84538  0.86545  1.0000
  C   C1884     1.0  0.67142  0.72709  0.83931  1.0000
  H   H3326     1.0  0.76111  0.82260  0.94974  1.0000
  H   H3327     1.0  0.60332  0.71860  0.81384  1.0000
  H   H3328     1.0  0.62843  0.70773  0.83017  1.0000
  H   H3329     1.0  0.64681  0.74866  0.83026  1.0000
  H   H3330     1.0  0.61638  0.67107  0.81495  1.0000
  H   H3331     1.0  0.69789  0.74068  0.92622  1.0000
  Fe  Fe213     1.0  0.77044  0.96631  0.95790  1.0000
  C   C1885     1.0  0.92222  0.60468  0.94704  1.0000
  N   N104      1.0  0.79315  0.80432  0.94424  1.0000
  H   H3332     1.0  0.49496  0.58154  0.84195  1.0000
  H   H3333     1.0  0.66089  0.72783  0.84791  1.0000
  H   H3334     1.0  0.67549  0.70594  0.83881  1.0000
  H   H3335     1.0  0.69340  0.74717  0.83901  1.0000
  H   H3336     1.0  0.80046  0.75434  0.95607  1.0000
  C   C1886     1.0  0.92818  0.62548  0.80930  1.0000
  C   C1887     1.0  0.92020  0.61380  0.93428  1.0000
  S   S429      1.0  0.69725  0.96375  0.92497  1.0000
  H   H3337     1.0  0.73075  0.78924  0.93597  1.0000
  H   H3338     1.0  0.89620  0.60293  0.93140  1.0000
  H   H3339     1.0  0.90113  0.68332  0.93093  1.0000
  H   H3340     1.0  0.90463  0.61754  0.91250  1.0000
  C   C1888     1.0  0.64465  0.90363  0.80159  1.0000
  H   H3341     1.0  0.83035  0.82467  0.95710  1.0000
  C   C1889     1.0  0.86871  0.63939  0.92569  1.0000
  C   C1890     1.0  0.57081  0.65955  0.80929  1.0000
  C   C1891     1.0  0.72376  0.60671  0.92852  1.0000
  H   H3342     1.0  0.84532  0.66680  0.93237  1.0000
  H   H3343     1.0  0.61097  0.60784  0.80837  1.0000
  H   H3344     1.0  0.54745  0.57572  0.90121  1.0000
  C   C1892     1.0  0.81185  0.80692  0.93343  1.0000
  H   H3345     1.0  0.92772  0.65925  0.94101  1.0000
  H   H3346     1.0  0.77206  0.75544  0.94067  1.0000
  H   H3347     1.0  0.68479  0.89994  0.91866  1.0000
  H   H3348     1.0  0.66074  0.86794  0.90069  1.0000
  H   H3349     1.0  0.79890  0.80749  0.92530  1.0000
  H   H3350     1.0  0.49241  0.89253  0.87226  1.0000
  H   H3351     1.0  0.68773  0.74255  0.81729  1.0000
  H   H3352     1.0  0.62453  0.55585  0.88488  1.0000
  H   H3353     1.0  0.61272  0.55641  0.93577  1.0000
  H   H3354     1.0  0.69396  0.90118  0.84024  1.0000
  H   H3355     1.0  0.50476  0.91132  0.89882  1.0000
  C   C1893     1.0  0.48159  0.54254  0.88345  1.0000
  C   C1894     1.0  0.76548  0.77450  0.94299  1.0000
  H   H3356     1.0  0.56443  0.66729  0.81776  1.0000
  H   H3357     1.0  0.46864  0.59413  0.88542  1.0000
  H   H3358     1.0  0.51953  0.58827  0.88543  1.0000
  H   H3359     1.0  0.53965  0.96071  0.89107  1.0000
  H   H3360     1.0  0.94793  0.66729  0.80011  1.0000
  H   H3361     1.0  0.81588  0.96541  0.92988  1.0000
  H   H3362     1.0  0.68232  0.90123  0.86147  1.0000
  S   S430      1.0  0.74040  0.69658  0.95412  1.0000
  C   C1895     1.0  0.64408  0.80794  0.79736  1.0000
  C   C1896     1.0  0.63180  0.55556  0.94109  1.0000
  C   C1897     1.0  0.50268  0.91585  0.88933  1.0000
  H   H3363     1.0  0.69124  0.86907  0.87891  1.0000
  C   C1898     1.0  0.68662  0.49643  0.93252  1.0000
  H   H3364     1.0  0.89453  0.67867  0.91529  1.0000
  H   H3365     1.0  0.61484  0.57758  0.89590  1.0000
  C   C1899     1.0  0.75327  0.62610  0.92256  1.0000
  H   H3366     1.0  0.77056  0.63933  0.92943  1.0000
  H   H3367     1.0  0.90899  0.61307  0.95296  1.0000
  C   C1900     1.0  0.48712  0.83635  0.91457  1.0000
  C   C1901     1.0  0.93347  0.64305  0.79783  1.0000
  H   H3368     1.0  0.62189  0.54602  0.91744  1.0000
  H   H3369     1.0  0.69485  0.60711  0.91434  1.0000
  H   H3370     1.0  0.76188  0.61139  0.91748  1.0000
  H   H3371     1.0  0.75058  0.77839  0.92470  1.0000
  C   C1902     1.0  0.48507  0.59644  0.84610  1.0000
  Fe  Fe214     1.0  0.71304  0.95096  0.94259  1.0000
  H   H3372     1.0  0.63888  0.76815  0.81400  1.0000
  C   C1903     1.0  0.64228  0.77564  0.79529  1.0000
  H   H3373     1.0  0.81650  0.78618  0.93220  1.0000
  H   H3374     1.0  0.70040  0.97358  0.80764  1.0000
  H   H3375     1.0  0.66334  0.59925  0.93525  1.0000
  H   H3376     1.0  0.93267  0.60368  0.92873  1.0000
  C   C1904     1.0  0.69850  0.58892  0.91916  1.0000
  H   H3377     1.0  0.70794  0.57803  0.91248  1.0000
  H   H3378     1.0  0.64006  0.58630  0.91623  1.0000
  H   H3379     1.0  0.66361  0.48181  0.93552  1.0000
  H   H3380     1.0  0.62927  0.80853  0.80471  1.0000
  C   C1905     1.0  0.66248  0.57581  0.93567  1.0000
  H   H3381     1.0  0.68031  0.57763  0.94228  1.0000
  H   H3382     1.0  0.66758  0.58057  0.89845  1.0000
  H   H3383     1.0  0.65235  0.53992  0.89999  1.0000
  H   H3384     1.0  0.85627  0.83812  0.94112  1.0000
  H   H3385     1.0  0.83782  0.85598  0.93174  1.0000
  N   N105      1.0  0.66877  0.56591  0.92361  1.0000
  C   C1906     1.0  0.64368  0.56489  0.91521  1.0000
  H   H3386     1.0  0.64632  0.94237  0.88560  1.0000
  H   H3387     1.0  0.72839  0.59146  0.93470  1.0000
  C   C1907     1.0  0.48452  0.50881  0.84455  1.0000
  H   H3388     1.0  0.91507  0.60069  0.80746  1.0000
  S   S431      1.0  0.78930  0.64617  0.95538  1.0000
  C   C1908     1.0  0.74099  0.77303  0.93363  1.0000
  H   H3389     1.0  0.49378  0.79369  0.86147  1.0000
  H   H3390     1.0  0.68983  0.48854  0.92353  1.0000
  C   C1909     1.0  0.69035  0.96938  0.86150  1.0000
  C   C1910     1.0  0.71582  0.88334  0.87848  1.0000
  H   H3391     1.0  0.73128  0.90504  0.84370  1.0000
  H   H3392     1.0  0.95509  0.71060  0.93755  1.0000
  C   C1911     1.0  0.64823  0.56064  0.90179  1.0000
  H   H3393     1.0  0.49840  0.59268  0.86934  1.0000
  H   H3394     1.0  0.67588  0.77922  0.80876  1.0000
  C   C1912     1.0  0.62023  0.55743  0.89445  1.0000
  C   C1913     1.0  0.46355  0.57966  0.85585  1.0000
  H   H3395     1.0  0.60041  0.53653  0.89678  1.0000
  C   C1914     1.0  0.68810  0.65844  0.79482  1.0000
  C   C1915     1.0  0.66865  0.53446  0.92370  1.0000
  H   H3396     1.0  0.67412  0.52808  0.91481  1.0000
  H   H3397     1.0  0.71469  0.54327  0.92973  1.0000
  C   C1916     1.0  0.72325  0.91236  0.81998  1.0000
  C   C1917     1.0  0.48066  0.91091  0.80707  1.0000
  N   N106      1.0  0.92649  0.66141  0.92187  1.0000
  H   H3398     1.0  0.61003  0.66697  0.79914  1.0000
  H   H3399     1.0  0.84793  0.83039  0.91403  1.0000
  C   C1918     1.0  0.80988  0.80333  0.95551  1.0000
  C   C1919     1.0  0.69119  0.52986  0.93247  1.0000
  H   H3400     1.0  0.64560  0.51703  0.92539  1.0000
  C   C1920     1.0  0.71529  0.74117  0.93283  1.0000
  H   H3401     1.0  0.51037  0.85702  0.89900  1.0000
  H   H3402     1.0  0.77794  0.83628  0.93603  1.0000
  H   H3403     1.0  0.49701  0.57616  0.89822  1.0000
  H   H3404     1.0  0.50358  0.61753  0.84975  1.0000
  H   H3405     1.0  0.74856  0.91010  0.86611  1.0000
  H   H3406     1.0  0.91395  0.64925  0.90340  1.0000
  H   H3407     1.0  0.93121  0.61266  0.89056  1.0000
  C   C1921     1.0  0.92235  0.64063  0.91116  1.0000
  C   C1922     1.0  0.68650  0.95306  0.80264  1.0000
  C   C1923     1.0  0.86071  0.83271  0.92251  1.0000
  H   H3408     1.0  0.91588  0.63389  0.81567  1.0000
  C   C1924     1.0  0.93408  0.64906  0.93312  1.0000
  C   C1925     1.0  0.80378  0.85981  0.95194  1.0000
  C   C1926     1.0  0.79391  0.88581  0.94982  1.0000
  H   H3409     1.0  0.72221  0.90173  0.88543  1.0000
  S   S432      1.0  0.68416  0.91916  0.95611  1.0000
  H   H3410     1.0  0.55117  0.93070  0.88684  1.0000
  H   H3411     1.0  0.83543  0.77728  0.94910  1.0000
  H   H3412     1.0  0.64715  0.56509  0.95961  1.0000
  H   H3413     1.0  0.88204  0.85360  0.92225  1.0000
  H   H3414     1.0  0.75408  0.76851  0.95162  1.0000
  C   C1927     1.0  0.53335  0.93945  0.88559  1.0000
  H   H3415     1.0  0.86658  0.81275  0.92342  1.0000
  H   H3416     1.0  0.80833  0.90627  0.95526  1.0000
  C   C1928     1.0  0.69652  0.95271  0.85061  1.0000
  H   H3417     1.0  0.71747  0.87738  0.85972  1.0000
  H   H3418     1.0  0.49293  0.55835  0.86160  1.0000
  H   H3419     1.0  0.51218  0.87906  0.88219  1.0000
  H   H3420     1.0  0.79613  0.89201  0.94035  1.0000
  C   C1929     1.0  0.70646  0.91690  0.86311  1.0000
  Fe  Fe215     1.0  0.69266  0.66173  0.95539  1.0000
  H   H3421     1.0  0.65669  0.69858  0.79523  1.0000
  C   C1930     1.0  0.48059  0.57084  0.86588  1.0000
  H   H3422     1.0  0.82771  0.86777  0.94951  1.0000
  H   H3423     1.0  0.78270  0.95702  0.92059  1.0000
  H   H3424     1.0  0.70387  0.96882  0.84324  1.0000
  H   H3425     1.0  0.51840  0.53749  0.90181  1.0000
  Fe  Fe216     1.0  0.72058  0.90153  0.95746  1.0000
  C   C1931     1.0  0.49313  0.88618  0.88163  1.0000
  H   H3426     1.0  0.47519  0.92442  0.85347  1.0000
  H   H3427     1.0  0.70431  0.73485  0.94152  1.0000
  H   H3428     1.0  0.91302  0.57944  0.94747  1.0000
  H   H3429     1.0  0.56492  0.63468  0.80976  1.0000
  H   H3430     1.0  0.50453  0.82795  0.91717  1.0000
  C   C1932     1.0  0.95702  0.71824  0.92830  1.0000
  H   H3431     1.0  0.89381  0.65233  0.79804  1.0000
  H   H3432     1.0  0.73195  0.92493  0.81175  1.0000
  H   H3433     1.0  0.48854  0.91115  0.81639  1.0000
  H   H3434     1.0  0.60699  0.55247  0.95723  1.0000
  H   H3435     1.0  0.93028  0.58826  0.90276  1.0000
  C   C1933     1.0  0.95222  0.69157  0.91938  1.0000
  H   H3436     1.0  0.93973  0.72749  0.92665  1.0000
  C   C1934     1.0  0.47386  0.79677  0.86496  1.0000
  H   H3437     1.0  0.77009  0.87918  0.95238  1.0000
  H   H3438     1.0  0.55767  0.66338  0.80184  1.0000
  H   H3439     1.0  0.83922  0.62906  0.95257  1.0000
  H   H3440     1.0  0.46471  0.81947  0.91729  1.0000
  H   H3441     1.0  0.48622  0.92635  0.88830  1.0000
  H   H3442     1.0  0.47765  0.83996  0.84170  1.0000
  H   H3443     1.0  0.73445  0.89658  0.82145  1.0000
  N   N107      1.0  0.71817  0.93787  0.85281  1.0000
  H   H3444     1.0  0.48300  0.81795  0.89695  1.0000
  C   C1935     1.0  0.95125  0.63699  0.90717  1.0000
  H   H3445     1.0  0.94609  0.61406  0.95026  1.0000
  H   H3446     1.0  0.49153  0.93427  0.80358  1.0000
  H   H3447     1.0  0.66769  0.82416  0.79954  1.0000
  H   H3448     1.0  0.75453  0.94793  0.83124  1.0000
  C   C1936     1.0  0.74999  0.96068  0.85581  1.0000
  C   C1937     1.0  0.94382  0.61004  0.89845  1.0000
  C   C1938     1.0  0.82746  0.66406  0.96028  1.0000
  C   C1939     1.0  0.65995  0.72290  0.79524  1.0000
  C   C1940     1.0  0.84755  0.65062  0.95745  1.0000
  H   H3449     1.0  0.49976  0.82752  0.87895  1.0000
  H   H3450     1.0  0.63191  0.59078  0.95365  1.0000
  C   C1941     1.0  0.48429  0.82744  0.87166  1.0000
  H   H3451     1.0  0.46864  0.52585  0.89007  1.0000
  C   C1942     1.0  0.46501  0.85326  0.84406  1.0000
  H   H3452     1.0  0.89351  0.65417  0.95895  1.0000
  H   H3453     1.0  0.76645  0.95074  0.85353  1.0000
  H   H3454     1.0  0.68247  0.78518  0.95446  1.0000
  C   C1943     1.0  0.70125  0.79368  0.96079  1.0000
  N   N108      1.0  0.46343  0.86052  0.88449  1.0000
  H   H3455     1.0  0.46362  0.86999  0.90331  1.0000
  C   C1944     1.0  0.46351  0.90076  0.85063  1.0000
  H   H3456     1.0  0.70070  0.76631  0.79429  1.0000
