data_image0
_chemical_formula_structural       FeS2FeS2FeSFeS4FeS2FeSFeS2Fe2S2HC7H4NHC7H4C6H4C6H4SC2H3NC10H23CHNCHC5H2C3H14CH3CH3C2H4NC8HC3H29CH2CH7CHCHC2H3CHC2HC3NH7C2H11CH3C2HCHCH3C3H3CH3CFeCHC2H3CH7CH2CH2CH2CHCH8CHC2H8CH3SC3HNCHCH4NC2H5CH2CHCNHCSFeS2FeS2FeSFeS4FeS2CFeSHFeS2HFeS2CHC6H4CH3C6H4C6H5CH2C6H4CHCHCH2CH2CHCH2CH3SCH7FeH3CHCH3CH2CH9C2HCHC3H2CFeCH2NC2HCHCSH2C3H2CHCH7CH4CH3SHCSHCH2CHCHCHC2HCHCHNH4C3FeCH4NSCH4CH6CH2NCH2C2H8CHCHSHCHCH3CH5CH2C3H2C2HC3HCH4CH10C2SFeHS2HSHCHSCH4CHCHC6H4C3HCHCNH2C4HCH2C3HC2H9CHCH5CH4NCH6CH4CH6C2HSCH2CH10C2H4SHFeHSCNSHFeS2CS2CH2C3HCH2C6H5C2HCH2CH3CH2FeC3H6FeH3CHC2HCH2CH4CH3CHSH4SHCHFeCHSC2H6CFeS2FeSFeS3FeS2FeS2FeSFeS3H2SFeSC6H4C2HCH3C2HC3H3C6H4C3H2C6H4C4H3CH5CNC11H26CHSCH5CHC2H3CH2C2H6CH3CNH2NH4C2H2C2H4C3H3CHCH5C2HCH3CH2CH5NHCSHCH2CH2C2H2CH2CH7SH3SCFeH3CH2CH6FeCS2FeS2H2FeSFeS2HCFeS2FeCHFeS2FeS2FeSFeS3H3C6H4C6H4C4HCH2C2H2CH2C6H4C2HC3HC2H6C2H2SHCH4CH6SHCHCHC2H2CH7FeHC2H6CSHCHCH6NC5HCH4CH12CH3CHCH3SCH3CHCH8NH2CH7NHNC6HCHCHSH4CH3C2HCSH3CH2FeHCFeSFeHSFeHCFeS2Fe2SFeS2FeS2FeSFeS3C2SHC6H4C2HCH2C6H4C6H4C4H2C2HCHCH3NHCHC2H2C3HCSCH3CH2CH3CH9CH3C2H3C6H7C2H5NH2CH2NC2HC3HC4SH4CH11NH10CH3S2CH4CH4CH2CH7CH3C2H4CH2C2HCHCH5CH6C2HNHCHCH2NCHCSCHCH2C4H3C2H5CSH3CH6FeS2CH5FeS2FeS2FeSFeS3CFeS2FeCSHFeSC6H4C6H4C2H5C2SCHC7H9CSCHCFeH2SH6CH6C2H2NC10H17CH6C2HCH2CH4CHNH2C2H3C2HCHCH3CHCH6CH3C2HC2NHFeC2SH4CH3CH8C4NH7CHCHCFeSH3SH2C2H3CHCHC2H5SCH3SHC2H2C7H4CH4C2H2CH2CHCHCH2FeCHCH5CNC2H3C3NH2CH15CHSCHFeHC2NHFeHS2H3CHSC3HC6H12C2H11Fe2CH2C2H2CH2CH3CH3CHSHFeC2HC3SHC2H6NCHFeS2FeS2FeSFeS3FeSCH2FeS2FeSFeS2FeSC6H7CHNC7H4C6H4C3H2C6H5NC12H22CH5C3H3CH2C2H3C2H3CHC2H2CH3CH2NH2CH2C2HC2H2C3H4C2H8CH2CH3CNH4CH2SHSH4NC10H23NC12H19CH5CHCH2CHCH4SCHCH4CH3C2H2CH6CH9SH2CHC2FeH2FeS2FeS2FeSFeS3H2SFeS2FeSH2Fe2S2Fe2S2H4C6H4CHC6H4C6H4C6H5C2H5CHSHC2HCHC2H3CSHCH4NC11H21CH7NC6HC4H6CH6CSH2CFeH9SNC12H28NC10SCH22CHCH5C2H3SHSHC2NHSH2CH3CHSH4
_chemical_formula_sum              "Fe96 S192 H1536 C864 N48"
_cell_length_a       63.2721
_cell_length_b       63.1543
_cell_length_c       26.2175
_cell_angle_alpha    88.6874
_cell_angle_beta     88.6803
_cell_angle_gamma    89.4378

_space_group_name_H-M_alt    "P 1"
_space_group_IT_number       1

loop_
  _space_group_symop_operation_xyz
  'x, y, z'

loop_
  _atom_site_type_symbol
  _atom_site_label
  _atom_site_symmetry_multiplicity
  _atom_site_fract_x
  _atom_site_fract_y
  _atom_site_fract_z
  _atom_site_occupancy
  Fe  Fe1       1.0  0.14241  0.15392  0.01325  1.0000
  S   S1        1.0  0.15468  0.15349  0.93290  1.0000
  S   S2        1.0  0.13800  0.18445  0.05658  1.0000
  Fe  Fe2       1.0  0.13882  0.10577  0.01998  1.0000
  S   S3        1.0  0.15078  0.10210  0.93833  1.0000
  S   S4        1.0  0.12624  0.07743  0.06765  1.0000
  Fe  Fe3       1.0  0.17503  0.12626  0.95855  1.0000
  S   S5        1.0  0.20836  0.12742  0.92422  1.0000
  Fe  Fe4       1.0  0.12936  0.12972  0.91854  1.0000
  S   S6        1.0  0.11410  0.13730  0.84151  1.0000
  S   S7        1.0  0.16458  0.12819  0.04103  1.0000
  S   S8        1.0  0.11565  0.13186  0.99831  1.0000
  S   S9        1.0  0.29071  0.11670  0.05628  1.0000
  Fe  Fe5       1.0  0.14678  0.01033  0.33616  1.0000
  S   S10       1.0  0.15822  0.01623  0.41581  1.0000
  S   S11       1.0  0.15752  0.03640  0.27892  1.0000
  Fe  Fe6       1.0  0.12623  0.00427  0.44124  1.0000
  S   S12       1.0  0.10469  0.01667  0.50416  1.0000
  Fe  Fe7       1.0  0.02090  0.12432  0.64593  1.0000
  S   S13       1.0  0.03711  0.14603  0.58825  1.0000
  S   S14       1.0  0.02840  0.11634  0.72931  1.0000
  Fe  Fe8       1.0  0.00438  0.15363  0.55952  1.0000
  Fe  Fe9       1.0  0.03589  0.11820  0.53595  1.0000
  S   S15       1.0  0.06394  0.10857  0.48578  1.0000
  S   S16       1.0  0.02206  0.09630  0.59522  1.0000
  H   H1        1.0  0.02736  0.01773  0.37592  1.0000
  C   C1        1.0  0.28970  0.05264  0.00045  1.0000
  C   C2        1.0  0.09280  0.04182  0.49678  1.0000
  C   C3        1.0  0.09994  0.05634  0.45942  1.0000
  C   C4        1.0  0.09103  0.07683  0.45686  1.0000
  C   C5        1.0  0.07441  0.08262  0.49012  1.0000
  C   C6        1.0  0.06686  0.06780  0.52638  1.0000
  C   C7        1.0  0.07629  0.04762  0.53034  1.0000
  H   H2        1.0  0.11284  0.05198  0.43383  1.0000
  H   H3        1.0  0.09713  0.08841  0.42957  1.0000
  H   H4        1.0  0.05398  0.07193  0.55184  1.0000
  H   H5        1.0  0.07068  0.03643  0.55932  1.0000
  N   N1        1.0  0.29320  0.20476  0.95216  1.0000
  H   H6        1.0  0.27729  0.17773  0.11853  1.0000
  C   C8        1.0  0.30636  0.05449  0.04132  1.0000
  C   C9        1.0  0.05233  0.12220  0.76003  1.0000
  C   C10       1.0  0.06780  0.13500  0.73660  1.0000
  C   C11       1.0  0.08647  0.13951  0.76245  1.0000
  C   C12       1.0  0.09001  0.13119  0.81185  1.0000
  C   C13       1.0  0.07457  0.11835  0.83529  1.0000
  C   C14       1.0  0.05582  0.11393  0.80950  1.0000
  H   H7        1.0  0.06528  0.14158  0.69873  1.0000
  H   H8        1.0  0.09829  0.14950  0.74399  1.0000
  H   H9        1.0  0.07707  0.11182  0.87321  1.0000
  H   H10       1.0  0.04393  0.10408  0.82810  1.0000
  C   C15       1.0  0.13607  0.06548  0.12476  1.0000
  C   C16       1.0  0.15347  0.07348  0.14979  1.0000
  C   C17       1.0  0.16000  0.06409  0.19634  1.0000
  C   C18       1.0  0.14931  0.04657  0.21847  1.0000
  C   C19       1.0  0.13219  0.03829  0.19292  1.0000
  C   C20       1.0  0.12558  0.04776  0.14650  1.0000
  H   H11       1.0  0.16177  0.08703  0.13359  1.0000
  H   H12       1.0  0.17334  0.07057  0.21556  1.0000
  H   H13       1.0  0.12391  0.02473  0.20912  1.0000
  H   H14       1.0  0.11220  0.04133  0.12732  1.0000
  C   C21       1.0  0.26796  0.12071  0.01952  1.0000
  C   C22       1.0  0.24800  0.11694  0.04222  1.0000
  C   C23       1.0  0.22952  0.11935  0.01375  1.0000
  C   C24       1.0  0.23095  0.12538  0.96221  1.0000
  C   C25       1.0  0.25090  0.12941  0.93966  1.0000
  C   C26       1.0  0.26936  0.12726  0.96829  1.0000
  H   H15       1.0  0.24682  0.11192  0.08193  1.0000
  H   H16       1.0  0.21424  0.11614  0.03144  1.0000
  H   H17       1.0  0.25204  0.13408  0.89973  1.0000
  H   H18       1.0  0.28466  0.13026  0.95055  1.0000
  S   S17       1.0  0.00428  0.12684  0.50332  1.0000
  C   C27       1.0  0.13886  0.20994  0.96942  1.0000
  C   C28       1.0  0.13583  0.20877  0.02237  1.0000
  H   H19       1.0  0.10069  0.12776  0.12377  1.0000
  H   H20       1.0  0.14265  0.19582  0.94867  1.0000
  H   H21       1.0  0.07870  0.14838  0.36913  1.0000
  N   N2        1.0  0.09896  0.08672  0.27842  1.0000
  C   C29       1.0  0.11068  0.09870  0.23622  1.0000
  C   C30       1.0  0.11451  0.07702  0.31553  1.0000
  C   C31       1.0  0.08731  0.06886  0.25431  1.0000
  C   C32       1.0  0.08279  0.10035  0.30574  1.0000
  C   C33       1.0  0.09717  0.10788  0.19216  1.0000
  C   C34       1.0  0.07613  0.05287  0.29172  1.0000
  C   C35       1.0  0.13494  0.08960  0.32551  1.0000
  C   C36       1.0  0.14632  0.08079  0.37234  1.0000
  C   C37       1.0  0.11033  0.12236  0.15657  1.0000
  C   C38       1.0  0.06718  0.03433  0.26290  1.0000
  H   H22       1.0  0.12278  0.08811  0.21854  1.0000
  H   H23       1.0  0.11979  0.11200  0.25120  1.0000
  H   H24       1.0  0.10649  0.07341  0.35274  1.0000
  H   H25       1.0  0.12033  0.06138  0.30185  1.0000
  H   H26       1.0  0.09838  0.05972  0.22946  1.0000
  H   H27       1.0  0.07482  0.07515  0.22873  1.0000
  H   H28       1.0  0.06963  0.10470  0.27997  1.0000
  H   H29       1.0  0.07518  0.09124  0.33792  1.0000
  H   H30       1.0  0.09122  0.09488  0.16864  1.0000
  H   H31       1.0  0.08356  0.11728  0.20686  1.0000
  H   H32       1.0  0.06274  0.06066  0.31218  1.0000
  H   H33       1.0  0.08709  0.04611  0.32038  1.0000
  H   H34       1.0  0.14599  0.08827  0.29210  1.0000
  H   H35       1.0  0.18759  0.17532  0.05932  1.0000
  H   H36       1.0  0.30862  0.06710  0.44432  1.0000
  H   H37       1.0  0.32239  0.05109  0.02515  1.0000
  H   H38       1.0  0.13669  0.08353  0.40751  1.0000
  H   H39       1.0  0.12443  0.11378  0.14129  1.0000
  H   H40       1.0  0.11561  0.13652  0.17700  1.0000
  H   H41       1.0  0.05591  0.04009  0.23368  1.0000
  H   H42       1.0  0.08017  0.02526  0.24389  1.0000
  H   H43       1.0  0.05867  0.02348  0.29001  1.0000
  H   H44       1.0  0.25339  0.07851  0.94971  1.0000
  C   C39       1.0  0.25756  0.06457  0.92583  1.0000
  H   H45       1.0  0.03203  0.20310  0.49894  1.0000
  N   N3        1.0  0.07972  0.20319  0.86833  1.0000
  C   C40       1.0  0.05726  0.19752  0.85635  1.0000
  H   H46       1.0  0.31634  0.07726  0.85248  1.0000
  C   C41       1.0  0.09363  0.19629  0.82390  1.0000
  C   C42       1.0  0.08744  0.19245  0.91665  1.0000
  C   C43       1.0  0.07090  0.18868  0.96061  1.0000
  C   C44       1.0  0.05369  0.17399  0.84329  1.0000
  C   C45       1.0  0.11737  0.20214  0.82601  1.0000
  H   H47       1.0  0.02685  0.05801  0.38363  1.0000
  H   H48       1.0  0.20025  0.21545  0.09710  1.0000
  C   C46       1.0  0.08161  0.18492  0.01171  1.0000
  C   C47       1.0  0.03031  0.16819  0.84689  1.0000
  C   C48       1.0  0.13011  0.19215  0.78238  1.0000
  H   H49       1.0  0.05171  0.20725  0.82313  1.0000
  H   H50       1.0  0.04614  0.20154  0.88794  1.0000
  H   H51       1.0  0.28062  0.00973  0.82466  1.0000
  H   H52       1.0  0.29146  0.17238  0.98265  1.0000
  H   H53       1.0  0.08744  0.20285  0.78725  1.0000
  H   H54       1.0  0.09335  0.17878  0.82073  1.0000
  H   H55       1.0  0.09450  0.17657  0.90854  1.0000
  H   H56       1.0  0.10066  0.20163  0.93200  1.0000
  H   H57       1.0  0.06138  0.17448  0.95277  1.0000
  H   H58       1.0  0.05978  0.20210  0.96546  1.0000
  H   H59       1.0  0.05915  0.17124  0.80342  1.0000
  H   H60       1.0  0.06260  0.16309  0.86887  1.0000
  H   H61       1.0  0.12426  0.19647  0.86244  1.0000
  H   H62       1.0  0.05473  0.00281  0.49878  1.0000
  C   C49       1.0  0.30813  0.10751  0.81826  1.0000
  H   H63       1.0  0.27287  0.16191  0.06365  1.0000
  H   H64       1.0  0.22639  0.23633  0.12486  1.0000
  H   H65       1.0  0.20279  0.23445  0.96110  1.0000
  C   C50       1.0  0.26370  0.02696  0.42775  1.0000
  H   H66       1.0  0.09341  0.17188  0.00909  1.0000
  H   H67       1.0  0.08973  0.19951  0.02335  1.0000
  H   H68       1.0  0.06962  0.18062  0.04166  1.0000
  C   C51       1.0  0.30509  0.17893  0.88081  1.0000
  C   C52       1.0  0.03772  0.01621  0.40960  1.0000
  H   H69       1.0  0.02416  0.16966  0.88668  1.0000
  H   H70       1.0  0.31054  0.06880  0.94656  1.0000
  H   H71       1.0  0.26791  0.02688  0.46857  1.0000
  H   H72       1.0  0.31376  0.18625  0.00127  1.0000
  N   N4        1.0  0.10724  0.08733  0.65031  1.0000
  C   C53       1.0  0.11999  0.08020  0.69556  1.0000
  C   C54       1.0  0.11475  0.07522  0.60426  1.0000
  C   C55       1.0  0.11009  0.11085  0.64185  1.0000
  C   C56       1.0  0.08396  0.08315  0.65925  1.0000
  C   C57       1.0  0.07811  0.06062  0.67947  1.0000
  C   C58       1.0  0.11359  0.09030  0.74709  1.0000
  C   C59       1.0  0.10056  0.12043  0.59228  1.0000
  C   C60       1.0  0.13819  0.07849  0.58736  1.0000
  H   H73       1.0  0.26951  0.19990  0.04086  1.0000
  C   C61       1.0  0.05415  0.05816  0.68417  1.0000
  C   C62       1.0  0.12526  0.07977  0.79145  1.0000
  C   C63       1.0  0.10266  0.14451  0.59011  1.0000
  H   H74       1.0  0.13694  0.08420  0.68916  1.0000
  H   H75       1.0  0.11973  0.06263  0.70015  1.0000
  H   H76       1.0  0.11290  0.05789  0.61113  1.0000
  H   H77       1.0  0.10467  0.07900  0.57109  1.0000
  H   H78       1.0  0.12708  0.11516  0.64263  1.0000
  H   H79       1.0  0.10262  0.11957  0.67399  1.0000
  H   H80       1.0  0.07679  0.09475  0.68610  1.0000
  H   H81       1.0  0.07524  0.08578  0.62329  1.0000
  H   H82       1.0  0.08458  0.05750  0.71791  1.0000
  H   H83       1.0  0.08423  0.04828  0.65347  1.0000
  H   H84       1.0  0.11787  0.10730  0.74612  1.0000
  H   H85       1.0  0.09641  0.08902  0.75565  1.0000
  H   H86       1.0  0.08348  0.11686  0.59011  1.0000
  H   H87       1.0  0.10877  0.11414  0.55787  1.0000
  H   H88       1.0  0.14204  0.09550  0.58226  1.0000
  H   H89       1.0  0.14890  0.07131  0.61603  1.0000
  H   H90       1.0  0.29038  0.17966  0.85852  1.0000
  H   H91       1.0  0.26118  0.21748  0.95810  1.0000
  H   H92       1.0  0.01638  0.00169  0.49872  1.0000
  H   H93       1.0  0.04718  0.07025  0.70991  1.0000
  H   H94       1.0  0.04693  0.05991  0.64610  1.0000
  H   H95       1.0  0.05030  0.04219  0.70017  1.0000
  H   H96       1.0  0.12114  0.06275  0.79532  1.0000
  H   H97       1.0  0.14263  0.08134  0.78577  1.0000
  H   H98       1.0  0.12061  0.08765  0.82756  1.0000
  H   H99       1.0  0.11955  0.14910  0.59076  1.0000
  H   H100      1.0  0.09574  0.15086  0.55423  1.0000
  H   H101      1.0  0.09397  0.15171  0.62279  1.0000
  H   H102      1.0  0.27407  0.05543  0.01946  1.0000
  C   C64       1.0  0.99967  0.21222  0.51341  1.0000
  H   H103      1.0  0.16027  0.06913  0.52713  1.0000
  H   H104      1.0  0.24727  0.05742  0.43225  1.0000
  C   C65       1.0  0.28623  0.04379  0.82577  1.0000
  H   H105      1.0  0.29860  0.12188  0.82727  1.0000
  H   H106      1.0  0.30687  0.21253  0.87741  1.0000
  H   H107      1.0  0.21401  0.17922  0.08254  1.0000
  H   H108      1.0  0.05331  0.21034  0.33634  1.0000
  H   H109      1.0  0.13182  0.10662  0.33151  1.0000
  H   H110      1.0  0.30304  0.04289  0.07289  1.0000
  H   H111      1.0  0.28995  0.08503  0.97186  1.0000
  C   C66       1.0  0.09092  0.12084  0.32947  1.0000
  H   H112      1.0  0.21030  0.16776  0.02105  1.0000
  C   C67       1.0  0.20406  0.17970  0.04817  1.0000
  H   H113      1.0  0.05119  0.23331  0.91343  1.0000
  C   C68       1.0  0.13673  0.22942  0.94298  1.0000
  C   C69       1.0  0.99554  0.99492  0.43570  1.0000
  H   H114      1.0  0.16171  0.08887  0.37587  1.0000
  H   H115      1.0  0.29949  0.16576  0.08537  1.0000
  H   H116      1.0  0.29030  0.03622  0.98632  1.0000
  C   C70       1.0  0.23726  0.18749  0.90728  1.0000
  H   H117      1.0  0.14945  0.06354  0.36881  1.0000
  C   C71       1.0  0.30660  0.09128  0.86228  1.0000
  C   C72       1.0  0.29329  0.06907  0.95615  1.0000
  H   H118      1.0  0.06277  0.12509  0.37820  1.0000
  C   C73       1.0  0.28341  0.08491  0.87405  1.0000
  C   C74       1.0  0.28797  0.04535  0.88462  1.0000
  C   C75       1.0  0.29923  0.22599  0.97278  1.0000
  N   N5        1.0  0.28053  0.06575  0.90888  1.0000
  H   H119      1.0  0.27945  0.03161  0.90244  1.0000
  H   H120      1.0  0.21590  0.07959  0.92670  1.0000
  H   H121      1.0  0.30499  0.04223  0.89248  1.0000
  H   H122      1.0  0.27540  0.09891  0.89089  1.0000
  H   H123      1.0  0.05400  0.01921  0.39419  1.0000
  H   H124      1.0  0.29123  0.02097  0.76577  1.0000
  H   H125      1.0  0.06231  0.13986  0.31825  1.0000
  C   C76       1.0  0.20447  0.20169  0.02262  1.0000
  C   C77       1.0  0.07250  0.13430  0.34989  1.0000
  H   H126      1.0  0.27555  0.08283  0.83716  1.0000
  H   H127      1.0  0.25474  0.05030  0.95062  1.0000
  H   H128      1.0  0.24245  0.07686  0.85559  1.0000
  H   H129      1.0  0.09984  0.13082  0.30133  1.0000
  H   H130      1.0  0.10104  0.11682  0.36233  1.0000
  H   H131      1.0  0.22104  0.20548  0.01161  1.0000
  H   H132      1.0  0.19513  0.20078  0.98733  1.0000
  H   H133      1.0  0.13423  0.07585  0.50555  1.0000
  H   H134      1.0  0.30251  0.10060  0.78250  1.0000
  H   H135      1.0  0.21570  0.05101  0.93355  1.0000
  H   H136      1.0  0.12880  0.22664  0.08985  1.0000
  C   C78       1.0  0.24099  0.06348  0.88350  1.0000
  H   H137      1.0  0.13894  0.05081  0.53872  1.0000
  H   H138      1.0  0.17741  0.21596  0.06023  1.0000
  H   H139      1.0  0.24253  0.04825  0.86353  1.0000
  C   C79       1.0  0.03629  0.05619  0.41869  1.0000
  C   C80       1.0  0.21854  0.06450  0.90638  1.0000
  H   H140      1.0  0.25336  0.18079  0.97710  1.0000
  C   C81       1.0  0.28560  0.19320  0.04610  1.0000
  H   H141      1.0  0.07468  0.23370  0.95169  1.0000
  C   C82       1.0  0.13112  0.22738  0.04883  1.0000
  H   H142      1.0  0.27018  0.04775  0.81256  1.0000
  H   H143      1.0  0.20686  0.06377  0.87550  1.0000
  H   H144      1.0  0.02093  0.17858  0.82099  1.0000
  C   C83       1.0  0.19478  0.21883  0.05790  1.0000
  C   C84       1.0  0.02047  0.21576  0.49591  1.0000
  C   C85       1.0  0.27056  0.20603  0.93482  1.0000
  H   H145      1.0  0.05335  0.05772  0.40858  1.0000
  H   H146      1.0  0.99595  0.04376  0.77673  1.0000
  H   H147      1.0  0.07023  0.99442  0.44640  1.0000
  C   C86       1.0  0.24411  0.04096  0.42071  1.0000
  H   H148      1.0  0.31519  0.22503  0.98969  1.0000
  H   H149      1.0  0.13914  0.23020  0.90203  1.0000
  H   H150      1.0  0.31418  0.02385  0.32724  1.0000
  C   C87       1.0  0.00113  0.03455  0.62881  1.0000
  Fe  Fe10      1.0  0.32414  0.12092  0.02525  1.0000
  C   C88       1.0  0.30141  0.00136  0.40809  1.0000
  H   H151      1.0  0.27006  0.21261  0.89505  1.0000
  C   C89       1.0  0.03808  0.21910  0.33296  1.0000
  C   C90       1.0  0.29655  0.18830  0.99404  1.0000
  H   H152      1.0  0.28791  0.05575  0.48298  1.0000
  H   H153      1.0  0.04127  0.03400  0.48048  1.0000
  H   H154      1.0  0.22753  0.17305  0.91341  1.0000
  C   C91       1.0  0.14313  0.06787  0.53662  1.0000
  H   H155      1.0  0.24088  0.18934  0.86576  1.0000
  H   H156      1.0  0.24641  0.01098  0.55345  1.0000
  H   H157      1.0  0.31346  0.09855  0.89620  1.0000
  H   H158      1.0  0.30599  0.07062  0.05736  1.0000
  H   H159      1.0  0.03178  0.06921  0.44478  1.0000
  H   H160      1.0  0.29742  0.05478  0.80588  1.0000
  H   H161      1.0  0.01500  0.03463  0.45669  1.0000
  C   C92       1.0  0.28248  0.03458  0.39306  1.0000
  H   H162      1.0  0.23087  0.03465  0.44493  1.0000
  H   H163      1.0  0.04258  0.23817  0.46212  1.0000
  C   C93       1.0  0.22672  0.99277  0.50444  1.0000
  H   H164      1.0  0.02741  0.21393  0.36506  1.0000
  H   H165      1.0  0.29295  0.99589  0.37401  1.0000
  C   C94       1.0  0.25770  0.18517  0.93697  1.0000
  H   H166      1.0  0.26670  0.17173  0.92085  1.0000
  H   H167      1.0  0.22786  0.20138  0.92008  1.0000
  C   C95       1.0  0.29190  0.02150  0.80804  1.0000
  H   H168      1.0  0.09785  0.23173  0.87873  1.0000
  C   C96       1.0  0.08134  0.22699  0.87135  1.0000
  H   H169      1.0  0.00194  0.01900  0.64936  1.0000
  H   H170      1.0  0.01684  0.03795  0.61090  1.0000
  H   H171      1.0  0.23880  0.22029  0.07762  1.0000
  H   H172      1.0  0.02834  0.15153  0.83527  1.0000
  H   H173      1.0  0.31191  0.05011  0.55451  1.0000
  H   H174      1.0  0.29506  0.20496  0.06651  1.0000
  H   H175      1.0  0.23918  0.04105  0.38029  1.0000
  H   H176      1.0  0.14693  0.19685  0.78445  1.0000
  C   C97       1.0  0.02639  0.23576  0.47470  1.0000
  H   H177      1.0  0.30963  0.06394  0.34882  1.0000
  C   C98       1.0  0.03200  0.03482  0.44527  1.0000
  C   C99       1.0  0.28376  0.17341  0.08039  1.0000
  H   H178      1.0  0.29138  0.99644  0.44169  1.0000
  H   H179      1.0  0.12942  0.17460  0.78524  1.0000
  H   H180      1.0  0.03057  0.21512  0.29656  1.0000
  H   H181      1.0  0.28270  0.05212  0.39336  1.0000
  H   H182      1.0  0.27846  0.03069  0.35317  1.0000
  H   H183      1.0  0.11954  0.21950  0.82185  1.0000
  H   H184      1.0  0.30423  0.16531  0.90798  1.0000
  H   H185      1.0  0.00752  0.05280  0.69450  1.0000
  C   C100      1.0  0.30816  0.20014  0.90801  1.0000
  H   H186      1.0  0.25930  0.01056  0.41803  1.0000
  H   H187      1.0  0.28828  0.23049  0.00449  1.0000
  H   H188      1.0  0.21329  0.00339  0.50783  1.0000
  S   S18       1.0  0.11387  0.00077  0.36230  1.0000
  C   C101      1.0  0.24561  0.99700  0.53051  1.0000
  C   C102      1.0  0.23496  0.23687  0.08766  1.0000
  C   C103      1.0  0.30511  0.05490  0.47409  1.0000
  H   H189      1.0  0.30822  0.01704  0.81927  1.0000
  N   N6        1.0  0.30377  0.02519  0.40617  1.0000
  C   C104      1.0  0.31162  0.03226  0.45718  1.0000
  H   H190      1.0  0.12396  0.19755  0.74489  1.0000
  C   C105      1.0  0.31646  0.06099  0.52233  1.0000
  H   H191      1.0  0.30604  0.02141  0.48867  1.0000
  H   H192      1.0  0.31192  0.07737  0.53285  1.0000
  H   H193      1.0  0.18583  0.23881  0.14714  1.0000
  H   H194      1.0  0.17611  0.23791  0.98203  1.0000
  N   N7        1.0  0.03649  0.99423  0.43346  1.0000
  C   C106      1.0  0.32342  0.17454  0.84339  1.0000
  C   C107      1.0  0.06804  0.23783  0.91384  1.0000
  H   H195      1.0  0.26556  0.23944  0.12293  1.0000
  H   H196      1.0  0.32069  0.15944  0.82377  1.0000
  H   H197      1.0  0.99536  0.01020  0.41409  1.0000
  H   H198      1.0  0.07721  0.23454  0.83396  1.0000
  H   H199      1.0  0.02214  0.07185  0.79286  1.0000
  C   C108      1.0  0.31948  0.03062  0.36369  1.0000
  H   H200      1.0  0.00482  0.08250  0.84195  1.0000
  H   H201      1.0  0.99505  0.06725  0.64388  1.0000
  C   C109      1.0  0.00952  0.06788  0.82160  1.0000
  H   H202      1.0  0.01604  0.05628  0.84970  1.0000
  C   C110      1.0  0.99503  0.05212  0.66564  1.0000
  N   N8        1.0  0.19896  0.24152  0.04135  1.0000
  H   H203      1.0  0.99342  0.08249  0.73464  1.0000
  C   C111      1.0  0.32422  0.05439  0.35403  1.0000
  S   S19       1.0  0.99103  0.18724  0.54088  1.0000
  Fe  Fe11      1.0  0.13233  0.33135  0.06668  1.0000
  S   S20       1.0  0.11565  0.32960  0.99185  1.0000
  S   S21       1.0  0.12070  0.33335  0.14994  1.0000
  Fe  Fe12      1.0  0.17625  0.32427  0.01476  1.0000
  S   S22       1.0  0.16279  0.32253  0.93622  1.0000
  S   S23       1.0  0.20913  0.31313  0.03820  1.0000
  Fe  Fe13      1.0  0.14209  0.35013  0.95916  1.0000
  S   S24       1.0  0.13083  0.37751  0.90712  1.0000
  Fe  Fe14      1.0  0.13759  0.30239  0.97405  1.0000
  S   S25       1.0  0.12947  0.27206  0.93467  1.0000
  S   S26       1.0  0.15757  0.35355  0.03570  1.0000
  S   S27       1.0  0.15207  0.30245  0.05064  1.0000
  S   S28       1.0  0.29695  0.34974  0.95610  1.0000
  Fe  Fe15      1.0  0.15784  0.44728  0.65114  1.0000
  S   S29       1.0  0.17266  0.44041  0.57427  1.0000
  S   S30       1.0  0.17220  0.42557  0.71256  1.0000
  C   C112      1.0  0.18502  0.25604  0.07273  1.0000
  Fe  Fe16      1.0  0.14007  0.44509  0.54398  1.0000
  S   S31       1.0  0.12772  0.42356  0.48383  1.0000
  H   H204      1.0  0.22312  0.26523  0.04869  1.0000
  Fe  Fe17      1.0  0.01952  0.34531  0.33909  1.0000
  S   S32       1.0  0.03888  0.33197  0.40312  1.0000
  S   S33       1.0  0.02951  0.34776  0.25467  1.0000
  H   H205      1.0  0.99367  0.45323  0.56015  1.0000
  Fe  Fe18      1.0  0.02464  0.35814  0.44961  1.0000
  S   S34       1.0  0.03865  0.37851  0.51049  1.0000
  S   S35       1.0  0.00752  0.37325  0.38387  1.0000
  C   C113      1.0  0.01820  0.42901  0.36766  1.0000
  H   H206      1.0  0.22913  0.46433  0.75512  1.0000
  C   C114      1.0  0.10284  0.41125  0.49151  1.0000
  C   C115      1.0  0.09563  0.39824  0.45292  1.0000
  C   C116      1.0  0.07588  0.38822  0.45792  1.0000
  C   C117      1.0  0.06327  0.39112  0.50171  1.0000
  C   C118      1.0  0.07043  0.40421  0.54016  1.0000
  C   C119      1.0  0.09011  0.41426  0.53509  1.0000
  H   H207      1.0  0.10537  0.39588  0.41902  1.0000
  H   H208      1.0  0.07052  0.37815  0.42807  1.0000
  H   H209      1.0  0.06074  0.40648  0.57414  1.0000
  H   H210      1.0  0.09539  0.42435  0.56482  1.0000
  C   C120      1.0  0.09074  0.30557  0.39440  1.0000
  H   H211      1.0  0.26990  0.35266  0.19604  1.0000
  H   H212      1.0  0.23986  0.41955  0.55282  1.0000
  H   H213      1.0  0.23510  0.40250  0.60844  1.0000
  C   C121      1.0  0.09518  0.33803  0.17756  1.0000
  C   C122      1.0  0.09334  0.34105  0.23052  1.0000
  C   C123      1.0  0.07344  0.34433  0.25456  1.0000
  C   C124      1.0  0.05504  0.34416  0.22608  1.0000
  C   C125      1.0  0.05685  0.34123  0.17309  1.0000
  C   C126      1.0  0.07680  0.33827  0.14886  1.0000
  H   H214      1.0  0.10746  0.34115  0.25301  1.0000
  H   H215      1.0  0.07237  0.34738  0.29494  1.0000
  H   H216      1.0  0.04274  0.34130  0.15057  1.0000
  H   H217      1.0  0.07794  0.33604  0.10810  1.0000
  C   C127      1.0  0.14273  0.39051  0.85300  1.0000
  C   C128      1.0  0.16308  0.38538  0.83492  1.0000
  C   C129      1.0  0.17175  0.39618  0.79171  1.0000
  C   C130      1.0  0.16020  0.41215  0.76595  1.0000
  C   C131      1.0  0.13978  0.41711  0.78364  1.0000
  C   C132      1.0  0.13118  0.40642  0.82708  1.0000
  H   H218      1.0  0.17215  0.37319  0.85441  1.0000
  H   H219      1.0  0.18752  0.39212  0.77823  1.0000
  H   H220      1.0  0.13075  0.42941  0.76446  1.0000
  H   H221      1.0  0.11546  0.41055  0.84088  1.0000
  H   H222      1.0  0.00494  0.46048  0.50030  1.0000
  C   C133      1.0  0.29950  0.24498  0.93408  1.0000
  H   H223      1.0  0.13773  0.34595  0.71262  1.0000
  H   H224      1.0  0.12547  0.26119  0.04310  1.0000
  C   C134      1.0  0.23323  0.32275  0.01199  1.0000
  C   C135      1.0  0.23400  0.34039  0.97883  1.0000
  C   C136      1.0  0.25365  0.34834  0.96148  1.0000
  C   C137      1.0  0.27262  0.33859  0.97659  1.0000
  C   C138      1.0  0.27184  0.32062  0.00871  1.0000
  C   C139      1.0  0.25220  0.31282  0.02656  1.0000
  H   H225      1.0  0.21948  0.34811  0.96727  1.0000
  H   H226      1.0  0.25416  0.36221  0.93646  1.0000
  H   H227      1.0  0.28637  0.31291  0.02025  1.0000
  H   H228      1.0  0.25172  0.29918  0.05221  1.0000
  C   C140      1.0  0.19236  0.24408  0.98644  1.0000
  H   H229      1.0  0.21424  0.47492  0.64326  1.0000
  C   C141      1.0  0.22333  0.42641  0.79729  1.0000
  H   H230      1.0  0.10554  0.41632  0.68639  1.0000
  C   C142      1.0  0.08143  0.30196  0.34204  1.0000
  H   H231      1.0  0.27224  0.45231  0.70862  1.0000
  H   H232      1.0  0.15207  0.39406  0.56697  1.0000
  C   C143      1.0  0.27999  0.35582  0.16133  1.0000
  H   H233      1.0  0.09708  0.32189  0.39561  1.0000
  H   H234      1.0  0.09436  0.30424  0.31320  1.0000
  C   C144      1.0  0.04072  0.28740  0.28746  1.0000
  H   H235      1.0  0.17321  0.28592  0.14622  1.0000
  C   C145      1.0  0.23043  0.47940  0.65449  1.0000
  H   H236      1.0  0.08169  0.29363  0.14282  1.0000
  H   H237      1.0  0.20533  0.37649  0.11632  1.0000
  C   C146      1.0  0.24388  0.46937  0.50188  1.0000
  H   H238      1.0  0.14158  0.34428  0.82457  1.0000
  H   H239      1.0  0.06011  0.27839  0.37235  1.0000
  H   H240      1.0  0.29112  0.33668  0.09660  1.0000
  S   S36       1.0  0.12491  0.44938  0.62092  1.0000
  C   C147      1.0  0.22853  0.41563  0.58456  1.0000
  H   H241      1.0  0.05758  0.26711  0.18289  1.0000
  H   H242      1.0  0.21359  0.41017  0.56792  1.0000
  H   H243      1.0  0.04983  0.24560  0.25585  1.0000
  H   H244      1.0  0.30129  0.27934  0.93288  1.0000
  H   H245      1.0  0.99647  0.28529  0.28361  1.0000
  H   H246      1.0  0.08904  0.45930  0.49917  1.0000
  H   H247      1.0  0.04101  0.46772  0.52211  1.0000
  Fe  Fe19      1.0  0.01008  0.31254  0.42558  1.0000
  H   H248      1.0  0.14057  0.35876  0.60213  1.0000
  H   H249      1.0  0.20287  0.25850  0.88649  1.0000
  H   H250      1.0  0.04426  0.30459  0.28567  1.0000
  C   C148      1.0  0.12907  0.33426  0.80889  1.0000
  H   H251      1.0  0.09746  0.33393  0.56586  1.0000
  C   C149      1.0  0.19263  0.26696  0.96354  1.0000
  H   H252      1.0  0.09258  0.27756  0.25747  1.0000
  H   H253      1.0  0.10564  0.39011  0.75249  1.0000
  H   H254      1.0  0.07504  0.34976  0.54729  1.0000
  C   C150      1.0  0.09907  0.38439  0.71632  1.0000
  H   H255      1.0  0.31079  0.32397  0.17302  1.0000
  H   H256      1.0  0.18785  0.27285  0.06145  1.0000
  C   C151      1.0  0.07586  0.28019  0.24616  1.0000
  H   H257      1.0  0.27266  0.45357  0.47462  1.0000
  H   H258      1.0  0.27713  0.39344  0.06301  1.0000
  H   H259      1.0  0.25172  0.39275  0.18400  1.0000
  H   H260      1.0  0.28471  0.43051  0.20369  1.0000
  H   H261      1.0  0.20778  0.27492  0.97091  1.0000
  H   H262      1.0  0.17945  0.27647  0.98012  1.0000
  H   H263      1.0  0.00298  0.40439  0.54637  1.0000
  H   H264      1.0  0.09658  0.45710  0.43253  1.0000
  H   H265      1.0  0.21232  0.43046  0.64712  1.0000
  C   C152      1.0  0.09222  0.40499  0.68756  1.0000
  C   C153      1.0  0.07401  0.26769  0.19616  1.0000
  H   H266      1.0  0.03354  0.29126  0.20664  1.0000
  C   C154      1.0  0.07155  0.27963  0.33947  1.0000
  H   H267      1.0  0.32096  0.37559  0.02272  1.0000
  C   C155      1.0  0.12756  0.35844  0.73001  1.0000
  C   C156      1.0  0.18963  0.26702  0.90586  1.0000
  C   C157      1.0  0.26325  0.46671  0.69649  1.0000
  H   H268      1.0  0.07839  0.30377  0.42499  1.0000
  H   H269      1.0  0.02249  0.42928  0.58069  1.0000
  C   C158      1.0  0.08391  0.34350  0.58053  1.0000
  Fe  Fe20      1.0  0.13079  0.48438  0.60606  1.0000
  C   C159      1.0  0.12927  0.24696  0.02245  1.0000
  H   H270      1.0  0.26476  0.42009  0.24802  1.0000
  H   H271      1.0  0.01020  0.40910  0.46014  1.0000
  N   N9        1.0  0.06089  0.27447  0.29020  1.0000
  C   C160      1.0  0.29991  0.26611  0.96141  1.0000
  C   C161      1.0  0.22858  0.45281  0.72368  1.0000
  H   H272      1.0  0.25412  0.43029  0.65437  1.0000
  C   C162      1.0  0.10381  0.35368  0.65904  1.0000
  H   H273      1.0  0.30008  0.39427  0.19536  1.0000
  C   C163      1.0  0.08383  0.46231  0.45943  1.0000
  S   S37       1.0  0.30577  0.48765  0.46745  1.0000
  H   H274      1.0  0.25262  0.26449  0.11001  1.0000
  H   H275      1.0  0.23432  0.45528  0.50151  1.0000
  C   C164      1.0  0.27762  0.47886  0.65698  1.0000
  C   C165      1.0  0.23447  0.48872  0.51638  1.0000
  C   C166      1.0  0.08765  0.27754  0.15308  1.0000
  H   H276      1.0  0.31578  0.37392  0.11625  1.0000
  H   H277      1.0  0.07748  0.37103  0.62419  1.0000
  C   C167      1.0  0.29466  0.31820  0.16538  1.0000
  H   H278      1.0  0.16811  0.25304  0.06495  1.0000
  C   C168      1.0  0.28245  0.33453  0.13340  1.0000
  H   H279      1.0  0.23960  0.36141  0.14587  1.0000
  H   H280      1.0  0.08442  0.26794  0.34759  1.0000
  H   H281      1.0  0.15489  0.26403  0.14888  1.0000
  H   H282      1.0  0.17443  0.25945  0.89677  1.0000
  H   H283      1.0  0.03109  0.28537  0.32333  1.0000
  H   H284      1.0  0.26675  0.32764  0.12625  1.0000
  H   H285      1.0  0.02649  0.44114  0.34350  1.0000
  C   C169      1.0  0.22191  0.24772  0.04474  1.0000
  H   H286      1.0  0.28515  0.26855  0.98432  1.0000
  H   H287      1.0  0.06957  0.43082  0.69409  1.0000
  H   H288      1.0  0.21262  0.36207  0.05983  1.0000
  H   H289      1.0  0.25382  0.44998  0.60539  1.0000
  C   C170      1.0  0.05663  0.25095  0.29183  1.0000
  H   H290      1.0  0.21674  0.44732  0.59168  1.0000
  H   H291      1.0  0.26185  0.47641  0.73135  1.0000
  H   H292      1.0  0.03148  0.46712  0.58772  1.0000
  S   S38       1.0  0.02019  0.27745  0.44134  1.0000
  H   H293      1.0  0.17298  0.26770  0.20000  1.0000
  C   C171      1.0  0.24940  0.36744  0.11283  1.0000
  S   S39       1.0  0.14490  0.47977  0.52742  1.0000
  H   H294      1.0  0.00155  0.45289  0.40952  1.0000
  C   C172      1.0  0.02430  0.43895  0.54494  1.0000
  H   H295      1.0  0.20597  0.42791  0.79269  1.0000
  H   H296      1.0  0.08706  0.26764  0.11867  1.0000
  C   C173      1.0  0.99877  0.42227  0.45243  1.0000
  H   H297      1.0  0.05987  0.26936  0.93968  1.0000
  C   C174      1.0  0.22400  0.43506  0.61686  1.0000
  H   H298      1.0  0.25102  0.35405  0.08609  1.0000
  C   C175      1.0  0.24457  0.44378  0.63898  1.0000
  H   H299      1.0  0.10439  0.27870  0.16455  1.0000
  C   C176      1.0  0.23499  0.43086  0.74651  1.0000
  C   C177      1.0  0.23634  0.38457  0.08355  1.0000
  H   H300      1.0  0.08461  0.37539  0.72797  1.0000
  C   C178      1.0  0.21340  0.37768  0.07829  1.0000
  H   H301      1.0  0.05948  0.40543  0.71537  1.0000
  C   C179      1.0  0.26567  0.46841  0.48649  1.0000
  H   H302      1.0  0.23606  0.39999  0.10291  1.0000
  N   N10       1.0  0.27079  0.37418  0.13089  1.0000
  H   H303      1.0  0.23090  0.41809  0.72013  1.0000
  H   H304      1.0  0.24316  0.38705  0.04444  1.0000
  H   H305      1.0  0.21153  0.45207  0.71413  1.0000
  H   H306      1.0  0.30745  0.40147  0.11547  1.0000
  C   C180      1.0  0.16166  0.38500  0.59519  1.0000
  C   C181      1.0  0.06876  0.26194  0.90762  1.0000
  C   C182      1.0  0.27826  0.48674  0.48626  1.0000
  Fe  Fe21      1.0  0.17663  0.47542  0.56463  1.0000
  C   C183      1.0  0.18769  0.25510  0.13124  1.0000
  H   H307      1.0  0.10382  0.29413  0.40181  1.0000
  H   H308      1.0  0.22695  0.41003  0.81105  1.0000
  H   H309      1.0  0.08769  0.40212  0.64792  1.0000
  H   H310      1.0  0.07314  0.33319  0.60390  1.0000
  N   N11       1.0  0.24168  0.46067  0.67838  1.0000
  S   S40       1.0  0.99727  0.33815  0.47701  1.0000
  C   C184      1.0  0.03857  0.45751  0.55664  1.0000
  H   H311      1.0  0.29625  0.30321  0.14418  1.0000
  H   H312      1.0  0.06960  0.45263  0.45309  1.0000
  H   H313      1.0  0.16995  0.39621  0.61970  1.0000
  H   H314      1.0  0.22831  0.43765  0.82656  1.0000
  C   C185      1.0  0.07357  0.41580  0.71472  1.0000
  H   H315      1.0  0.17373  0.37558  0.57401  1.0000
  H   H316      1.0  0.31223  0.40293  0.02115  1.0000
  H   H317      1.0  0.00439  0.42332  0.34659  1.0000
  H   H318      1.0  0.20472  0.38947  0.05442  1.0000
  H   H319      1.0  0.25218  0.42988  0.75355  1.0000
  H   H320      1.0  0.28046  0.38390  0.23909  1.0000
  C   C186      1.0  0.14766  0.37026  0.62796  1.0000
  H   H321      1.0  0.07768  0.41958  0.75447  1.0000
  H   H322      1.0  0.11520  0.34122  0.64631  1.0000
  N   N12       1.0  0.11490  0.37004  0.68959  1.0000
  C   C187      1.0  0.11465  0.34741  0.77416  1.0000
  H   H323      1.0  0.02449  0.26639  0.23435  1.0000
  H   H324      1.0  0.07449  0.29743  0.23636  1.0000
  C   C188      1.0  0.26759  0.39323  0.16455  1.0000
  C   C189      1.0  0.30730  0.38643  0.09455  1.0000
  H   H325      1.0  0.09196  0.34506  0.68335  1.0000
  H   H326      1.0  0.02936  0.41559  0.37445  1.0000
  H   H327      1.0  0.10645  0.35928  0.79839  1.0000
  H   H328      1.0  0.13827  0.39464  0.68100  1.0000
  H   H329      1.0  0.06150  0.26719  0.87123  1.0000
  H   H330      1.0  0.15815  0.36167  0.65486  1.0000
  H   H331      1.0  0.20338  0.26135  0.14096  1.0000
  H   H332      1.0  0.29581  0.35967  0.17572  1.0000
  C   C190      1.0  0.09168  0.36190  0.61183  1.0000
  H   H333      1.0  0.11967  0.32745  0.84152  1.0000
  C   C191      1.0  0.28430  0.37989  0.08446  1.0000
  H   H334      1.0  0.10170  0.37189  0.58598  1.0000
  S   S41       1.0  0.16292  0.48260  0.64314  1.0000
  H   H335      1.0  0.26759  0.40812  0.14087  1.0000
  C   C192      1.0  0.28106  0.41777  0.23236  1.0000
  H   H336      1.0  0.06934  0.31433  0.33537  1.0000
  C   C193      1.0  0.00230  0.44667  0.52638  1.0000
  H   H337      1.0  0.10264  0.33660  0.75952  1.0000
  H   H338      1.0  0.28468  0.36677  0.05695  1.0000
  H   H339      1.0  0.29234  0.41903  0.26404  1.0000
  C   C194      1.0  0.28344  0.39602  0.20842  1.0000
  H   H340      1.0  0.13858  0.36955  0.74811  1.0000
  H   H341      1.0  0.05423  0.45143  0.56899  1.0000
  H   H342      1.0  0.12201  0.39270  0.62768  1.0000
  H   H343      1.0  0.28053  0.46955  0.62213  1.0000
  H   H344      1.0  0.13661  0.32105  0.78768  1.0000
  C   C195      1.0  0.13025  0.38296  0.65696  1.0000
  H   H345      1.0  0.28616  0.31484  0.20218  1.0000
  H   H346      1.0  0.07335  0.48831  0.41120  1.0000
  C   C196      1.0  0.00436  0.29273  0.24949  1.0000
  C   C197      1.0  0.02653  0.28343  0.24135  1.0000
  C   C198      1.0  0.17114  0.26903  0.15803  1.0000
  H   H347      1.0  0.03245  0.42904  0.51602  1.0000
  H   H348      1.0  0.02561  0.44377  0.43728  1.0000
  C   C199      1.0  0.01170  0.25266  0.47019  1.0000
  C   C200      1.0  0.29914  0.48352  0.67928  1.0000
  H   H349      1.0  0.08532  0.26759  0.90804  1.0000
  C   C201      1.0  0.04158  0.24296  0.33560  1.0000
  C   C202      1.0  0.01111  0.43861  0.41828  1.0000
  C   C203      1.0  0.31982  0.39032  0.04480  1.0000
  H   H350      1.0  0.28542  0.24507  0.90963  1.0000
  C   C204      1.0  0.13203  0.24799  0.96938  1.0000
  H   H351      1.0  0.06534  0.48983  0.47718  1.0000
  H   H352      1.0  0.07970  0.25114  0.20239  1.0000
  H   H353      1.0  0.04831  0.24596  0.37333  1.0000
  H   H354      1.0  0.18925  0.28361  0.89090  1.0000
  C   C205      1.0  0.07870  0.48580  0.45088  1.0000
  H   H355      1.0  0.26481  0.24996  0.05844  1.0000
  H   H356      1.0  0.00509  0.31008  0.25452  1.0000
  H   H357      1.0  0.31396  0.24418  0.90926  1.0000
  H   H358      1.0  0.30747  0.46855  0.68993  1.0000
  H   H359      1.0  0.07185  0.24203  0.29505  1.0000
  H   H360      1.0  0.23859  0.48440  0.61834  1.0000
  H   H361      1.0  0.99468  0.28978  0.21565  1.0000
  H   H362      1.0  0.23071  0.24438  0.00847  1.0000
  H   H363      1.0  0.31367  0.26668  0.98694  1.0000
  H   H364      1.0  0.02585  0.25082  0.33356  1.0000
  C   C206      1.0  0.25576  0.24841  0.09505  1.0000
  C   C207      1.0  0.99093  0.24915  0.48786  1.0000
  S   S42       1.0  0.99095  0.32534  0.35945  1.0000
  Fe  Fe22      1.0  0.02262  0.60726  0.58801  1.0000
  H   H365      1.0  0.06217  0.52377  0.44799  1.0000
  S   S43       1.0  0.05753  0.59656  0.59051  1.0000
  S   S44       1.0  0.00583  0.61573  0.51515  1.0000
  H   H366      1.0  0.16955  0.53495  0.46759  1.0000
  S   S45       1.0  0.00952  0.63628  0.62807  1.0000
  H   H367      1.0  0.09855  0.59537  0.84340  1.0000
  C   C208      1.0  0.02213  0.54635  0.72211  1.0000
  H   H368      1.0  0.13960  0.53527  0.40900  1.0000
  S   S46       1.0  0.10007  0.50412  0.61680  1.0000
  C   C209      1.0  0.04907  0.56206  0.46578  1.0000
  H   H369      1.0  0.27810  0.51996  0.50246  1.0000
  H   H370      1.0  0.04739  0.57959  0.46424  1.0000
  H   H371      1.0  0.03927  0.55539  0.43553  1.0000
  H   H372      1.0  0.00705  0.64492  0.86560  1.0000
  C   C210      1.0  0.26875  0.50573  0.50184  1.0000
  H   H373      1.0  0.01524  0.62449  0.76034  1.0000
  C   C211      1.0  0.00840  0.70991  0.52027  1.0000
  H   H374      1.0  0.08021  0.52444  0.37207  1.0000
  C   C212      1.0  0.06907  0.57072  0.59810  1.0000
  C   C213      1.0  0.05684  0.55247  0.60495  1.0000
  C   C214      1.0  0.06665  0.53242  0.61152  1.0000
  C   C215      1.0  0.08884  0.53013  0.61011  1.0000
  C   C216      1.0  0.10109  0.54835  0.60296  1.0000
  C   C217      1.0  0.09126  0.56847  0.59726  1.0000
  H   H375      1.0  0.03979  0.55378  0.60495  1.0000
  H   H376      1.0  0.05695  0.51850  0.61691  1.0000
  H   H377      1.0  0.11815  0.54697  0.60214  1.0000
  H   H378      1.0  0.10094  0.58241  0.59198  1.0000
  C   C218      1.0  0.15341  0.53902  0.48213  1.0000
  C   C219      1.0  0.99713  0.63152  0.85403  1.0000
  C   C220      1.0  0.21768  0.51754  0.65864  1.0000
  H   H379      1.0  0.11976  0.50283  0.27751  1.0000
  C   C221      1.0  0.09658  0.52519  0.38674  1.0000
  H   H380      1.0  0.00516  0.55006  0.71612  1.0000
  C   C222      1.0  0.02560  0.61866  0.79169  1.0000
  N   N13       1.0  0.09641  0.52262  0.44427  1.0000
  H   H381      1.0  0.21679  0.49528  0.72159  1.0000
  H   H382      1.0  0.15161  0.55654  0.48178  1.0000
  C   C223      1.0  0.11069  0.51503  0.29894  1.0000
  C   C224      1.0  0.05621  0.59656  0.81310  1.0000
  C   C225      1.0  0.07403  0.58056  0.79950  1.0000
  C   C226      1.0  0.06391  0.62972  0.72683  1.0000
  H   H383      1.0  0.29726  0.49351  0.71344  1.0000
  C   C227      1.0  0.24722  0.50675  0.51611  1.0000
  H   H384      1.0  0.26820  0.55102  0.43300  1.0000
  H   H385      1.0  0.02902  0.73707  0.51997  1.0000
  C   C228      1.0  0.07460  0.63539  0.67552  1.0000
  C   C229      1.0  0.07583  0.53158  0.46547  1.0000
  C   C230      1.0  0.13693  0.52905  0.44858  1.0000
  H   H386      1.0  0.06099  0.59719  0.70590  1.0000
  C   C231      1.0  0.09080  0.57974  0.84059  1.0000
  C   C232      1.0  0.11422  0.53472  0.46717  1.0000
  H   H387      1.0  0.07431  0.52801  0.50717  1.0000
  H   H388      1.0  0.11263  0.55199  0.45908  1.0000
  H   H389      1.0  0.06361  0.61144  0.82556  1.0000
  H   H390      1.0  0.03819  0.61250  0.69437  1.0000
  H   H391      1.0  0.08222  0.58471  0.76287  1.0000
  H   H392      1.0  0.06743  0.56440  0.79764  1.0000
  H   H393      1.0  0.02026  0.60776  0.87176  1.0000
  H   H394      1.0  0.07654  0.62757  0.75514  1.0000
  H   H395      1.0  0.24038  0.52176  0.52727  1.0000
  C   C233      1.0  0.01389  0.73121  0.50843  1.0000
  H   H396      1.0  0.11346  0.53276  0.50952  1.0000
  C   C234      1.0  0.22751  0.49902  0.68857  1.0000
  H   H397      1.0  0.21556  0.53136  0.68374  1.0000
  H   H398      1.0  0.27045  0.49428  0.64538  1.0000
  H   H399      1.0  0.05386  0.64348  0.73747  1.0000
  H   H400      1.0  0.29524  0.54196  0.36846  1.0000
  H   H401      1.0  0.07735  0.56132  0.41898  1.0000
  C   C235      1.0  0.05052  0.60937  0.72329  1.0000
  H   H402      1.0  0.08407  0.64998  0.67900  1.0000
  H   H403      1.0  0.08534  0.62238  0.66302  1.0000
  H   H404      1.0  0.06257  0.63835  0.64590  1.0000
  H   H405      1.0  0.15182  0.53282  0.52206  1.0000
  N   N14       1.0  0.04022  0.60133  0.77248  1.0000
  C   C236      1.0  0.03504  0.56668  0.72119  1.0000
  H   H406      1.0  0.02417  0.57277  0.79891  1.0000
  H   H407      1.0  0.02784  0.53591  0.69108  1.0000
  H   H408      1.0  0.20197  0.51313  0.64431  1.0000
  H   H409      1.0  0.04300  0.55630  0.50361  1.0000
  H   H410      1.0  0.03478  0.63258  0.80344  1.0000
  H   H411      1.0  0.08150  0.56453  0.48612  1.0000
  C   C237      1.0  0.10968  0.50877  0.35560  1.0000
  H   H412      1.0  0.13996  0.51180  0.44926  1.0000
  H   H413      1.0  0.24277  0.50449  0.70317  1.0000
  H   H414      1.0  0.05187  0.56226  0.72506  1.0000
  H   H415      1.0  0.10236  0.49289  0.35878  1.0000
  C   C238      1.0  0.07232  0.55583  0.45782  1.0000
  H   H416      1.0  0.27926  0.57493  0.40495  1.0000
  H   H417      1.0  0.10226  0.54129  0.37527  1.0000
  H   H418      1.0  0.01930  0.69969  0.54061  1.0000
  H   H419      1.0  0.03329  0.57437  0.68304  1.0000
  H   H420      1.0  0.04827  0.58988  0.84804  1.0000
  H   H421      1.0  0.08363  0.57516  0.87828  1.0000
  C   C239      1.0  0.28271  0.56077  0.42939  1.0000
  C   C240      1.0  0.30063  0.54761  0.40576  1.0000
  H   H422      1.0  0.10312  0.56779  0.83054  1.0000
  S   S47       1.0  0.99688  0.58632  0.61846  1.0000
  C   C241      1.0  0.02694  0.58207  0.76279  1.0000
  H   H423      1.0  0.00017  0.59958  0.82913  1.0000
  H   H424      1.0  0.22806  0.52223  0.62562  1.0000
  C   C242      1.0  0.01093  0.61267  0.83816  1.0000
  H   H425      1.0  0.31848  0.57219  0.36587  1.0000
  H   H426      1.0  0.01094  0.58703  0.74981  1.0000
  H   H427      1.0  0.32295  0.57107  0.43127  1.0000
  H   H428      1.0  0.02387  0.53765  0.75909  1.0000
  H   H429      1.0  0.12609  0.50711  0.36875  1.0000
  H   H430      1.0  0.28693  0.56586  0.46811  1.0000
  H   H431      1.0  0.31801  0.55266  0.29534  1.0000
  H   H432      1.0  0.30904  0.49218  0.65029  1.0000
  H   H433      1.0  0.31514  0.51537  0.26681  1.0000
  H   H434      1.0  0.11876  0.53047  0.29308  1.0000
  C   C243      1.0  0.32113  0.56074  0.39801  1.0000
  C   C244      1.0  0.09798  0.49978  0.46226  1.0000
  H   H435      1.0  0.30327  0.53345  0.43064  1.0000
  H   H436      1.0  0.99501  0.67534  0.76791  1.0000
  H   H437      1.0  0.09453  0.51616  0.28328  1.0000
  H   H438      1.0  0.09996  0.49888  0.50444  1.0000
  S   S48       1.0  0.20730  0.49204  0.53669  1.0000
  H   H439      1.0  0.11234  0.49191  0.44640  1.0000
  Fe  Fe23      1.0  0.00741  0.84961  0.39815  1.0000
  H   H440      1.0  0.12597  0.89865  0.39482  1.0000
  S   S49       1.0  0.03138  0.87663  0.41354  1.0000
  C   C245      1.0  0.00017  0.74496  0.48144  1.0000
  N   N15       1.0  0.16113  0.90259  0.46275  1.0000
  S   S50       1.0  0.00943  0.81842  0.35625  1.0000
  H   H441      1.0  0.14492  0.87402  0.48689  1.0000
  Fe  Fe24      1.0  0.12658  0.96724  0.36978  1.0000
  S   S51       1.0  0.13749  0.97047  0.44997  1.0000
  S   S52       1.0  0.10867  0.93788  0.34234  1.0000
  C   C246      1.0  0.07832  0.96620  0.52024  1.0000
  S   S53       1.0  0.20155  0.96789  0.44164  1.0000
  S   S54       1.0  0.15882  0.97663  0.33709  1.0000
  C   C247      1.0  0.18230  0.89471  0.48181  1.0000
  H   H442      1.0  0.18021  0.91501  0.28846  1.0000
  H   H443      1.0  0.19445  0.90729  0.47601  1.0000
  C   C248      1.0  0.26191  0.96545  0.49708  1.0000
  C   C249      1.0  0.24298  0.96109  0.47150  1.0000
  C   C250      1.0  0.22519  0.97470  0.47464  1.0000
  H   H444      1.0  0.16914  0.94451  0.50087  1.0000
  C   C251      1.0  0.15044  0.91509  0.50480  1.0000
  H   H445      1.0  0.27524  0.95468  0.49402  1.0000
  H   H446      1.0  0.24214  0.94701  0.44897  1.0000
  C   C252      1.0  0.05272  0.89370  0.39249  1.0000
  C   C253      1.0  0.06082  0.90847  0.42655  1.0000
  C   C254      1.0  0.07776  0.92206  0.41205  1.0000
  C   C255      1.0  0.08695  0.92127  0.36297  1.0000
  C   C256      1.0  0.07891  0.90650  0.32899  1.0000
  C   C257      1.0  0.06196  0.89292  0.34343  1.0000
  H   H447      1.0  0.05403  0.90922  0.46471  1.0000
  H   H448      1.0  0.08396  0.93290  0.43908  1.0000
  H   H449      1.0  0.08583  0.90554  0.29098  1.0000
  H   H450      1.0  0.05613  0.88172  0.31662  1.0000
  H   H451      1.0  0.04423  0.96959  0.28755  1.0000
  C   C258      1.0  0.14701  0.88415  0.45178  1.0000
  C   C259      1.0  0.17351  0.92275  0.32290  1.0000
  H   H452      1.0  0.14716  0.93232  0.60308  1.0000
  C   C260      1.0  0.19130  0.87373  0.45987  1.0000
  H   H453      1.0  0.11995  0.85987  0.39395  1.0000
  H   H454      1.0  0.22441  0.88310  0.45779  1.0000
  C   C261      1.0  0.15145  0.94365  0.57159  1.0000
  H   H455      1.0  0.17841  0.92561  0.54716  1.0000
  H   H456      1.0  0.15707  0.92795  0.31474  1.0000
  H   H457      1.0  0.07921  0.95031  0.53913  1.0000
  C   C262      1.0  0.31807  0.96544  0.42885  1.0000
  H   H458      1.0  0.01552  0.97491  0.48086  1.0000
  H   H459      1.0  0.14874  0.92493  0.40663  1.0000
  Fe  Fe25      1.0  0.16899  0.98212  0.41795  1.0000
  C   C263      1.0  0.17376  0.90717  0.36829  1.0000
  C   C264      1.0  0.03686  0.97831  0.39132  1.0000
  C   C265      1.0  0.16402  0.91721  0.41681  1.0000
  H   H460      1.0  0.18135  0.89150  0.52381  1.0000
  H   H461      1.0  0.16124  0.95636  0.58728  1.0000
  H   H462      1.0  0.05543  0.95600  0.46739  1.0000
  H   H463      1.0  0.11551  0.89952  0.45937  1.0000
  H   H464      1.0  0.13681  0.95101  0.55639  1.0000
  H   H465      1.0  0.19058  0.90299  0.37458  1.0000
  Fe  Fe26      1.0  0.32263  0.98604  0.58307  1.0000
  H   H466      1.0  0.19057  0.87324  0.41785  1.0000
  H   H467      1.0  0.13607  0.92338  0.49047  1.0000
  H   H468      1.0  0.21583  0.86994  0.51670  1.0000
  C   C266      1.0  0.12472  0.88984  0.43184  1.0000
  H   H469      1.0  0.15432  0.87362  0.42296  1.0000
  C   C267      1.0  0.05557  0.96226  0.31456  1.0000
  C   C268      1.0  0.16401  0.93238  0.52949  1.0000
  H   H470      1.0  0.10980  0.86054  0.45920  1.0000
  C   C269      1.0  0.26348  0.98348  0.52695  1.0000
  H   H471      1.0  0.18332  0.93676  0.33072  1.0000
  H   H472      1.0  0.04451  0.96716  0.52471  1.0000
  C   C270      1.0  0.11197  0.86986  0.42306  1.0000
  H   H473      1.0  0.03240  0.96226  0.40621  1.0000
  H   H474      1.0  0.08033  0.97842  0.54951  1.0000
  H   H475      1.0  0.04993  0.94624  0.32647  1.0000
  H   H476      1.0  0.18207  0.86011  0.47581  1.0000
  C   C271      1.0  0.21434  0.87027  0.47453  1.0000
  H   H477      1.0  0.02454  0.98245  0.36302  1.0000
  H   H478      1.0  0.16499  0.89296  0.35722  1.0000
  H   H479      1.0  0.22021  0.85490  0.45970  1.0000
  C   C272      1.0  0.05701  0.96900  0.49456  1.0000
  H   H480      1.0  0.09609  0.87434  0.40896  1.0000
  S   S55       1.0  0.00820  0.77181  0.46791  1.0000
  H   H481      1.0  0.07109  0.96045  0.29432  1.0000
  H   H482      1.0  0.09144  0.96748  0.49149  1.0000
  H   H483      1.0  0.14488  0.90420  0.53629  1.0000
  H   H484      1.0  0.17453  0.93056  0.42579  1.0000
  S   S56       1.0  0.99539  0.83294  0.47051  1.0000
  H   H485      1.0  0.07035  0.96861  0.38532  1.0000
  C   C273      1.0  0.05809  0.97611  0.36105  1.0000
  H   H486      1.0  0.31159  0.96504  0.46862  1.0000
  Fe  Fe27      1.0  0.99529  0.80231  0.42746  1.0000
  C   C274      1.0  0.05516  0.99110  0.46777  1.0000
  H   H487      1.0  0.30672  0.95780  0.40349  1.0000
  S   S57       1.0  0.28738  0.99013  0.55915  1.0000
  C   C275      1.0  0.01641  0.99135  0.46484  1.0000
  C   C276      1.0  0.32222  0.98828  0.41117  1.0000
  H   H488      1.0  0.99334  0.98202  0.40825  1.0000
  H   H489      1.0  0.06398  0.99172  0.34726  1.0000
  H   H490      1.0  0.54707  0.04683  0.56929  1.0000
  H   H491      1.0  0.36038  0.10295  0.57843  1.0000
  H   H492      1.0  0.55687  0.10721  0.07937  1.0000
  H   H493      1.0  0.57355  0.08852  0.29673  1.0000
  C   C277      1.0  0.58105  0.06122  0.25168  1.0000
  Fe  Fe28      1.0  0.36977  0.11603  0.06068  1.0000
  S   S58       1.0  0.38319  0.12752  0.98451  1.0000
  S   S59       1.0  0.38477  0.10754  0.13750  1.0000
  Fe  Fe29      1.0  0.35764  0.15245  0.98857  1.0000
  S   S60       1.0  0.36448  0.18559  0.95878  1.0000
  Fe  Fe30      1.0  0.35849  0.10732  0.94812  1.0000
  S   S61       1.0  0.36287  0.09418  0.86758  1.0000
  S   S62       1.0  0.34569  0.14244  0.06621  1.0000
  S   S63       1.0  0.34714  0.09357  0.02400  1.0000
  Fe  Fe31      1.0  0.52030  0.10833  0.39764  1.0000
  S   S64       1.0  0.50497  0.12038  0.47013  1.0000
  S   S65       1.0  0.55435  0.09486  0.39551  1.0000
  Fe  Fe32      1.0  0.48065  0.11935  0.33474  1.0000
  S   S66       1.0  0.46236  0.13087  0.40378  1.0000
  S   S67       1.0  0.47245  0.12125  0.24972  1.0000
  Fe  Fe33      1.0  0.49212  0.14826  0.42434  1.0000
  S   S68       1.0  0.48761  0.18405  0.44230  1.0000
  Fe  Fe34      1.0  0.47657  0.10246  0.44472  1.0000
  S   S69       1.0  0.46419  0.07895  0.50496  1.0000
  S   S70       1.0  0.50986  0.13765  0.35334  1.0000
  S   S71       1.0  0.49249  0.08952  0.37435  1.0000
  H   H494      1.0  0.35673  0.08396  0.76311  1.0000
  H   H495      1.0  0.33320  0.06056  0.38632  1.0000
  S   S72       1.0  0.35274  0.00592  0.75591  1.0000
  Fe  Fe35      1.0  0.36416  0.01030  0.56110  1.0000
  S   S73       1.0  0.37436  0.03528  0.50231  1.0000
  C   C278      1.0  0.43944  0.06649  0.50206  1.0000
  C   C279      1.0  0.43441  0.05048  0.53824  1.0000
  C   C280      1.0  0.41471  0.04040  0.53806  1.0000
  C   C281      1.0  0.39976  0.04654  0.50201  1.0000
  C   C282      1.0  0.40485  0.06247  0.46562  1.0000
  C   C283      1.0  0.42467  0.07238  0.46547  1.0000
  H   H496      1.0  0.44570  0.04600  0.56678  1.0000
  H   H497      1.0  0.41089  0.02819  0.56629  1.0000
  H   H498      1.0  0.39334  0.06728  0.43763  1.0000
  H   H499      1.0  0.42839  0.08473  0.43748  1.0000
  C   C284      1.0  0.49302  0.20623  0.48195  1.0000
  C   C285      1.0  0.50829  0.20548  0.51990  1.0000
  H   H500      1.0  0.46398  0.19079  0.19918  1.0000
  C   C286      1.0  0.36254  0.22834  0.97042  1.0000
  H   H501      1.0  0.51709  0.19095  0.52660  1.0000
  H   H502      1.0  0.55945  0.08415  0.56249  1.0000
  H   H503      1.0  0.57286  0.05131  0.28147  1.0000
  C   C287      1.0  0.35833  0.06951  0.83819  1.0000
  C   C288      1.0  0.35714  0.05035  0.86587  1.0000
  H   H504      1.0  0.60892  0.06583  0.29749  1.0000
  C   C289      1.0  0.35412  0.03075  0.78645  1.0000
  C   C290      1.0  0.35454  0.04999  0.75896  1.0000
  C   C291      1.0  0.35651  0.06921  0.78477  1.0000
  H   H505      1.0  0.43051  0.17176  0.18586  1.0000
  H   H506      1.0  0.35349  0.05001  0.71783  1.0000
  H   H507      1.0  0.53529  0.20543  0.41677  1.0000
  C   C292      1.0  0.40917  0.11235  0.16776  1.0000
  C   C293      1.0  0.42745  0.11855  0.14053  1.0000
  C   C294      1.0  0.44663  0.12112  0.16624  1.0000
  C   C295      1.0  0.44773  0.11796  0.21953  1.0000
  C   C296      1.0  0.42936  0.11210  0.24680  1.0000
  C   C297      1.0  0.41029  0.10918  0.22100  1.0000
  H   H508      1.0  0.42693  0.12086  0.09959  1.0000
  H   H509      1.0  0.46074  0.12551  0.14465  1.0000
  H   H510      1.0  0.42989  0.10956  0.28770  1.0000
  H   H511      1.0  0.39629  0.10433  0.24248  1.0000
  C   C298      1.0  0.35858  0.20850  0.99361  1.0000
  C   C299      1.0  0.35026  0.20745  0.04351  1.0000
  C   C300      1.0  0.53604  0.05946  0.55615  1.0000
  H   H512      1.0  0.34716  0.19222  0.06171  1.0000
  H   H513      1.0  0.32981  0.05226  0.27173  1.0000
  C   C301      1.0  0.58417  0.02728  0.39029  1.0000
  C   C302      1.0  0.56220  0.03028  0.38466  1.0000
  C   C303      1.0  0.55279  0.05068  0.38662  1.0000
  C   C304      1.0  0.56521  0.06852  0.39406  1.0000
  C   C305      1.0  0.58717  0.06556  0.39928  1.0000
  C   C306      1.0  0.59658  0.04514  0.39753  1.0000
  H   H514      1.0  0.55242  0.01666  0.37860  1.0000
  H   H515      1.0  0.53596  0.05264  0.38183  1.0000
  H   H516      1.0  0.59703  0.07917  0.40489  1.0000
  H   H517      1.0  0.61346  0.04324  0.40192  1.0000
  C   C307      1.0  0.41140  0.18154  0.05903  1.0000
  C   C308      1.0  0.42799  0.18536  0.01542  1.0000
  C   C309      1.0  0.38798  0.16840  0.14930  1.0000
  C   C310      1.0  0.42673  0.16825  0.97531  1.0000
  H   H518      1.0  0.39551  0.18163  0.04144  1.0000
  H   H519      1.0  0.41382  0.16502  0.07313  1.0000
  H   H520      1.0  0.44041  0.16333  0.12402  1.0000
  C   C311      1.0  0.48203  0.01698  0.60174  1.0000
  H   H521      1.0  0.38067  0.16203  0.11487  1.0000
  H   H522      1.0  0.50809  0.03781  0.61334  1.0000
  H   H523      1.0  0.42971  0.15231  0.99266  1.0000
  H   H524      1.0  0.41089  0.16851  0.95780  1.0000
  H   H525      1.0  0.43880  0.17122  0.94463  1.0000
  C   C312      1.0  0.56844  0.09443  0.08870  1.0000
  N   N16       1.0  0.41027  0.09380  0.68303  1.0000
  C   C313      1.0  0.42929  0.09506  0.64715  1.0000
  C   C314      1.0  0.39000  0.09613  0.65361  1.0000
  C   C315      1.0  0.41148  0.11222  0.71871  1.0000
  C   C316      1.0  0.41022  0.07356  0.71486  1.0000
  C   C317      1.0  0.40975  0.05257  0.68557  1.0000
  C   C318      1.0  0.45123  0.09504  0.67258  1.0000
  C   C319      1.0  0.39234  0.11528  0.75600  1.0000
  C   C320      1.0  0.38991  0.08707  0.59903  1.0000
  C   C321      1.0  0.41251  0.03349  0.72181  1.0000
  C   C322      1.0  0.46914  0.09342  0.63288  1.0000
  C   C323      1.0  0.39441  0.13554  0.78625  1.0000
  H   H526      1.0  0.42829  0.10980  0.62299  1.0000
  H   H527      1.0  0.42950  0.08199  0.61964  1.0000
  H   H528      1.0  0.37655  0.08896  0.67593  1.0000
  H   H529      1.0  0.41364  0.12731  0.69625  1.0000
  H   H530      1.0  0.42544  0.11052  0.74357  1.0000
  H   H531      1.0  0.42377  0.07305  0.74110  1.0000
  H   H532      1.0  0.39609  0.07307  0.74068  1.0000
  H   H533      1.0  0.42249  0.05170  0.65602  1.0000
  H   H534      1.0  0.39417  0.05083  0.66756  1.0000
  H   H535      1.0  0.45358  0.11001  0.69300  1.0000
  H   H536      1.0  0.45301  0.08149  0.69978  1.0000
  H   H537      1.0  0.39163  0.10194  0.78410  1.0000
  H   H538      1.0  0.37714  0.11629  0.73584  1.0000
  H   H539      1.0  0.39619  0.07075  0.59805  1.0000
  H   H540      1.0  0.41143  0.01863  0.70019  1.0000
  H   H541      1.0  0.42817  0.03383  0.74004  1.0000
  H   H542      1.0  0.39986  0.03329  0.75195  1.0000
  H   H543      1.0  0.46796  0.10639  0.60364  1.0000
  H   H544      1.0  0.48464  0.09458  0.65162  1.0000
  H   H545      1.0  0.46849  0.07796  0.61394  1.0000
  H   H546      1.0  0.39463  0.14969  0.76028  1.0000
  H   H547      1.0  0.38070  0.13703  0.81326  1.0000
  H   H548      1.0  0.53960  0.22269  0.36207  1.0000
  H   H549      1.0  0.61389  0.06727  0.22920  1.0000
  H   H550      1.0  0.56169  0.21426  0.40084  1.0000
  H   H551      1.0  0.35466  0.01632  0.86174  1.0000
  C   C324      1.0  0.54939  0.07741  0.53287  1.0000
  H   H552      1.0  0.48724  0.04965  0.57799  1.0000
  S   S74       1.0  0.33391  0.13334  0.94792  1.0000
  C   C325      1.0  0.47103  0.02289  0.65208  1.0000
  H   H553      1.0  0.52737  0.06590  0.58977  1.0000
  H   H554      1.0  0.55991  0.07138  0.50190  1.0000
  H   H555      1.0  0.53916  0.09027  0.51716  1.0000
  H   H556      1.0  0.38568  0.11319  0.64817  1.0000
  H   H557      1.0  0.40193  0.15840  0.15759  1.0000
  C   C326      1.0  0.44041  0.17622  0.15190  1.0000
  H   H558      1.0  0.50849  0.06403  0.50986  1.0000
  C   C327      1.0  0.49698  0.03494  0.58202  1.0000
  C   C328      1.0  0.54107  0.23810  0.43559  1.0000
  H   H559      1.0  0.44425  0.18497  0.03033  1.0000
  H   H560      1.0  0.52900  0.04941  0.48033  1.0000
  H   H561      1.0  0.39983  0.09700  0.57254  1.0000
  C   C329      1.0  0.49826  0.03111  0.43634  1.0000
  H   H562      1.0  0.42519  0.20080  0.99555  1.0000
  H   H563      1.0  0.32920  0.03099  0.45807  1.0000
  C   C330      1.0  0.46304  0.17823  0.17036  1.0000
  C   C331      1.0  0.52024  0.05108  0.51714  1.0000
  H   H564      1.0  0.34166  0.07476  0.30043  1.0000
  H   H565      1.0  0.47406  0.18191  0.13784  1.0000
  H   H566      1.0  0.46816  0.16302  0.18853  1.0000
  H   H567      1.0  0.57756  0.05465  0.21394  1.0000
  H   H568      1.0  0.33989  0.22541  0.10884  1.0000
  H   H569      1.0  0.48885  0.00833  0.49570  1.0000
  C   C332      1.0  0.39357  0.19211  0.13983  1.0000
  H   H570      1.0  0.55037  0.02250  0.48975  1.0000
  H   H571      1.0  0.43190  0.20870  0.16002  1.0000
  H   H572      1.0  0.37855  0.19947  0.12652  1.0000
  C   C333      1.0  0.43243  0.19738  0.12823  1.0000
  N   N17       1.0  0.41142  0.19705  0.10207  1.0000
  H   H573      1.0  0.33387  0.06031  0.51608  1.0000
  H   H574      1.0  0.47763  0.03407  0.50059  1.0000
  N   N18       1.0  0.50891  0.03089  0.53251  1.0000
  H   H575      1.0  0.46951  0.01388  0.57398  1.0000
  H   H576      1.0  0.44498  0.20356  0.10161  1.0000
  H   H577      1.0  0.58450  0.08098  0.15287  1.0000
  H   H578      1.0  0.50427  0.04419  0.23601  1.0000
  C   C334      1.0  0.53648  0.07374  0.25749  1.0000
  C   C335      1.0  0.36758  0.08685  0.57804  1.0000
  H   H579      1.0  0.53447  0.15399  0.24880  1.0000
  H   H580      1.0  0.56242  0.07907  0.07544  1.0000
  C   C336      1.0  0.40764  0.21895  0.07912  1.0000
  C   C337      1.0  0.49282  0.02546  0.49298  1.0000
  H   H581      1.0  0.52443  0.22274  0.57758  1.0000
  H   H582      1.0  0.58354  0.09792  0.06786  1.0000
  H   H583      1.0  0.39666  0.19930  0.17733  1.0000
  H   H584      1.0  0.48281  0.02470  0.68241  1.0000
  C   C338      1.0  0.37210  0.16556  0.19361  1.0000
  C   C339      1.0  0.52405  0.01262  0.54179  1.0000
  C   C340      1.0  0.35509  0.03111  0.84007  1.0000
  H   H585      1.0  0.35840  0.05028  0.90695  1.0000
  H   H586      1.0  0.45984  0.01020  0.66434  1.0000
  H   H587      1.0  0.35329  0.04886  0.30952  1.0000
  C   C341      1.0  0.51291  0.07727  0.24418  1.0000
  H   H588      1.0  0.51379  0.02472  0.42400  1.0000
  C   C342      1.0  0.57221  0.09332  0.14608  1.0000
  H   H589      1.0  0.56100  0.16402  0.24186  1.0000
  H   H590      1.0  0.37896  0.17086  0.22972  1.0000
  H   H591      1.0  0.36901  0.22927  0.93186  1.0000
  H   H592      1.0  0.36809  0.14851  0.19825  1.0000
  H   H593      1.0  0.50636  0.09089  0.26549  1.0000
  C   C343      1.0  0.51242  0.22362  0.54889  1.0000
  C   C344      1.0  0.48156  0.02260  0.40111  1.0000
  H   H594      1.0  0.50157  0.05381  0.30040  1.0000
  C   C345      1.0  0.54488  0.11121  0.25051  1.0000
  H   H595      1.0  0.53741  0.07373  0.29988  1.0000
  H   H596      1.0  0.48562  0.02712  0.36093  1.0000
  H   H597      1.0  0.48263  0.06167  0.25305  1.0000
  C   C346      1.0  0.49960  0.05798  0.25941  1.0000
  H   H598      1.0  0.54761  0.07134  0.16549  1.0000
  H   H599      1.0  0.51087  0.08052  0.20283  1.0000
  C   C347      1.0  0.57342  0.08459  0.25558  1.0000
  H   H600      1.0  0.49850  0.04858  0.43061  1.0000
  H   H601      1.0  0.54064  0.05736  0.24583  1.0000
  H   H602      1.0  0.56539  0.99610  0.54986  1.0000
  H   H603      1.0  0.55331  0.14939  0.29899  1.0000
  H   H604      1.0  0.53856  0.09787  0.16089  1.0000
  N   N19       1.0  0.55194  0.08945  0.23391  1.0000
  H   H605      1.0  0.52875  0.11505  0.23680  1.0000
  C   C348      1.0  0.55135  0.15059  0.25698  1.0000
  S   S75       1.0  0.33559  0.01686  0.61074  1.0000
  H   H606      1.0  0.40906  0.13504  0.80882  1.0000
  C   C349      1.0  0.55155  0.08777  0.17646  1.0000
  H   H607      1.0  0.55713  0.13253  0.19011  1.0000
  H   H608      1.0  0.57553  0.12768  0.24115  1.0000
  C   C350      1.0  0.55867  0.13008  0.23190  1.0000
  H   H609      1.0  0.49095  0.00203  0.60875  1.0000
  H   H610      1.0  0.42184  0.22439  0.05683  1.0000
  C   C351      1.0  0.54087  0.00825  0.49943  1.0000
  C   C352      1.0  0.60478  0.05905  0.26033  1.0000
  H   H611      1.0  0.58578  0.09485  0.23790  1.0000
  H   H612      1.0  0.46576  0.02949  0.41079  1.0000
  C   C353      1.0  0.34616  0.22624  0.07010  1.0000
  H   H613      1.0  0.57882  0.10865  0.15710  1.0000
  H   H614      1.0  0.35746  0.07570  0.60087  1.0000
  C   C354      1.0  0.48184  0.22547  0.47424  1.0000
  H   H615      1.0  0.46991  0.22636  0.44535  1.0000
  H   H616      1.0  0.46194  0.03793  0.64765  1.0000
  H   H617      1.0  0.39468  0.21862  0.05112  1.0000
  H   H618      1.0  0.53258  0.01475  0.57797  1.0000
  H   H619      1.0  0.54369  0.11153  0.29301  1.0000
  H   H620      1.0  0.35733  0.17462  0.18599  1.0000
  H   H621      1.0  0.60940  0.04202  0.26101  1.0000
  S   S76       1.0  0.59492  0.00091  0.38865  1.0000
  H   H622      1.0  0.36825  0.08144  0.53801  1.0000
  H   H623      1.0  0.51523  0.99759  0.54776  1.0000
  H   H624      1.0  0.33327  0.99544  0.43782  1.0000
  S   S77       1.0  0.38242  0.99371  0.62310  1.0000
  C   C355      1.0  0.33808  0.05766  0.30597  1.0000
  Fe  Fe36      1.0  0.35247  0.99793  0.67088  1.0000
  H   H625      1.0  0.33518  0.02329  0.37143  1.0000
  H   H626      1.0  0.54563  0.23311  0.47466  1.0000
  H   H627      1.0  0.33854  0.17302  0.86400  1.0000
  C   C356      1.0  0.54474  0.21902  0.40155  1.0000
  H   H628      1.0  0.48082  0.00506  0.40433  1.0000
  H   H629      1.0  0.41211  0.23649  0.15067  1.0000
  C   C357      1.0  0.40175  0.23672  0.11721  1.0000
  H   H630      1.0  0.38518  0.23487  0.13143  1.0000
  H   H631      1.0  0.53325  0.00255  0.46484  1.0000
  H   H632      1.0  0.32482  0.18750  0.81418  1.0000
  H   H633      1.0  0.32487  0.11225  0.81212  1.0000
  H   H634      1.0  0.32479  0.20076  0.92090  1.0000
  H   H635      1.0  0.52390  0.24175  0.43561  1.0000
  Fe  Fe37      1.0  0.62668  0.46534  0.60363  1.0000
  C   C358      1.0  0.56061  0.44886  0.71947  1.0000
  S   S78       1.0  0.61279  0.43333  0.63286  1.0000
  S   S79       1.0  0.34463  0.47635  0.34914  1.0000
  Fe  Fe38      1.0  0.37294  0.32313  0.94718  1.0000
  S   S80       1.0  0.38332  0.31604  0.02771  1.0000
  S   S81       1.0  0.38961  0.31392  0.87216  1.0000
  H   H636      1.0  0.57608  0.45060  0.69894  1.0000
  H   H637      1.0  0.48479  0.49040  0.49900  1.0000
  Fe  Fe39      1.0  0.36620  0.34644  0.04902  1.0000
  S   S82       1.0  0.38088  0.37186  0.09811  1.0000
  Fe  Fe40      1.0  0.35153  0.30073  0.03923  1.0000
  S   S83       1.0  0.34562  0.26943  0.08136  1.0000
  S   S84       1.0  0.35815  0.35453  0.96719  1.0000
  H   H638      1.0  0.34177  0.37480  0.37139  1.0000
  C   C359      1.0  0.55681  0.27393  0.49899  1.0000
  Fe  Fe41      1.0  0.37805  0.44872  0.45263  1.0000
  S   S85       1.0  0.38941  0.45162  0.37106  1.0000
  S   S86       1.0  0.40042  0.43762  0.51394  1.0000
  Fe  Fe42      1.0  0.35618  0.44236  0.35198  1.0000
  C   C360      1.0  0.49660  0.41832  0.60767  1.0000
  H   H639      1.0  0.59483  0.31799  0.36595  1.0000
  Fe  Fe43      1.0  0.49774  0.30060  0.58823  1.0000
  S   S87       1.0  0.51524  0.32088  0.64412  1.0000
  S   S88       1.0  0.50832  0.26566  0.57688  1.0000
  Fe  Fe44      1.0  0.46734  0.33690  0.56256  1.0000
  S   S89       1.0  0.48210  0.35929  0.61575  1.0000
  S   S90       1.0  0.43864  0.34451  0.51491  1.0000
  Fe  Fe45      1.0  0.51361  0.34767  0.58573  1.0000
  S   S91       1.0  0.53692  0.37413  0.55958  1.0000
  Fe  Fe46      1.0  0.48276  0.33170  0.67114  1.0000
  S   S92       1.0  0.47460  0.34116  0.75288  1.0000
  S   S93       1.0  0.49852  0.32670  0.52775  1.0000
  S   S94       1.0  0.46557  0.30989  0.62002  1.0000
  H   H640      1.0  0.52574  0.39352  0.65916  1.0000
  H   H641      1.0  0.55750  0.31114  0.43132  1.0000
  H   H642      1.0  0.53972  0.29952  0.53906  1.0000
  C   C361      1.0  0.41153  0.41203  0.51096  1.0000
  C   C362      1.0  0.43013  0.40749  0.53728  1.0000
  C   C363      1.0  0.43888  0.38697  0.53756  1.0000
  C   C364      1.0  0.42876  0.37071  0.51272  1.0000
  C   C365      1.0  0.41010  0.37524  0.48647  1.0000
  C   C366      1.0  0.40163  0.39592  0.48503  1.0000
  H   H643      1.0  0.43784  0.41993  0.55737  1.0000
  H   H644      1.0  0.45335  0.38375  0.55729  1.0000
  H   H645      1.0  0.40189  0.36260  0.46845  1.0000
  H   H646      1.0  0.38702  0.39930  0.46568  1.0000
  C   C367      1.0  0.41400  0.32105  0.84179  1.0000
  C   C368      1.0  0.42695  0.33690  0.86007  1.0000
  C   C369      1.0  0.44553  0.34278  0.83266  1.0000
  C   C370      1.0  0.45139  0.33287  0.78685  1.0000
  C   C371      1.0  0.43864  0.31679  0.76908  1.0000
  C   C372      1.0  0.42006  0.31097  0.79633  1.0000
  H   H647      1.0  0.42252  0.34476  0.89502  1.0000
  H   H648      1.0  0.45537  0.35512  0.84700  1.0000
  H   H649      1.0  0.44315  0.30877  0.73444  1.0000
  H   H650      1.0  0.41023  0.29861  0.78199  1.0000
  C   C373      1.0  0.37016  0.38430  0.15341  1.0000
  C   C374      1.0  0.38037  0.40212  0.17233  1.0000
  C   C375      1.0  0.37275  0.41222  0.21673  1.0000
  C   C376      1.0  0.35488  0.40448  0.24312  1.0000
  H   H651      1.0  0.53646  0.42281  0.79094  1.0000
  C   C377      1.0  0.35236  0.37648  0.18002  1.0000
  H   H652      1.0  0.39423  0.40824  0.15227  1.0000
  H   H653      1.0  0.38071  0.42599  0.23048  1.0000
  C   C378      1.0  0.38551  0.37279  0.35108  1.0000
  C   C379      1.0  0.56423  0.28783  0.58703  1.0000
  H   H654      1.0  0.54525  0.38518  0.78452  1.0000
  H   H655      1.0  0.55485  0.29319  0.34099  1.0000
  C   C380      1.0  0.50390  0.39830  0.77772  1.0000
  H   H656      1.0  0.56922  0.32944  0.35154  1.0000
  H   H657      1.0  0.36179  0.26225  0.97873  1.0000
  C   C381      1.0  0.59162  0.41714  0.61152  1.0000
  C   C382      1.0  0.58761  0.39751  0.63655  1.0000
  C   C383      1.0  0.57095  0.38429  0.62167  1.0000
  C   C384      1.0  0.55794  0.39042  0.58131  1.0000
  C   C385      1.0  0.56199  0.41001  0.55619  1.0000
  C   C386      1.0  0.57857  0.42329  0.57123  1.0000
  H   H658      1.0  0.59760  0.39241  0.66752  1.0000
  H   H659      1.0  0.56852  0.36913  0.64065  1.0000
  H   H660      1.0  0.55225  0.41495  0.52462  1.0000
  H   H661      1.0  0.58136  0.43823  0.55130  1.0000
  C   C387      1.0  0.42880  0.31590  0.38686  1.0000
  C   C388      1.0  0.39079  0.35453  0.73443  1.0000
  H   H662      1.0  0.44119  0.36196  0.68882  1.0000
  C   C389      1.0  0.48757  0.41652  0.78373  1.0000
  C   C390      1.0  0.43759  0.41771  0.32146  1.0000
  C   C391      1.0  0.56433  0.29532  0.42188  1.0000
  H   H663      1.0  0.42620  0.48535  0.49257  1.0000
  C   C392      1.0  0.53280  0.42209  0.74961  1.0000
  C   C393      1.0  0.54569  0.48559  0.41369  1.0000
  H   H664      1.0  0.34092  0.35248  0.41549  1.0000
  H   H665      1.0  0.38617  0.35212  0.57439  1.0000
  H   H666      1.0  0.34471  0.36245  0.16686  1.0000
  H   H667      1.0  0.36867  0.37820  0.66439  1.0000
  H   H668      1.0  0.41956  0.29622  0.66044  1.0000
  H   H669      1.0  0.41445  0.34239  0.61964  1.0000
  C   C394      1.0  0.42332  0.40017  0.34324  1.0000
  C   C395      1.0  0.54597  0.34432  0.74472  1.0000
  H   H670      1.0  0.50744  0.40965  0.58135  1.0000
  H   H671      1.0  0.45208  0.41088  0.30338  1.0000
  S   S95       1.0  0.34475  0.41611  0.30005  1.0000
  H   H672      1.0  0.42067  0.33446  0.68233  1.0000
  C   C396      1.0  0.52837  0.36106  0.74517  1.0000
  H   H673      1.0  0.41341  0.30437  0.59570  1.0000
  H   H674      1.0  0.49995  0.38995  0.68384  1.0000
  H   H675      1.0  0.44592  0.46813  0.46496  1.0000
  H   H676      1.0  0.51822  0.35768  0.77947  1.0000
  C   C397      1.0  0.57992  0.31563  0.34529  1.0000
  H   H677      1.0  0.49464  0.38403  0.76843  1.0000
  H   H678      1.0  0.47738  0.40732  0.86125  1.0000
  H   H679      1.0  0.47687  0.25800  0.49730  1.0000
  H   H680      1.0  0.55620  0.34592  0.77825  1.0000
  H   H681      1.0  0.54884  0.45904  0.69955  1.0000
  H   H682      1.0  0.40490  0.34863  0.75499  1.0000
  S   S96       1.0  0.36741  0.48261  0.45801  1.0000
  H   H683      1.0  0.56235  0.45428  0.75914  1.0000
  C   C398      1.0  0.51367  0.40079  0.68510  1.0000
  H   H684      1.0  0.37867  0.34526  0.40073  1.0000
  C   C399      1.0  0.50729  0.42206  0.65834  1.0000
  H   H685      1.0  0.48986  0.30526  0.42222  1.0000
  C   C400      1.0  0.41069  0.37703  0.67096  1.0000
  C   C401      1.0  0.37046  0.35534  0.37203  1.0000
  H   H686      1.0  0.34679  0.35428  0.57503  1.0000
  H   H687      1.0  0.52360  0.30155  0.37184  1.0000
  C   C402      1.0  0.47039  0.41048  0.82331  1.0000
  H   H688      1.0  0.39740  0.27090  0.11805  1.0000
  H   H689      1.0  0.55575  0.34577  0.70914  1.0000
  H   H690      1.0  0.36973  0.38160  0.83957  1.0000
  H   H691      1.0  0.39859  0.32352  0.35572  1.0000
  H   H692      1.0  0.52144  0.43182  0.64952  1.0000
  H   H693      1.0  0.58378  0.31483  0.30382  1.0000
  H   H694      1.0  0.49240  0.43374  0.58920  1.0000
  Fe  Fe47      1.0  0.33552  0.47147  0.43240  1.0000
  H   H695      1.0  0.35877  0.37091  0.52581  1.0000
  C   C403      1.0  0.35116  0.36518  0.39894  1.0000
  C   C404      1.0  0.55393  0.42568  0.71942  1.0000
  H   H696      1.0  0.36641  0.37918  0.74751  1.0000
  H   H697      1.0  0.38733  0.38033  0.58230  1.0000
  H   H698      1.0  0.36450  0.34537  0.34139  1.0000
  H   H699      1.0  0.44757  0.39814  0.64908  1.0000
  H   H700      1.0  0.56677  0.41607  0.73705  1.0000
  H   H701      1.0  0.37586  0.38476  0.32988  1.0000
  C   C405      1.0  0.37590  0.36315  0.65093  1.0000
  S   S97       1.0  0.63607  0.47256  0.52141  1.0000
  H   H702      1.0  0.46186  0.39614  0.81154  1.0000
  C   C406      1.0  0.53745  0.38376  0.74703  1.0000
  H   H703      1.0  0.42664  0.29855  0.38396  1.0000
  C   C407      1.0  0.50129  0.24286  0.54102  1.0000
  H   H704      1.0  0.37902  0.34163  0.73931  1.0000
  H   H705      1.0  0.43698  0.40962  0.70709  1.0000
  H   H706      1.0  0.38696  0.31399  0.69263  1.0000
  H   H707      1.0  0.49638  0.43164  0.68203  1.0000
  H   H708      1.0  0.51784  0.27339  0.46849  1.0000
  H   H709      1.0  0.55438  0.27519  0.60543  1.0000
  N   N20       1.0  0.40406  0.36587  0.31803  1.0000
  C   C408      1.0  0.39579  0.35543  0.27136  1.0000
  C   C409      1.0  0.41556  0.38571  0.30041  1.0000
  C   C410      1.0  0.41914  0.35184  0.34779  1.0000
  C   C411      1.0  0.41528  0.32759  0.34745  1.0000
  C   C412      1.0  0.41239  0.35116  0.22824  1.0000
  H   H710      1.0  0.54641  0.26197  0.51818  1.0000
  C   C413      1.0  0.40475  0.33440  0.19193  1.0000
  H   H711      1.0  0.38787  0.34029  0.28141  1.0000
  H   H712      1.0  0.42976  0.38159  0.27671  1.0000
  H   H713      1.0  0.43571  0.35400  0.33340  1.0000
  H   H714      1.0  0.41944  0.35677  0.38825  1.0000
  C   C414      1.0  0.37718  0.36794  0.81990  1.0000
  H   H715      1.0  0.48616  0.29401  0.36054  1.0000
  H   H716      1.0  0.41514  0.36601  0.20546  1.0000
  H   H717      1.0  0.42774  0.34579  0.24382  1.0000
  H   H718      1.0  0.43229  0.39098  0.37229  1.0000
  H   H719      1.0  0.48193  0.40905  0.61379  1.0000
  H   H720      1.0  0.39210  0.36385  0.83935  1.0000
  H   H721      1.0  0.44583  0.31950  0.38044  1.0000
  H   H722      1.0  0.51379  0.47531  0.42342  1.0000
  H   H723      1.0  0.40376  0.31869  0.21172  1.0000
  H   H724      1.0  0.38893  0.33876  0.17720  1.0000
  H   H725      1.0  0.41596  0.33317  0.15887  1.0000
  H   H726      1.0  0.42901  0.42755  0.29280  1.0000
  C   C415      1.0  0.44488  0.39546  0.69070  1.0000
  H   H727      1.0  0.35609  0.37550  0.43020  1.0000
  H   H728      1.0  0.36389  0.35078  0.66013  1.0000
  H   H729      1.0  0.40530  0.39561  0.27520  1.0000
  C   C416      1.0  0.38160  0.37375  0.76377  1.0000
  H   H730      1.0  0.52546  0.30002  0.46361  1.0000
  C   C417      1.0  0.37815  0.36589  0.59213  1.0000
  H   H731      1.0  0.42853  0.37440  0.74270  1.0000
  H   H732      1.0  0.42395  0.32057  0.42605  1.0000
  H   H733      1.0  0.39275  0.38719  0.76264  1.0000
  S   S98       1.0  0.34207  0.30579  0.95812  1.0000
  C   C418      1.0  0.35029  0.24610  0.04690  1.0000
  H   H734      1.0  0.48070  0.48414  0.43405  1.0000
  H   H735      1.0  0.42021  0.26225  0.08125  1.0000
  H   H736      1.0  0.39638  0.28624  0.63090  1.0000
  C   C419      1.0  0.40348  0.25866  0.09156  1.0000
  H   H737      1.0  0.38011  0.32154  0.62835  1.0000
  C   C420      1.0  0.39344  0.31888  0.65454  1.0000
  H   H738      1.0  0.39100  0.38083  0.38540  1.0000
  H   H739      1.0  0.51048  0.39498  0.81625  1.0000
  H   H740      1.0  0.47950  0.41984  0.74752  1.0000
  H   H741      1.0  0.41961  0.32123  0.30946  1.0000
  H   H742      1.0  0.51879  0.35916  0.71068  1.0000
  H   H743      1.0  0.45875  0.42367  0.82691  1.0000
  H   H744      1.0  0.53888  0.32828  0.74644  1.0000
  H   H745      1.0  0.57120  0.25286  0.41778  1.0000
  N   N21       1.0  0.39610  0.35843  0.67858  1.0000
  H   H746      1.0  0.36627  0.35427  0.82368  1.0000
  H   H747      1.0  0.56600  0.30664  0.51811  1.0000
  C   C421      1.0  0.34478  0.38653  0.22451  1.0000
  H   H748      1.0  0.46044  0.39305  0.70860  1.0000
  H   H749      1.0  0.58019  0.29485  0.43966  1.0000
  H   H750      1.0  0.55040  0.38464  0.71769  1.0000
  H   H751      1.0  0.41555  0.37872  0.63005  1.0000
  H   H752      1.0  0.58095  0.28236  0.58472  1.0000
  H   H753      1.0  0.48552  0.27712  0.41676  1.0000
  H   H754      1.0  0.49514  0.43116  0.79670  1.0000
  N   N22       1.0  0.52172  0.40166  0.73903  1.0000
  H   H755      1.0  0.33614  0.39529  0.05343  1.0000
  N   N23       1.0  0.55045  0.27785  0.44429  1.0000
  C   C422      1.0  0.44347  0.48198  0.48991  1.0000
  C   C423      1.0  0.40714  0.33900  0.65802  1.0000
  C   C424      1.0  0.43153  0.37577  0.70092  1.0000
  C   C425      1.0  0.52750  0.28457  0.44469  1.0000
  C   C426      1.0  0.51703  0.28742  0.39223  1.0000
  C   C427      1.0  0.55613  0.29353  0.53393  1.0000
  H   H756      1.0  0.40974  0.40812  0.36258  1.0000
  C   C428      1.0  0.56922  0.29513  0.36356  1.0000
  H   H757      1.0  0.44235  0.42811  0.35274  1.0000
  C   C429      1.0  0.49320  0.29119  0.39853  1.0000
  H   H758      1.0  0.56328  0.30200  0.61135  1.0000
  S   S99       1.0  0.34563  0.43717  0.43452  1.0000
  H   H759      1.0  0.58021  0.28180  0.35466  1.0000
  H   H760      1.0  0.55274  0.42081  0.67927  1.0000
  H   H761      1.0  0.40238  0.39216  0.67995  1.0000
  H   H762      1.0  0.38316  0.36545  0.25409  1.0000
  C   C430      1.0  0.40656  0.30034  0.63410  1.0000
  H   H763      1.0  0.52231  0.43595  0.74222  1.0000
  H   H764      1.0  0.57311  0.26707  0.50012  1.0000
  H   H765      1.0  0.51926  0.27328  0.36839  1.0000
  C   C431      1.0  0.35657  0.36859  0.56770  1.0000
  C   C432      1.0  0.48579  0.24353  0.50367  1.0000
  H   H766      1.0  0.34815  0.38271  0.58288  1.0000
  C   C433      1.0  0.35840  0.24706  0.99689  1.0000
  S   S100      1.0  0.33532  0.33042  0.06696  1.0000
  H   H767      1.0  0.39398  0.25961  0.05650  1.0000
  H   H768      1.0  0.55084  0.25946  0.37508  1.0000
  H   H769      1.0  0.33115  0.38020  0.24506  1.0000
  C   C434      1.0  0.55416  0.25746  0.41622  1.0000
  H   H770      1.0  0.54987  0.47175  0.38996  1.0000
  H   H771      1.0  0.55040  0.48192  0.45355  1.0000
  Fe  Fe48      1.0  0.32818  0.33647  0.98436  1.0000
  H   H772      1.0  0.44907  0.47789  0.52878  1.0000
  C   C435      1.0  0.52193  0.49012  0.41125  1.0000
  Fe  Fe49      1.0  0.37725  0.48532  0.37568  1.0000
  S   S101      1.0  0.65698  0.47977  0.63317  1.0000
  Fe  Fe50      1.0  0.63709  0.60248  0.95385  1.0000
  H   H773      1.0  0.36396  0.52991  0.43214  1.0000
  S   S102      1.0  0.62618  0.57290  0.91259  1.0000
  Fe  Fe51      1.0  0.64231  0.65038  0.95630  1.0000
  H   H774      1.0  0.63603  0.72475  0.87418  1.0000
  C   C436      1.0  0.56412  0.56894  0.80659  1.0000
  Fe  Fe52      1.0  0.62729  0.62623  0.05394  1.0000
  S   S103      1.0  0.61324  0.63282  0.13360  1.0000
  S   S104      1.0  0.61446  0.62923  0.97442  1.0000
  Fe  Fe53      1.0  0.63842  0.51036  0.63803  1.0000
  Fe  Fe54      1.0  0.61791  0.50289  0.53455  1.0000
  S   S105      1.0  0.59378  0.51447  0.47737  1.0000
  Fe  Fe55      1.0  0.48275  0.60822  0.40959  1.0000
  S   S106      1.0  0.49738  0.62574  0.47401  1.0000
  S   S107      1.0  0.45650  0.58442  0.43442  1.0000
  Fe  Fe56      1.0  0.51494  0.62797  0.33326  1.0000
  S   S108      1.0  0.53172  0.64666  0.39216  1.0000
  S   S109      1.0  0.52356  0.62477  0.24863  1.0000
  Fe  Fe57      1.0  0.52883  0.61678  0.43995  1.0000
  S   S110      1.0  0.55540  0.60727  0.49258  1.0000
  Fe  Fe58      1.0  0.49917  0.65508  0.42313  1.0000
  S   S111      1.0  0.49028  0.68582  0.46642  1.0000
  S   S112      1.0  0.51454  0.59743  0.37924  1.0000
  S   S113      1.0  0.48209  0.63819  0.36052  1.0000
  C   C437      1.0  0.33784  0.53264  0.34578  1.0000
  C   C438      1.0  0.50742  0.65474  0.58966  1.0000
  S   S114      1.0  0.39679  0.51328  0.34203  1.0000
  H   H775      1.0  0.63603  0.58370  0.64703  1.0000
  C   C439      1.0  0.44020  0.56463  0.40763  1.0000
  C   C440      1.0  0.42776  0.55161  0.44060  1.0000
  C   C441      1.0  0.41467  0.53568  0.42153  1.0000
  C   C442      1.0  0.41368  0.53256  0.36891  1.0000
  C   C443      1.0  0.42602  0.54567  0.33596  1.0000
  C   C444      1.0  0.43920  0.56151  0.35507  1.0000
  H   H776      1.0  0.42823  0.55388  0.48133  1.0000
  H   H777      1.0  0.40529  0.52588  0.44757  1.0000
  H   H778      1.0  0.42531  0.54362  0.29518  1.0000
  H   H779      1.0  0.44838  0.57149  0.32903  1.0000
  C   C445      1.0  0.49586  0.71361  0.47190  1.0000
  C   C446      1.0  0.50832  0.72494  0.43603  1.0000
  H   H780      1.0  0.37742  0.60275  0.36500  1.0000
  C   C447      1.0  0.48787  0.72452  0.51474  1.0000
  H   H781      1.0  0.51452  0.71702  0.40269  1.0000
  H   H782      1.0  0.47815  0.71609  0.54280  1.0000
  C   C448      1.0  0.58294  0.54008  0.48325  1.0000
  C   C449      1.0  0.56743  0.54695  0.44911  1.0000
  C   C450      1.0  0.55876  0.56744  0.45197  1.0000
  C   C451      1.0  0.56578  0.58135  0.48848  1.0000
  C   C452      1.0  0.58159  0.57463  0.52200  1.0000
  C   C453      1.0  0.58992  0.55393  0.52005  1.0000
  H   H783      1.0  0.56228  0.53645  0.41999  1.0000
  H   H784      1.0  0.54691  0.57256  0.42540  1.0000
  H   H785      1.0  0.58758  0.58554  0.54911  1.0000
  H   H786      1.0  0.60212  0.54884  0.54600  1.0000
  C   C454      1.0  0.58834  0.62944  0.16519  1.0000
  C   C455      1.0  0.58583  0.63646  0.21557  1.0000
  C   C456      1.0  0.56630  0.63462  0.24222  1.0000
  C   C457      1.0  0.54894  0.62597  0.21842  1.0000
  C   C458      1.0  0.55149  0.61879  0.16819  1.0000
  C   C459      1.0  0.57109  0.62046  0.14169  1.0000
  H   H787      1.0  0.59905  0.64355  0.23398  1.0000
  H   H788      1.0  0.56451  0.64033  0.28066  1.0000
  H   H789      1.0  0.53812  0.61212  0.14942  1.0000
  H   H790      1.0  0.57276  0.61501  0.10296  1.0000
  C   C460      1.0  0.63285  0.56326  0.85081  1.0000
  C   C461      1.0  0.62642  0.54278  0.83797  1.0000
  C   C462      1.0  0.63041  0.53482  0.78871  1.0000
  C   C463      1.0  0.55870  0.58658  0.69786  1.0000
  H   H791      1.0  0.61821  0.53303  0.86637  1.0000
  H   H792      1.0  0.62534  0.51907  0.77954  1.0000
  C   C464      1.0  0.63949  0.72505  0.91438  1.0000
  C   C465      1.0  0.64231  0.70588  0.94182  1.0000
  H   H793      1.0  0.50733  0.65812  0.63105  1.0000
  C   C466      1.0  0.45498  0.50141  0.46773  1.0000
  H   H794      1.0  0.51981  0.59652  0.65246  1.0000
  C   C467      1.0  0.34684  0.53423  0.43471  1.0000
  H   H795      1.0  0.55473  0.55267  0.26566  1.0000
  H   H796      1.0  0.35386  0.57336  0.34160  1.0000
  H   H797      1.0  0.60185  0.61420  0.30196  1.0000
  N   N24       1.0  0.49258  0.51583  0.44521  1.0000
  H   H798      1.0  0.36846  0.52748  0.52531  1.0000
  C   C468      1.0  0.48865  0.53342  0.48286  1.0000
  H   H799      1.0  0.58668  0.71889  0.16466  1.0000
  C   C469      1.0  0.48603  0.52263  0.39230  1.0000
  C   C470      1.0  0.49822  0.54133  0.36696  1.0000
  H   H800      1.0  0.59141  0.56924  0.63684  1.0000
  H   H801      1.0  0.62650  0.61000  0.33079  1.0000
  C   C471      1.0  0.50707  0.54904  0.49117  1.0000
  C   C472      1.0  0.50049  0.56680  0.52701  1.0000
  C   C473      1.0  0.49333  0.54356  0.31022  1.0000
  H   H802      1.0  0.52751  0.65760  0.52311  1.0000
  C   C474      1.0  0.36835  0.57587  0.41440  1.0000
  S   S115      1.0  0.63995  0.68143  0.91087  1.0000
  C   C475      1.0  0.56488  0.69433  0.39760  1.0000
  H   H803      1.0  0.47449  0.54300  0.47197  1.0000
  H   H804      1.0  0.48479  0.52666  0.52158  1.0000
  H   H805      1.0  0.51962  0.50387  0.48602  1.0000
  C   C476      1.0  0.38484  0.59117  0.39180  1.0000
  H   H806      1.0  0.65567  0.57748  0.73614  1.0000
  H   H807      1.0  0.46920  0.52788  0.39280  1.0000
  C   C477      1.0  0.64087  0.54731  0.75155  1.0000
  H   H808      1.0  0.49303  0.55623  0.38525  1.0000
  H   H809      1.0  0.57300  0.72788  0.11030  1.0000
  H   H810      1.0  0.52626  0.52185  0.43578  1.0000
  C   C478      1.0  0.62405  0.59621  0.63861  1.0000
  H   H811      1.0  0.33858  0.51873  0.43459  1.0000
  H   H812      1.0  0.52063  0.54065  0.50907  1.0000
  H   H813      1.0  0.51271  0.55643  0.45483  1.0000
  H   H814      1.0  0.51404  0.57759  0.53167  1.0000
  H   H815      1.0  0.48721  0.57621  0.51108  1.0000
  H   H816      1.0  0.49565  0.56022  0.56510  1.0000
  H   H817      1.0  0.47601  0.54432  0.30445  1.0000
  H   H818      1.0  0.50035  0.55839  0.29414  1.0000
  H   H819      1.0  0.50009  0.52995  0.28906  1.0000
  C   C479      1.0  0.51545  0.50868  0.44627  1.0000
  H   H820      1.0  0.39216  0.60001  0.42290  1.0000
  H   H821      1.0  0.63163  0.56283  0.25802  1.0000
  H   H822      1.0  0.60729  0.56147  0.68823  1.0000
  C   C480      1.0  0.64750  0.56768  0.76449  1.0000
  C   C481      1.0  0.32868  0.52544  0.25426  1.0000
  H   H823      1.0  0.53211  0.72318  0.62209  1.0000
  H   H824      1.0  0.51685  0.69419  0.55487  1.0000
  H   H825      1.0  0.58464  0.63648  0.36756  1.0000
  C   C482      1.0  0.60532  0.73801  0.11047  1.0000
  C   C483      1.0  0.58071  0.52973  0.72278  1.0000
  C   C484      1.0  0.55326  0.58885  0.64055  1.0000
  C   C485      1.0  0.55161  0.68908  0.48936  1.0000
  C   C486      1.0  0.56967  0.50862  0.71553  1.0000
  C   C487      1.0  0.62977  0.57946  0.27109  1.0000
  H   H826      1.0  0.61720  0.58875  0.19594  1.0000
  H   H827      1.0  0.55084  0.54703  0.72136  1.0000
  H   H828      1.0  0.55872  0.67295  0.48574  1.0000
  H   H829      1.0  0.51557  0.53954  0.36988  1.0000
  H   H830      1.0  0.37654  0.56561  0.44284  1.0000
  H   H831      1.0  0.35245  0.52289  0.34010  1.0000
  H   H832      1.0  0.58398  0.53084  0.76397  1.0000
  C   C488      1.0  0.57013  0.57719  0.30849  1.0000
  C   C489      1.0  0.53122  0.68611  0.56983  1.0000
  H   H833      1.0  0.55089  0.58046  0.80230  1.0000
  H   H834      1.0  0.56604  0.50647  0.67471  1.0000
  H   H835      1.0  0.55479  0.50783  0.73878  1.0000
  H   H836      1.0  0.63181  0.61187  0.64043  1.0000
  H   H837      1.0  0.34393  0.51284  0.52979  1.0000
  N   N25       1.0  0.34091  0.54781  0.38871  1.0000
  H   H838      1.0  0.64944  0.69200  0.01492  1.0000
  H   H839      1.0  0.37229  0.55279  0.35598  1.0000
  C   C490      1.0  0.59494  0.57309  0.67696  1.0000
  H   H840      1.0  0.61235  0.59788  0.71553  1.0000
  H   H841      1.0  0.59588  0.56364  0.77493  1.0000
  N   N26       1.0  0.59200  0.69976  0.09774  1.0000
  C   C491      1.0  0.57608  0.68419  0.11965  1.0000
  C   C492      1.0  0.61385  0.69120  0.10790  1.0000
  H   H842      1.0  0.55777  0.55273  0.80389  1.0000
  C   C493      1.0  0.58975  0.70280  0.04084  1.0000
  C   C494      1.0  0.59101  0.68240  0.00902  1.0000
  C   C495      1.0  0.55266  0.68886  0.10684  1.0000
  H   H843      1.0  0.48657  0.50897  0.36624  1.0000
  C   C496      1.0  0.61993  0.68908  0.16477  1.0000
  C   C497      1.0  0.59157  0.69551  0.55625  1.0000
  C   C498      1.0  0.58559  0.68719  0.95340  1.0000
  C   C499      1.0  0.53816  0.67177  0.12984  1.0000
  S   S116      1.0  0.65353  0.64917  0.03627  1.0000
  H   H844      1.0  0.57683  0.68348  0.16202  1.0000
  H   H845      1.0  0.58008  0.66780  0.10775  1.0000
  H   H846      1.0  0.61586  0.67518  0.09168  1.0000
  H   H847      1.0  0.62593  0.70099  0.08764  1.0000
  C   C500      1.0  0.53404  0.60333  0.63296  1.0000
  H   H848      1.0  0.35586  0.58543  0.43366  1.0000
  H   H849      1.0  0.54741  0.70424  0.12256  1.0000
  H   H850      1.0  0.60246  0.71322  0.02486  1.0000
  H   H851      1.0  0.57991  0.67010  0.02359  1.0000
  H   H852      1.0  0.60729  0.67570  0.00943  1.0000
  H   H853      1.0  0.58988  0.63098  0.43375  1.0000
  H   H854      1.0  0.55027  0.68926  0.06507  1.0000
  H   H855      1.0  0.58453  0.55854  0.86826  1.0000
  H   H856      1.0  0.56306  0.60256  0.71112  1.0000
  H   H857      1.0  0.61792  0.70426  0.18477  1.0000
  H   H858      1.0  0.61007  0.67696  0.18489  1.0000
  N   N27       1.0  0.57558  0.57043  0.71099  1.0000
  H   H859      1.0  0.62116  0.73281  0.12328  1.0000
  H   H860      1.0  0.39757  0.58238  0.37121  1.0000
  H   H861      1.0  0.56884  0.69237  0.95047  1.0000
  H   H862      1.0  0.59599  0.69977  0.93681  1.0000
  H   H863      1.0  0.58801  0.67269  0.93069  1.0000
  H   H864      1.0  0.54171  0.65630  0.11212  1.0000
  H   H865      1.0  0.54009  0.67019  0.17180  1.0000
  H   H866      1.0  0.61074  0.59945  0.41249  1.0000
  H   H867      1.0  0.55095  0.57936  0.24033  1.0000
  H   H868      1.0  0.57091  0.66932  0.56824  1.0000
  C   C501      1.0  0.60014  0.60609  0.38286  1.0000
  H   H869      1.0  0.56609  0.59368  0.31917  1.0000
  H   H870      1.0  0.62583  0.61072  0.23289  1.0000
  H   H871      1.0  0.54371  0.58271  0.71890  1.0000
  S   S117      1.0  0.64564  0.53872  0.68805  1.0000
  S   S118      1.0  0.64674  0.52004  0.55701  1.0000
  C   C502      1.0  0.35891  0.56221  0.37255  1.0000
  H   H872      1.0  0.52140  0.67596  0.12245  1.0000
  H   H873      1.0  0.53530  0.68776  0.47475  1.0000
  H   H874      1.0  0.60119  0.56531  0.37906  1.0000
  H   H875      1.0  0.54893  0.69133  0.38255  1.0000
  C   C503      1.0  0.56294  0.70422  0.45018  1.0000
  H   H876      1.0  0.62427  0.69386  0.57950  1.0000
  H   H877      1.0  0.56254  0.72739  0.52905  1.0000
  H   H878      1.0  0.62429  0.55867  0.45379  1.0000
  H   H879      1.0  0.60938  0.67027  0.59472  1.0000
  C   C504      1.0  0.58172  0.57340  0.76563  1.0000
  H   H880      1.0  0.64597  0.66687  0.15079  1.0000
  H   H881      1.0  0.53081  0.60503  0.59160  1.0000
  C   C505      1.0  0.58833  0.72088  0.12246  1.0000
  H   H882      1.0  0.59308  0.56109  0.25985  1.0000
  H   H883      1.0  0.53703  0.61932  0.64792  1.0000
  H   H884      1.0  0.56455  0.54589  0.66206  1.0000
  H   H885      1.0  0.61182  0.54827  0.33286  1.0000
  H   H886      1.0  0.53698  0.57083  0.29748  1.0000
  H   H887      1.0  0.34745  0.53571  0.56833  1.0000
  H   H888      1.0  0.54968  0.57335  0.62390  1.0000
  C   C506      1.0  0.35102  0.52887  0.53042  1.0000
  H   H889      1.0  0.34576  0.55244  0.27779  1.0000
  H   H890      1.0  0.56748  0.68893  0.61465  1.0000
  H   H891      1.0  0.56663  0.59601  0.61851  1.0000
  C   C507      1.0  0.56687  0.54857  0.70335  1.0000
  C   C508      1.0  0.57252  0.57104  0.86039  1.0000
  H   H892      1.0  0.34302  0.51529  0.24959  1.0000
  H   H893      1.0  0.57479  0.71140  0.03201  1.0000
  H   H894      1.0  0.59604  0.52910  0.70143  1.0000
  H   H895      1.0  0.64692  0.68025  0.21059  1.0000
  C   C509      1.0  0.63501  0.55113  0.42538  1.0000
  H   H896      1.0  0.55939  0.56916  0.88893  1.0000
  H   H897      1.0  0.57977  0.58681  0.86524  1.0000
  C   C510      1.0  0.59633  0.62947  0.39422  1.0000
  C   C511      1.0  0.60569  0.59505  0.67750  1.0000
  H   H898      1.0  0.49375  0.66296  0.57174  1.0000
  C   C512      1.0  0.64353  0.57563  0.81373  1.0000
  H   H899      1.0  0.58483  0.59793  0.38762  1.0000
  C   C513      1.0  0.61030  0.60336  0.32879  1.0000
  H   H900      1.0  0.53488  0.72498  0.52694  1.0000
  H   H901      1.0  0.53088  0.68885  0.61159  1.0000
  H   H902      1.0  0.57321  0.70538  0.37061  1.0000
  H   H903      1.0  0.55366  0.71914  0.44557  1.0000
  H   H904      1.0  0.34779  0.55923  0.49335  1.0000
  C   C514      1.0  0.61377  0.56430  0.34905  1.0000
  H   H905      1.0  0.59179  0.71305  0.55547  1.0000
  H   H906      1.0  0.57048  0.56688  0.34313  1.0000
  H   H907      1.0  0.58940  0.58868  0.24692  1.0000
  H   H908      1.0  0.58676  0.58999  0.77139  1.0000
  H   H909      1.0  0.61834  0.59419  0.59932  1.0000
  H   H910      1.0  0.57397  0.67920  0.39959  1.0000
  C   C515      1.0  0.59144  0.57677  0.27840  1.0000
  C   C516      1.0  0.47916  0.49710  0.46192  1.0000
  H   H911      1.0  0.59445  0.60807  0.66828  1.0000
  N   N28       1.0  0.61108  0.58123  0.30792  1.0000
  H   H912      1.0  0.45145  0.51484  0.49318  1.0000
  C   C517      1.0  0.64305  0.68224  0.16965  1.0000
  H   H913      1.0  0.61133  0.63842  0.39075  1.0000
  C   C518      1.0  0.55218  0.56950  0.27582  1.0000
  H   H914      1.0  0.60534  0.69389  0.63186  1.0000
  H   H915      1.0  0.62966  0.53474  0.41865  1.0000
  N   N29       1.0  0.55086  0.69551  0.54474  1.0000
  C   C519      1.0  0.56967  0.68675  0.57284  1.0000
  H   H916      1.0  0.54112  0.65267  0.58169  1.0000
  C   C520      1.0  0.60861  0.68786  0.59294  1.0000
  S   S119      1.0  0.64801  0.59813  0.03528  1.0000
  C   C521      1.0  0.52814  0.66190  0.56384  1.0000
  H   H917      1.0  0.57895  0.70849  0.46203  1.0000
  C   C522      1.0  0.62931  0.59408  0.22272  1.0000
  H   H918      1.0  0.59612  0.68956  0.51803  1.0000
  H   H919      1.0  0.50549  0.63745  0.58514  1.0000
  C   C523      1.0  0.54896  0.71932  0.54820  1.0000
  C   C524      1.0  0.63549  0.56416  0.37564  1.0000
  C   C525      1.0  0.64692  0.70650  0.99356  1.0000
  C   C526      1.0  0.54699  0.72837  0.60263  1.0000
  H   H920      1.0  0.56060  0.72336  0.62609  1.0000
  H   H921      1.0  0.65366  0.69441  0.15202  1.0000
  H   H922      1.0  0.65188  0.72629  0.05807  1.0000
  C   C527      1.0  0.64827  0.72597  0.01797  1.0000
  C   C528      1.0  0.34170  0.54310  0.48855  1.0000
  H   H923      1.0  0.44806  0.50498  0.42998  1.0000
  H   H924      1.0  0.64856  0.59139  0.82290  1.0000
  H   H925      1.0  0.64969  0.60389  0.15882  1.0000
  H   H926      1.0  0.64055  0.58045  0.38417  1.0000
  H   H927      1.0  0.51826  0.49386  0.37086  1.0000
  C   C529      1.0  0.65057  0.59363  0.19371  1.0000
  S   S120      1.0  0.60780  0.49545  0.61545  1.0000
  H   H928      1.0  0.64468  0.58327  0.29045  1.0000
  H   H929      1.0  0.58023  0.49541  0.72795  1.0000
  H   H930      1.0  0.64774  0.55690  0.35028  1.0000
  C   C530      1.0  0.33247  0.54265  0.29302  1.0000
  H   H931      1.0  0.65458  0.57727  0.18183  1.0000
  H   H932      1.0  0.32535  0.52088  0.35614  1.0000
  H   H933      1.0  0.55488  0.49940  0.39888  1.0000
  H   H934      1.0  0.65109  0.55022  0.44144  1.0000
  H   H935      1.0  0.32504  0.53287  0.21664  1.0000
  H   H936      1.0  0.32436  0.54373  0.49573  1.0000
  Fe  Fe59      1.0  0.63300  0.84047  0.93019  1.0000
  S   S121      1.0  0.62491  0.82812  0.00991  1.0000
  S   S122      1.0  0.60901  0.85637  0.87634  1.0000
  C   C531      1.0  0.43840  0.97191  0.55653  1.0000
  H   H937      1.0  0.56117  0.75898  0.58246  1.0000
  H   H938      1.0  0.33008  0.98775  0.37287  1.0000
  H   H939      1.0  0.58448  0.76509  0.12464  1.0000
  H   H940      1.0  0.43166  0.94542  0.51022  1.0000
  H   H941      1.0  0.59993  0.88531  0.63153  1.0000
  Fe  Fe60      1.0  0.53106  0.83098  0.64078  1.0000
  S   S123      1.0  0.54162  0.82748  0.55882  1.0000
  S   S124      1.0  0.55237  0.81732  0.70313  1.0000
  Fe  Fe61      1.0  0.48753  0.85007  0.60992  1.0000
  S   S125      1.0  0.49517  0.84629  0.52628  1.0000
  S   S126      1.0  0.46115  0.87034  0.64801  1.0000
  Fe  Fe62      1.0  0.50923  0.81388  0.54645  1.0000
  S   S127      1.0  0.51067  0.78524  0.49206  1.0000
  Fe  Fe63      1.0  0.52676  0.85951  0.54537  1.0000
  S   S128      1.0  0.53709  0.88894  0.50101  1.0000
  S   S129      1.0  0.49903  0.81651  0.62954  1.0000
  S   S130      1.0  0.51901  0.86408  0.62802  1.0000
  C   C532      1.0  0.64393  0.88326  0.65414  1.0000
  Fe  Fe64      1.0  0.64243  0.93818  0.42066  1.0000
  S   S131      1.0  0.63426  0.90796  0.46486  1.0000
  S   S132      1.0  0.62313  0.95047  0.35592  1.0000
  Fe  Fe65      1.0  0.36747  0.96377  0.59609  1.0000
  C   C533      1.0  0.50075  0.85909  0.88406  1.0000
  S   S133      1.0  0.38712  0.93406  0.57271  1.0000
  H   H942      1.0  0.43355  0.84497  0.74122  1.0000
  Fe  Fe66      1.0  0.65406  0.95503  0.31416  1.0000
  S   S134      1.0  0.33807  0.96699  0.64709  1.0000
  C   C534      1.0  0.44114  0.88844  0.62563  1.0000
  C   C535      1.0  0.43196  0.88663  0.57789  1.0000
  C   C536      1.0  0.41541  0.90053  0.56291  1.0000
  C   C537      1.0  0.40785  0.91673  0.59494  1.0000
  C   C538      1.0  0.41721  0.91871  0.64253  1.0000
  C   C539      1.0  0.43356  0.90457  0.65783  1.0000
  H   H943      1.0  0.43719  0.87407  0.55316  1.0000
  H   H944      1.0  0.40825  0.89863  0.52623  1.0000
  H   H945      1.0  0.41163  0.93094  0.66787  1.0000
  H   H946      1.0  0.44027  0.90609  0.69511  1.0000
  C   C540      1.0  0.56421  0.89462  0.49571  1.0000
  C   C541      1.0  0.57048  0.91394  0.47300  1.0000
  C   C542      1.0  0.59198  0.91841  0.46460  1.0000
  C   C543      1.0  0.60733  0.90345  0.47847  1.0000
  C   C544      1.0  0.60111  0.88422  0.50186  1.0000
  C   C545      1.0  0.57958  0.87986  0.51097  1.0000
  H   H947      1.0  0.55871  0.92543  0.46145  1.0000
  H   H948      1.0  0.59665  0.93333  0.44687  1.0000
  H   H949      1.0  0.61295  0.87245  0.51145  1.0000
  H   H950      1.0  0.57486  0.86484  0.52810  1.0000
  C   C546      1.0  0.50461  0.75761  0.48579  1.0000
  C   C547      1.0  0.45932  0.82473  0.76871  1.0000
  H   H951      1.0  0.46523  0.80856  0.76010  1.0000
  H   H952      1.0  0.44544  0.82807  0.69350  1.0000
  H   H953      1.0  0.49196  0.80750  0.81144  1.0000
  H   H954      1.0  0.53236  0.93949  0.40346  1.0000
  H   H955      1.0  0.59470  0.84673  0.18830  1.0000
  C   C548      1.0  0.64953  0.87057  0.35313  1.0000
  C   C549      1.0  0.65633  0.90456  0.22576  1.0000
  S   S135      1.0  0.35083  0.98052  0.53070  1.0000
  C   C550      1.0  0.51252  0.74672  0.44281  1.0000
  H   H956      1.0  0.61624  0.91344  0.68706  1.0000
  C   C551      1.0  0.45015  0.88157  0.43082  1.0000
  C   C552      1.0  0.59291  0.84507  0.82946  1.0000
  C   C553      1.0  0.59316  0.82337  0.81999  1.0000
  C   C554      1.0  0.58076  0.81525  0.78102  1.0000
  C   C555      1.0  0.56796  0.82866  0.75093  1.0000
  C   C556      1.0  0.56763  0.85036  0.76045  1.0000
  C   C557      1.0  0.57995  0.85849  0.79963  1.0000
  H   H957      1.0  0.60300  0.81284  0.84258  1.0000
  H   H958      1.0  0.58110  0.79842  0.77418  1.0000
  H   H959      1.0  0.55799  0.86087  0.73748  1.0000
  H   H960      1.0  0.57966  0.87531  0.80654  1.0000
  H   H961      1.0  0.52454  0.85775  0.80228  1.0000
  H   H962      1.0  0.48347  0.83872  0.71924  1.0000
  H   H963      1.0  0.53556  0.82674  0.82850  1.0000
  H   H964      1.0  0.43826  0.87879  0.46198  1.0000
  H   H965      1.0  0.45637  0.86595  0.41847  1.0000
  C   C558      1.0  0.57943  0.90482  0.31931  1.0000
  S   S136      1.0  0.64482  0.97000  0.45631  1.0000
  C   C559      1.0  0.65462  0.92368  0.19823  1.0000
  H   H966      1.0  0.55389  0.83525  0.38735  1.0000
  C   C560      1.0  0.44048  0.82901  0.73434  1.0000
  Fe  Fe67      1.0  0.62729  0.98307  0.38788  1.0000
  H   H967      1.0  0.50643  0.96428  0.48314  1.0000
  H   H968      1.0  0.63811  0.75932  0.91785  1.0000
  S   S137      1.0  0.64460  0.76871  0.02578  1.0000
  H   H969      1.0  0.53219  0.88973  0.72290  1.0000
  H   H970      1.0  0.57860  0.91653  0.66085  1.0000
  H   H971      1.0  0.63174  0.87297  0.75009  1.0000
  H   H972      1.0  0.65582  0.87236  0.31353  1.0000
  H   H973      1.0  0.61048  0.86578  0.15285  1.0000
  H   H974      1.0  0.54498  0.75878  0.63989  1.0000
  C   C561      1.0  0.64485  0.74508  0.99113  1.0000
  H   H975      1.0  0.61957  0.86524  0.24384  1.0000
  H   H976      1.0  0.48599  0.75417  0.55507  1.0000
  H   H977      1.0  0.56800  0.98779  0.48486  1.0000
  H   H978      1.0  0.62254  0.81023  0.59626  1.0000
  H   H979      1.0  0.53267  0.75850  0.57871  1.0000
  H   H980      1.0  0.62084  0.86246  0.39311  1.0000
  C   C562      1.0  0.62570  0.86685  0.35325  1.0000
  C   C563      1.0  0.60489  0.87361  0.23224  1.0000
  H   H981      1.0  0.58697  0.85378  0.28379  1.0000
  H   H982      1.0  0.59229  0.87112  0.68745  1.0000
  N   N30       1.0  0.47634  0.93076  0.49201  1.0000
  C   C564      1.0  0.46572  0.95177  0.50282  1.0000
  C   C565      1.0  0.49416  0.93416  0.45342  1.0000
  C   C566      1.0  0.46024  0.91694  0.46740  1.0000
  C   C567      1.0  0.48414  0.91950  0.53963  1.0000
  C   C568      1.0  0.49228  0.93354  0.58276  1.0000
  C   C569      1.0  0.44475  0.95048  0.53466  1.0000
  C   C570      1.0  0.46833  0.89503  0.44904  1.0000
  C   C571      1.0  0.51227  0.94902  0.46815  1.0000
  C   C572      1.0  0.52654  0.95423  0.42168  1.0000
  C   C573      1.0  0.50345  0.92017  0.62349  1.0000
  H   H983      1.0  0.65133  0.93783  0.12319  1.0000
  H   H984      1.0  0.45029  0.97716  0.58391  1.0000
  H   H985      1.0  0.47639  0.96244  0.52276  1.0000
  H   H986      1.0  0.50228  0.91888  0.44494  1.0000
  H   H987      1.0  0.60638  0.74178  0.06899  1.0000
  H   H988      1.0  0.64153  0.88490  0.57050  1.0000
  H   H989      1.0  0.44691  0.91351  0.49451  1.0000
  H   H990      1.0  0.47141  0.90962  0.55773  1.0000
  H   H991      1.0  0.49686  0.90794  0.52950  1.0000
  H   H992      1.0  0.47886  0.94183  0.60192  1.0000
  H   H993      1.0  0.50348  0.94570  0.56834  1.0000
  H   H994      1.0  0.45310  0.92542  0.43411  1.0000
  H   H995      1.0  0.44605  0.93884  0.56674  1.0000
  H   H996      1.0  0.47625  0.88614  0.48028  1.0000
  H   H997      1.0  0.47962  0.89684  0.41625  1.0000
  H   H998      1.0  0.61229  0.77056  0.12775  1.0000
  H   H999      1.0  0.52225  0.94091  0.49709  1.0000
  C   C574      1.0  0.54645  0.75261  0.60060  1.0000
  H   H1000     1.0  0.46201  0.96028  0.46632  1.0000
  H   H1001     1.0  0.54806  0.97599  0.52638  1.0000
  H   H1002     1.0  0.51772  0.91234  0.60677  1.0000
  H   H1003     1.0  0.50846  0.93043  0.65473  1.0000
  H   H1004     1.0  0.49262  0.90791  0.63992  1.0000
  H   H1005     1.0  0.61956  0.85856  0.59390  1.0000
  C   C575      1.0  0.60507  0.88123  0.67096  1.0000
  C   C576      1.0  0.55643  0.99095  0.51643  1.0000
  H   H1006     1.0  0.60456  0.92269  0.27743  1.0000
  C   C577      1.0  0.55586  0.86882  0.36607  1.0000
  H   H1007     1.0  0.61566  0.85118  0.73730  1.0000
  H   H1008     1.0  0.58058  0.91312  0.35626  1.0000
  C   C578      1.0  0.61330  0.88695  0.33563  1.0000
  H   H1009     1.0  0.51886  0.84991  0.74027  1.0000
  H   H1010     1.0  0.45355  0.82500  0.80897  1.0000
  H   H1011     1.0  0.52196  0.75524  0.41436  1.0000
  H   H1012     1.0  0.55420  0.85277  0.44084  1.0000
  C   C579      1.0  0.52253  0.81543  0.83580  1.0000
  H   H1013     1.0  0.48845  0.84463  0.95492  1.0000
  N   N31       1.0  0.62574  0.86908  0.66980  1.0000
  H   H1014     1.0  0.60894  0.89034  0.22380  1.0000
  H   H1015     1.0  0.53073  0.85070  0.40387  1.0000
  C   C580      1.0  0.52151  0.89463  0.75478  1.0000
  C   C581      1.0  0.54829  0.85078  0.40172  1.0000
  H   H1016     1.0  0.54803  0.88365  0.37907  1.0000
  H   H1017     1.0  0.46897  0.85702  0.75694  1.0000
  H   H1018     1.0  0.47562  0.86936  0.93660  1.0000
  C   C582      1.0  0.48568  0.84762  0.84783  1.0000
  C   C583      1.0  0.65640  0.88516  0.20014  1.0000
  H   H1019     1.0  0.58339  0.87205  0.16850  1.0000
  C   C584      1.0  0.58729  0.92008  0.27606  1.0000
  H   H1020     1.0  0.54047  0.96331  0.43353  1.0000
  C   C585      1.0  0.57630  0.94170  0.27972  1.0000
  H   H1021     1.0  0.60185  0.82589  0.56633  1.0000
  H   H1022     1.0  0.65208  0.84984  0.80987  1.0000
  H   H1023     1.0  0.55047  0.86548  0.32714  1.0000
  C   C586      1.0  0.47701  0.84126  0.75852  1.0000
  H   H1024     1.0  0.56226  0.90294  0.31281  1.0000
  C   C587      1.0  0.62415  0.85173  0.63151  1.0000
  H   H1025     1.0  0.57060  0.90158  0.71781  1.0000
  H   H1026     1.0  0.53066  0.89548  0.79033  1.0000
  H   H1027     1.0  0.42295  0.97037  0.57725  1.0000
  H   H1028     1.0  0.58707  0.85501  0.37008  1.0000
  H   H1029     1.0  0.57909  0.94889  0.31723  1.0000
  H   H1030     1.0  0.53776  0.79052  0.79118  1.0000
  C   C588      1.0  0.65120  0.83670  0.78249  1.0000
  H   H1031     1.0  0.55901  0.94018  0.27462  1.0000
  H   H1032     1.0  0.58389  0.87885  0.40385  1.0000
  H   H1033     1.0  0.58273  0.95255  0.24935  1.0000
  C   C589      1.0  0.62967  0.86005  0.72257  1.0000
  C   C590      1.0  0.50408  0.81922  0.79880  1.0000
  H   H1034     1.0  0.62252  0.85326  0.32857  1.0000
  C   C591      1.0  0.60460  0.90177  0.70235  1.0000
  C   C592      1.0  0.58764  0.87112  0.27496  1.0000
  N   N32       1.0  0.59040  0.88351  0.32306  1.0000
  H   H1035     1.0  0.62682  0.90546  0.60216  1.0000
  Fe  Fe68      1.0  0.65280  0.84673  0.03615  1.0000
  C   C593      1.0  0.58024  0.87129  0.36728  1.0000
  C   C594      1.0  0.49097  0.86068  0.93771  1.0000
  S   S138      1.0  0.65591  0.94855  0.22842  1.0000
  H   H1036     1.0  0.62218  0.89449  0.30325  1.0000
  H   H1037     1.0  0.61442  0.89853  0.36688  1.0000
  H   H1038     1.0  0.42807  0.81700  0.74234  1.0000
  H   H1039     1.0  0.51672  0.81675  0.87585  1.0000
  C   C595      1.0  0.51133  0.85637  0.77557  1.0000
  H   H1040     1.0  0.49212  0.88514  0.79124  1.0000
  H   H1041     1.0  0.47922  0.83344  0.86865  1.0000
  H   H1042     1.0  0.49477  0.87894  0.72511  1.0000
  C   C596      1.0  0.59783  0.86391  0.18260  1.0000
  H   H1043     1.0  0.50383  0.87547  0.86982  1.0000
  H   H1044     1.0  0.50180  0.86940  0.96235  1.0000
  H   H1045     1.0  0.47183  0.85849  0.84320  1.0000
  H   H1046     1.0  0.58282  0.92706  0.72314  1.0000
  H   H1047     1.0  0.51514  0.91066  0.74544  1.0000
  H   H1048     1.0  0.51967  0.78100  0.84078  1.0000
  H   H1049     1.0  0.44228  0.88951  0.39800  1.0000
  H   H1050     1.0  0.57207  0.87507  0.25800  1.0000
  C   C597      1.0  0.53179  0.79310  0.83073  1.0000
  C   C598      1.0  0.58278  0.91233  0.70080  1.0000
  C   C599      1.0  0.60790  0.83405  0.64502  1.0000
  C   C600      1.0  0.50328  0.87906  0.76170  1.0000
  N   N33       1.0  0.49470  0.84131  0.79637  1.0000
  H   H1051     1.0  0.51626  0.85105  0.88740  1.0000
  H   H1052     1.0  0.50955  0.81445  0.75987  1.0000
  H   H1053     1.0  0.60807  0.89829  0.74298  1.0000
  H   H1054     1.0  0.61214  0.82525  0.68050  1.0000
  H   H1055     1.0  0.58343  0.91370  0.23837  1.0000
  H   H1056     1.0  0.59175  0.84072  0.65023  1.0000
  H   H1057     1.0  0.48763  0.94017  0.41660  1.0000
  C   C601      1.0  0.65424  0.88455  0.14691  1.0000
  H   H1058     1.0  0.64718  0.89462  0.68481  1.0000
  C   C602      1.0  0.64157  0.89585  0.60298  1.0000
  H   H1059     1.0  0.54525  0.79097  0.85690  1.0000
  C   C603      1.0  0.60690  0.81801  0.60244  1.0000
  Fe  Fe69      1.0  0.64833  0.80202  0.99230  1.0000
  S   S139      1.0  0.65467  0.81303  0.91121  1.0000
  H   H1060     1.0  0.64852  0.83159  0.70249  1.0000
  H   H1061     1.0  0.59937  0.75604  0.17946  1.0000
  H   H1062     1.0  0.59514  0.80564  0.61324  1.0000
  S   S140      1.0  0.65468  0.85943  0.11748  1.0000
  H   H1063     1.0  0.51781  0.96397  0.39315  1.0000
  H   H1064     1.0  0.65324  0.88497  0.37468  1.0000
  C   C604      1.0  0.59993  0.75864  0.13741  1.0000
  C   C605      1.0  0.65225  0.90367  0.11937  1.0000
  H   H1065     1.0  0.63985  0.84412  0.62436  1.0000
  H   H1066     1.0  0.43664  0.98403  0.52549  1.0000
  H   H1067     1.0  0.33312  0.95624  0.42816  1.0000
  C   C606      1.0  0.64935  0.84535  0.72783  1.0000
  H   H1068     1.0  0.63743  0.82665  0.79311  1.0000
  C   C607      1.0  0.49233  0.74620  0.52191  1.0000
  H   H1069     1.0  0.65040  0.90352  0.07849  1.0000
  C   C608      1.0  0.65265  0.92311  0.14490  1.0000
  C   C609      1.0  0.64075  0.74464  0.93894  1.0000
  H   H1070     1.0  0.65759  0.85679  0.37148  1.0000
  H   H1071     1.0  0.79337  0.02374  0.49585  1.0000
  H   H1072     1.0  0.92963  0.04126  0.69366  1.0000
  H   H1073     1.0  0.79692  0.03847  0.62989  1.0000
  H   H1074     1.0  0.85839  0.04223  0.39376  1.0000
  S   S141      1.0  0.87717  0.03479  0.57837  1.0000
  C   C610      1.0  0.80946  0.06451  0.38658  1.0000
  H   H1075     1.0  0.93545  0.09841  0.74600  1.0000
  H   H1076     1.0  0.79190  0.05555  0.45435  1.0000
  H   H1077     1.0  0.97367  0.08742  0.78145  1.0000
  S   S142      1.0  0.96977  0.07620  0.55533  1.0000
  H   H1078     1.0  0.78369  0.08746  0.39544  1.0000
  C   C611      1.0  0.97305  0.04817  0.69123  1.0000
  C   C612      1.0  0.90969  0.04024  0.76086  1.0000
  H   H1079     1.0  0.79984  0.05390  0.36349  1.0000
  H   H1080     1.0  0.92804  0.13113  0.69453  1.0000
  C   C613      1.0  0.79501  0.03033  0.59320  1.0000
  C   C614      1.0  0.90309  0.04598  0.57195  1.0000
  C   C615      1.0  0.92120  0.03360  0.56267  1.0000
  C   C616      1.0  0.94127  0.04319  0.55708  1.0000
  C   C617      1.0  0.94370  0.06527  0.56074  1.0000
  C   C618      1.0  0.92557  0.07766  0.56974  1.0000
  C   C619      1.0  0.90548  0.06808  0.57550  1.0000
  H   H1081     1.0  0.91973  0.01663  0.55955  1.0000
  H   H1082     1.0  0.95504  0.03336  0.54995  1.0000
  H   H1083     1.0  0.92700  0.09466  0.57210  1.0000
  H   H1084     1.0  0.89166  0.07790  0.58238  1.0000
  C   C620      1.0  0.80897  0.05709  0.44356  1.0000
  H   H1085     1.0  0.78695  0.02387  0.40059  1.0000
  H   H1086     1.0  0.82707  0.03704  0.57047  1.0000
  H   H1087     1.0  0.85138  0.02713  0.48549  1.0000
  H   H1088     1.0  0.80413  0.01096  0.31964  1.0000
  C   C621      1.0  0.81115  0.03883  0.55372  1.0000
  C   C622      1.0  0.97645  0.99480  0.47253  1.0000
  H   H1089     1.0  0.96205  0.04468  0.66000  1.0000
  H   H1090     1.0  0.91977  0.10747  0.66371  1.0000
  C   C623      1.0  0.93372  0.11638  0.67621  1.0000
  H   H1091     1.0  0.94567  0.07734  0.66020  1.0000
  H   H1092     1.0  0.90494  0.05025  0.79355  1.0000
  C   C624      1.0  0.80024  0.08686  0.38033  1.0000
  H   H1093     1.0  0.95889  0.11315  0.72964  1.0000
  C   C625      1.0  0.84345  0.04180  0.47104  1.0000
  H   H1094     1.0  0.91810  0.06628  0.71109  1.0000
  C   C626      1.0  0.92586  0.05166  0.72623  1.0000
  H   H1095     1.0  0.79737  0.01306  0.60002  1.0000
  H   H1096     1.0  0.88127  0.06402  0.47991  1.0000
  Fe  Fe70      1.0  0.86731  0.99974  0.57606  1.0000
  C   C627      1.0  0.94640  0.10298  0.71422  1.0000
  H   H1097     1.0  0.82560  0.06454  0.36958  1.0000
  C   C628      1.0  0.98059  0.07460  0.75771  1.0000
  H   H1098     1.0  0.82824  0.02794  0.37894  1.0000
  H   H1099     1.0  0.94141  0.06823  0.78651  1.0000
  H   H1100     1.0  0.95115  0.04246  0.77642  1.0000
  H   H1101     1.0  0.85239  0.06811  0.41937  1.0000
  H   H1102     1.0  0.94360  0.12079  0.64214  1.0000
  C   C629      1.0  0.95678  0.08352  0.68818  1.0000
  N   N34       1.0  0.96416  0.06588  0.72340  1.0000
  C   C630      1.0  0.88062  0.05355  0.44653  1.0000
  C   C631      1.0  0.94605  0.05717  0.75570  1.0000
  H   H1103     1.0  0.77866  0.03323  0.57997  1.0000
  H   H1104     1.0  0.88713  0.03770  0.45733  1.0000
  H   H1105     1.0  0.80023  0.09155  0.33923  1.0000
  C   C632      1.0  0.85788  0.05178  0.42867  1.0000
  C   C633      1.0  0.79957  0.01160  0.40233  1.0000
  C   C634      1.0  0.81037  0.02651  0.50324  1.0000
  N   N35       1.0  0.82100  0.03697  0.45704  1.0000
  H   H1106     1.0  0.80990  0.09842  0.40076  1.0000
  H   H1107     1.0  0.80781  0.05594  0.54735  1.0000
  C   C635      1.0  0.82134  0.02111  0.41479  1.0000
  H   H1108     1.0  0.84374  0.05306  0.50305  1.0000
  H   H1109     1.0  0.81737  0.01048  0.51086  1.0000
  H   H1110     1.0  0.89537  0.03683  0.73877  1.0000
  H   H1111     1.0  0.81466  0.07039  0.46668  1.0000
  H   H1112     1.0  0.89075  0.06046  0.41539  1.0000
  H   H1113     1.0  0.91627  0.02494  0.77541  1.0000
  H   H1114     1.0  0.78478  0.99261  0.34562  1.0000
  H   H1115     1.0  0.97870  0.05386  0.82594  1.0000
  H   H1116     1.0  0.79492  0.99994  0.43250  1.0000
  H   H1117     1.0  0.97424  0.03309  0.71386  1.0000
  H   H1118     1.0  0.97018  0.08983  0.66446  1.0000
  H   H1119     1.0  0.77181  0.99483  0.53744  1.0000
  H   H1120     1.0  0.96889  0.22678  0.52253  1.0000
  H   H1121     1.0  0.73468  0.00414  0.51606  1.0000
  H   H1122     1.0  0.96168  0.99708  0.45083  1.0000
  C   C636      1.0  0.98502  0.22915  0.50919  1.0000
  H   H1123     1.0  0.83195  0.00749  0.42482  1.0000
  S   S143      1.0  0.98796  0.13332  0.62143  1.0000
  C   C637      1.0  0.80041  0.99987  0.35202  1.0000
  H   H1124     1.0  0.97754  0.00787  0.49996  1.0000
  Fe  Fe71      1.0  0.99003  0.10618  0.56666  1.0000
  H   H1125     1.0  0.98946  0.03374  0.59791  1.0000
  C   C638      1.0  0.99051  0.05839  0.79572  1.0000
  C   C639      1.0  0.87725  0.41221  0.27985  1.0000
  N   N36       1.0  0.85853  0.40316  0.30973  1.0000
  H   H1126     1.0  0.86757  0.37121  0.29044  1.0000
  Fe  Fe72      1.0  0.87099  0.47691  0.38596  1.0000
  H   H1127     1.0  0.94101  0.48160  0.43455  1.0000
  S   S144      1.0  0.89923  0.45465  0.36552  1.0000
  S   S145      1.0  0.85612  0.48301  0.46349  1.0000
  H   H1128     1.0  0.72142  0.45550  0.51802  1.0000
  H   H1129     1.0  0.84494  0.40111  0.23475  1.0000
  H   H1130     1.0  0.87376  0.34697  0.39258  1.0000
  C   C640      1.0  0.75325  0.46225  0.48981  1.0000
  H   H1131     1.0  0.90133  0.35301  0.39891  1.0000
  S   S146      1.0  0.94722  0.36744  0.42466  1.0000
  C   C641      1.0  0.88766  0.35444  0.37311  1.0000
  C   C642      1.0  0.88326  0.37783  0.36096  1.0000
  C   C643      1.0  0.86420  0.38064  0.32520  1.0000
  H   H1132     1.0  0.90698  0.44301  0.25176  1.0000
  C   C644      1.0  0.91368  0.43150  0.38636  1.0000
  C   C645      1.0  0.93166  0.42497  0.35780  1.0000
  C   C646      1.0  0.94275  0.40603  0.37033  1.0000
  C   C647      1.0  0.93586  0.39306  0.41135  1.0000
  C   C648      1.0  0.91831  0.39995  0.44093  1.0000
  C   C649      1.0  0.90744  0.41907  0.42893  1.0000
  H   H1133     1.0  0.93683  0.43441  0.32499  1.0000
  H   H1134     1.0  0.95613  0.40104  0.34696  1.0000
  H   H1135     1.0  0.91279  0.39015  0.47281  1.0000
  H   H1136     1.0  0.89386  0.42386  0.45182  1.0000
  H   H1137     1.0  0.95633  0.39777  0.52109  1.0000
  H   H1138     1.0  0.89796  0.38441  0.34338  1.0000
  H   H1139     1.0  0.75915  0.48045  0.58748  1.0000
  H   H1140     1.0  0.97871  0.38687  0.48619  1.0000
  H   H1141     1.0  0.88271  0.40096  0.25002  1.0000
  H   H1142     1.0  0.86924  0.41865  0.37701  1.0000
  H   H1143     1.0  0.83193  0.41950  0.27544  1.0000
  H   H1144     1.0  0.95958  0.44274  0.53169  1.0000
  C   C650      1.0  0.85453  0.41688  0.35535  1.0000
  C   C651      1.0  0.83668  0.40993  0.39315  1.0000
  H   H1145     1.0  0.87993  0.38566  0.39775  1.0000
  H   H1146     1.0  0.79541  0.40678  0.26654  1.0000
  H   H1147     1.0  0.86106  0.43353  0.22442  1.0000
  H   H1148     1.0  0.75844  0.44591  0.49317  1.0000
  H   H1149     1.0  0.98634  0.41515  0.42887  1.0000
  H   H1150     1.0  0.85079  0.37261  0.34519  1.0000
  H   H1151     1.0  0.93028  0.45731  0.46070  1.0000
  H   H1152     1.0  0.83414  0.44044  0.43039  1.0000
  H   H1153     1.0  0.96412  0.36154  0.55015  1.0000
  H   H1154     1.0  0.83853  0.39317  0.40583  1.0000
  H   H1155     1.0  0.96817  0.37990  0.60062  1.0000
  Fe  Fe73      1.0  0.66486  0.48923  0.55126  1.0000
  Fe  Fe74      1.0  0.82469  0.48623  0.42333  1.0000
  C   C652      1.0  0.96482  0.45849  0.45783  1.0000
  H   H1156     1.0  0.89170  0.34582  0.33767  1.0000
  H   H1157     1.0  0.94149  0.47637  0.50240  1.0000
  C   C653      1.0  0.96705  0.43888  0.49403  1.0000
  C   C654      1.0  0.73215  0.46766  0.50406  1.0000
  H   H1158     1.0  0.80661  0.39247  0.21305  1.0000
  H   H1159     1.0  0.82322  0.41857  0.46689  1.0000
  C   C655      1.0  0.83647  0.42344  0.44082  1.0000
  H   H1160     1.0  0.85031  0.43324  0.34292  1.0000
  H   H1161     1.0  0.97935  0.26179  0.48491  1.0000
  C   C656      1.0  0.83969  0.40355  0.27512  1.0000
  H   H1162     1.0  0.82851  0.37080  0.27335  1.0000
  H   H1163     1.0  0.89091  0.41426  0.30509  1.0000
  H   H1164     1.0  0.85153  0.42149  0.46149  1.0000
  C   C657      1.0  0.89387  0.44145  0.22464  1.0000
  H   H1165     1.0  0.89863  0.43006  0.19474  1.0000
  H   H1166     1.0  0.82110  0.41232  0.37519  1.0000
  H   H1167     1.0  0.89104  0.45719  0.20614  1.0000
  C   C658      1.0  0.82241  0.38655  0.28524  1.0000
  H   H1168     1.0  0.95678  0.42682  0.47722  1.0000
  S   S147      1.0  0.83936  0.47801  0.34635  1.0000
  H   H1169     1.0  0.79083  0.37881  0.26134  1.0000
  Fe  Fe75      1.0  0.98042  0.35273  0.40919  1.0000
  C   C659      1.0  0.94307  0.46902  0.46440  1.0000
  C   C660      1.0  0.97414  0.37472  0.56271  1.0000
  H   H1170     1.0  0.86941  0.44646  0.28070  1.0000
  C   C661      1.0  0.87373  0.43413  0.25287  1.0000
  C   C662      1.0  0.80265  0.39153  0.25454  1.0000
  C   C663      1.0  0.76771  0.47768  0.47151  1.0000
  S   S148      1.0  0.79439  0.46970  0.45506  1.0000
  H   H1171     1.0  0.81753  0.38515  0.32592  1.0000
  C   C664      1.0  0.72498  0.48868  0.50001  1.0000
  C   C665      1.0  0.97319  0.39299  0.52354  1.0000
  H   H1172     1.0  0.77431  0.48487  0.64375  1.0000
  H   H1173     1.0  0.96634  0.45339  0.41760  1.0000
  H   H1174     1.0  0.97665  0.47082  0.46451  1.0000
  H   H1175     1.0  0.98110  0.41714  0.57719  1.0000
  H   H1176     1.0  0.71047  0.48868  0.72508  1.0000
  H   H1177     1.0  0.68461  0.49064  0.79561  1.0000
  N   N37       1.0  0.98908  0.43010  0.50186  1.0000
  C   C666      1.0  0.98718  0.41163  0.53945  1.0000
  H   H1178     1.0  0.99063  0.36870  0.56620  1.0000
  Fe  Fe76      1.0  0.86891  0.63231  0.92328  1.0000
  S   S149      1.0  0.87961  0.63815  0.00337  1.0000
  S   S150      1.0  0.88519  0.63953  0.84565  1.0000
  Fe  Fe77      1.0  0.82391  0.62036  0.96140  1.0000
  S   S151      1.0  0.83108  0.62504  0.04383  1.0000
  S   S152      1.0  0.79298  0.60910  0.92967  1.0000
  Fe  Fe78      1.0  0.84806  0.65442  0.01484  1.0000
  S   S153      1.0  0.84216  0.68513  0.05627  1.0000
  Fe  Fe79      1.0  0.86183  0.60831  0.02650  1.0000
  S   S154      1.0  0.87636  0.58170  0.07553  1.0000
  S   S155      1.0  0.83848  0.65082  0.93386  1.0000
  S   S156      1.0  0.85351  0.60140  0.94535  1.0000
  Fe  Fe80      1.0  0.67328  0.62144  0.01227  1.0000
  S   S157      1.0  0.70568  0.62161  0.04729  1.0000
  C   C667      1.0  0.96111  0.68474  0.66539  1.0000
  H   H1179     1.0  0.70738  0.66581  0.03117  1.0000
  H   H1180     1.0  0.78888  0.54397  0.24599  1.0000
  Fe  Fe81      1.0  0.84478  0.51313  0.33448  1.0000
  S   S158      1.0  0.82832  0.52110  0.40877  1.0000
  S   S159      1.0  0.83344  0.53503  0.26958  1.0000
  Fe  Fe82      1.0  0.86045  0.51756  0.44259  1.0000
  S   S160      1.0  0.87016  0.54414  0.49349  1.0000
  Fe  Fe83      1.0  0.98232  0.61536  0.65340  1.0000
  S   S161      1.0  0.96258  0.62346  0.58548  1.0000
  S   S162      1.0  0.97172  0.61078  0.73663  1.0000
  Fe  Fe84      1.0  0.97926  0.59602  0.54846  1.0000
  S   S163      1.0  0.96676  0.56903  0.50278  1.0000
  C   C668      1.0  0.89707  0.55081  0.49591  1.0000
  C   C669      1.0  0.90277  0.56946  0.52001  1.0000
  C   C670      1.0  0.92415  0.57491  0.52417  1.0000
  C   C671      1.0  0.93991  0.56196  0.50282  1.0000
  C   C672      1.0  0.93418  0.54339  0.47834  1.0000
  C   C673      1.0  0.91283  0.53775  0.47512  1.0000
  H   H1181     1.0  0.89055  0.57984  0.53486  1.0000
  H   H1182     1.0  0.92842  0.58939  0.54242  1.0000
  H   H1183     1.0  0.94632  0.53337  0.46160  1.0000
  H   H1184     1.0  0.90859  0.52331  0.45660  1.0000
  H   H1185     1.0  0.69558  0.55176  0.52337  1.0000
  H   H1186     1.0  0.78722  0.51868  0.21534  1.0000
  H   H1187     1.0  0.75728  0.53377  0.16285  1.0000
  C   C674      1.0  0.72086  0.55865  0.72015  1.0000
  H   H1188     1.0  0.70835  0.66944  0.94991  1.0000
  N   N38       1.0  0.72155  0.52645  0.65984  1.0000
  C   C675      1.0  0.73537  0.50752  0.64722  1.0000
  C   C676      1.0  0.90945  0.63124  0.81679  1.0000
  C   C677      1.0  0.92398  0.61810  0.84194  1.0000
  C   C678      1.0  0.94295  0.61195  0.81678  1.0000
  C   C679      1.0  0.94750  0.61871  0.76623  1.0000
  C   C680      1.0  0.93293  0.63171  0.74100  1.0000
  C   C681      1.0  0.91409  0.63801  0.76632  1.0000
  H   H1189     1.0  0.92063  0.61278  0.88079  1.0000
  H   H1190     1.0  0.95415  0.60191  0.83670  1.0000
  H   H1191     1.0  0.93614  0.63686  0.70204  1.0000
  H   H1192     1.0  0.90277  0.64795  0.74653  1.0000
  C   C682      1.0  0.86488  0.56949  0.13123  1.0000
  C   C683      1.0  0.87440  0.55115  0.15237  1.0000
  C   C684      1.0  0.86559  0.54086  0.19616  1.0000
  C   C685      1.0  0.84704  0.54876  0.21903  1.0000
  C   C686      1.0  0.83799  0.56751  0.19896  1.0000
  C   C687      1.0  0.84687  0.57786  0.15545  1.0000
  H   H1193     1.0  0.88850  0.54468  0.13425  1.0000
  H   H1194     1.0  0.87273  0.52643  0.21106  1.0000
  H   H1195     1.0  0.82390  0.57399  0.21705  1.0000
  H   H1196     1.0  0.83984  0.59232  0.14056  1.0000
  C   C688      1.0  0.84943  0.70915  0.02505  1.0000
  C   C689      1.0  0.84147  0.72845  0.04345  1.0000
  C   C690      1.0  0.86377  0.70938  0.98367  1.0000
  H   H1197     1.0  0.83034  0.72837  0.07540  1.0000
  H   H1198     1.0  0.86999  0.69461  0.96918  1.0000
  C   C691      1.0  0.76853  0.61597  0.95881  1.0000
  C   C692      1.0  0.76754  0.62580  0.00603  1.0000
  C   C693      1.0  0.74795  0.62829  0.03178  1.0000
  C   C694      1.0  0.72923  0.62142  0.01001  1.0000
  C   C695      1.0  0.73003  0.61293  0.96122  1.0000
  C   C696      1.0  0.74968  0.61005  0.93590  1.0000
  H   H1199     1.0  0.78195  0.63064  0.02369  1.0000
  H   H1200     1.0  0.74736  0.63506  0.06931  1.0000
  H   H1201     1.0  0.71568  0.60755  0.94421  1.0000
  H   H1202     1.0  0.75035  0.60252  0.89925  1.0000
  H   H1203     1.0  0.68582  0.72307  0.94742  1.0000
  N   N39       1.0  0.89691  0.58477  0.32881  1.0000
  C   C697      1.0  0.91272  0.60019  0.34857  1.0000
  C   C698      1.0  0.89175  0.59029  0.27379  1.0000
  C   C699      1.0  0.87688  0.58695  0.36095  1.0000
  C   C700      1.0  0.90441  0.56207  0.33388  1.0000
  C   C701      1.0  0.92632  0.55679  0.30994  1.0000
  C   C702      1.0  0.91915  0.59687  0.40485  1.0000
  C   C703      1.0  0.85762  0.57414  0.34351  1.0000
  C   C704      1.0  0.90957  0.60048  0.23988  1.0000
  C   C705      1.0  0.90382  0.60123  0.18365  1.0000
  C   C706      1.0  0.93258  0.53378  0.32188  1.0000
  C   C707      1.0  0.93674  0.61205  0.41850  1.0000
  C   C708      1.0  0.83817  0.57827  0.37759  1.0000
  H   H1204     1.0  0.90643  0.61668  0.34435  1.0000
  H   H1205     1.0  0.92766  0.59994  0.32567  1.0000
  H   H1206     1.0  0.88591  0.57608  0.25408  1.0000
  H   H1207     1.0  0.87844  0.60198  0.27205  1.0000
  H   H1208     1.0  0.87192  0.60392  0.36252  1.0000
  H   H1209     1.0  0.87957  0.58163  0.40110  1.0000
  H   H1210     1.0  0.90438  0.55682  0.37474  1.0000
  H   H1211     1.0  0.89312  0.55137  0.31556  1.0000
  H   H1212     1.0  0.93886  0.56693  0.32488  1.0000
  H   H1213     1.0  0.92585  0.55862  0.26784  1.0000
  H   H1214     1.0  0.90558  0.59989  0.43131  1.0000
  H   H1215     1.0  0.92512  0.58053  0.41152  1.0000
  H   H1216     1.0  0.86097  0.55690  0.34586  1.0000
  H   H1217     1.0  0.85335  0.57840  0.30379  1.0000
  H   H1218     1.0  0.91209  0.61706  0.25163  1.0000
  H   H1219     1.0  0.92479  0.59183  0.24291  1.0000
  H   H1220     1.0  0.90384  0.58496  0.16855  1.0000
  H   H1221     1.0  0.88802  0.60867  0.17823  1.0000
  H   H1222     1.0  0.91571  0.61058  0.16120  1.0000
  H   H1223     1.0  0.92088  0.52275  0.30633  1.0000
  H   H1224     1.0  0.94830  0.53027  0.30417  1.0000
  H   H1225     1.0  0.93356  0.53096  0.36375  1.0000
  C   C709      1.0  0.73350  0.54032  0.69522  1.0000
  H   H1226     1.0  0.89899  0.68953  0.78588  1.0000
  H   H1227     1.0  0.93165  0.62878  0.41231  1.0000
  H   H1228     1.0  0.83372  0.59532  0.37626  1.0000
  H   H1229     1.0  0.82467  0.56899  0.36396  1.0000
  H   H1230     1.0  0.76100  0.55890  0.19200  1.0000
  C   C710      1.0  0.73609  0.70275  0.96058  1.0000
  C   C711      1.0  0.77127  0.68274  0.95684  1.0000
  C   C712      1.0  0.92286  0.69328  0.72566  1.0000
  H   H1231     1.0  0.70865  0.72653  0.90767  1.0000
  H   H1232     1.0  0.88192  0.72881  0.93044  1.0000
  H   H1233     1.0  0.94072  0.60976  0.45930  1.0000
  C   C713      1.0  0.96162  0.72085  0.63093  1.0000
  H   H1234     1.0  0.69840  0.66904  0.81280  1.0000
  H   H1235     1.0  0.68474  0.68426  0.95059  1.0000
  C   C714      1.0  0.90651  0.68832  0.07602  1.0000
  C   C715      1.0  0.70181  0.68525  0.93936  1.0000
  H   H1236     1.0  0.68480  0.67812  0.10252  1.0000
  H   H1237     1.0  0.72502  0.58334  0.77523  1.0000
  H   H1238     1.0  0.77883  0.66710  0.94949  1.0000
  C   C716      1.0  0.76921  0.54437  0.17894  1.0000
  C   C717      1.0  0.97513  0.71570  0.47890  1.0000
  H   H1239     1.0  0.93267  0.70872  0.08790  1.0000
  H   H1240     1.0  0.90598  0.68214  0.53237  1.0000
  H   H1241     1.0  0.68871  0.70278  0.02865  1.0000
  C   C718      1.0  0.70140  0.51809  0.68443  1.0000
  H   H1242     1.0  0.69243  0.56101  0.63815  1.0000
  C   C719      1.0  0.90452  0.70197  0.75811  1.0000
  C   C720      1.0  0.68256  0.50123  0.76165  1.0000
  H   H1243     1.0  0.84127  0.57322  0.41765  1.0000
  H   H1244     1.0  0.70602  0.57495  0.55334  1.0000
  C   C721      1.0  0.71689  0.53826  0.61026  1.0000
  H   H1245     1.0  0.69024  0.53118  0.69340  1.0000
  H   H1246     1.0  0.91618  0.67700  0.05335  1.0000
  H   H1247     1.0  0.66334  0.59968  0.21763  1.0000
  C   C722      1.0  0.97648  0.69042  0.70828  1.0000
  H   H1248     1.0  0.68136  0.66181  0.86621  1.0000
  H   H1249     1.0  0.94755  0.69384  0.56784  1.0000
  N   N40       1.0  0.71227  0.70269  0.96786  1.0000
  H   H1250     1.0  0.73419  0.52044  0.47796  1.0000
  H   H1251     1.0  0.74079  0.53059  0.72620  1.0000
  C   C723      1.0  0.90289  0.72664  0.10245  1.0000
  H   H1252     1.0  0.93158  0.71751  0.17615  1.0000
  H   H1253     1.0  0.96837  0.53898  0.68884  1.0000
  C   C724      1.0  0.93158  0.71028  0.68709  1.0000
  C   C725      1.0  0.73430  0.57007  0.75851  1.0000
  H   H1254     1.0  0.91783  0.71829  0.66884  1.0000
  C   C726      1.0  0.91651  0.71026  0.07274  1.0000
  C   C727      1.0  0.87050  0.72877  0.96179  1.0000
  H   H1255     1.0  0.70656  0.55293  0.74126  1.0000
  H   H1256     1.0  0.93535  0.68795  0.75220  1.0000
  C   C728      1.0  0.70388  0.50456  0.73415  1.0000
  C   C729      1.0  0.93589  0.69612  0.59958  1.0000
  C   C730      1.0  0.74727  0.68094  0.95320  1.0000
  H   H1257     1.0  0.74196  0.66889  0.98172  1.0000
  H   H1258     1.0  0.69297  0.50820  0.65683  1.0000
  H   H1259     1.0  0.92509  0.70894  0.58595  1.0000
  H   H1260     1.0  0.95947  0.55435  0.63454  1.0000
  C   C731      1.0  0.71250  0.67984  0.05177  1.0000
  C   C732      1.0  0.70229  0.67836  0.10510  1.0000
  H   H1261     1.0  0.88364  0.63924  0.64919  1.0000
  H   H1262     1.0  0.90960  0.71587  0.77982  1.0000
  H   H1263     1.0  0.74711  0.54786  0.67454  1.0000
  H   H1264     1.0  0.90487  0.65505  0.55564  1.0000
  H   H1265     1.0  0.88275  0.61978  0.60000  1.0000
  H   H1266     1.0  0.91778  0.71503  0.03174  1.0000
  H   H1267     1.0  0.88457  0.51138  0.58345  1.0000
  H   H1268     1.0  0.95128  0.60889  0.39522  1.0000
  C   C733      1.0  0.88378  0.51590  0.62420  1.0000
  H   H1269     1.0  0.76650  0.52302  0.63840  1.0000
  H   H1270     1.0  0.89874  0.71991  0.14096  1.0000
  C   C734      1.0  0.70613  0.70066  0.02376  1.0000
  H   H1271     1.0  0.89427  0.50503  0.64615  1.0000
  H   H1272     1.0  0.76519  0.52856  0.25297  1.0000
  H   H1273     1.0  0.70704  0.69192  0.12839  1.0000
  C   C735      1.0  0.77823  0.53318  0.22603  1.0000
  N   N41       1.0  0.94721  0.70274  0.64670  1.0000
  H   H1274     1.0  0.93064  0.66227  0.62104  1.0000
  H   H1275     1.0  0.72988  0.67917  0.05646  1.0000
  H   H1276     1.0  0.70745  0.66341  0.12442  1.0000
  H   H1277     1.0  0.86719  0.51407  0.63831  1.0000
  C   C736      1.0  0.69762  0.66680  0.85492  1.0000
  H   H1278     1.0  0.77756  0.69439  0.92809  1.0000
  H   H1279     1.0  0.71888  0.69259  0.86664  1.0000
  S   S164      1.0  0.66399  0.62400  0.93007  1.0000
  H   H1280     1.0  0.90756  0.67930  0.62710  1.0000
  S   S165      1.0  0.98091  0.67510  0.51933  1.0000
  H   H1281     1.0  0.94594  0.74081  0.10342  1.0000
  H   H1282     1.0  0.86208  0.62081  0.64902  1.0000
  H   H1283     1.0  0.75303  0.52002  0.57936  1.0000
  H   H1284     1.0  0.74084  0.71261  0.92650  1.0000
  N   N42       1.0  0.78060  0.56369  0.09462  1.0000
  C   C737      1.0  0.76341  0.55314  0.06578  1.0000
  C   C738      1.0  0.78688  0.54926  0.13842  1.0000
  C   C739      1.0  0.77228  0.58468  0.11331  1.0000
  C   C740      1.0  0.79986  0.56784  0.06087  1.0000
  C   C741      1.0  0.80923  0.54843  0.03270  1.0000
  C   C742      1.0  0.75665  0.56472  0.01590  1.0000
  C   C743      1.0  0.78602  0.59592  0.15258  1.0000
  C   C744      1.0  0.82750  0.55504  0.99693  1.0000
  C   C745      1.0  0.73930  0.55269  0.98961  1.0000
  C   C746      1.0  0.77707  0.61786  0.16454  1.0000
  H   H1285     1.0  0.74882  0.55176  0.09014  1.0000
  H   H1286     1.0  0.76792  0.53654  0.05678  1.0000
  H   H1287     1.0  0.79233  0.53363  0.12422  1.0000
  H   H1288     1.0  0.80079  0.55566  0.15781  1.0000
  H   H1289     1.0  0.75598  0.58315  0.12982  1.0000
  H   H1290     1.0  0.77059  0.59595  0.08062  1.0000
  H   H1291     1.0  0.79657  0.58061  0.03194  1.0000
  H   H1292     1.0  0.81292  0.57412  0.08356  1.0000
  H   H1293     1.0  0.79731  0.54078  0.00912  1.0000
  H   H1294     1.0  0.81553  0.53654  0.06036  1.0000
  H   H1295     1.0  0.75021  0.58062  0.02455  1.0000
  H   H1296     1.0  0.77008  0.56653  0.98825  1.0000
  H   H1297     1.0  0.80238  0.59812  0.13771  1.0000
  H   H1298     1.0  0.78659  0.58667  0.18902  1.0000
  H   H1299     1.0  0.82179  0.56627  0.96689  1.0000
  H   H1300     1.0  0.84014  0.56267  0.01858  1.0000
  H   H1301     1.0  0.83437  0.54090  0.97811  1.0000
  H   H1302     1.0  0.74498  0.53665  0.97902  1.0000
  H   H1303     1.0  0.72504  0.55128  0.01496  1.0000
  H   H1304     1.0  0.73475  0.56149  0.95429  1.0000
  H   H1305     1.0  0.77760  0.62826  0.12978  1.0000
  H   H1306     1.0  0.76048  0.61673  0.17915  1.0000
  H   H1307     1.0  0.78674  0.62523  0.19404  1.0000
  N   N43       1.0  0.89865  0.56758  0.69450  1.0000
  C   C747      1.0  0.88938  0.54615  0.68474  1.0000
  C   C748      1.0  0.89735  0.57152  0.75107  1.0000
  C   C749      1.0  0.88635  0.58409  0.66482  1.0000
  C   C750      1.0  0.92159  0.56858  0.67741  1.0000
  C   C751      1.0  0.93584  0.54988  0.69568  1.0000
  C   C752      1.0  0.89087  0.53882  0.62864  1.0000
  C   C753      1.0  0.89201  0.60742  0.67470  1.0000
  C   C754      1.0  0.87473  0.57367  0.77470  1.0000
  C   C755      1.0  0.87546  0.57715  0.83205  1.0000
  C   C756      1.0  0.95864  0.55287  0.67690  1.0000
  C   C757      1.0  0.95756  0.73543  0.20270  1.0000
  C   C758      1.0  0.87929  0.62268  0.64102  1.0000
  H   H1308     1.0  0.87224  0.54602  0.69494  1.0000
  H   H1309     1.0  0.89654  0.53376  0.71001  1.0000
  H   H1310     1.0  0.90524  0.55840  0.77254  1.0000
  H   H1311     1.0  0.90630  0.58598  0.76049  1.0000
  H   H1312     1.0  0.86903  0.58215  0.67167  1.0000
  H   H1313     1.0  0.88887  0.58186  0.62326  1.0000
  H   H1314     1.0  0.92309  0.56983  0.63505  1.0000
  H   H1315     1.0  0.92899  0.58328  0.69116  1.0000
  H   H1316     1.0  0.93048  0.53461  0.68072  1.0000
  H   H1317     1.0  0.93590  0.54865  0.73793  1.0000
  H   H1318     1.0  0.88028  0.54874  0.60465  1.0000
  H   H1319     1.0  0.90715  0.53989  0.61237  1.0000
  H   H1320     1.0  0.90898  0.61034  0.66607  1.0000
  H   H1321     1.0  0.88845  0.61144  0.71491  1.0000
  H   H1322     1.0  0.86605  0.58731  0.75754  1.0000
  H   H1323     1.0  0.86544  0.55914  0.76937  1.0000
  H   H1324     1.0  0.88390  0.59199  0.84000  1.0000
  H   H1325     1.0  0.85907  0.57851  0.84780  1.0000
  H   H1326     1.0  0.88346  0.56365  0.85178  1.0000
  C   C759      1.0  0.70341  0.72358  0.94802  1.0000
  H   H1327     1.0  0.70903  0.65410  0.86594  1.0000
  H   H1328     1.0  0.96005  0.70984  0.46707  1.0000
  H   H1329     1.0  0.77567  0.68764  0.99559  1.0000
  H   H1330     1.0  0.91720  0.67916  0.70631  1.0000
  H   H1331     1.0  0.78298  0.49571  0.58257  1.0000
  C   C760      1.0  0.91508  0.66922  0.55151  1.0000
  H   H1332     1.0  0.95161  0.67109  0.67928  1.0000
  C   C761      1.0  0.92210  0.67598  0.60408  1.0000
  H   H1333     1.0  0.92906  0.66505  0.52712  1.0000
  H   H1334     1.0  0.74392  0.67472  0.91500  1.0000
  C   C762      1.0  0.70295  0.68756  0.88032  1.0000
  H   H1335     1.0  0.90558  0.68240  0.11622  1.0000
  C   C763      1.0  0.69529  0.55000  0.60649  1.0000
  H   H1336     1.0  0.72963  0.54977  0.60030  1.0000
  H   H1337     1.0  0.69126  0.69969  0.86735  1.0000
  H   H1338     1.0  0.96536  0.56726  0.69362  1.0000
  H   H1339     1.0  0.74352  0.71058  0.99325  1.0000
  S   S166      1.0  0.87710  0.51165  0.36797  1.0000
  C   C764      1.0  0.76055  0.49873  0.46756  1.0000
  H   H1340     1.0  0.67790  0.57029  0.55410  1.0000
  C   C765      1.0  0.69370  0.56254  0.55617  1.0000
  H   H1341     1.0  0.71699  0.52712  0.57796  1.0000
  H   H1342     1.0  0.89034  0.68883  0.06040  1.0000
  H   H1343     1.0  0.68230  0.53834  0.60749  1.0000
  H   H1344     1.0  0.93870  0.72270  0.71066  1.0000
  C   C766      1.0  0.98900  0.70189  0.50525  1.0000
  H   H1345     1.0  0.71624  0.57054  0.69070  1.0000
  H   H1346     1.0  0.74875  0.57669  0.73955  1.0000
  H   H1347     1.0  0.88763  0.72768  0.08217  1.0000
  C   C767      1.0  0.75624  0.51240  0.61697  1.0000
  C   C768      1.0  0.93529  0.73444  0.18148  1.0000
  H   H1348     1.0  0.89104  0.70666  0.73375  1.0000
  H   H1349     1.0  0.71441  0.51221  0.76128  1.0000
  C   C769      1.0  0.73941  0.50412  0.48154  1.0000
  H   H1350     1.0  0.97464  0.71514  0.60511  1.0000
  H   H1351     1.0  0.72632  0.49606  0.62450  1.0000
  H   H1352     1.0  0.77130  0.51086  0.45359  1.0000
  H   H1353     1.0  0.67594  0.51660  0.77468  1.0000
  H   H1354     1.0  0.96955  0.72720  0.66472  1.0000
  H   H1355     1.0  0.71343  0.71340  0.04582  1.0000
  C   C770      1.0  0.98063  0.73700  0.46706  1.0000
  H   H1356     1.0  0.73895  0.55907  0.79007  1.0000
  H   H1357     1.0  0.96917  0.70183  0.73514  1.0000
  H   H1358     1.0  0.97091  0.67842  0.63310  1.0000
  H   H1359     1.0  0.92428  0.74080  0.21095  1.0000
  H   H1360     1.0  0.96950  0.66360  0.75964  1.0000
  H   H1361     1.0  0.96936  0.72875  0.17530  1.0000
  H   H1362     1.0  0.94685  0.73576  0.56384  1.0000
  H   H1363     1.0  0.95827  0.72609  0.23907  1.0000
  H   H1364     1.0  0.74003  0.49879  0.68259  1.0000
  S   S167      1.0  0.69847  0.49665  0.51798  1.0000
  H   H1365     1.0  0.98696  0.63685  0.82218  1.0000
  H   H1366     1.0  0.98666  0.62677  0.88683  1.0000
  C   C771      1.0  0.98333  0.67082  0.73922  1.0000
  H   H1367     1.0  0.67113  0.49386  0.73609  1.0000
  C   C772      1.0  0.95097  0.74002  0.60327  1.0000
  C   C773      1.0  0.76890  0.49209  0.60726  1.0000
  Fe  Fe85      1.0  0.99064  0.64307  0.55720  1.0000
  H   H1368     1.0  0.99073  0.65887  0.71397  1.0000
  H   H1369     1.0  0.99089  0.69787  0.69099  1.0000
  Fe  Fe86      1.0  0.87530  0.84363  0.03809  1.0000
  S   S168      1.0  0.88777  0.83018  0.96418  1.0000
  S   S169      1.0  0.89538  0.85818  0.10062  1.0000
  Fe  Fe87      1.0  0.82927  0.83744  0.00708  1.0000
  S   S170      1.0  0.83842  0.82310  0.93232  1.0000
  S   S171      1.0  0.79555  0.84302  0.03651  1.0000
  Fe  Fe88      1.0  0.86297  0.80512  0.97657  1.0000
  S   S172      1.0  0.87289  0.77192  0.95378  1.0000
  Fe  Fe89      1.0  0.86242  0.84913  0.92412  1.0000
  S   S173      1.0  0.86717  0.86067  0.84090  1.0000
  S   S174      1.0  0.85205  0.81731  0.05284  1.0000
  S   S175      1.0  0.85169  0.86481  0.99685  1.0000
  H   H1370     1.0  0.68574  0.76426  0.94214  1.0000
  H   H1371     1.0  0.77814  0.91397  0.80155  1.0000
  S   S176      1.0  0.71282  0.83414  0.90565  1.0000
  Fe  Fe90      1.0  0.97539  0.82506  0.33355  1.0000
  S   S177      1.0  0.96195  0.80728  0.40231  1.0000
  S   S178      1.0  0.96039  0.81540  0.25817  1.0000
  Fe  Fe91      1.0  0.96292  0.83870  0.44049  1.0000
  S   S179      1.0  0.93453  0.84752  0.49043  1.0000
  H   H1372     1.0  0.70415  0.88106  0.99717  1.0000
  H   H1373     1.0  0.91668  0.78487  0.96788  1.0000
  Fe  Fe92      1.0  0.67521  0.97303  0.40885  1.0000
  Fe  Fe93      1.0  0.85691  0.95955  0.64082  1.0000
  S   S180      1.0  0.85007  0.94016  0.57200  1.0000
  S   S181      1.0  0.85472  0.95001  0.72564  1.0000
  Fe  Fe94      1.0  0.83166  0.96885  0.54303  1.0000
  Fe  Fe95      1.0  0.87878  0.95604  0.53688  1.0000
  S   S182      1.0  0.90536  0.94365  0.48631  1.0000
  S   S183      1.0  0.88715  0.97322  0.60770  1.0000
  H   H1374     1.0  0.93203  0.78642  0.07817  1.0000
  H   H1375     1.0  0.98193  0.82175  0.58175  1.0000
  H   H1376     1.0  0.98094  0.75437  0.57912  1.0000
  H   H1377     1.0  0.71166  0.92319  0.15177  1.0000
  C   C774      1.0  0.92662  0.87429  0.48970  1.0000
  C   C775      1.0  0.94006  0.89005  0.47022  1.0000
  C   C776      1.0  0.93337  0.91131  0.46984  1.0000
  C   C777      1.0  0.91334  0.91694  0.48944  1.0000
  C   C778      1.0  0.89993  0.90119  0.50936  1.0000
  C   C779      1.0  0.90655  0.87989  0.50918  1.0000
  H   H1378     1.0  0.95563  0.88589  0.45549  1.0000
  H   H1379     1.0  0.94379  0.92346  0.45442  1.0000
  H   H1380     1.0  0.88442  0.90542  0.52429  1.0000
  H   H1381     1.0  0.89600  0.86773  0.52369  1.0000
  C   C780      1.0  0.74147  0.96192  0.43960  1.0000
  H   H1382     1.0  0.70693  0.77791  0.97160  1.0000
  C   C781      1.0  0.86402  0.88579  0.80997  1.0000
  C   C782      1.0  0.86248  0.90461  0.83685  1.0000
  C   C783      1.0  0.85997  0.92413  0.81031  1.0000
  C   C784      1.0  0.85929  0.92512  0.75663  1.0000
  C   C785      1.0  0.86111  0.90629  0.72972  1.0000
  C   C786      1.0  0.86329  0.88677  0.75638  1.0000
  H   H1383     1.0  0.86327  0.90412  0.87802  1.0000
  H   H1384     1.0  0.85855  0.93860  0.83148  1.0000
  H   H1385     1.0  0.86031  0.90676  0.68853  1.0000
  H   H1386     1.0  0.86401  0.87225  0.73547  1.0000
  C   C787      1.0  0.91312  0.84605  0.14495  1.0000
  C   C788      1.0  0.91532  0.82407  0.15008  1.0000
  C   C789      1.0  0.92968  0.81504  0.18513  1.0000
  C   C790      1.0  0.94187  0.82783  0.21624  1.0000
  C   C791      1.0  0.93962  0.84985  0.21135  1.0000
  C   C792      1.0  0.92529  0.85887  0.17609  1.0000
  H   H1387     1.0  0.90590  0.81414  0.12687  1.0000
  H   H1388     1.0  0.93143  0.79804  0.18834  1.0000
  H   H1389     1.0  0.94932  0.85988  0.23384  1.0000
  H   H1390     1.0  0.92392  0.87591  0.17220  1.0000
  C   C793      1.0  0.77282  0.83834  0.00033  1.0000
  C   C794      1.0  0.75275  0.84065  0.02371  1.0000
  C   C795      1.0  0.73426  0.83890  0.99537  1.0000
  C   C796      1.0  0.73567  0.83470  0.94328  1.0000
  C   C797      1.0  0.75571  0.83169  0.92017  1.0000
  C   C798      1.0  0.77423  0.83333  0.94866  1.0000
  H   H1391     1.0  0.75149  0.84379  0.06397  1.0000
  H   H1392     1.0  0.71893  0.84103  0.01369  1.0000
  H   H1393     1.0  0.75690  0.82817  0.88003  1.0000
  H   H1394     1.0  0.78956  0.83111  0.93046  1.0000
  H   H1395     1.0  0.92764  0.74952  0.03200  1.0000
  C   C799      1.0  0.76360  0.98567  0.50997  1.0000
  C   C800      1.0  0.80675  0.90502  0.76234  1.0000
  H   H1396     1.0  0.84157  0.76263  0.03502  1.0000
  H   H1397     1.0  0.72937  0.84690  0.26493  1.0000
  H   H1398     1.0  0.73318  0.95267  0.41236  1.0000
  H   H1399     1.0  0.67526  0.90213  0.59176  1.0000
  H   H1400     1.0  0.72659  0.74405  0.98431  1.0000
  C   C801      1.0  0.92829  0.78867  0.99737  1.0000
  H   H1401     1.0  0.68041  0.88878  0.03167  1.0000
  S   S184      1.0  0.67346  0.94024  0.37692  1.0000
  H   H1402     1.0  0.90543  0.79139  0.05832  1.0000
  C   C802      1.0  0.86303  0.78086  0.15440  1.0000
  C   C803      1.0  0.84784  0.74786  0.02073  1.0000
  H   H1403     1.0  0.95842  0.77190  0.57592  1.0000
  C   C804      1.0  0.96588  0.75893  0.59874  1.0000
  H   H1404     1.0  0.84671  0.78299  0.14021  1.0000
  C   C805      1.0  0.70933  0.74359  0.97774  1.0000
  C   C806      1.0  0.91490  0.75797  0.05357  1.0000
  H   H1405     1.0  0.93944  0.76351  0.13850  1.0000
  H   H1406     1.0  0.93093  0.80604  0.99599  1.0000
  H   H1407     1.0  0.90520  0.77722  0.14667  1.0000
  C   C807      1.0  0.87532  0.76562  0.12002  1.0000
  S   S185      1.0  0.70445  0.98704  0.44776  1.0000
  H   H1408     1.0  0.87557  0.77250  0.08077  1.0000
  C   C808      1.0  0.91999  0.78199  0.05045  1.0000
  H   H1409     1.0  0.72550  0.83057  0.20996  1.0000
  H   H1410     1.0  0.71173  0.76523  0.91159  1.0000
  H   H1411     1.0  0.87075  0.79659  0.15413  1.0000
  H   H1412     1.0  0.86200  0.77446  0.19419  1.0000
  N   N44       1.0  0.92622  0.85827  0.66870  1.0000
  C   C809      1.0  0.91889  0.86017  0.72370  1.0000
  C   C810      1.0  0.91032  0.84599  0.63906  1.0000
  C   C811      1.0  0.94674  0.84577  0.66851  1.0000
  C   C812      1.0  0.93052  0.87958  0.64344  1.0000
  C   C813      1.0  0.91243  0.89625  0.64568  1.0000
  C   C814      1.0  0.93403  0.87175  0.75924  1.0000
  C   C815      1.0  0.95573  0.83942  0.61523  1.0000
  C   C816      1.0  0.88656  0.84913  0.65336  1.0000
  C   C817      1.0  0.87240  0.83803  0.61603  1.0000
  C   C818      1.0  0.92035  0.91813  0.62861  1.0000
  C   C819      1.0  0.92372  0.87506  0.81181  1.0000
  H   H1413     1.0  0.79160  0.90196  0.68894  1.0000
  H   H1414     1.0  0.91595  0.84411  0.74084  1.0000
  H   H1415     1.0  0.90342  0.86845  0.72677  1.0000
  H   H1416     1.0  0.91245  0.84932  0.59734  1.0000
  H   H1417     1.0  0.91316  0.82862  0.64410  1.0000
  H   H1418     1.0  0.94483  0.83090  0.69192  1.0000
  H   H1419     1.0  0.95945  0.85483  0.68655  1.0000
  H   H1420     1.0  0.94490  0.88672  0.65931  1.0000
  H   H1421     1.0  0.93445  0.87773  0.60218  1.0000
  H   H1422     1.0  0.90554  0.89794  0.68457  1.0000
  H   H1423     1.0  0.89982  0.89194  0.61930  1.0000
  H   H1424     1.0  0.94868  0.86228  0.76511  1.0000
  H   H1425     1.0  0.93835  0.88758  0.74333  1.0000
  H   H1426     1.0  0.95953  0.85363  0.59121  1.0000
  H   H1427     1.0  0.94438  0.82965  0.59462  1.0000
  H   H1428     1.0  0.88312  0.84209  0.69189  1.0000
  H   H1429     1.0  0.88191  0.86602  0.65373  1.0000
  H   H1430     1.0  0.85558  0.84012  0.62806  1.0000
  H   H1431     1.0  0.87454  0.84490  0.57693  1.0000
  H   H1432     1.0  0.87610  0.82080  0.61542  1.0000
  H   H1433     1.0  0.92837  0.91752  0.59055  1.0000
  C   C820      1.0  0.77410  0.96875  0.48631  1.0000
  H   H1434     1.0  0.93156  0.92426  0.65659  1.0000
  H   H1435     1.0  0.93520  0.88234  0.83743  1.0000
  H   H1436     1.0  0.90982  0.88586  0.80870  1.0000
  H   H1437     1.0  0.91852  0.85972  0.82933  1.0000
  H   H1438     1.0  0.81225  0.92926  0.96163  1.0000
  H   H1439     1.0  0.77062  0.94389  0.43224  1.0000
  H   H1440     1.0  0.97543  0.97943  0.49393  1.0000
  N   N45       1.0  0.72616  0.89215  0.14442  1.0000
  C   C821      1.0  0.71315  0.88576  0.09990  1.0000
  C   C822      1.0  0.73079  0.87254  0.17635  1.0000
  C   C823      1.0  0.71383  0.90834  0.17475  1.0000
  C   C824      1.0  0.74681  0.90190  0.12675  1.0000
  C   C825      1.0  0.76075  0.88845  0.09010  1.0000
  C   C826      1.0  0.70908  0.90316  0.05856  1.0000
  H   H1441     1.0  0.69445  0.92218  0.26686  1.0000
  C   C827      1.0  0.71140  0.86216  0.20406  1.0000
  C   C828      1.0  0.71806  0.84257  0.23519  1.0000
  C   C829      1.0  0.78084  0.90025  0.07377  1.0000
  C   C830      1.0  0.69583  0.89446  0.01597  1.0000
  H   H1442     1.0  0.96939  0.76498  0.63704  1.0000
  H   H1443     1.0  0.69729  0.88037  0.11355  1.0000
  H   H1444     1.0  0.72031  0.87174  0.08082  1.0000
  H   H1445     1.0  0.73807  0.86004  0.15212  1.0000
  H   H1446     1.0  0.74289  0.87579  0.20526  1.0000
  H   H1447     1.0  0.69750  0.90276  0.18318  1.0000
  C   C831      1.0  0.89793  0.76165  0.13975  1.0000
  H   H1448     1.0  0.74405  0.91772  0.10831  1.0000
  H   H1449     1.0  0.75681  0.90500  0.16006  1.0000
  H   H1450     1.0  0.75228  0.88466  0.05496  1.0000
  H   H1451     1.0  0.76574  0.87343  0.10922  1.0000
  H   H1452     1.0  0.70021  0.91673  0.07496  1.0000
  H   H1453     1.0  0.72406  0.90904  0.04092  1.0000
  C   C832      1.0  0.93384  0.74730  0.13049  1.0000
  S   S186      1.0  0.86032  0.98323  0.50310  1.0000
  H   H1454     1.0  0.70346  0.87323  0.23075  1.0000
  H   H1455     1.0  0.69964  0.85701  0.17627  1.0000
  C   C833      1.0  0.80029  0.91398  0.71030  1.0000
  Fe  Fe96      1.0  0.68036  0.83269  0.94450  1.0000
  H   H1456     1.0  0.89580  0.75407  0.17814  1.0000
  H   H1457     1.0  0.77691  0.91489  0.05153  1.0000
  H   H1458     1.0  0.79010  0.90439  0.10756  1.0000
  H   H1459     1.0  0.79088  0.88988  0.04942  1.0000
  H   H1460     1.0  0.81593  0.91744  0.78092  1.0000
  H   H1461     1.0  0.71724  0.93557  0.28936  1.0000
  H   H1462     1.0  0.70539  0.94437  0.23062  1.0000
  H   H1463     1.0  0.66408  0.85414  0.71850  1.0000
  H   H1464     1.0  0.93638  0.74515  0.62395  1.0000
  S   S187      1.0  0.67557  0.81964  0.02369  1.0000
  N   N46       1.0  0.89627  0.88706  0.32309  1.0000
  C   C834      1.0  0.89977  0.86696  0.35415  1.0000
  C   C835      1.0  0.88712  0.90372  0.35775  1.0000
  C   C836      1.0  0.88152  0.88226  0.28041  1.0000
  C   C837      1.0  0.91672  0.89516  0.29965  1.0000
  C   C838      1.0  0.93448  0.89974  0.33744  1.0000
  C   C839      1.0  0.91246  0.84918  0.32688  1.0000
  C   C840      1.0  0.87269  0.90166  0.25003  1.0000
  C   C841      1.0  0.86518  0.89871  0.38256  1.0000
  C   C842      1.0  0.85640  0.91771  0.41166  1.0000
  C   C843      1.0  0.95517  0.90518  0.30910  1.0000
  C   C844      1.0  0.91196  0.82849  0.35811  1.0000
  C   C845      1.0  0.85907  0.89455  0.20626  1.0000
  H   H1465     1.0  0.88431  0.86006  0.36648  1.0000
  H   H1466     1.0  0.90782  0.87028  0.39040  1.0000
  H   H1467     1.0  0.89778  0.90624  0.39018  1.0000
  H   H1468     1.0  0.88628  0.91936  0.33740  1.0000
  H   H1469     1.0  0.86784  0.87273  0.29487  1.0000
  H   H1470     1.0  0.88965  0.87208  0.25176  1.0000
  H   H1471     1.0  0.92302  0.88399  0.27077  1.0000
  H   H1472     1.0  0.91401  0.91027  0.27819  1.0000
  H   H1473     1.0  0.93758  0.88593  0.36295  1.0000
  H   H1474     1.0  0.93011  0.91350  0.36116  1.0000
  H   H1475     1.0  0.90592  0.84578  0.28915  1.0000
  H   H1476     1.0  0.92926  0.85373  0.32133  1.0000
  H   H1477     1.0  0.88563  0.91139  0.23300  1.0000
  H   H1478     1.0  0.86270  0.91185  0.27485  1.0000
  H   H1479     1.0  0.85345  0.89460  0.35375  1.0000
  H   H1480     1.0  0.86653  0.88524  0.41031  1.0000
  H   H1481     1.0  0.85399  0.93151  0.38535  1.0000
  H   H1482     1.0  0.84095  0.91363  0.43011  1.0000
  H   H1483     1.0  0.73897  0.92327  0.21785  1.0000
  H   H1484     1.0  0.95310  0.91945  0.28411  1.0000
  H   H1485     1.0  0.96756  0.90845  0.33716  1.0000
  H   H1486     1.0  0.96067  0.89169  0.28558  1.0000
  H   H1487     1.0  0.92153  0.81627  0.33800  1.0000
  H   H1488     1.0  0.91873  0.83075  0.39622  1.0000
  H   H1489     1.0  0.89552  0.82266  0.36290  1.0000
  H   H1490     1.0  0.85283  0.90864  0.18516  1.0000
  H   H1491     1.0  0.86861  0.88491  0.17902  1.0000
  H   H1492     1.0  0.84549  0.88503  0.22107  1.0000
  N   N47       1.0  0.79184  0.88853  0.84685  1.0000
  C   C846      1.0  0.78715  0.89896  0.79598  1.0000
  C   C847      1.0  0.77125  0.88231  0.87284  1.0000
  C   C848      1.0  0.80378  0.90392  0.87834  1.0000
  C   C849      1.0  0.80529  0.86882  0.84059  1.0000
  C   C850      1.0  0.79757  0.85266  0.80156  1.0000
  C   C851      1.0  0.72382  0.91499  0.22549  1.0000
  C   C852      1.0  0.80684  0.89730  0.93508  1.0000
  C   C853      1.0  0.75597  0.90075  0.88672  1.0000
  C   C854      1.0  0.73703  0.89259  0.91828  1.0000
  C   C855      1.0  0.81204  0.83315  0.80037  1.0000
  S   S188      1.0  0.97427  0.85693  0.37074  1.0000
  C   C856      1.0  0.82015  0.91347  0.96219  1.0000
  H   H1493     1.0  0.72682  0.90116  0.25118  1.0000
  H   H1494     1.0  0.77661  0.88885  0.77359  1.0000
  H   H1495     1.0  0.76219  0.87162  0.84845  1.0000
  H   H1496     1.0  0.77429  0.87287  0.90822  1.0000
  H   H1497     1.0  0.79620  0.91990  0.87703  1.0000
  H   H1498     1.0  0.81988  0.90641  0.86157  1.0000
  H   H1499     1.0  0.82185  0.87301  0.82975  1.0000
  H   H1500     1.0  0.80658  0.86005  0.87769  1.0000
  H   H1501     1.0  0.79757  0.85967  0.76239  1.0000
  H   H1502     1.0  0.78139  0.84715  0.81149  1.0000
  H   H1503     1.0  0.70391  0.83541  0.25432  1.0000
  H   H1504     1.0  0.81727  0.89121  0.75557  1.0000
  H   H1505     1.0  0.81498  0.88174  0.93831  1.0000
  H   H1506     1.0  0.79145  0.89617  0.95599  1.0000
  H   H1507     1.0  0.76378  0.91288  0.90942  1.0000
  H   H1508     1.0  0.74977  0.90851  0.85165  1.0000
  H   H1509     1.0  0.72619  0.90598  0.92728  1.0000
  H   H1510     1.0  0.72817  0.88075  0.89670  1.0000
  H   H1511     1.0  0.74231  0.88512  0.95467  1.0000
  H   H1512     1.0  0.82863  0.83777  0.79105  1.0000
  H   H1513     1.0  0.81151  0.82462  0.83787  1.0000
  H   H1514     1.0  0.80672  0.82218  0.77088  1.0000
  C   C857      1.0  0.70931  0.93020  0.25464  1.0000
  H   H1515     1.0  0.70073  0.74380  0.01517  1.0000
  C   C858      1.0  0.70303  0.76391  0.94880  1.0000
  H   H1516     1.0  0.90675  0.92932  0.62597  1.0000
  H   H1517     1.0  0.82227  0.90827  0.00252  1.0000
  H   H1518     1.0  0.83606  0.91481  0.94361  1.0000
  H   H1519     1.0  0.81468  0.91851  0.68764  1.0000
  H   H1520     1.0  0.69275  0.90709  0.98688  1.0000
  C   C859      1.0  0.76280  0.95697  0.45103  1.0000
  C   C860      1.0  0.73108  0.97906  0.46265  1.0000
  H   H1521     1.0  0.86737  0.92225  0.44193  1.0000
  H   H1522     1.0  0.79024  0.92836  0.71478  1.0000
  H   H1523     1.0  0.94354  0.78056  0.98848  1.0000
  S   S189      1.0  0.80149  0.96232  0.49709  1.0000
  H   H1524     1.0  0.90048  0.75555  0.03112  1.0000
  S   S190      1.0  0.83707  0.98752  0.61405  1.0000
  H   H1525     1.0  0.96179  0.75207  0.21063  1.0000
  C   C861      1.0  0.97606  0.82633  0.62026  1.0000
  C   C862      1.0  0.86265  0.74807  0.98032  1.0000
  N   N48       1.0  0.91235  0.74836  0.10656  1.0000
  H   H1526     1.0  0.97312  0.81162  0.64324  1.0000
  S   S191      1.0  0.65769  0.98843  0.34236  1.0000
  H   H1527     1.0  0.86638  0.75060  0.12025  1.0000
  H   H1528     1.0  0.81251  0.98701  0.35342  1.0000
  C   C863      1.0  0.66004  0.91102  0.59390  1.0000
  H   H1529     1.0  0.66578  0.82687  0.78587  1.0000
  H   H1530     1.0  0.98852  0.83570  0.63830  1.0000
  H   H1531     1.0  0.96981  0.74724  0.44648  1.0000
  C   C864      1.0  0.74242  0.99088  0.49781  1.0000
  H   H1532     1.0  0.66062  0.92270  0.62486  1.0000
  S   S192      1.0  0.65938  0.86110  0.95785  1.0000
  H   H1533     1.0  0.65818  0.90486  0.26660  1.0000
  H   H1534     1.0  0.65873  0.87378  0.64967  1.0000
  H   H1535     1.0  0.65805  0.91987  0.55718  1.0000
  H   H1536     1.0  0.65825  0.87046  0.22158  1.0000
