data_image0
_chemical_formula_structural       C2H3CH3CFeH6CH2SH2C2H3CH2C3SH2FeHCH3CHFeNH2FeCHC2H2SFeHCH2CHC2HCHC3HSH2CH2SH2C2SH8CSHC3H2C2HCH8C3HCH4CH6CSCHCHCHCSCH2CH3C2H2C2H2CHFeC3HC2FeH5CH3C2HC2HCHC2HFeNCH2C2SC2H2CS2HSH2NCHCH2CH2CH5CSH3CH2CHC3H2SH3C3H4SCHSCH4CHCH3C2FeHFeC2HCHCH12CHCH3CHSCHCHFeH3SC2SCHFeHCH6CNCH2FeH2FeSHCSC3SHCHSHCSC3H2CHCH4CHSC2H3CH4CHCH4CFeHC2H2CH2S2HCFeH4SHCH7C2HCHCHFeCNCHC2HSHNCS2H4CHCHFeH2CSCH2SCSH2C2H7C2H2SFeHCH2CSCSH2C2SH6CH4SNHSHSFeCHCHCFeHCHCH4CHCH3C2HC2HCFeH2C2H2CH4FeHNSCNHCHCH3CSH5CH3C2H2CH3CHCHSH5CH10CSH4SHC2H5C3H2C3HC3SC3H5C2H3CHCH2CH3CFeCHCH5NC3HSHC2H6CHFeH2C2SC2H3SHC2H2C3H2CH2FeHCH2FeH3CH2CHCH2CH2C2HCSCHNHC2H2FeCSCHCH3FeH2CFeH2NH2SH2CFeC3SHCNCHC2FeC4SC2HC2HC4SH2CH2CSCH3S2HSH4SHCSH4C4H4CH2Fe2HCH2CH3CSH3CHCH3CHCH3CHCH2SH2S2H3CFeCNH3Fe2SCFeH5C2H2CSHSCH3C2HC4H2SHC2S2NCSH2CH3FeH2CH2CH2CSC2HC2HCS3H3C2H2S2C2H2CH2S2CH2CH2C2FeHFeHFeCHSH2SH2FeCH3CH2CHCH2C2HC2SHCH3CS2CH3C2NH3CSCFeHCHFeH5CH4CH5C3H3CH2C2HCFe2HNHCHSH4C2H3CH2CH4C3NCH3CH2CHFeH4CH2CH4CH2C2HC3H3C4H4CSH5CH4C2HCHCHCH3CH2SH2CHCH2C3H5NH2C2HCH2CH4SCH2CH5C2H3C2H2C2SHCHCHFeHCH3SCHC2H3CH4CHCSCH3SH4C2H4C2H2C2HCHNH3NH5CH2C2H2SH2C4HFeH5CHCH2CNH3CNFeCHC3HSCHSCH3NHSH4C2HCHCH5CH5CH3SCH5CSH2CHCNH2CHCH2C3FeH2CH2CHSHCHCH3CH2FeCSH2SCSFeH2C2SH2CSHFeH2SH6FeCHCH2CHSCH6CSHCH4CH5FeCHCHCH5NHCH2SC2HCH3CHC3NHC3H3CHCH2FeH2CSH3C3FeHCH2CH3CHCH2C2HCHS2CH2CH6CH2CSHCHC4H2C2H4CHCSH2CHCHC2FeC4HCH5CH2FeCSHC3H4CHCH3CH9CHSC3H2FeH3CHC3HCSH2C5H2C2H2CHCSCNCHFeCSHSH2CH6CHC3NH4CHCH2SC2HNCHC2H2SH2CHC2HCHCH2FeHFeCH2SH4CH2C4H5CH8FeHNH4FeSHCH4C2H3C2HSH2CHNHCHCHCFeCH4CH2CHCHCH3CHCH4C3H2SH7CH3CH5CSH2SH2CH4C2HCSH3CH2C3HCH2CH4SH5CHCHFeCHC2H4CHCSH2CH2CHCHCH2CHCH2CHCH3CH11CHCHC2NH2SC2H3C2SH5NCH3CH2C3H2CHCH4NCH2CH3SC3H3CHCHC2HCH2CH7C2H2NC2H3C2H5C2H6C2SH2NCHC2HFeCHCH2SHC2H2FeCH4C3HCH3SHSHC2H2C3H2CSH9FeH2NH2C2H4C3SHCH2C2H2FeH3SH6CH2C2HCHCFeH2C2HC2SHSHSHCHSC4H4CHSH3SHCH7C3FeH2S2C2NHFe2C2H2FeH3CH2C2H3CFeH3CH7CH8C2HCHC3FeHSC2H2CFeC2HC2HCHCHC2H2CHC2H2SHSH3FeHCHSHCH3C2H10C2HC3HCH4CH3CHSCHCHSHC2NHFeCH4CH5CHCH3CH4CHCH2CHCHSH2C4NCH2CHNCHCHCH4CHC3H3C2HC2FeSCH3CHCNH2CHC2H3S2C2SH2CHCHC3H4CHCH9CH3SCHCHCH2CHFeH3CH3CH3SH2C3H3SH2SC2H3CHFeHNH7C2H3SCSC2SH2CHCH2CH3CH2FeH4CHCHC4H3CH4NH2C2H2FeCH2SCHFeHCHCHCSHCHCH2CFeCH2SCHCH4CHCH2NH3C5SH3C2H2SCHCH6CH2CH4FeHSHCH6C2H2C2H7FeCHCHCH2CSCH2CH3CHCH2NH2CHCHCH3C2SH3CHCH4FeH4C4HC2HSFeC2HCHCHCSH3CH2CHCHSHC4SHC2SCSCHFeH3SHC2H3SHSH2FeH4CH3C2H4FeHCHSNH2C2H2NHSC2HC2SH3CH4CH4FeHCHC2H2CH3C2H4CH3CH2SHCH3CHSCH4CH2CHCSH6C2HFe2CFeCHSH2CHC2HC2H4CH2CHCH2NCHCH2CH7CH3C2H4C2SCHSCHC2H2CH5CH2CHNCH3C2SC2H3CHNCSHSCHSFeH2S2CHCHCHCHCHCH2C4HCFeCH5CH2CHSHC2H2C2HCH3CH2C3H2CH2S2HFeH3SCNH2CH4NFeHS2C2H2CHSH4NHFeHC2H3CHSH3C3SHCHCSC2SH2CH2CH2CHCH7FeCSH2C2H4CSC2H4NHCH3CH2NH3SCHCHCH2SHCHSH2CH7CFeH3C2H5CHCHCHC5HC2H2CH2FeHCH6C2HFeH2SCH2CFeH2CH4CH3C2SCH2SH2FeHSH2CH2SCHC2H2CHCHCHCFeHC2H2CH2CH2CH2C2H2CHCFeH3CHCSCH2SH2CHC3HCHCSH2CH6CSH6CHCHSH2CHC2H2C2HCHSHCH5CSHCHCSH2NCH2SH2C2HCSCH2CFeCH2NC2H4CH5SCH3C2HS2H4C3H3C3FeH2FeH4SFeH2C2HC2HFeH4CHCHCHCH2C2H2C2H3CH3CH2FeH4C2SC2NH2CSH2SH2C
_chemical_formula_sum              "C1080 H1920 Fe120 S240 N60"
_cell_length_a       43.1398
_cell_length_b       41.0535
_cell_length_c       28.225
_cell_angle_alpha    88.4906
_cell_angle_beta     88.452
_cell_angle_gamma    123.672

_space_group_name_H-M_alt    "P 1"
_space_group_IT_number       1

loop_
  _space_group_symop_operation_xyz
  'x, y, z'

loop_
  _atom_site_type_symbol
  _atom_site_label
  _atom_site_symmetry_multiplicity
  _atom_site_fract_x
  _atom_site_fract_y
  _atom_site_fract_z
  _atom_site_occupancy
  C   C1        1.0  0.34284  0.41702  0.66641  1.0000
  C   C2        1.0  0.18141  0.13687  0.52922  1.0000
  H   H1        1.0  0.51693  0.23589  0.56565  1.0000
  H   H2        1.0  0.12775  0.45596  0.53761  1.0000
  H   H3        1.0  0.44445  0.13748  0.69521  1.0000
  C   C3        1.0  0.14749  0.37969  0.49617  1.0000
  H   H4        1.0  0.36955  0.48166  0.57306  1.0000
  H   H5        1.0  0.19909  0.14675  0.72534  1.0000
  H   H6        1.0  0.40467  0.14791  0.64748  1.0000
  C   C4        1.0  0.39211  0.30966  0.71320  1.0000
  Fe  Fe1       1.0  0.59943  0.27157  0.53750  1.0000
  H   H7        1.0  0.61288  0.47710  0.72894  1.0000
  H   H8        1.0  0.31538  0.11323  0.49204  1.0000
  H   H9        1.0  0.25311  0.48049  0.57058  1.0000
  H   H10       1.0  0.39954  0.45238  0.53096  1.0000
  H   H11       1.0  0.34914  0.31995  0.70102  1.0000
  H   H12       1.0  0.45912  0.57091  0.57074  1.0000
  C   C5        1.0  0.24821  0.58289  0.67426  1.0000
  H   H13       1.0  0.56728  0.46640  0.54480  1.0000
  H   H14       1.0  0.48891  0.49029  0.63049  1.0000
  S   S1        1.0  0.20656  0.34757  0.54055  1.0000
  H   H15       1.0  0.40269  0.52373  0.66312  1.0000
  H   H16       1.0  0.14381  0.27429  0.73434  1.0000
  C   C6        1.0  0.55822  0.17069  0.56073  1.0000
  C   C7        1.0  0.44438  0.11409  0.62626  1.0000
  H   H17       1.0  0.17667  0.43070  0.67441  1.0000
  H   H18       1.0  0.48512  0.17056  0.65732  1.0000
  H   H19       1.0  0.49052  0.55435  0.62941  1.0000
  C   C8        1.0  0.51888  0.25509  0.59238  1.0000
  H   H20       1.0  0.22097  0.11003  0.70691  1.0000
  H   H21       1.0  0.60415  0.52590  0.59661  1.0000
  C   C9        1.0  0.49245  0.28609  0.63337  1.0000
  C   C10       1.0  0.20300  0.34824  0.71155  1.0000
  C   C11       1.0  0.49098  0.26234  0.59780  1.0000
  S   S2        1.0  0.33922  0.54567  0.57860  1.0000
  H   H22       1.0  0.27386  0.52947  0.73041  1.0000
  H   H23       1.0  0.60560  0.48730  0.50050  1.0000
  Fe  Fe2       1.0  0.40440  0.24408  0.60927  1.0000
  H   H24       1.0  0.44763  0.12491  0.58889  1.0000
  C   C12       1.0  0.58654  0.12701  0.66828  1.0000
  H   H25       1.0  0.35888  0.43847  0.63635  1.0000
  H   H26       1.0  0.57502  0.31148  0.67821  1.0000
  H   H27       1.0  0.44468  0.47490  0.58258  1.0000
  C   C13       1.0  0.24411  0.45581  0.54715  1.0000
  H   H28       1.0  0.49213  0.47421  0.54792  1.0000
  Fe  Fe3       1.0  0.14651  0.23448  0.53413  1.0000
  N   N1        1.0  0.39960  0.36885  0.66587  1.0000
  H   H29       1.0  0.38584  0.39236  0.57443  1.0000
  H   H30       1.0  0.53305  0.51780  0.59621  1.0000
  Fe  Fe4       1.0  0.35272  0.22320  0.52689  1.0000
  C   C14       1.0  0.25584  0.59819  0.72418  1.0000
  H   H31       1.0  0.33093  0.36218  0.69507  1.0000
  C   C15       1.0  0.26210  0.28902  0.65252  1.0000
  C   C16       1.0  0.49930  0.42115  0.71484  1.0000
  H   H32       1.0  0.12946  0.58914  0.70402  1.0000
  H   H33       1.0  0.46048  0.56095  0.51062  1.0000
  S   S3        1.0  0.45601  0.29279  0.64180  1.0000
  Fe  Fe5       1.0  0.14475  0.30634  0.55287  1.0000
  H   H34       1.0  0.26906  0.28008  0.57913  1.0000
  C   C17       1.0  0.37970  0.33835  0.70623  1.0000
  H   H35       1.0  0.56452  0.14878  0.55200  1.0000
  H   H36       1.0  0.40728  0.42401  0.64455  1.0000
  C   C18       1.0  0.43536  0.16874  0.64260  1.0000
  H   H37       1.0  0.47998  0.19026  0.50818  1.0000
  C   C19       1.0  0.17354  0.20064  0.66572  1.0000
  C   C20       1.0  0.12802  0.14216  0.52591  1.0000
  H   H38       1.0  0.21947  0.36768  0.68004  1.0000
  C   C21       1.0  0.20976  0.56617  0.52334  1.0000
  H   H39       1.0  0.50056  0.13675  0.54546  1.0000
  C   C22       1.0  0.39002  0.39877  0.67042  1.0000
  C   C23       1.0  0.16872  0.12425  0.73201  1.0000
  C   C24       1.0  0.38529  0.35049  0.53020  1.0000
  H   H40       1.0  0.52284  0.13997  0.64919  1.0000
  S   S4        1.0  0.36044  0.25469  0.59301  1.0000
  H   H41       1.0  0.39775  0.33307  0.52716  1.0000
  H   H42       1.0  0.17934  0.54844  0.51844  1.0000
  C   C25       1.0  0.45455  0.14859  0.65804  1.0000
  H   H43       1.0  0.15976  0.21626  0.67312  1.0000
  H   H44       1.0  0.19153  0.15335  0.64153  1.0000
  S   S5        1.0  0.30821  0.16433  0.56085  1.0000
  H   H45       1.0  0.46827  0.24934  0.57447  1.0000
  H   H46       1.0  0.61442  0.58510  0.59224  1.0000
  C   C26       1.0  0.38733  0.34852  0.61978  1.0000
  C   C27       1.0  0.50648  0.12159  0.61950  1.0000
  S   S6        1.0  0.20841  0.27000  0.52081  1.0000
  H   H47       1.0  0.36470  0.48082  0.51008  1.0000
  H   H48       1.0  0.51630  0.53384  0.69590  1.0000
  H   H49       1.0  0.22083  0.54803  0.51509  1.0000
  H   H50       1.0  0.13947  0.51550  0.64344  1.0000
  H   H51       1.0  0.15211  0.46986  0.65033  1.0000
  H   H52       1.0  0.39751  0.52611  0.53669  1.0000
  H   H53       1.0  0.15409  0.57778  0.56639  1.0000
  H   H54       1.0  0.43027  0.16072  0.50306  1.0000
  C   C28       1.0  0.38503  0.49413  0.53834  1.0000
  S   S7        1.0  0.28265  0.19405  0.68649  1.0000
  H   H55       1.0  0.52429  0.32271  0.68980  1.0000
  C   C29       1.0  0.52281  0.30387  0.66261  1.0000
  C   C30       1.0  0.31336  0.51936  0.63083  1.0000
  C   C31       1.0  0.43798  0.58659  0.66790  1.0000
  H   H56       1.0  0.45552  0.41265  0.63802  1.0000
  H   H57       1.0  0.13135  0.45564  0.73032  1.0000
  C   C32       1.0  0.50459  0.54828  0.60081  1.0000
  C   C33       1.0  0.27496  0.23066  0.67327  1.0000
  H   H58       1.0  0.19309  0.21548  0.63431  1.0000
  C   C34       1.0  0.44320  0.49989  0.57085  1.0000
  H   H59       1.0  0.35212  0.43227  0.70009  1.0000
  H   H60       1.0  0.47708  0.11155  0.70714  1.0000
  H   H61       1.0  0.42827  0.49601  0.49523  1.0000
  H   H62       1.0  0.31044  0.46686  0.61401  1.0000
  H   H63       1.0  0.15544  0.32446  0.66887  1.0000
  H   H64       1.0  0.59007  0.13613  0.63115  1.0000
  H   H65       1.0  0.56434  0.18956  0.52843  1.0000
  H   H66       1.0  0.57651  0.18891  0.58909  1.0000
  C   C35       1.0  0.11910  0.39972  0.55326  1.0000
  C   C36       1.0  0.26865  0.24870  0.71013  1.0000
  C   C37       1.0  0.47978  0.57198  0.72810  1.0000
  H   H67       1.0  0.18503  0.19131  0.52911  1.0000
  C   C38       1.0  0.14484  0.56373  0.60270  1.0000
  H   H68       1.0  0.30150  0.14144  0.73516  1.0000
  H   H69       1.0  0.51319  0.17432  0.58593  1.0000
  H   H70       1.0  0.14299  0.51235  0.58166  1.0000
  H   H71       1.0  0.15859  0.35642  0.71432  1.0000
  C   C39       1.0  0.47661  0.56831  0.54318  1.0000
  H   H72       1.0  0.27400  0.43003  0.68802  1.0000
  H   H73       1.0  0.59638  0.18116  0.69273  1.0000
  H   H74       1.0  0.45940  0.43691  0.71562  1.0000
  H   H75       1.0  0.24926  0.59233  0.57733  1.0000
  H   H76       1.0  0.33778  0.36868  0.63166  1.0000
  H   H77       1.0  0.38811  0.29342  0.68079  1.0000
  C   C40       1.0  0.53503  0.53495  0.66734  1.0000
  S   S8        1.0  0.25165  0.32360  0.64009  1.0000
  C   C41       1.0  0.21914  0.58038  0.57445  1.0000
  H   H78       1.0  0.34149  0.38629  0.49753  1.0000
  C   C42       1.0  0.55103  0.29687  0.65683  1.0000
  H   H79       1.0  0.53185  0.55073  0.51801  1.0000
  C   C43       1.0  0.30272  0.48069  0.63950  1.0000
  H   H80       1.0  0.35650  0.32695  0.62082  1.0000
  C   C44       1.0  0.42733  0.54786  0.67824  1.0000
  S   S9        1.0  0.58317  0.26223  0.61505  1.0000
  C   C45       1.0  0.16084  0.13317  0.64857  1.0000
  H   H81       1.0  0.39959  0.33114  0.61466  1.0000
  H   H82       1.0  0.29819  0.47551  0.51675  1.0000
  C   C46       1.0  0.15516  0.53333  0.61045  1.0000
  H   H83       1.0  0.46527  0.46815  0.49802  1.0000
  H   H84       1.0  0.55932  0.56566  0.66173  1.0000
  H   H85       1.0  0.18019  0.43831  0.61087  1.0000
  C   C47       1.0  0.26893  0.27137  0.61566  1.0000
  C   C48       1.0  0.16185  0.33215  0.70629  1.0000
  H   H86       1.0  0.43103  0.50497  0.60284  1.0000
  H   H87       1.0  0.20758  0.32423  0.71437  1.0000
  C   C49       1.0  0.28193  0.45978  0.68127  1.0000
  C   C50       1.0  0.34840  0.38340  0.66538  1.0000
  H   H88       1.0  0.44411  0.19429  0.66455  1.0000
  H   H89       1.0  0.25173  0.55829  0.67428  1.0000
  C   C51       1.0  0.59013  0.15247  0.70311  1.0000
  H   H90       1.0  0.13147  0.15886  0.62204  1.0000
  Fe  Fe6       1.0  0.21036  0.30343  0.58333  1.0000
  C   C52       1.0  0.41459  0.48481  0.53110  1.0000
  C   C53       1.0  0.27133  0.46912  0.50416  1.0000
  C   C54       1.0  0.49286  0.48778  0.51323  1.0000
  H   H91       1.0  0.23220  0.52848  0.60701  1.0000
  C   C55       1.0  0.54866  0.27189  0.62220  1.0000
  C   C56       1.0  0.44136  0.38939  0.66689  1.0000
  Fe  Fe7       1.0  0.35608  0.15943  0.57777  1.0000
  H   H92       1.0  0.24315  0.43183  0.56774  1.0000
  H   H93       1.0  0.60868  0.47043  0.60643  1.0000
  H   H94       1.0  0.21572  0.44499  0.53574  1.0000
  H   H95       1.0  0.57912  0.26495  0.72113  1.0000
  H   H96       1.0  0.19088  0.50185  0.57625  1.0000
  C   C57       1.0  0.50111  0.52959  0.51693  1.0000
  H   H97       1.0  0.39388  0.36986  0.49766  1.0000
  H   H98       1.0  0.27993  0.22796  0.59747  1.0000
  H   H99       1.0  0.30936  0.56587  0.65605  1.0000
  C   C58       1.0  0.12651  0.37234  0.53855  1.0000
  C   C59       1.0  0.16659  0.15995  0.52784  1.0000
  H   H100      1.0  0.19280  0.49721  0.68525  1.0000
  C   C60       1.0  0.20196  0.51699  0.60983  1.0000
  C   C61       1.0  0.19073  0.45308  0.64459  1.0000
  H   H101      1.0  0.53196  0.57632  0.59313  1.0000
  C   C62       1.0  0.26255  0.27818  0.69976  1.0000
  H   H102      1.0  0.44971  0.36871  0.65898  1.0000
  C   C63       1.0  0.59401  0.46977  0.53469  1.0000
  C   C64       1.0  0.27542  0.24217  0.62606  1.0000
  H   H103      1.0  0.44254  0.17902  0.60469  1.0000
  Fe  Fe8       1.0  0.32035  0.19598  0.62865  1.0000
  N   N2        1.0  0.19622  0.54994  0.61373  1.0000
  C   C65       1.0  0.18280  0.48468  0.65032  1.0000
  H   H104      1.0  0.28391  0.52782  0.50533  1.0000
  H   H105      1.0  0.18856  0.54997  0.68993  1.0000
  C   C66       1.0  0.51423  0.51987  0.62170  1.0000
  C   C67       1.0  0.14423  0.15820  0.65531  1.0000
  S   S10       1.0  0.36480  0.18659  0.64843  1.0000
  C   C68       1.0  0.45908  0.40978  0.71335  1.0000
  C   C69       1.0  0.27200  0.47754  0.71460  1.0000
  H   H106      1.0  0.42191  0.59196  0.64411  1.0000
  H   H107      1.0  0.58820  0.44016  0.52940  1.0000
  C   C70       1.0  0.13305  0.43459  0.52593  1.0000
  S   S11       1.0  0.43658  0.49262  0.72035  1.0000
  S   S12       1.0  0.14872  0.26444  0.60048  1.0000
  H   H108      1.0  0.35438  0.33025  0.53192  1.0000
  S   S13       1.0  0.39948  0.21633  0.54035  1.0000
  H   H109      1.0  0.21120  0.15064  0.53084  1.0000
  H   H110      1.0  0.42924  0.39584  0.56940  1.0000
  N   N3        1.0  0.48154  0.53575  0.55749  1.0000
  C   C71       1.0  0.39856  0.37518  0.57396  1.0000
  H   H111      1.0  0.22106  0.46601  0.64520  1.0000
  C   C72       1.0  0.51728  0.15086  0.57644  1.0000
  H   H112      1.0  0.42191  0.32537  0.72159  1.0000
  H   H113      1.0  0.15814  0.58714  0.62837  1.0000
  C   C73       1.0  0.20842  0.56942  0.66047  1.0000
  H   H114      1.0  0.20764  0.59606  0.66057  1.0000
  H   H115      1.0  0.54496  0.51642  0.67929  1.0000
  C   C74       1.0  0.30268  0.53672  0.66361  1.0000
  H   H116      1.0  0.31287  0.40541  0.66325  1.0000
  H   H117      1.0  0.22357  0.12649  0.64579  1.0000
  H   H118      1.0  0.18923  0.20234  0.69703  1.0000
  H   H119      1.0  0.25688  0.29163  0.72817  1.0000
  H   H120      1.0  0.12166  0.14590  0.68303  1.0000
  C   C75       1.0  0.28234  0.51600  0.70564  1.0000
  S   S14       1.0  0.36010  0.10814  0.56371  1.0000
  H   H121      1.0  0.39724  0.41144  0.70592  1.0000
  H   H122      1.0  0.55024  0.50664  0.49540  1.0000
  H   H123      1.0  0.51650  0.44148  0.68425  1.0000
  C   C76       1.0  0.44831  0.54055  0.70844  1.0000
  H   H124      1.0  0.15064  0.11846  0.61501  1.0000
  H   H125      1.0  0.50016  0.39458  0.71403  1.0000
  C   C77       1.0  0.16289  0.10719  0.97203  1.0000
  H   H126      1.0  0.15808  0.52218  0.92419  1.0000
  C   C78       1.0  0.12910  0.47807  0.74574  1.0000
  C   C79       1.0  0.17766  0.24660  0.83174  1.0000
  C   C80       1.0  0.15806  0.50658  0.77196  1.0000
  H   H127      1.0  0.16470  0.13449  0.96988  1.0000
  H   H128      1.0  0.37103  0.27827  0.97278  1.0000
  S   S15       1.0  0.18853  0.56573  0.83348  1.0000
  H   H129      1.0  0.18349  0.50756  0.77364  1.0000
  H   H130      1.0  0.16011  0.23023  0.76084  1.0000
  H   H131      1.0  0.14663  0.30705  0.77655  1.0000
  C   C81       1.0  0.15432  0.53388  0.79527  1.0000
  C   C82       1.0  0.15422  0.22114  0.79809  1.0000
  C   C83       1.0  0.12315  0.18412  0.81248  1.0000
  H   H132      1.0  0.15752  0.14208  0.74168  1.0000
  H   H133      1.0  0.20145  0.27530  0.82027  1.0000
  H   H134      1.0  0.15560  0.33859  0.84767  1.0000
  H   H135      1.0  0.17481  0.35463  0.90458  1.0000
  S   S16       1.0  0.18932  0.47359  0.85316  1.0000
  C   C84       1.0  0.17542  0.33967  0.87280  1.0000
  H   H136      1.0  0.21329  0.36569  0.74355  1.0000
  S   S17       1.0  0.20217  0.26634  0.92049  1.0000
  C   C85       1.0  0.17115  0.23437  0.87973  1.0000
  H   H137      1.0  0.15094  0.40154  0.89715  1.0000
  H   H138      1.0  0.16627  0.30931  0.88384  1.0000
  H   H139      1.0  0.34610  0.38841  0.98023  1.0000
  H   H140      1.0  0.20385  0.18626  0.86485  1.0000
  C   C86       1.0  0.14070  0.19685  0.89418  1.0000
  H   H141      1.0  0.13615  0.18719  0.93115  1.0000
  C   C87       1.0  0.61406  0.58235  0.81156  1.0000
  H   H142      1.0  0.21579  0.34331  0.82261  1.0000
  H   H143      1.0  0.17704  0.11004  0.89790  1.0000
  H   H144      1.0  0.19417  0.58549  0.95932  1.0000
  C   C88       1.0  0.21470  0.36192  0.84944  1.0000
  C   C89       1.0  0.13148  0.38125  0.92455  1.0000
  Fe  Fe9       1.0  0.20971  0.47492  0.92520  1.0000
  H   H145      1.0  0.12782  0.53771  0.94069  1.0000
  Fe  Fe10      1.0  0.21947  0.53872  0.85585  1.0000
  C   C90       1.0  0.14445  0.52690  0.95464  1.0000
  C   C91       1.0  0.12243  0.53431  0.78956  1.0000
  H   H146      1.0  0.14413  0.12314  0.82710  1.0000
  C   C92       1.0  0.46461  0.60528  0.92544  1.0000
  H   H147      1.0  0.19042  0.11149  0.79386  1.0000
  C   C93       1.0  0.13739  0.39035  0.97217  1.0000
  H   H148      1.0  0.19096  0.31921  0.97744  1.0000
  H   H149      1.0  0.21949  0.38870  0.83148  1.0000
  H   H150      1.0  0.14365  0.30636  0.97698  1.0000
  H   H151      1.0  0.61171  0.27620  0.84404  1.0000
  H   H152      1.0  0.11960  0.55573  0.80700  1.0000
  H   H153      1.0  0.21970  0.17943  0.80807  1.0000
  H   H154      1.0  0.44622  0.60387  0.95452  1.0000
  H   H155      1.0  0.48934  0.55711  0.96851  1.0000
  H   H156      1.0  0.26741  0.36983  0.97240  1.0000
  H   H157      1.0  0.60428  0.26216  0.93435  1.0000
  H   H158      1.0  0.43124  0.35785  0.95024  1.0000
  H   H159      1.0  0.35816  0.21092  0.95962  1.0000
  C   C94       1.0  0.38585  0.27246  0.94497  1.0000
  H   H160      1.0  0.22849  0.22626  0.82087  1.0000
  C   C95       1.0  0.35946  0.55380  0.93994  1.0000
  H   H161      1.0  0.23718  0.57428  0.75074  1.0000
  H   H162      1.0  0.56086  0.21535  0.92851  1.0000
  H   H163      1.0  0.31127  0.42875  0.92314  1.0000
  C   C96       1.0  0.36127  0.23043  0.92952  1.0000
  H   H164      1.0  0.37751  0.38000  0.91835  1.0000
  S   S18       1.0  0.23616  0.53919  0.93040  1.0000
  C   C97       1.0  0.38627  0.35930  0.92193  1.0000
  H   H165      1.0  0.41163  0.27738  0.95974  1.0000
  C   C98       1.0  0.42069  0.37704  0.95145  1.0000
  H   H166      1.0  0.48340  0.29013  0.92335  1.0000
  Fe  Fe11      1.0  0.43408  0.20363  0.90887  1.0000
  H   H167      1.0  0.50973  0.35984  0.93835  1.0000
  H   H168      1.0  0.39311  0.35403  0.88590  1.0000
  H   H169      1.0  0.23226  0.34699  0.91123  1.0000
  S   S19       1.0  0.50029  0.50043  0.91239  1.0000
  C   C99       1.0  0.31613  0.35160  0.84710  1.0000
  C   C100      1.0  0.37918  0.51399  0.90623  1.0000
  S   S20       1.0  0.38089  0.14391  0.91479  1.0000
  C   C101      1.0  0.30728  0.40097  0.91137  1.0000
  H   H170      1.0  0.29502  0.44422  0.85060  1.0000
  Fe  Fe12      1.0  0.24395  0.48591  0.82474  1.0000
  H   H171      1.0  0.46472  0.37182  0.81034  1.0000
  C   C102      1.0  0.58090  0.25753  0.84179  1.0000
  H   H172      1.0  0.32823  0.24594  0.89241  1.0000
  H   H173      1.0  0.31809  0.34213  0.88338  1.0000
  H   H174      1.0  0.39404  0.29321  0.91385  1.0000
  H   H175      1.0  0.24600  0.17173  0.91736  1.0000
  H   H176      1.0  0.35738  0.54182  0.86596  1.0000
  H   H177      1.0  0.53493  0.24966  0.88796  1.0000
  C   C103      1.0  0.48854  0.37033  0.87556  1.0000
  N   N4        1.0  0.28286  0.38678  0.86917  1.0000
  C   C104      1.0  0.24403  0.37337  0.88710  1.0000
  H   H178      1.0  0.34228  0.38023  0.83764  1.0000
  H   H179      1.0  0.33750  0.31898  0.81808  1.0000
  Fe  Fe13      1.0  0.28722  0.54573  0.89794  1.0000
  H   H180      1.0  0.57868  0.29569  0.89258  1.0000
  H   H181      1.0  0.57405  0.22710  0.84261  1.0000
  Fe  Fe14      1.0  0.49025  0.45735  0.85769  1.0000
  S   S21       1.0  0.46723  0.53592  0.84197  1.0000
  H   H182      1.0  0.35679  0.44651  0.83720  1.0000
  C   C105      1.0  0.45947  0.29149  0.85800  1.0000
  S   S22       1.0  0.44208  0.24263  0.84571  1.0000
  C   C106      1.0  0.31368  0.32189  0.81333  1.0000
  C   C107      1.0  0.46834  0.35393  0.83523  1.0000
  C   C108      1.0  0.45445  0.31474  0.82603  1.0000
  S   S23       1.0  0.27345  0.55136  0.82343  1.0000
  H   H183      1.0  0.43002  0.60381  0.86993  1.0000
  C   C109      1.0  0.31908  0.18498  0.84480  1.0000
  H   H184      1.0  0.58173  0.37671  0.77493  1.0000
  S   S24       1.0  0.26173  0.48123  0.89715  1.0000
  H   H185      1.0  0.59303  0.37657  0.83641  1.0000
  C   C110      1.0  0.55287  0.31871  0.81082  1.0000
  S   S25       1.0  0.59258  0.17403  0.79445  1.0000
  C   C111      1.0  0.58669  0.14127  0.75121  1.0000
  C   C112      1.0  0.52792  0.24023  0.79034  1.0000
  C   C113      1.0  0.33583  0.43925  0.81059  1.0000
  H   H186      1.0  0.33592  0.41871  0.78589  1.0000
  H   H187      1.0  0.37782  0.49211  0.76969  1.0000
  C   C114      1.0  0.57372  0.24728  0.93128  1.0000
  H   H188      1.0  0.44024  0.30248  0.79383  1.0000
  C   C115      1.0  0.58894  0.26093  0.75546  1.0000
  H   H189      1.0  0.27075  0.23543  0.88252  1.0000
  H   H190      1.0  0.44359  0.39075  0.74531  1.0000
  H   H191      1.0  0.58146  0.23036  0.75629  1.0000
  H   H192      1.0  0.58966  0.32183  0.75616  1.0000
  C   C116      1.0  0.58169  0.30956  0.79341  1.0000
  H   H193      1.0  0.33134  0.47003  0.74991  1.0000
  S   S26       1.0  0.51004  0.42028  0.88587  1.0000
  C   C117      1.0  0.51110  0.19561  0.78953  1.0000
  C   C118      1.0  0.29499  0.16064  0.80348  1.0000
  H   H194      1.0  0.27773  0.41155  0.80350  1.0000
  H   H195      1.0  0.46025  0.18251  0.75710  1.0000
  H   H196      1.0  0.31473  0.33175  0.77599  1.0000
  C   C119      1.0  0.36959  0.27959  0.75403  1.0000
  H   H197      1.0  0.37907  0.25945  0.75743  1.0000
  H   H198      1.0  0.51149  0.43585  0.74822  1.0000
  H   H199      1.0  0.34496  0.49729  0.80301  1.0000
  H   H200      1.0  0.52143  0.18866  0.75747  1.0000
  C   C120      1.0  0.34811  0.47690  0.78166  1.0000
  H   H201      1.0  0.45710  0.14068  0.78566  1.0000
  C   C121      1.0  0.49375  0.34713  0.90736  1.0000
  H   H202      1.0  0.33742  0.19140  0.74623  1.0000
  H   H203      1.0  0.49697  0.56698  0.75011  1.0000
  H   H204      1.0  0.51193  0.24369  0.81887  1.0000
  H   H205      1.0  0.54948  0.14117  0.98165  1.0000
  C   C122      1.0  0.12029  0.48820  0.98534  1.0000
  Fe  Fe15      1.0  0.45952  0.49158  0.79057  1.0000
  H   H206      1.0  0.33699  0.21578  0.83004  1.0000
  C   C123      1.0  0.29214  0.37206  0.95575  1.0000
  C   C124      1.0  0.26876  0.10816  0.90544  1.0000
  H   H207      1.0  0.33942  0.26200  0.74711  1.0000
  H   H208      1.0  0.31900  0.15403  0.93259  1.0000
  C   C125      1.0  0.29223  0.14992  0.92372  1.0000
  H   H209      1.0  0.26845  0.23984  0.74653  1.0000
  H   H210      1.0  0.45530  0.57488  0.91792  1.0000
  S   S27       1.0  0.34113  0.58236  0.93316  1.0000
  S   S28       1.0  0.46983  0.18087  0.92397  1.0000
  H   H211      1.0  0.60744  0.32789  0.81320  1.0000
  C   C126      1.0  0.36413  0.53654  0.90076  1.0000
  Fe  Fe16      1.0  0.41619  0.12200  0.93552  1.0000
  H   H212      1.0  0.27396  0.12969  0.81444  1.0000
  H   H213      1.0  0.38485  0.50270  0.87555  1.0000
  H   H214      1.0  0.33893  0.17634  0.85202  1.0000
  H   H215      1.0  0.33590  0.40904  0.90201  1.0000
  S   S29       1.0  0.43213  0.44124  0.84522  1.0000
  H   H216      1.0  0.52930  0.30645  0.78672  1.0000
  C   C127      1.0  0.28114  0.35323  0.84547  1.0000
  H   H217      1.0  0.54884  0.36831  0.82217  1.0000
  H   H218      1.0  0.36285  0.33100  0.93849  1.0000
  H   H219      1.0  0.51774  0.18480  0.82154  1.0000
  H   H220      1.0  0.45625  0.17616  0.82080  1.0000
  H   H221      1.0  0.28733  0.29276  0.82067  1.0000
  H   H222      1.0  0.28552  0.22562  0.82754  1.0000
  H   H223      1.0  0.33756  0.15194  0.77494  1.0000
  C   C128      1.0  0.22655  0.20013  0.83659  1.0000
  C   C129      1.0  0.26377  0.21243  0.85691  1.0000
  H   H224      1.0  0.27404  0.35262  0.80764  1.0000
  C   C130      1.0  0.57040  0.36285  0.81101  1.0000
  H   H225      1.0  0.27971  0.17301  0.78917  1.0000
  C   C131      1.0  0.31941  0.16136  0.76269  1.0000
  H   H226      1.0  0.44212  0.40590  0.93411  1.0000
  Fe  Fe17      1.0  0.44394  0.48689  0.89690  1.0000
  C   C132      1.0  0.56537  0.26388  0.88805  1.0000
  N   N5        1.0  0.56947  0.26701  0.79618  1.0000
  C   C133      1.0  0.36863  0.54743  0.98481  1.0000
  H   H227      1.0  0.25799  0.32464  0.86154  1.0000
  C   C134      1.0  0.29631  0.42072  0.83381  1.0000
  C   C135      1.0  0.17493  0.55952  0.98335  1.0000
  H   H228      1.0  0.59051  0.55279  0.81926  1.0000
  S   S30       1.0  0.24567  0.45075  0.76637  1.0000
  H   H229      1.0  0.52067  0.24875  0.75661  1.0000
  N   N6        1.0  0.29868  0.18278  0.89050  1.0000
  C   C136      1.0  0.47889  0.30768  0.89891  1.0000
  S   S31       1.0  0.59725  0.11866  0.90682  1.0000
  S   S32       1.0  0.51659  0.50364  0.79806  1.0000
  H   H230      1.0  0.28373  0.34227  0.94614  1.0000
  H   H231      1.0  0.56196  0.25177  0.96405  1.0000
  H   H232      1.0  0.27880  0.15007  0.95792  1.0000
  H   H233      1.0  0.37629  0.22702  0.89970  1.0000
  C   C137      1.0  0.26163  0.17734  0.88268  1.0000
  H   H234      1.0  0.54124  0.30614  0.84714  1.0000
  C   C138      1.0  0.32254  0.22058  0.91539  1.0000
  H   H235      1.0  0.37408  0.29430  0.78799  1.0000
  Fe  Fe18      1.0  0.52291  0.54542  0.85249  1.0000
  H   H236      1.0  0.24480  0.39629  0.90845  1.0000
  H   H237      1.0  0.24330  0.15085  0.86271  1.0000
  C   C139      1.0  0.46859  0.17236  0.78811  1.0000
  S   S33       1.0  0.40547  0.47778  0.95847  1.0000
  C   C140      1.0  0.38708  0.50639  0.95132  1.0000
  H   H238      1.0  0.30746  0.22043  0.94829  1.0000
  H   H239      1.0  0.48732  0.42327  0.98429  1.0000
  S   S34       1.0  0.42959  0.21637  0.98454  1.0000
  C   C141      1.0  0.13686  0.29625  0.74089  1.0000
  S   S35       1.0  0.17533  0.43568  0.98816  1.0000
  H   H240      1.0  0.11862  0.44246  0.92309  1.0000
  H   H241      1.0  0.38235  0.35234  0.74043  1.0000
  C   C142      1.0  0.18328  0.49572  0.09602  1.0000
  C   C143      1.0  0.38485  0.37424  0.15664  1.0000
  H   H242      1.0  0.30397  0.52247  0.13811  1.0000
  H   H243      1.0  0.38738  0.51697  0.02576  1.0000
  H   H244      1.0  0.11770  0.36949  0.04456  1.0000
  H   H245      1.0  0.21512  0.33700  0.18598  1.0000
  H   H246      1.0  0.23440  0.32392  0.13897  1.0000
  H   H247      1.0  0.38475  0.33899  0.10134  1.0000
  H   H248      1.0  0.19128  0.54971  0.00100  1.0000
  C   C144      1.0  0.28587  0.16483  0.05524  1.0000
  C   C145      1.0  0.23985  0.34804  0.16166  1.0000
  H   H249      1.0  0.13821  0.47710  0.99270  1.0000
  H   H250      1.0  0.26137  0.13589  0.05026  1.0000
  S   S36       1.0  0.14360  0.19848  0.03739  1.0000
  Fe  Fe19      1.0  0.17189  0.16794  0.05621  1.0000
  H   H251      1.0  0.18771  0.49225  0.05807  1.0000
  C   C146      1.0  0.20611  0.34948  0.06766  1.0000
  H   H252      1.0  0.27235  0.39104  0.10577  1.0000
  H   H253      1.0  0.16922  0.33550  0.14787  1.0000
  C   C147      1.0  0.32605  0.55386  0.14190  1.0000
  S   S37       1.0  0.22542  0.28071  0.05032  1.0000
  C   C148      1.0  0.32108  0.58045  0.10712  1.0000
  S   S38       1.0  0.30691  0.27031  0.08395  1.0000
  H   H254      1.0  0.16244  0.56843  0.01080  1.0000
  H   H255      1.0  0.14910  0.33290  0.05521  1.0000
  C   C149      1.0  0.27251  0.35780  0.19203  1.0000
  C   C150      1.0  0.33246  0.16375  0.18189  1.0000
  S   S39       1.0  0.19904  0.20370  0.11893  1.0000
  H   H256      1.0  0.25059  0.51813  0.13232  1.0000
  H   H257      1.0  0.15594  0.28251  0.01962  1.0000
  H   H258      1.0  0.26140  0.12525  0.16174  1.0000
  H   H259      1.0  0.32837  0.41522  0.00568  1.0000
  H   H260      1.0  0.21124  0.38968  0.20277  1.0000
  H   H261      1.0  0.38691  0.59037  0.13649  1.0000
  C   C151      1.0  0.27387  0.10828  0.15472  1.0000
  H   H262      1.0  0.20190  0.42179  0.17030  1.0000
  H   H263      1.0  0.29936  0.18795  0.16458  1.0000
  H   H264      1.0  0.24720  0.41617  0.00723  1.0000
  H   H265      1.0  0.35581  0.35140  0.16948  1.0000
  S   S40       1.0  0.22177  0.20612  0.00641  1.0000
  N   N7        1.0  0.30552  0.11969  0.18678  1.0000
  H   H266      1.0  0.25942  0.57806  0.02253  1.0000
  S   S41       1.0  0.20271  0.57951  0.23770  1.0000
  H   H267      1.0  0.30875  0.36489  0.02509  1.0000
  S   S42       1.0  0.16822  0.47222  0.23537  1.0000
  Fe  Fe20      1.0  0.19591  0.23951  0.99268  1.0000
  C   C152      1.0  0.24275  0.20692  0.22991  1.0000
  H   H268      1.0  0.29810  0.36839  0.16930  1.0000
  C   C153      1.0  0.16600  0.31075  0.00008  1.0000
  H   H269      1.0  0.25284  0.48061  0.01470  1.0000
  C   C154      1.0  0.32068  0.38612  0.99395  1.0000
  Fe  Fe21      1.0  0.37926  0.15487  0.99181  1.0000
  H   H270      1.0  0.40426  0.37140  0.17868  1.0000
  C   C155      1.0  0.22997  0.41929  0.08033  1.0000
  H   H271      1.0  0.18405  0.36976  0.01321  1.0000
  C   C156      1.0  0.35292  0.20955  0.05592  1.0000
  H   H272      1.0  0.29166  0.49619  0.05226  1.0000
  H   H273      1.0  0.38573  0.14566  0.17788  1.0000
  H   H274      1.0  0.29841  0.17666  0.22684  1.0000
  H   H275      1.0  0.36500  0.56088  0.01495  1.0000
  C   C157      1.0  0.27544  0.47658  0.02361  1.0000
  H   H276      1.0  0.26093  0.41006  0.15346  1.0000
  C   C158      1.0  0.17525  0.34270  0.03446  1.0000
  H   H277      1.0  0.33329  0.10868  0.13064  1.0000
  H   H278      1.0  0.24187  0.44222  0.10703  1.0000
  H   H279      1.0  0.23084  0.35618  0.04549  1.0000
  C   C159      1.0  0.32144  0.17229  0.04823  1.0000
  C   C160      1.0  0.25965  0.43394  0.03863  1.0000
  H   H280      1.0  0.38527  0.35448  0.01521  1.0000
  C   C161      1.0  0.18344  0.36693  0.13617  1.0000
  C   C162      1.0  0.28657  0.60485  0.03019  1.0000
  H   H281      1.0  0.32155  0.57069  0.07087  1.0000
  C   C163      1.0  0.25285  0.54055  0.10676  1.0000
  Fe  Fe22      1.0  0.24710  0.24405  0.06820  1.0000
  H   H282      1.0  0.38040  0.21502  0.05261  1.0000
  H   H283      1.0  0.28349  0.43234  0.04823  1.0000
  C   C164      1.0  0.34872  0.23982  0.06827  1.0000
  C   C165      1.0  0.28173  0.19464  0.06888  1.0000
  H   H284      1.0  0.25604  0.53145  0.07112  1.0000
  H   H285      1.0  0.25411  0.18806  0.07604  1.0000
  C   C166      1.0  0.31304  0.23246  0.07367  1.0000
  H   H286      1.0  0.21439  0.55829  0.08829  1.0000
  H   H287      1.0  0.19510  0.32066  0.08617  1.0000
  H   H288      1.0  0.36581  0.55021  0.09680  1.0000
  H   H289      1.0  0.37292  0.26878  0.07334  1.0000
  Fe  Fe23      1.0  0.17490  0.23745  0.09636  1.0000
  H   H290      1.0  0.36912  0.36992  0.08459  1.0000
  N   N8        1.0  0.21711  0.38000  0.10368  1.0000
  S   S43       1.0  0.32548  0.13403  0.03156  1.0000
  C   C167      1.0  0.21467  0.53602  0.11100  1.0000
  N   N9        1.0  0.28647  0.58056  0.11616  1.0000
  H   H291      1.0  0.20593  0.41920  0.06683  1.0000
  C   C168      1.0  0.39038  0.36868  0.10448  1.0000
  H   H292      1.0  0.15617  0.49271  0.10070  1.0000
  C   C169      1.0  0.24893  0.38437  0.13063  1.0000
  H   H293      1.0  0.18199  0.47207  0.11797  1.0000
  H   H294      1.0  0.16215  0.36866  0.11699  1.0000
  H   H295      1.0  0.34542  0.17296  0.14520  1.0000
  C   C170      1.0  0.36376  0.55929  0.13276  1.0000
  S   S44       1.0  0.15114  0.25565  0.15338  1.0000
  H   H296      1.0  0.20801  0.53893  0.14828  1.0000
  H   H297      1.0  0.36693  0.54089  0.15915  1.0000
  H   H298      1.0  0.25963  0.59338  0.17121  1.0000
  H   H299      1.0  0.36628  0.24389  0.16781  1.0000
  H   H300      1.0  0.35581  0.17343  0.20587  1.0000
  C   C171      1.0  0.19107  0.39087  0.18063  1.0000
  H   H301      1.0  0.40579  0.40543  0.00204  1.0000
  H   H302      1.0  0.38970  0.40353  0.16108  1.0000
  H   H303      1.0  0.32497  0.56083  0.17920  1.0000
  C   C172      1.0  0.28297  0.58937  0.16683  1.0000
  C   C173      1.0  0.36345  0.11633  0.19363  1.0000
  H   H304      1.0  0.33464  0.24838  0.20559  1.0000
  H   H305      1.0  0.28459  0.11523  0.11742  1.0000
  C   C174      1.0  0.31625  0.18833  0.19373  1.0000
  H   H306      1.0  0.13477  0.37660  0.19264  1.0000
  H   H307      1.0  0.27519  0.56404  0.19154  1.0000
  H   H308      1.0  0.22830  0.18504  0.20265  1.0000
  C   C175      1.0  0.34717  0.23125  0.19997  1.0000
  H   H309      1.0  0.36106  0.11910  0.23236  1.0000
  C   C176      1.0  0.15574  0.37447  0.21186  1.0000
  H   H310      1.0  0.45965  0.56625  0.00082  1.0000
  S   S45       1.0  0.41053  0.12863  0.01300  1.0000
  H   H311      1.0  0.26569  0.33110  0.21289  1.0000
  H   H312      1.0  0.27795  0.38058  0.21724  1.0000
  H   H313      1.0  0.18625  0.11459  0.19157  1.0000
  H   H314      1.0  0.14432  0.34355  0.22314  1.0000
  H   H315      1.0  0.41993  0.33040  0.03575  1.0000
  C   C177      1.0  0.41187  0.38232  0.00322  1.0000
  H   H316      1.0  0.25610  0.23676  0.21288  1.0000
  H   H317      1.0  0.11735  0.51830  0.14142  1.0000
  H   H318      1.0  0.30923  0.60172  0.01719  1.0000
  H   H319      1.0  0.36334  0.23394  0.23130  1.0000
  H   H320      1.0  0.59193  0.56601  0.21750  1.0000
  H   H321      1.0  0.45852  0.60304  0.05459  1.0000
  H   H322      1.0  0.51770  0.16633  0.21734  1.0000
  H   H323      1.0  0.13030  0.51953  0.20177  1.0000
  H   H324      1.0  0.45988  0.49792  0.03009  1.0000
  H   H325      1.0  0.50583  0.16209  0.99081  1.0000
  C   C178      1.0  0.53026  0.19382  0.05351  1.0000
  S   S46       1.0  0.50297  0.21318  0.05660  1.0000
  H   H326      1.0  0.29431  0.48507  0.99162  1.0000
  H   H327      1.0  0.53487  0.50865  0.02138  1.0000
  H   H328      1.0  0.58985  0.10927  0.14068  1.0000
  H   H329      1.0  0.52252  0.11615  0.17718  1.0000
  S   S47       1.0  0.49728  0.49762  0.21061  1.0000
  H   H330      1.0  0.57367  0.50585  0.20486  1.0000
  C   C179      1.0  0.51110  0.44885  0.04940  1.0000
  C   C180      1.0  0.46878  0.32094  0.08579  1.0000
  H   H331      1.0  0.52186  0.39944  0.17938  1.0000
  H   H332      1.0  0.58536  0.45518  0.19341  1.0000
  H   H333      1.0  0.52751  0.44516  0.16211  1.0000
  H   H334      1.0  0.60151  0.19818  0.10882  1.0000
  H   H335      1.0  0.52175  0.55961  0.03987  1.0000
  C   C181      1.0  0.47724  0.42920  0.01758  1.0000
  C   C182      1.0  0.52189  0.57233  0.17810  1.0000
  C   C183      1.0  0.52624  0.42684  0.19273  1.0000
  H   H336      1.0  0.47143  0.45162  0.00734  1.0000
  H   H337      1.0  0.58249  0.14355  0.16948  1.0000
  C   C184      1.0  0.54322  0.48762  0.02598  1.0000
  C   C185      1.0  0.59098  0.12278  0.17470  1.0000
  C   C186      1.0  0.49616  0.55963  0.04440  1.0000
  H   H338      1.0  0.31358  0.45852  0.23688  1.0000
  C   C187      1.0  0.56248  0.44886  0.21896  1.0000
  C   C188      1.0  0.58047  0.19014  0.08324  1.0000
  C   C189      1.0  0.48885  0.57462  0.99769  1.0000
  S   S48       1.0  0.61006  0.15511  0.03765  1.0000
  C   C190      1.0  0.52381  0.53971  0.17265  1.0000
  C   C191      1.0  0.55671  0.20324  0.08739  1.0000
  C   C192      1.0  0.44663  0.35863  0.04185  1.0000
  H   H339      1.0  0.47732  0.31601  0.12060  1.0000
  H   H340      1.0  0.55178  0.48282  0.99072  1.0000
  H   H341      1.0  0.54956  0.51601  0.13276  1.0000
  H   H342      1.0  0.52159  0.42979  0.05439  1.0000
  H   H343      1.0  0.50207  0.41901  0.21695  1.0000
  C   C193      1.0  0.54850  0.54135  0.13797  1.0000
  C   C194      1.0  0.55136  0.15826  0.01129  1.0000
  H   H344      1.0  0.45004  0.40662  0.11193  1.0000
  H   H345      1.0  0.43749  0.34132  0.11807  1.0000
  H   H346      1.0  0.55931  0.22131  0.11624  1.0000
  C   C195      1.0  0.43013  0.40094  0.08415  1.0000
  H   H347      1.0  0.46637  0.36156  0.01306  1.0000
  C   C196      1.0  0.57305  0.57639  0.11139  1.0000
  H   H348      1.0  0.48478  0.37905  0.10135  1.0000
  H   H349      1.0  0.43104  0.42857  0.08011  1.0000
  C   C197      1.0  0.45975  0.35195  0.08965  1.0000
  H   H350      1.0  0.49206  0.33070  0.05905  1.0000
  H   H351      1.0  0.47100  0.50757  0.09136  1.0000
  H   H352      1.0  0.50419  0.45561  0.08432  1.0000
  C   C198      1.0  0.52676  0.17023  0.01638  1.0000
  Fe  Fe24      1.0  0.46129  0.18922  0.00043  1.0000
  C   C199      1.0  0.46421  0.51771  0.05878  1.0000
  H   H353      1.0  0.50089  0.57032  0.20181  1.0000
  C   C200      1.0  0.57835  0.16850  0.04457  1.0000
  H   H354      1.0  0.44395  0.29265  0.07546  1.0000
  H   H355      1.0  0.49923  0.57795  0.07429  1.0000
  H   H356      1.0  0.56761  0.50082  0.04868  1.0000
  H   H357      1.0  0.43803  0.51618  0.06634  1.0000
  H   H358      1.0  0.59272  0.57789  0.08534  1.0000
  N   N10       1.0  0.44185  0.39244  0.03770  1.0000
  C   C201      1.0  0.29101  0.10782  0.23775  1.0000
  C   C202      1.0  0.56973  0.48762  0.23707  1.0000
  C   C203      1.0  0.38122  0.52263  0.99080  1.0000
  H   H359      1.0  0.42085  0.23874  0.33903  1.0000
  S   S49       1.0  0.35861  0.25336  0.45674  1.0000
  H   H360      1.0  0.54366  0.48123  0.25529  1.0000
  C   C204      1.0  0.22757  0.60085  0.48712  1.0000
  C   C205      1.0  0.27277  0.15731  0.40084  1.0000
  H   H361      1.0  0.46004  0.34344  0.45660  1.0000
  H   H362      1.0  0.55920  0.49351  0.35744  1.0000
  H   H363      1.0  0.41352  0.17255  0.33028  1.0000
  H   H364      1.0  0.47792  0.24395  0.31349  1.0000
  H   H365      1.0  0.35874  0.41605  0.34784  1.0000
  H   H366      1.0  0.22888  0.41388  0.34579  1.0000
  C   C206      1.0  0.30832  0.20504  0.33607  1.0000
  H   H367      1.0  0.53586  0.44998  0.32370  1.0000
  Fe  Fe25      1.0  0.12274  0.43535  0.29097  1.0000
  H   H368      1.0  0.55994  0.42901  0.24841  1.0000
  H   H369      1.0  0.57427  0.26121  0.33221  1.0000
  C   C207      1.0  0.27799  0.16805  0.35252  1.0000
  C   C208      1.0  0.26177  0.46772  0.38265  1.0000
  S   S50       1.0  0.41400  0.57935  0.30195  1.0000
  C   C209      1.0  0.25606  0.43087  0.36279  1.0000
  C   C210      1.0  0.61279  0.57772  0.24498  1.0000
  H   H370      1.0  0.31226  0.21360  0.29881  1.0000
  H   H371      1.0  0.16188  0.57387  0.32350  1.0000
  H   H372      1.0  0.57514  0.53662  0.29973  1.0000
  S   S51       1.0  0.54872  0.60232  0.41870  1.0000
  H   H373      1.0  0.54804  0.13761  0.25848  1.0000
  C   C211      1.0  0.35880  0.51311  0.26177  1.0000
  C   C212      1.0  0.59728  0.48579  0.31284  1.0000
  H   H374      1.0  0.28674  0.54049  0.27681  1.0000
  H   H375      1.0  0.43254  0.21200  0.45554  1.0000
  C   C213      1.0  0.30660  0.53260  0.27324  1.0000
  C   C214      1.0  0.29182  0.36487  0.45894  1.0000
  C   C215      1.0  0.17430  0.19237  0.35715  1.0000
  H   H376      1.0  0.26609  0.10896  0.24290  1.0000
  H   H377      1.0  0.22141  0.58986  0.45077  1.0000
  C   C216      1.0  0.19239  0.26343  0.28900  1.0000
  H   H378      1.0  0.17769  0.16792  0.36616  1.0000
  H   H379      1.0  0.49397  0.53658  0.48214  1.0000
  Fe  Fe26      1.0  0.48122  0.51126  0.28051  1.0000
  H   H380      1.0  0.53370  0.21239  0.34332  1.0000
  C   C217      1.0  0.29548  0.49582  0.25733  1.0000
  H   H381      1.0  0.17605  0.41907  0.43518  1.0000
  H   H382      1.0  0.58586  0.60163  0.28407  1.0000
  Fe  Fe27      1.0  0.18179  0.52322  0.27780  1.0000
  H   H383      1.0  0.53087  0.25954  0.39336  1.0000
  H   H384      1.0  0.58305  0.12575  0.35881  1.0000
  H   H385      1.0  0.16240  0.39158  0.24412  1.0000
  C   C218      1.0  0.37601  0.56694  0.41809  1.0000
  H   H386      1.0  0.24827  0.49739  0.46752  1.0000
  H   H387      1.0  0.22811  0.21110  0.41148  1.0000
  C   C219      1.0  0.50308  0.14468  0.24779  1.0000
  H   H388      1.0  0.16834  0.29494  0.31492  1.0000
  C   C220      1.0  0.33325  0.23133  0.36824  1.0000
  H   H389      1.0  0.51502  0.45806  0.47784  1.0000
  H   H390      1.0  0.34725  0.52456  0.47616  1.0000
  C   C221      1.0  0.20949  0.26426  0.33668  1.0000
  H   H391      1.0  0.47221  0.20360  0.34600  1.0000
  H   H392      1.0  0.11704  0.12971  0.41680  1.0000
  C   C222      1.0  0.21489  0.20018  0.26982  1.0000
  C   C223      1.0  0.48205  0.23478  0.34902  1.0000
  H   H393      1.0  0.53750  0.28966  0.34208  1.0000
  C   C224      1.0  0.52472  0.25885  0.35549  1.0000
  S   S52       1.0  0.57919  0.35208  0.42073  1.0000
  C   C225      1.0  0.51918  0.13340  0.42175  1.0000
  H   H394      1.0  0.52299  0.50047  0.44495  1.0000
  N   N11       1.0  0.21228  0.23016  0.34955  1.0000
  H   H395      1.0  0.16532  0.23542  0.28553  1.0000
  C   C226      1.0  0.55290  0.14497  0.39786  1.0000
  C   C227      1.0  0.18604  0.29652  0.28448  1.0000
  H   H396      1.0  0.26459  0.20365  0.24408  1.0000
  H   H397      1.0  0.19484  0.20577  0.25463  1.0000
  Fe  Fe28      1.0  0.20601  0.46744  0.28327  1.0000
  C   C228      1.0  0.33046  0.38500  0.46318  1.0000
  S   S53       1.0  0.44837  0.53590  0.39459  1.0000
  C   C229      1.0  0.45728  0.16867  0.48625  1.0000
  H   H398      1.0  0.25985  0.48474  0.35320  1.0000
  C   C230      1.0  0.13146  0.59943  0.30430  1.0000
  H   H399      1.0  0.36341  0.18412  0.30931  1.0000
  H   H400      1.0  0.31428  0.55993  0.37366  1.0000
  H   H401      1.0  0.23750  0.29214  0.33484  1.0000
  Fe  Fe29      1.0  0.17180  0.47923  0.37160  1.0000
  H   H402      1.0  0.28006  0.29924  0.38010  1.0000
  H   H403      1.0  0.26856  0.53500  0.39921  1.0000
  C   C231      1.0  0.15345  0.44162  0.48316  1.0000
  Fe  Fe30      1.0  0.43987  0.54589  0.31928  1.0000
  H   H404      1.0  0.29288  0.17528  0.47013  1.0000
  H   H405      1.0  0.59825  0.46013  0.30436  1.0000
  N   N12       1.0  0.45935  0.23915  0.38684  1.0000
  H   H406      1.0  0.25895  0.25529  0.29818  1.0000
  H   H407      1.0  0.24836  0.21155  0.32863  1.0000
  S   S54       1.0  0.17150  0.48588  0.45017  1.0000
  H   H408      1.0  0.17179  0.29405  0.25130  1.0000
  H   H409      1.0  0.29042  0.37971  0.34010  1.0000
  C   C232      1.0  0.54369  0.24217  0.32848  1.0000
  Fe  Fe31      1.0  0.19986  0.31121  0.47921  1.0000
  C   C233      1.0  0.15541  0.58708  0.29514  1.0000
  C   C234      1.0  0.59294  0.57415  0.40701  1.0000
  C   C235      1.0  0.41300  0.59317  0.44153  1.0000
  S   S55       1.0  0.15923  0.42532  0.33560  1.0000
  H   H410      1.0  0.50798  0.16079  0.28069  1.0000
  C   C236      1.0  0.14787  0.19177  0.39620  1.0000
  N   N13       1.0  0.30457  0.52358  0.43666  1.0000
  C   C237      1.0  0.36060  0.16487  0.33982  1.0000
  H   H411      1.0  0.19344  0.26764  0.36517  1.0000
  C   C238      1.0  0.23537  0.22584  0.31225  1.0000
  C   C239      1.0  0.27736  0.36267  0.41451  1.0000
  Fe  Fe32      1.0  0.59631  0.31325  0.44962  1.0000
  C   C240      1.0  0.28957  0.27704  0.44354  1.0000
  C   C241      1.0  0.34371  0.55927  0.28453  1.0000
  C   C242      1.0  0.34306  0.54516  0.45563  1.0000
  C   C243      1.0  0.55921  0.44554  0.38740  1.0000
  S   S56       1.0  0.42093  0.48502  0.29986  1.0000
  C   C244      1.0  0.52215  0.48837  0.48088  1.0000
  C   C245      1.0  0.30032  0.49272  0.40465  1.0000
  H   H412      1.0  0.48149  0.24343  0.45661  1.0000
  C   C246      1.0  0.16024  0.41388  0.46799  1.0000
  C   C247      1.0  0.51777  0.11842  0.25268  1.0000
  H   H413      1.0  0.35651  0.26011  0.35580  1.0000
  C   C248      1.0  0.46221  0.18558  0.43561  1.0000
  C   C249      1.0  0.29763  0.18353  0.43285  1.0000
  C   C250      1.0  0.55699  0.11688  0.37714  1.0000
  C   C251      1.0  0.56088  0.46947  0.34392  1.0000
  S   S57       1.0  0.24589  0.13567  0.31311  1.0000
  H   H414      1.0  0.45782  0.14197  0.48571  1.0000
  H   H415      1.0  0.23849  0.45854  0.40876  1.0000
  C   C252      1.0  0.47651  0.28249  0.39147  1.0000
  H   H416      1.0  0.32013  0.29938  0.44103  1.0000
  H   H417      1.0  0.21175  0.26786  0.25901  1.0000
  C   C253      1.0  0.35468  0.40371  0.42317  1.0000
  S   S58       1.0  0.22907  0.33651  0.40856  1.0000
  C   C254      1.0  0.60285  0.54552  0.28410  1.0000
  H   H418      1.0  0.41796  0.57568  0.46705  1.0000
  H   H419      1.0  0.37896  0.50584  0.25609  1.0000
  H   H420      1.0  0.44365  0.27540  0.45701  1.0000
  S   S59       1.0  0.49400  0.49891  0.35313  1.0000
  S   S60       1.0  0.13301  0.48727  0.32944  1.0000
  H   H421      1.0  0.44134  0.16174  0.41408  1.0000
  S   S61       1.0  0.49958  0.57230  0.29709  1.0000
  H   H422      1.0  0.32093  0.50626  0.37389  1.0000
  H   H423      1.0  0.48136  0.29746  0.35590  1.0000
  H   H424      1.0  0.35223  0.58745  0.29770  1.0000
  H   H425      1.0  0.53805  0.24080  0.29017  1.0000
  S   S62       1.0  0.55937  0.25118  0.47882  1.0000
  H   H426      1.0  0.57594  0.55848  0.37794  1.0000
  C   C255      1.0  0.45395  0.29339  0.42319  1.0000
  S   S63       1.0  0.22139  0.52028  0.32323  1.0000
  H   H427      1.0  0.50146  0.34268  0.45610  1.0000
  H   H428      1.0  0.48800  0.35566  0.40215  1.0000
  H   H429      1.0  0.27646  0.28768  0.46727  1.0000
  H   H430      1.0  0.34656  0.13451  0.32813  1.0000
  C   C256      1.0  0.32188  0.48664  0.25006  1.0000
  C   C257      1.0  0.36945  0.54881  0.28060  1.0000
  C   C258      1.0  0.30691  0.58805  0.43291  1.0000
  C   C259      1.0  0.42026  0.22149  0.37065  1.0000
  H   H431      1.0  0.19905  0.16872  0.28189  1.0000
  H   H432      1.0  0.21311  0.32551  0.28351  1.0000
  H   H433      1.0  0.27876  0.43806  0.33633  1.0000
  H   H434      1.0  0.15875  0.18413  0.32420  1.0000
  C   C260      1.0  0.39856  0.17797  0.35819  1.0000
  H   H435      1.0  0.34280  0.16507  0.36874  1.0000
  H   H436      1.0  0.40251  0.22322  0.39857  1.0000
  Fe  Fe33      1.0  0.43489  0.47751  0.37357  1.0000
  Fe  Fe34      1.0  0.50679  0.55794  0.37087  1.0000
  H   H437      1.0  0.39324  0.15929  0.39037  1.0000
  C   C261      1.0  0.30156  0.38132  0.37448  1.0000
  H   H438      1.0  0.25587  0.41284  0.39252  1.0000
  H   H439      1.0  0.49017  0.19441  0.42145  1.0000
  C   C262      1.0  0.34022  0.40208  0.37889  1.0000
  H   H440      1.0  0.50440  0.29644  0.40650  1.0000
  H   H441      1.0  0.56086  0.42067  0.37665  1.0000
  H   H442      1.0  0.14056  0.21302  0.38673  1.0000
  C   C263      1.0  0.45866  0.22125  0.43483  1.0000
  S   S64       1.0  0.59065  0.19414  0.39186  1.0000
  H   H443      1.0  0.29000  0.26287  0.37138  1.0000
  H   H444      1.0  0.28446  0.24934  0.45947  1.0000
  H   H445      1.0  0.37270  0.58578  0.39281  1.0000
  C   C264      1.0  0.27407  0.27080  0.39413  1.0000
  H   H446      1.0  0.37825  0.54545  0.39785  1.0000
  C   C265      1.0  0.47748  0.33652  0.43513  1.0000
  H   H447      1.0  0.30707  0.47332  0.42342  1.0000
  H   H448      1.0  0.58234  0.46450  0.41066  1.0000
  H   H449      1.0  0.31142  0.12921  0.26233  1.0000
  C   C266      1.0  0.32781  0.22048  0.41667  1.0000
  H   H450      1.0  0.24951  0.12885  0.41390  1.0000
  C   C267      1.0  0.23157  0.23833  0.39601  1.0000
  H   H451      1.0  0.42970  0.28865  0.40410  1.0000
  H   H452      1.0  0.21862  0.24745  0.42254  1.0000
  H   H453      1.0  0.53241  0.43337  0.40800  1.0000
  C   C268      1.0  0.58508  0.59742  0.43311  1.0000
  H   H454      1.0  0.16048  0.19860  0.43127  1.0000
  C   C269      1.0  0.29827  0.55082  0.40833  1.0000
  H   H455      1.0  0.51606  0.15504  0.43791  1.0000
  H   H456      1.0  0.11944  0.59589  0.33973  1.0000
  S   S65       1.0  0.40293  0.42893  0.42899  1.0000
  H   H457      1.0  0.26785  0.59335  0.39125  1.0000
  H   H458      1.0  0.15339  0.35869  0.48455  1.0000
  S   S66       1.0  0.24879  0.46032  0.24741  1.0000
  S   S67       1.0  0.13760  0.27342  0.48762  1.0000
  H   H459      1.0  0.29022  0.58023  0.46689  1.0000
  H   H460      1.0  0.25979  0.44407  0.48064  1.0000
  H   H461      1.0  0.34624  0.56658  0.48159  1.0000
  C   C270      1.0  0.27633  0.50568  0.47821  1.0000
  Fe  Fe35      1.0  0.59936  0.24077  0.44082  1.0000
  C   C271      1.0  0.17200  0.59329  0.24964  1.0000
  N   N14       1.0  0.60203  0.51004  0.26855  1.0000
  H   H462      1.0  0.61596  0.43513  0.42722  1.0000
  H   H463      1.0  0.27333  0.35079  0.49007  1.0000
  H   H464      1.0  0.47261  0.12678  0.24251  1.0000
  Fe  Fe36      1.0  0.52091  0.99669  0.64543  1.0000
  Fe  Fe37      1.0  0.47429  0.92720  0.58293  1.0000
  S   S68       1.0  0.38172  0.62864  0.66510  1.0000
  C   C272      1.0  0.34145  0.80794  0.61137  1.0000
  Fe  Fe38      1.0  0.37092  0.60987  0.59054  1.0000
  H   H465      1.0  0.52379  0.62837  0.60463  1.0000
  H   H466      1.0  0.13568  0.85756  0.55501  1.0000
  H   H467      1.0  0.22474  0.68864  0.66912  1.0000
  H   H468      1.0  0.60788  0.80891  0.63915  1.0000
  H   H469      1.0  0.49760  0.64318  0.57266  1.0000
  C   C273      1.0  0.60255  0.76706  0.72081  1.0000
  C   C274      1.0  0.21020  0.10067  0.67114  1.0000
  H   H470      1.0  0.28514  0.60946  0.73206  1.0000
  H   H471      1.0  0.53785  0.60850  0.52539  1.0000
  C   C275      1.0  0.30622  0.69368  0.65497  1.0000
  S   S69       1.0  0.43337  0.71863  0.62342  1.0000
  H   H472      1.0  0.35103  0.90178  0.51209  1.0000
  S   S70       1.0  0.23254  0.77328  0.61423  1.0000
  C   C276      1.0  0.34145  0.90536  0.54588  1.0000
  H   H473      1.0  0.49918  0.82297  0.61541  1.0000
  H   H474      1.0  0.50443  0.07039  0.68436  1.0000
  H   H475      1.0  0.11854  0.82834  0.60973  1.0000
  C   C277      1.0  0.52072  0.63874  0.56947  1.0000
  C   C278      1.0  0.13768  0.61863  0.71476  1.0000
  H   H476      1.0  0.29678  0.01830  0.69938  1.0000
  C   C279      1.0  0.33554  0.00226  0.72208  1.0000
  C   C280      1.0  0.57767  0.08951  0.68131  1.0000
  C   C281      1.0  0.35376  0.09616  0.50375  1.0000
  C   C282      1.0  0.31872  0.97910  0.52009  1.0000
  H   H477      1.0  0.34563  0.98507  0.70631  1.0000
  H   H478      1.0  0.21027  0.04764  0.67951  1.0000
  S   S71       1.0  0.17537  0.06662  0.53052  1.0000
  H   H479      1.0  0.34838  0.04859  0.63894  1.0000
  C   C283      1.0  0.24753  0.68424  0.60252  1.0000
  C   C284      1.0  0.43845  0.79311  0.53770  1.0000
  S   S72       1.0  0.35679  0.65278  0.56976  1.0000
  S   S73       1.0  0.38761  0.95848  0.66590  1.0000
  N   N15       1.0  0.46550  0.09507  0.63430  1.0000
  C   C285      1.0  0.47703  0.05954  0.70232  1.0000
  S   S74       1.0  0.47793  0.97021  0.70608  1.0000
  H   H480      1.0  0.43207  0.06818  0.69990  1.0000
  H   H481      1.0  0.52959  0.07502  0.53159  1.0000
  C   C286      1.0  0.30340  0.88727  0.55637  1.0000
  H   H482      1.0  0.57966  0.74927  0.52578  1.0000
  H   H483      1.0  0.33860  0.76687  0.54216  1.0000
  H   H484      1.0  0.56684  0.04905  0.73957  1.0000
  Fe  Fe39      1.0  0.17945  0.76285  0.64542  1.0000
  H   H485      1.0  0.54297  0.87110  0.51846  1.0000
  H   H486      1.0  0.15085  0.63982  0.68363  1.0000
  C   C287      1.0  0.34699  0.79554  0.52496  1.0000
  H   H487      1.0  0.57105  0.73661  0.65867  1.0000
  H   H488      1.0  0.37799  0.81300  0.52212  1.0000
  C   C288      1.0  0.60840  0.77607  0.52274  1.0000
  H   H489      1.0  0.30520  0.01382  0.61301  1.0000
  H   H490      1.0  0.18155  0.97922  0.55912  1.0000
  C   C289      1.0  0.44671  0.06125  0.55370  1.0000
  S   S75       1.0  0.17441  0.76938  0.72307  1.0000
  C   C290      1.0  0.58349  0.81925  0.52847  1.0000
  C   C291      1.0  0.46187  0.08448  0.68681  1.0000
  H   H491      1.0  0.41758  0.03724  0.62253  1.0000
  C   C292      1.0  0.29107  0.89214  0.60025  1.0000
  C   C293      1.0  0.15753  0.09596  0.52932  1.0000
  H   H492      1.0  0.13169  0.96129  0.72439  1.0000
  C   C294      1.0  0.44699  0.05742  0.60841  1.0000
  S   S76       1.0  0.17390  0.79815  0.58799  1.0000
  S   S77       1.0  0.33969  0.69231  0.68778  1.0000
  S   S78       1.0  0.43030  0.64953  0.56335  1.0000
  H   H493      1.0  0.41386  0.09201  0.63225  1.0000
  H   H494      1.0  0.59055  0.00184  0.59881  1.0000
  H   H495      1.0  0.54409  0.74252  0.70308  1.0000
  C   C295      1.0  0.22223  0.07387  0.65487  1.0000
  C   C296      1.0  0.35505  0.93185  0.62368  1.0000
  H   H496      1.0  0.51255  0.87198  0.59744  1.0000
  H   H497      1.0  0.46082  0.04170  0.61496  1.0000
  S   S79       1.0  0.14223  0.70534  0.61198  1.0000
  S   S80       1.0  0.19155  0.74978  0.51380  1.0000
  C   C297      1.0  0.44275  0.78149  0.49309  1.0000
  C   C298      1.0  0.51296  0.60951  0.53146  1.0000
  H   H498      1.0  0.27729  0.68106  0.54234  1.0000
  H   H499      1.0  0.57916  0.89382  0.59129  1.0000
  C   C299      1.0  0.60881  0.81035  0.49933  1.0000
  H   H500      1.0  0.36060  0.03282  0.72159  1.0000
  H   H501      1.0  0.25149  0.62225  0.72756  1.0000
  S   S81       1.0  0.47638  0.90745  0.50968  1.0000
  S   S82       1.0  0.48393  0.66691  0.67648  1.0000
  C   C300      1.0  0.16729  0.07945  0.67221  1.0000
  H   H502      1.0  0.30686  0.80735  0.55790  1.0000
  H   H503      1.0  0.52351  0.82165  0.53666  1.0000
  C   C301      1.0  0.19313  0.98430  0.52204  1.0000
  H   H504      1.0  0.21927  0.01412  0.51856  1.0000
  H   H505      1.0  0.31957  0.77719  0.62316  1.0000
  C   C302      1.0  0.30348  0.83143  0.71856  1.0000
  C   C303      1.0  0.46174  0.85840  0.50415  1.0000
  Fe  Fe40      1.0  0.19533  0.71822  0.57698  1.0000
  H   H506      1.0  0.27616  0.69558  0.71592  1.0000
  Fe  Fe41      1.0  0.43635  0.95405  0.65056  1.0000
  H   H507      1.0  0.26966  0.60669  0.64939  1.0000
  Fe  Fe42      1.0  0.41769  0.69527  0.55084  1.0000
  C   C304      1.0  0.44811  0.83161  0.54330  1.0000
  H   H508      1.0  0.50996  0.62162  0.49753  1.0000
  S   S83       1.0  0.27147  0.85732  0.51524  1.0000
  H   H509      1.0  0.39317  0.00524  0.55058  1.0000
  H   H510      1.0  0.52809  0.86330  0.65196  1.0000
  S   S84       1.0  0.18196  0.92618  0.73710  1.0000
  H   H511      1.0  0.27540  0.77126  0.50085  1.0000
  H   H512      1.0  0.30424  0.96161  0.55350  1.0000
  Fe  Fe43      1.0  0.44058  0.66919  0.63769  1.0000
  C   C305      1.0  0.54979  0.85137  0.53616  1.0000
  H   H513      1.0  0.35220  0.73375  0.49328  1.0000
  H   H514      1.0  0.32933  0.83262  0.72550  1.0000
  H   H515      1.0  0.28340  0.73398  0.50472  1.0000
  C   C306      1.0  0.48969  0.61029  0.71869  1.0000
  H   H516      1.0  0.24584  0.92134  0.51252  1.0000
  H   H517      1.0  0.22007  0.95449  0.53676  1.0000
  C   C307      1.0  0.17827  0.88191  0.73118  1.0000
  H   H518      1.0  0.21319  0.06438  0.61845  1.0000
  C   C308      1.0  0.19972  0.84451  0.69506  1.0000
  H   H519      1.0  0.54913  0.02995  0.52522  1.0000
  H   H520      1.0  0.47509  0.07401  0.53760  1.0000
  C   C309      1.0  0.59302  0.70247  0.72505  1.0000
  C   C310      1.0  0.33608  0.81624  0.56024  1.0000
  H   H521      1.0  0.31164  0.86066  0.70396  1.0000
  C   C311      1.0  0.46922  0.61792  0.68843  1.0000
  C   C312      1.0  0.36716  0.92644  0.58007  1.0000
  S   S85       1.0  0.20948  0.67364  0.56929  1.0000
  H   H522      1.0  0.35433  0.84829  0.55279  1.0000
  C   C313      1.0  0.57334  0.07788  0.72942  1.0000
  H   H523      1.0  0.33130  0.69605  0.58741  1.0000
  H   H524      1.0  0.28769  0.80953  0.69170  1.0000
  H   H525      1.0  0.21585  0.61873  0.49287  1.0000
  C   C314      1.0  0.27688  0.69361  0.67781  1.0000
  S   S86       1.0  0.51836  0.94121  0.63417  1.0000
  S   S87       1.0  0.42727  0.89592  0.63783  1.0000
  C   C315      1.0  0.59484  0.00771  0.49975  1.0000
  H   H526      1.0  0.56836  0.63017  0.69337  1.0000
  H   H527      1.0  0.41831  0.02542  0.49426  1.0000
  H   H528      1.0  0.33255  0.96644  0.50181  1.0000
  C   C316      1.0  0.57203  0.75665  0.68513  1.0000
  C   C317      1.0  0.27733  0.68543  0.57990  1.0000
  N   N16       1.0  0.58062  0.85194  0.50860  1.0000
  H   H529      1.0  0.17410  0.92414  0.51512  1.0000
  H   H530      1.0  0.59521  0.82640  0.56407  1.0000
  H   H531      1.0  0.39104  0.07702  0.50378  1.0000
  C   C318      1.0  0.52197  0.85459  0.61480  1.0000
  S   S88       1.0  0.57257  0.05804  0.63678  1.0000
  C   C319      1.0  0.20088  0.95320  0.51042  1.0000
  Fe  Fe44      1.0  0.47146  0.91361  0.68999  1.0000
  H   H532      1.0  0.25314  0.09010  0.65420  1.0000
  C   C320      1.0  0.24773  0.68947  0.65141  1.0000
  H   H533      1.0  0.34035  0.00929  0.52946  1.0000
  Fe  Fe45      1.0  0.37258  0.67541  0.64296  1.0000
  H   H534      1.0  0.55532  0.79156  0.53416  1.0000
  H   H535      1.0  0.51311  0.63410  0.73514  1.0000
  H   H536      1.0  0.15908  0.06944  0.63567  1.0000
  H   H537      1.0  0.54687  0.66745  0.55943  1.0000
  H   H538      1.0  0.14118  0.96422  0.66144  1.0000
  C   C321      1.0  0.55704  0.86233  0.58872  1.0000
  H   H539      1.0  0.56673  0.99044  0.51833  1.0000
  H   H540      1.0  0.39640  0.93871  0.57241  1.0000
  H   H541      1.0  0.21877  0.90361  0.67233  1.0000
  H   H542      1.0  0.43346  0.00376  0.53575  1.0000
  C   C322      1.0  0.32611  0.01698  0.63793  1.0000
  H   H543      1.0  0.45723  0.02864  0.69343  1.0000
  H   H544      1.0  0.26162  0.87859  0.60798  1.0000
  H   H545      1.0  0.15510  0.05195  0.69455  1.0000
  H   H546      1.0  0.57866  0.81324  0.68229  1.0000
  H   H547      1.0  0.42808  0.77274  0.56808  1.0000
  C   C323      1.0  0.30728  0.69204  0.60572  1.0000
  C   C324      1.0  0.55551  0.08432  0.51053  1.0000
  C   C325      1.0  0.20052  0.87904  0.69689  1.0000
  H   H548      1.0  0.36931  0.81281  0.61483  1.0000
  H   H549      1.0  0.43677  0.07973  0.54264  1.0000
  H   H550      1.0  0.55821  0.78426  0.63162  1.0000
  C   C326      1.0  0.11918  0.07834  0.52575  1.0000
  H   H551      1.0  0.21719  0.84229  0.66904  1.0000
  H   H552      1.0  0.30750  0.91930  0.66728  1.0000
  C   C327      1.0  0.30753  0.00067  0.68735  1.0000
  C   C328      1.0  0.31703  0.91532  0.63356  1.0000
  H   H553      1.0  0.28355  0.97001  0.68391  1.0000
  C   C329      1.0  0.42132  0.02143  0.53254  1.0000
  Fe  Fe46      1.0  0.22424  0.80386  0.55404  1.0000
  Fe  Fe47      1.0  0.14139  0.74158  0.55156  1.0000
  H   H554      1.0  0.33828  0.00104  0.62433  1.0000
  N   N17       1.0  0.15178  0.10301  0.68759  1.0000
  H   H555      1.0  0.33941  0.82799  0.63478  1.0000
  C   C330      1.0  0.57992  0.79320  0.65787  1.0000
  H   H556      1.0  0.56569  0.84510  0.60798  1.0000
  S   S89       1.0  0.47944  0.98422  0.59081  1.0000
  H   H557      1.0  0.17259  0.98305  0.49793  1.0000
  H   H558      1.0  0.56870  0.68973  0.70217  1.0000
  H   H559      1.0  0.28076  0.99575  0.50623  1.0000
  H   H560      1.0  0.44523  0.84060  0.57796  1.0000
  C   C331      1.0  0.17694  0.81310  0.72757  1.0000
  C   C332      1.0  0.58842  0.63815  0.72174  1.0000
  H   H561      1.0  0.53597  0.91746  0.72873  1.0000
  H   H562      1.0  0.60025  0.93093  0.52257  1.0000
  H   H563      1.0  0.21707  0.60599  0.57804  1.0000
  C   C333      1.0  0.11895  0.95575  0.68933  1.0000
  H   H564      1.0  0.51797  0.10365  0.61182  1.0000
  H   H565      1.0  0.60090  0.98539  0.49217  1.0000
  C   C334      1.0  0.55307  0.04817  0.49315  1.0000
  H   H566      1.0  0.57934  0.10056  0.53387  1.0000
  H   H567      1.0  0.61684  0.65083  0.70582  1.0000
  H   H568      1.0  0.25825  0.61952  0.49034  1.0000
  H   H569      1.0  0.60136  0.63643  0.49064  1.0000
  C   C335      1.0  0.31578  0.95759  0.94013  1.0000
  C   C336      1.0  0.57869  0.10410  0.76438  1.0000
  C   C337      1.0  0.31880  0.66517  0.83213  1.0000
  N   N18       1.0  0.51544  0.61786  0.98481  1.0000
  C   C338      1.0  0.34310  0.83754  0.90076  1.0000
  H   H570      1.0  0.52940  0.84220  0.93696  1.0000
  H   H571      1.0  0.55646  0.69584  0.81155  1.0000
  H   H572      1.0  0.40588  0.62096  0.76724  1.0000
  C   C339      1.0  0.27939  0.82086  0.76418  1.0000
  H   H573      1.0  0.21492  0.65092  0.85731  1.0000
  H   H574      1.0  0.36438  0.63125  0.81751  1.0000
  C   C340      1.0  0.55729  0.88311  0.75055  1.0000
  H   H575      1.0  0.26403  0.94027  0.75715  1.0000
  Fe  Fe48      1.0  0.20154  0.93663  0.91263  1.0000
  H   H576      1.0  0.26885  0.78747  0.90653  1.0000
  H   H577      1.0  0.60149  0.85028  0.88210  1.0000
  H   H578      1.0  0.53456  0.69785  0.76062  1.0000
  H   H579      1.0  0.33983  0.64480  0.88495  1.0000
  C   C341      1.0  0.24097  0.88146  0.81892  1.0000
  H   H580      1.0  0.39746  0.80515  0.88773  1.0000
  H   H581      1.0  0.38612  0.75903  0.79847  1.0000
  C   C342      1.0  0.39578  0.69624  0.80401  1.0000
  H   H582      1.0  0.41280  0.99975  0.83935  1.0000
  H   H583      1.0  0.49063  0.04046  0.76639  1.0000
  H   H584      1.0  0.24147  0.04749  0.93060  1.0000
  H   H585      1.0  0.27970  0.82697  0.86714  1.0000
  C   C343      1.0  0.25812  0.71443  0.98130  1.0000
  H   H586      1.0  0.16935  0.63502  0.97313  1.0000
  H   H587      1.0  0.43344  0.76120  0.85410  1.0000
  C   C344      1.0  0.30412  0.00797  0.79350  1.0000
  C   C345      1.0  0.60029  0.87179  0.97436  1.0000
  H   H588      1.0  0.60417  0.82175  0.95972  1.0000
  C   C346      1.0  0.54830  0.84658  0.76839  1.0000
  C   C347      1.0  0.21689  0.77234  0.83773  1.0000
  C   C348      1.0  0.56031  0.99767  0.96637  1.0000
  H   H589      1.0  0.29566  0.84420  0.78920  1.0000
  H   H590      1.0  0.53788  0.97103  0.98609  1.0000
  H   H591      1.0  0.50969  0.88471  0.90155  1.0000
  C   C349      1.0  0.40290  0.74237  0.86343  1.0000
  C   C350      1.0  0.57930  0.89851  0.91201  1.0000
  C   C351      1.0  0.27835  0.79907  0.86912  1.0000
  C   C352      1.0  0.55249  0.74594  0.80625  1.0000
  H   H592      1.0  0.13066  0.07402  0.84274  1.0000
  H   H593      1.0  0.58608  0.90717  0.74445  1.0000
  H   H594      1.0  0.57750  0.76891  0.82388  1.0000
  H   H595      1.0  0.24211  0.10155  0.89248  1.0000
  C   C353      1.0  0.39335  0.97040  0.82530  1.0000
  S   S90       1.0  0.57389  0.60645  0.85779  1.0000
  H   H596      1.0  0.35499  0.06235  0.81489  1.0000
  H   H597      1.0  0.39947  0.65750  0.88064  1.0000
  H   H598      1.0  0.29723  0.05598  0.85114  1.0000
  H   H599      1.0  0.14475  0.75212  0.91844  1.0000
  H   H600      1.0  0.57988  0.67720  0.92726  1.0000
  C   C354      1.0  0.54262  0.85908  0.90276  1.0000
  H   H601      1.0  0.17218  0.79499  0.87897  1.0000
  H   H602      1.0  0.12432  0.66168  0.89969  1.0000
  H   H603      1.0  0.58900  0.68960  0.98838  1.0000
  H   H604      1.0  0.61240  0.05159  0.98423  1.0000
  C   C355      1.0  0.38336  0.65427  0.79014  1.0000
  C   C356      1.0  0.52014  0.72605  0.84330  1.0000
  H   H605      1.0  0.47399  0.06912  0.86370  1.0000
  C   C357      1.0  0.15481  0.85008  0.76287  1.0000
  H   H606      1.0  0.38061  0.91619  0.96595  1.0000
  C   C358      1.0  0.13452  0.09417  0.81291  1.0000
  H   H607      1.0  0.60739  0.79221  0.74111  1.0000
  C   C359      1.0  0.58879  0.66758  0.75405  1.0000
  H   H608      1.0  0.56426  0.97678  0.78548  1.0000
  H   H609      1.0  0.35414  0.74447  0.84973  1.0000
  H   H610      1.0  0.18683  0.83416  0.97226  1.0000
  C   C360      1.0  0.54158  0.99122  0.84454  1.0000
  H   H611      1.0  0.39942  0.74624  0.90145  1.0000
  H   H612      1.0  0.26975  0.62153  0.87580  1.0000
  S   S91       1.0  0.15771  0.94280  0.94761  1.0000
  H   H613      1.0  0.36710  0.64707  0.75774  1.0000
  H   H614      1.0  0.17319  0.63219  0.82559  1.0000
  C   C361      1.0  0.34714  0.67394  0.87082  1.0000
  H   H615      1.0  0.26568  0.72848  0.84811  1.0000
  C   C362      1.0  0.27788  0.92101  0.82047  1.0000
  H   H616      1.0  0.45783  0.69225  0.95335  1.0000
  H   H617      1.0  0.38905  0.81553  0.82852  1.0000
  C   C363      1.0  0.15491  0.81610  0.76201  1.0000
  C   C364      1.0  0.50424  0.02628  0.89119  1.0000
  C   C365      1.0  0.58243  0.82706  0.97037  1.0000
  H   H618      1.0  0.51689  0.93854  0.80413  1.0000
  H   H619      1.0  0.13595  0.85126  0.78749  1.0000
  H   H620      1.0  0.52969  0.04667  0.86825  1.0000
  H   H621      1.0  0.49427  0.70359  0.82660  1.0000
  H   H622      1.0  0.15186  0.00674  0.97729  1.0000
  N   N19       1.0  0.59517  0.73389  0.75408  1.0000
  H   H623      1.0  0.42597  0.71735  0.79383  1.0000
  H   H624      1.0  0.45462  0.04969  0.77533  1.0000
  C   C366      1.0  0.19217  0.66254  0.98537  1.0000
  C   C367      1.0  0.49169  0.85861  0.75179  1.0000
  H   H625      1.0  0.51738  0.06799  0.94758  1.0000
  C   C368      1.0  0.43811  0.95101  0.93784  1.0000
  H   H626      1.0  0.27831  0.00046  0.77580  1.0000
  H   H627      1.0  0.48166  0.01070  0.86587  1.0000
  C   C369      1.0  0.38391  0.76009  0.83755  1.0000
  H   H628      1.0  0.13710  0.79186  0.78716  1.0000
  H   H629      1.0  0.43976  0.70599  0.87152  1.0000
  H   H630      1.0  0.54722  0.84124  0.87848  1.0000
  H   H631      1.0  0.33976  0.06266  0.91698  1.0000
  S   S92       1.0  0.21555  0.98085  0.85332  1.0000
  C   C370      1.0  0.51457  0.86554  0.88021  1.0000
  H   H632      1.0  0.34033  0.06656  0.75706  1.0000
  H   H633      1.0  0.52486  0.87922  0.84405  1.0000
  C   C371      1.0  0.29596  0.00205  0.93014  1.0000
  H   H634      1.0  0.39113  0.99033  0.75523  1.0000
  H   H635      1.0  0.21118  0.77467  0.91537  1.0000
  H   H636      1.0  0.24191  0.86436  0.78986  1.0000
  H   H637      1.0  0.33184  0.82516  0.82774  1.0000
  H   H638      1.0  0.25460  0.82111  0.75535  1.0000
  C   C372      1.0  0.33046  0.05325  0.79357  1.0000
  C   C373      1.0  0.16343  0.09807  0.77639  1.0000
  H   H639      1.0  0.56093  0.81394  0.94377  1.0000
  H   H640      1.0  0.43330  0.92613  0.91707  1.0000
  H   H641      1.0  0.57236  0.98881  0.93825  1.0000
  C   C374      1.0  0.45899  0.62328  0.88118  1.0000
  C   C375      1.0  0.36180  0.02702  0.92435  1.0000
  H   H642      1.0  0.37435  0.02498  0.80187  1.0000
  H   H643      1.0  0.15572  0.06848  0.76757  1.0000
  C   C376      1.0  0.37121  0.97290  0.78560  1.0000
  C   C377      1.0  0.50615  0.62857  0.93791  1.0000
  S   S93       1.0  0.58363  0.83935  0.77970  1.0000
  H   H644      1.0  0.18723  0.69859  0.81302  1.0000
  C   C378      1.0  0.24060  0.72981  0.85041  1.0000
  H   H645      1.0  0.27425  0.93721  0.84823  1.0000
  C   C379      1.0  0.58570  0.66860  0.96179  1.0000
  H   H646      1.0  0.22525  0.80296  0.83041  1.0000
  Fe  Fe49      1.0  0.11807  0.89499  0.90146  1.0000
  H   H647      1.0  0.28598  0.08054  0.95522  1.0000
  C   C380      1.0  0.35171  0.99336  0.80174  1.0000
  H   H648      1.0  0.52627  0.71235  0.87282  1.0000
  H   H649      1.0  0.21834  0.88598  0.81306  1.0000
  H   H650      1.0  0.56839  0.04299  0.91914  1.0000
  S   S94       1.0  0.17023  0.03857  0.87963  1.0000
  C   C381      1.0  0.41628  0.65075  0.77930  1.0000
  H   H651      1.0  0.30899  0.92814  0.94636  1.0000
  C   C382      1.0  0.51103  0.81588  0.77736  1.0000
  C   C383      1.0  0.16931  0.09299  0.93104  1.0000
  H   H652      1.0  0.33237  0.82298  0.93667  1.0000
  H   H653      1.0  0.57094  0.91183  0.93894  1.0000
  H   H654      1.0  0.61635  0.96671  0.96176  1.0000
  C   C384      1.0  0.15516  0.03480  0.97581  1.0000
  H   H655      1.0  0.31960  0.78332  0.86542  1.0000
  H   H656      1.0  0.29002  0.77554  0.78133  1.0000
  H   H657      1.0  0.56281  0.65184  0.77689  1.0000
  H   H658      1.0  0.43211  0.82054  0.83981  1.0000
  C   C385      1.0  0.16495  0.05659  0.93265  1.0000
  H   H659      1.0  0.37408  0.95006  0.85470  1.0000
  C   C386      1.0  0.40945  0.69424  0.93885  1.0000
  S   S95       1.0  0.24077  0.92488  0.94753  1.0000
  C   C387      1.0  0.28725  0.96416  0.93865  1.0000
  H   H660      1.0  0.28869  0.06748  0.79258  1.0000
  H   H661      1.0  0.51589  0.74822  0.85800  1.0000
  H   H662      1.0  0.18158  0.72646  0.89323  1.0000
  S   S96       1.0  0.16094  0.88616  0.87109  1.0000
  H   H663      1.0  0.56943  0.01210  0.85810  1.0000
  H   H664      1.0  0.31650  0.64288  0.80845  1.0000
  H   H665      1.0  0.23152  0.72324  0.88862  1.0000
  H   H666      1.0  0.24524  0.07965  0.97560  1.0000
  C   C388      1.0  0.25987  0.07716  0.94430  1.0000
  C   C389      1.0  0.28000  0.64893  0.85414  1.0000
  H   H667      1.0  0.48125  0.95167  0.97430  1.0000
  H   H668      1.0  0.46841  0.03449  0.94001  1.0000
  H   H669      1.0  0.54325  0.03792  0.97243  1.0000
  H   H670      1.0  0.24545  0.75843  0.76073  1.0000
  C   C390      1.0  0.49617  0.05232  0.92094  1.0000
  C   C391      1.0  0.55403  0.62592  0.97835  1.0000
  H   H671      1.0  0.54518  0.75995  0.77877  1.0000
  H   H672      1.0  0.46347  0.65182  0.88916  1.0000
  C   C392      1.0  0.48147  0.06002  0.75593  1.0000
  C   C393      1.0  0.47821  0.97402  0.95602  1.0000
  H   H673      1.0  0.41364  0.64525  0.96016  1.0000
  C   C394      1.0  0.31887  0.80988  0.86274  1.0000
  H   H674      1.0  0.45387  0.79810  0.77498  1.0000
  N   N20       1.0  0.32036  0.98693  0.77213  1.0000
  H   H675      1.0  0.35134  0.94282  0.77409  1.0000
  H   H676      1.0  0.23465  0.86482  0.85341  1.0000
  H   H677      1.0  0.48381  0.95344  0.86716  1.0000
  N   N21       1.0  0.61119  0.89630  0.92842  1.0000
  H   H678      1.0  0.50285  0.09012  0.76637  1.0000
  H   H679      1.0  0.28809  0.63305  0.96323  1.0000
  H   H680      1.0  0.42567  0.72580  0.94606  1.0000
  H   H681      1.0  0.19796  0.75607  0.80899  1.0000
  H   H682      1.0  0.29477  0.99765  0.83106  1.0000
  C   C395      1.0  0.16158  0.76347  0.88433  1.0000
  H   H683      1.0  0.37220  0.84575  0.89533  1.0000
  H   H684      1.0  0.38205  0.70569  0.77982  1.0000
  C   C396      1.0  0.35310  0.98904  0.93280  1.0000
  C   C397      1.0  0.28953  0.94394  0.77163  1.0000
  H   H685      1.0  0.37517  0.98398  0.93347  1.0000
  H   H686      1.0  0.52036  0.62396  0.90770  1.0000
  S   S97       1.0  0.12531  0.93542  0.84114  1.0000
  H   H687      1.0  0.22348  0.69486  0.78710  1.0000
  H   H688      1.0  0.43515  0.67249  0.75065  1.0000
  C   C398      1.0  0.48272  0.82189  0.76882  1.0000
  C   C399      1.0  0.26660  0.77961  0.78497  1.0000
  C   C400      1.0  0.55881  0.71628  0.78278  1.0000
  C   C401      1.0  0.31044  0.07062  0.81593  1.0000
  H   H689      1.0  0.58829  0.91793  0.87913  1.0000
  Fe  Fe50      1.0  0.17154  0.93050  0.81407  1.0000
  H   H690      1.0  0.57611  0.09537  0.80149  1.0000
  H   H691      1.0  0.50403  0.78751  0.79060  1.0000
  H   H692      1.0  0.14334  0.74709  0.85497  1.0000
  H   H693      1.0  0.32677  0.69122  0.80928  1.0000
  H   H694      1.0  0.55548  0.94808  0.83938  1.0000
  C   C402      1.0  0.19319  0.65609  0.84802  1.0000
  H   H695      1.0  0.34176  0.98463  0.83941  1.0000
  C   C403      1.0  0.54452  0.96163  0.81679  1.0000
  H   H696      1.0  0.43214  0.65533  0.81135  1.0000
  H   H697      1.0  0.29933  0.91576  0.83151  1.0000
  C   C404      1.0  0.21053  0.69570  0.82126  1.0000
  N   N22       1.0  0.25069  0.77024  0.83540  1.0000
  H   H698      1.0  0.40983  0.95913  0.81131  1.0000
  H   H699      1.0  0.53513  0.00748  0.81900  1.0000
  H   H700      1.0  0.26066  0.64222  0.82523  1.0000
  C   C405      1.0  0.40179  0.80291  0.84929  1.0000
  N   N23       1.0  0.38803  0.69999  0.85535  1.0000
  Fe  Fe51      1.0  0.16836  0.98300  0.88461  1.0000
  C   C406      1.0  0.61431  0.61380  0.82973  1.0000
  H   H701      1.0  0.23331  0.66388  0.93891  1.0000
  C   C407      1.0  0.42806  0.67706  0.96551  1.0000
  C   C408      1.0  0.40996  0.68883  0.88465  1.0000
  C   C409      1.0  0.51062  0.97073  0.88507  1.0000
  H   H702      1.0  0.48767  0.83692  0.87767  1.0000
  S   S98       1.0  0.45632  0.86671  0.74574  1.0000
  C   C410      1.0  0.19377  0.75806  0.88561  1.0000
  H   H703      1.0  0.28028  0.67085  0.87669  1.0000
  S   S99       1.0  0.30279  0.73511  0.95400  1.0000
  C   C411      1.0  0.49649  0.08329  0.88919  1.0000
  H   H704      1.0  0.17792  0.65479  0.88104  1.0000
  H   H705      1.0  0.51717  0.66036  0.93533  1.0000
  H   H706      1.0  0.47824  0.62718  0.85125  1.0000
  N   N24       1.0  0.50950  0.99787  0.91899  1.0000
  H   H707      1.0  0.51324  0.94851  0.90465  1.0000
  S   S100      1.0  0.40819  0.06589  0.91297  1.0000
  H   H708      1.0  0.34343  0.86478  0.89882  1.0000
  H   H709      1.0  0.43284  0.96968  0.91510  1.0000
  H   H710      1.0  0.27395  0.00717  0.92910  1.0000
  H   H711      1.0  0.34097  0.68646  0.90144  1.0000
  C   C412      1.0  0.33325  0.03352  0.92361  1.0000
  C   C413      1.0  0.54558  0.02104  0.94398  1.0000
  H   H712      1.0  0.38046  0.68000  0.95391  1.0000
  C   C414      1.0  0.22835  0.67892  0.96586  1.0000
  H   H713      1.0  0.29702  0.92838  0.74697  1.0000
  C   C415      1.0  0.40908  0.93419  0.97942  1.0000
  H   H714      1.0  0.47969  0.99301  0.98455  1.0000
  H   H715      1.0  0.61215  0.67802  0.77741  1.0000
  H   H716      1.0  0.49179  0.10226  0.91141  1.0000
  H   H717      1.0  0.33099  0.10211  0.82141  1.0000
  H   H718      1.0  0.52376  0.10226  0.86915  1.0000
  C   C416      1.0  0.52894  0.88906  0.74194  1.0000
  H   H719      1.0  0.15870  0.62809  0.74209  1.0000
  H   H720      1.0  0.28464  0.10511  0.87650  1.0000
  H   H721      1.0  0.57999  0.61100  0.74280  1.0000
  H   H722      1.0  0.55388  0.60569  0.95274  1.0000
  H   H723      1.0  0.52594  0.67680  0.23066  1.0000
  C   C417      1.0  0.31769  0.62680  0.18513  1.0000
  H   H724      1.0  0.48829  0.06727  0.11768  1.0000
  H   H725      1.0  0.44703  0.89417  0.19393  1.0000
  H   H726      1.0  0.40330  0.67848  0.19628  1.0000
  S   S101      1.0  0.39279  0.69685  0.10228  1.0000
  C   C418      1.0  0.39270  0.94988  0.17316  1.0000
  H   H727      1.0  0.35114  0.93014  0.22921  1.0000
  H   H728      1.0  0.31579  0.64052  0.08804  1.0000
  H   H729      1.0  0.20613  0.85670  0.02717  1.0000
  H   H730      1.0  0.45581  0.89858  0.07034  1.0000
  H   H731      1.0  0.40254  0.88925  0.10347  1.0000
  C   C419      1.0  0.36185  0.87000  0.16143  1.0000
  S   S102      1.0  0.15839  0.71354  0.17011  1.0000
  H   H732      1.0  0.56269  0.61928  0.01170  1.0000
  H   H733      1.0  0.26900  0.03691  0.07005  1.0000
  C   C420      1.0  0.50090  0.74785  0.13331  1.0000
  H   H734      1.0  0.47107  0.74839  0.07327  1.0000
  C   C421      1.0  0.16545  0.08958  0.21572  1.0000
  N   N25       1.0  0.52454  0.06800  0.20756  1.0000
  H   H735      1.0  0.30832  0.06991  0.17325  1.0000
  H   H736      1.0  0.20390  0.07957  0.12455  1.0000
  C   C422      1.0  0.27367  0.98874  0.18295  1.0000
  H   H737      1.0  0.48392  0.94317  0.13657  1.0000
  C   C423      1.0  0.37636  0.08885  0.18593  1.0000
  H   H738      1.0  0.44761  0.07097  0.05593  1.0000
  H   H739      1.0  0.35706  0.06019  0.20528  1.0000
  C   C424      1.0  0.51381  0.06681  0.11641  1.0000
  C   C425      1.0  0.30972  0.99974  0.06473  1.0000
  C   C426      1.0  0.56158  0.95159  0.08951  1.0000
  Fe  Fe52      1.0  0.36758  0.80356  0.10022  1.0000
  H   H740      1.0  0.18613  0.02841  0.12791  1.0000
  H   H741      1.0  0.54524  0.63271  0.15671  1.0000
  C   C427      1.0  0.27063  0.85917  0.07601  1.0000
  H   H742      1.0  0.38181  0.04900  0.05558  1.0000
  H   H743      1.0  0.53800  0.09751  0.11168  1.0000
  C   C428      1.0  0.38861  0.02977  0.07408  1.0000
  H   H744      1.0  0.40450  0.10178  0.19997  1.0000
  S   S103      1.0  0.42118  0.80701  0.10237  1.0000
  H   H745      1.0  0.36727  0.96924  0.08958  1.0000
  C   C429      1.0  0.44053  0.87905  0.22943  1.0000
  H   H746      1.0  0.26721  0.61747  0.09458  1.0000
  C   C430      1.0  0.14896  0.04918  0.01709  1.0000
  H   H747      1.0  0.32358  0.86029  0.21926  1.0000
  H   H748      1.0  0.23624  0.00507  0.02748  1.0000
  H   H749      1.0  0.29269  0.93126  0.03237  1.0000
  C   C431      1.0  0.13953  0.62199  0.22196  1.0000
  H   H750      1.0  0.34654  0.61077  0.10723  1.0000
  H   H751      1.0  0.47980  0.07680  0.20315  1.0000
  Fe  Fe53      1.0  0.42900  0.82722  0.02580  1.0000
  C   C432      1.0  0.34690  0.88173  0.19613  1.0000
  S   S104      1.0  0.48690  0.87503  0.99939  1.0000
  H   H752      1.0  0.28571  0.72749  0.18978  1.0000
  H   H753      1.0  0.27774  0.00823  0.15238  1.0000
  S   S105      1.0  0.13927  0.65955  0.04350  1.0000
  C   C433      1.0  0.49770  0.73405  0.18029  1.0000
  S   S106      1.0  0.37738  0.82815  0.02547  1.0000
  Fe  Fe54      1.0  0.58139  0.74842  0.17070  1.0000
  H   H754      1.0  0.22569  0.05759  0.19359  1.0000
  H   H755      1.0  0.57850  0.02670  0.03326  1.0000
  C   C434      1.0  0.47784  0.63407  0.04189  1.0000
  C   C435      1.0  0.15261  0.08532  0.01505  1.0000
  S   S107      1.0  0.34393  0.81995  0.15906  1.0000
  H   H756      1.0  0.12630  0.06840  0.16152  1.0000
  H   H757      1.0  0.24366  0.85006  0.09428  1.0000
  C   C436      1.0  0.16036  0.91677  0.08333  1.0000
  S   S108      1.0  0.55663  0.98273  0.17215  1.0000
  H   H758      1.0  0.59101  0.96591  0.09520  1.0000
  Fe  Fe55      1.0  0.12657  0.68419  0.10593  1.0000
  H   H759      1.0  0.46496  0.64122  0.01364  1.0000
  H   H760      1.0  0.25096  0.87509  0.17687  1.0000
  S   S109      1.0  0.40043  0.76668  0.99908  1.0000
  H   H761      1.0  0.53295  0.67442  0.01131  1.0000
  H   H762      1.0  0.42312  0.03458  0.01284  1.0000
  H   H763      1.0  0.12462  0.81515  0.00013  1.0000
  H   H764      1.0  0.30446  0.90065  0.12709  1.0000
  H   H765      1.0  0.14136  0.03239  0.05050  1.0000
  H   H766      1.0  0.26768  0.64309  0.01248  1.0000
  Fe  Fe56      1.0  0.34785  0.76543  0.00583  1.0000
  C   C437      1.0  0.25159  0.73340  0.01697  1.0000
  H   H767      1.0  0.27986  0.94263  0.20141  1.0000
  C   C438      1.0  0.12622  0.07395  0.19967  1.0000
  H   H768      1.0  0.23607  0.74550  0.20363  1.0000
  H   H769      1.0  0.32767  0.90739  0.07037  1.0000
  C   C439      1.0  0.47946  0.85195  0.20857  1.0000
  H   H770      1.0  0.48601  0.01828  0.16662  1.0000
  S   S110      1.0  0.60409  0.65340  0.08628  1.0000
  C   C440      1.0  0.26820  0.98408  0.05843  1.0000
  H   H771      1.0  0.18188  0.91882  0.05851  1.0000
  H   H772      1.0  0.26308  0.91889  0.08254  1.0000
  H   H773      1.0  0.15746  0.86723  0.00293  1.0000
  H   H774      1.0  0.35762  0.97895  0.03197  1.0000
  H   H775      1.0  0.25252  0.68660  0.12194  1.0000
  H   H776      1.0  0.41121  0.95818  0.99961  1.0000
  C   C441      1.0  0.14860  0.83827  0.01923  1.0000
  S   S111      1.0  0.41209  0.99915  0.18497  1.0000
  H   H777      1.0  0.24804  0.67804  0.20795  1.0000
  C   C442      1.0  0.50112  0.93835  0.11316  1.0000
  H   H778      1.0  0.25052  0.97017  0.09120  1.0000
  H   H779      1.0  0.50008  0.69078  0.07232  1.0000
  H   H780      1.0  0.27452  0.76091  0.02910  1.0000
  H   H781      1.0  0.16171  0.96464  0.04528  1.0000
  C   C443      1.0  0.35761  0.98564  0.06998  1.0000
  H   H782      1.0  0.58484  0.81543  0.04547  1.0000
  H   H783      1.0  0.57553  0.07011  0.21306  1.0000
  H   H784      1.0  0.22345  0.06083  0.08495  1.0000
  H   H785      1.0  0.20639  0.69695  0.22872  1.0000
  H   H786      1.0  0.60448  0.00742  0.01161  1.0000
  Fe  Fe57      1.0  0.60999  0.70659  0.11525  1.0000
  C   C444      1.0  0.31831  0.97433  0.14085  1.0000
  H   H787      1.0  0.52818  0.76727  0.11593  1.0000
  C   C445      1.0  0.23600  0.72193  0.22440  1.0000
  H   H788      1.0  0.37802  0.08445  0.14751  1.0000
  C   C446      1.0  0.52253  0.83516  0.17958  1.0000
  H   H789      1.0  0.59023  0.89622  0.09105  1.0000
  H   H790      1.0  0.56279  0.92261  0.02747  1.0000
  H   H791      1.0  0.11988  0.88546  0.03019  1.0000
  H   H792      1.0  0.54868  0.89660  0.15367  1.0000
  H   H793      1.0  0.25568  0.93471  0.14956  1.0000
  N   N26       1.0  0.50396  0.83812  0.22390  1.0000
  H   H794      1.0  0.58096  0.87572  0.99661  1.0000
  C   C447      1.0  0.40689  0.93848  0.13663  1.0000
  H   H795      1.0  0.53079  0.64147  0.05450  1.0000
  H   H796      1.0  0.24470  0.97456  0.19801  1.0000
  S   S112      1.0  0.14347  0.10284  0.06580  1.0000
  C   C448      1.0  0.26439  0.01726  0.04092  1.0000
  C   C449      1.0  0.48227  0.65919  0.08350  1.0000
  H   H797      1.0  0.32425  0.65317  0.16391  1.0000
  C   C450      1.0  0.53903  0.95651  0.12097  1.0000
  H   H798      1.0  0.12898  0.80486  0.08541  1.0000
  H   H799      1.0  0.32280  0.00910  0.02804  1.0000
  H   H800      1.0  0.54079  0.80724  0.02879  1.0000
  C   C451      1.0  0.20331  0.82950  0.21811  1.0000
  H   H801      1.0  0.31771  0.66666  0.00647  1.0000
  C   C452      1.0  0.56604  0.09037  0.21343  1.0000
  C   C453      1.0  0.48520  0.91324  0.07580  1.0000
  C   C454      1.0  0.51346  0.04583  0.07231  1.0000
  N   N27       1.0  0.31861  0.97228  0.08751  1.0000
  H   H802      1.0  0.51085  0.06038  0.04038  1.0000
  C   C455      1.0  0.18062  0.83289  0.01098  1.0000
  C   C456      1.0  0.24033  0.06505  0.15808  1.0000
  C   C457      1.0  0.13808  0.83486  0.07301  1.0000
  H   H803      1.0  0.32238  0.02719  0.08439  1.0000
  H   H804      1.0  0.43408  0.02127  0.06868  1.0000
  H   H805      1.0  0.24927  0.04492  0.15140  1.0000
  C   C458      1.0  0.18539  0.68145  0.02067  1.0000
  H   H806      1.0  0.16657  0.91204  0.11966  1.0000
  C   C459      1.0  0.54567  0.92698  0.05147  1.0000
  H   H807      1.0  0.55262  0.77288  0.01391  1.0000
  H   H808      1.0  0.48975  0.01460  0.07496  1.0000
  Fe  Fe58      1.0  0.13504  0.75026  0.16296  1.0000
  H   H809      1.0  0.43024  0.96041  0.11386  1.0000
  H   H810      1.0  0.29310  0.00632  0.21070  1.0000
  C   C460      1.0  0.59075  0.02243  0.00085  1.0000
  S   S113      1.0  0.33472  0.74091  0.08057  1.0000
  H   H811      1.0  0.49950  0.98629  0.22080  1.0000
  H   H812      1.0  0.28512  0.03507  0.01141  1.0000
  H   H813      1.0  0.17315  0.80410  0.02648  1.0000
  C   C461      1.0  0.46871  0.73748  0.10940  1.0000
  C   C462      1.0  0.24129  0.70081  0.14267  1.0000
  C   C463      1.0  0.24027  0.86133  0.21176  1.0000
  Fe  Fe59      1.0  0.38931  0.74652  0.07551  1.0000
  H   H814      1.0  0.53337  0.03563  0.15552  1.0000
  C   C464      1.0  0.28896  0.61203  0.08400  1.0000
  H   H815      1.0  0.27803  0.83838  0.08793  1.0000
  H   H816      1.0  0.17598  0.61414  0.17761  1.0000
  C   C465      1.0  0.29252  0.93101  0.07176  1.0000
  H   H817      1.0  0.12957  0.85685  0.15664  1.0000
  H   H818      1.0  0.34242  0.62508  0.18353  1.0000
  H   H819      1.0  0.53383  0.81697  0.18665  1.0000
  C   C466      1.0  0.43344  0.71220  0.13204  1.0000
  H   H820      1.0  0.39300  0.03745  0.11176  1.0000
  C   C467      1.0  0.56574  0.86820  0.10660  1.0000
  H   H821      1.0  0.49486  0.65328  0.11361  1.0000
  H   H822      1.0  0.58052  0.88646  0.17722  1.0000
  C   C468      1.0  0.51448  0.04566  0.16250  1.0000
  C   C469      1.0  0.51609  0.64297  0.02349  1.0000
  H   H823      1.0  0.21036  0.68194  0.14293  1.0000
  C   C470      1.0  0.51047  0.09452  0.20776  1.0000
  H   H824      1.0  0.25126  0.72965  0.12479  1.0000
  S   S114      1.0  0.17483  0.81516  0.16913  1.0000
  S   S115      1.0  0.53739  0.75002  0.21258  1.0000
  C   C471      1.0  0.30139  0.90072  0.08829  1.0000
  H   H825      1.0  0.20998  0.73191  0.06348  1.0000
  H   H826      1.0  0.54207  0.85786  0.08309  1.0000
  C   C472      1.0  0.43041  0.69793  0.17861  1.0000
  H   H827      1.0  0.25669  0.96160  0.03166  1.0000
  H   H828      1.0  0.33048  0.95898  0.15655  1.0000
  H   H829      1.0  0.17141  0.06652  0.21473  1.0000
  H   H830      1.0  0.41321  0.91534  0.00379  1.0000
  H   H831      1.0  0.14345  0.95534  0.10594  1.0000
  H   H832      1.0  0.54000  0.04752  0.06817  1.0000
  C   C473      1.0  0.32625  0.10206  0.16953  1.0000
  H   H833      1.0  0.42663  0.68102  0.00415  1.0000
  H   H834      1.0  0.41425  0.84962  0.22796  1.0000
  C   C474      1.0  0.55539  0.87433  0.15614  1.0000
  S   S116      1.0  0.60254  0.71143  0.19272  1.0000
  H   H835      1.0  0.28930  0.79400  0.23868  1.0000
  C   C475      1.0  0.56407  0.80443  0.01765  1.0000
  H   H836      1.0  0.49083  0.87100  0.17547  1.0000
  C   C476      1.0  0.28007  0.95743  0.16796  1.0000
  C   C477      1.0  0.42560  0.03959  0.05146  1.0000
  C   C478      1.0  0.50734  0.90719  0.04530  1.0000
  C   C479      1.0  0.21511  0.71704  0.03641  1.0000
  H   H837      1.0  0.26735  0.85739  0.03708  1.0000
  H   H838      1.0  0.16403  0.85464  0.09174  1.0000
  C   C480      1.0  0.16466  0.95630  0.08171  1.0000
  C   C481      1.0  0.21186  0.05814  0.12157  1.0000
  H   H839      1.0  0.57296  0.84616  0.10865  1.0000
  H   H840      1.0  0.50128  0.81924  0.15255  1.0000
  H   H841      1.0  0.45453  0.65234  0.09604  1.0000
  H   H842      1.0  0.33775  0.00494  0.15126  1.0000
  C   C482      1.0  0.29024  0.63907  0.00152  1.0000
  H   H843      1.0  0.19256  0.97902  0.09373  1.0000
  C   C483      1.0  0.39137  0.89833  0.13082  1.0000
  S   S117      1.0  0.58339  0.73833  0.09313  1.0000
  H   H844      1.0  0.13312  0.63479  0.19329  1.0000
  H   H845      1.0  0.13326  0.97464  0.18752  1.0000
  C   C484      1.0  0.46247  0.70939  0.20296  1.0000
  H   H846      1.0  0.45983  0.77714  0.21843  1.0000
  C   C485      1.0  0.25503  0.70679  0.19299  1.0000
  H   H847      1.0  0.45195  0.82662  0.19818  1.0000
  C   C486      1.0  0.36246  0.92141  0.20196  1.0000
  C   C487      1.0  0.12001  0.95150  0.21507  1.0000
  Fe  Fe60      1.0  0.61633  0.00677  0.18535  1.0000
  C   C488      1.0  0.57271  0.60974  0.11916  1.0000
  C   C489      1.0  0.16381  0.61031  0.21302  1.0000
  C   C490      1.0  0.54669  0.60753  0.15194  1.0000
  C   C491      1.0  0.12088  0.88323  0.06938  1.0000
  H   H848      1.0  0.26212  0.04336  0.23290  1.0000
  C   C492      1.0  0.31098  0.63276  0.23656  1.0000
  H   H849      1.0  0.12116  0.09741  0.20368  1.0000
  H   H850      1.0  0.28715  0.63604  0.23943  1.0000
  H   H851      1.0  0.45985  0.69889  0.23935  1.0000
  H   H852      1.0  0.53252  0.90991  0.37046  1.0000
  H   H853      1.0  0.29398  0.70094  0.26058  1.0000
  C   C493      1.0  0.12408  0.61748  0.26773  1.0000
  H   H854      1.0  0.27120  0.97678  0.39291  1.0000
  H   H855      1.0  0.16254  0.74488  0.33262  1.0000
  Fe  Fe61      1.0  0.39146  0.99675  0.26011  1.0000
  C   C494      1.0  0.53698  0.80628  0.44567  1.0000
  S   S118      1.0  0.41687  0.04547  0.31056  1.0000
  H   H856      1.0  0.39060  0.87270  0.48454  1.0000
  C   C495      1.0  0.56126  0.99653  0.42721  1.0000
  C   C496      1.0  0.36841  0.07133  0.43538  1.0000
  C   C497      1.0  0.50379  0.69179  0.45399  1.0000
  H   H857      1.0  0.13885  0.69538  0.35580  1.0000
  H   H858      1.0  0.30151  0.63693  0.41996  1.0000
  H   H859      1.0  0.50339  0.09893  0.28483  1.0000
  H   H860      1.0  0.39723  0.85486  0.43059  1.0000
  C   C498      1.0  0.32488  0.09066  0.42902  1.0000
  H   H861      1.0  0.60667  0.91257  0.28647  1.0000
  C   C499      1.0  0.25012  0.85760  0.29541  1.0000
  H   H862      1.0  0.43430  0.79620  0.28282  1.0000
  H   H863      1.0  0.50624  0.93068  0.38588  1.0000
  H   H864      1.0  0.54039  0.01542  0.25458  1.0000
  C   C500      1.0  0.21712  0.95962  0.45873  1.0000
  H   H865      1.0  0.59592  0.85269  0.43455  1.0000
  H   H866      1.0  0.52244  0.70764  0.48314  1.0000
  H   H867      1.0  0.54470  0.66808  0.40442  1.0000
  H   H868      1.0  0.38381  0.06035  0.41969  1.0000
  H   H869      1.0  0.26482  0.97775  0.30225  1.0000
  H   H870      1.0  0.38127  0.79577  0.44727  1.0000
  H   H871      1.0  0.34541  0.77782  0.40732  1.0000
  H   H872      1.0  0.58304  0.72643  0.28344  1.0000
  H   H873      1.0  0.45779  0.79911  0.41908  1.0000
  C   C501      1.0  0.60785  0.76327  0.36563  1.0000
  H   H874      1.0  0.18796  0.88177  0.48658  1.0000
  S   S119      1.0  0.33312  0.97913  0.27843  1.0000
  C   C502      1.0  0.53659  0.66830  0.30352  1.0000
  C   C503      1.0  0.30886  0.79635  0.30863  1.0000
  C   C504      1.0  0.19706  0.89149  0.44867  1.0000
  H   H875      1.0  0.29174  0.89988  0.24480  1.0000
  H   H876      1.0  0.27434  0.67023  0.36511  1.0000
  Fe  Fe62      1.0  0.20081  0.08295  0.35600  1.0000
  H   H877      1.0  0.55352  0.80795  0.37180  1.0000
  H   H878      1.0  0.45624  0.74062  0.31921  1.0000
  H   H879      1.0  0.30612  0.66816  0.32448  1.0000
  C   C505      1.0  0.55958  0.85359  0.27408  1.0000
  H   H880      1.0  0.30523  0.06641  0.26168  1.0000
  C   C506      1.0  0.48977  0.97723  0.29591  1.0000
  C   C507      1.0  0.45598  0.79047  0.29070  1.0000
  C   C508      1.0  0.11827  0.92802  0.29586  1.0000
  H   H881      1.0  0.59079  0.77580  0.36236  1.0000
  C   C509      1.0  0.33022  0.10157  0.47642  1.0000
  S   S120      1.0  0.14963  0.03599  0.32255  1.0000
  H   H882      1.0  0.52782  0.03176  0.47214  1.0000
  H   H883      1.0  0.29855  0.81522  0.31686  1.0000
  C   C510      1.0  0.16680  0.72217  0.34607  1.0000
  C   C511      1.0  0.60765  0.70303  0.35535  1.0000
  C   C512      1.0  0.18626  0.71303  0.30769  1.0000
  C   C513      1.0  0.29742  0.61165  0.40100  1.0000
  C   C514      1.0  0.22776  0.74710  0.29755  1.0000
  H   H884      1.0  0.51960  0.86768  0.29027  1.0000
  H   H885      1.0  0.41300  0.61657  0.46040  1.0000
  C   C515      1.0  0.45487  0.80795  0.45377  1.0000
  C   C516      1.0  0.22081  0.94150  0.35627  1.0000
  H   H886      1.0  0.30192  0.77624  0.33976  1.0000
  H   H887      1.0  0.51465  0.05358  0.28332  1.0000
  C   C517      1.0  0.28003  0.06677  0.25690  1.0000
  H   H888      1.0  0.16079  0.78687  0.26872  1.0000
  C   C518      1.0  0.58853  0.05967  0.46256  1.0000
  S   S121      1.0  0.45813  0.01537  0.40897  1.0000
  C   C519      1.0  0.57156  0.84686  0.45703  1.0000
  N   N28       1.0  0.59405  0.02700  0.45398  1.0000
  C   C520      1.0  0.24730  0.94553  0.39520  1.0000
  H   H889      1.0  0.54463  0.95547  0.34163  1.0000
  Fe  Fe63      1.0  0.16793  0.04910  0.45574  1.0000
  C   C521      1.0  0.35050  0.77581  0.44538  1.0000
  S   S122      1.0  0.13563  0.93604  0.35307  1.0000
  H   H890      1.0  0.36293  0.80508  0.29317  1.0000
  S   S123      1.0  0.16880  0.09397  0.40843  1.0000
  H   H891      1.0  0.58950  0.96803  0.40132  1.0000
  H   H892      1.0  0.57289  0.71059  0.43562  1.0000
  C   C522      1.0  0.33787  0.82683  0.45453  1.0000
  H   H893      1.0  0.59978  0.80250  0.46270  1.0000
  H   H894      1.0  0.25964  0.92883  0.38513  1.0000
  H   H895      1.0  0.25391  0.02841  0.32014  1.0000
  H   H896      1.0  0.47347  0.80967  0.31885  1.0000
  H   H897      1.0  0.55900  0.01030  0.39399  1.0000
  H   H898      1.0  0.61519  0.69353  0.42998  1.0000
  C   C523      1.0  0.48933  0.09365  0.42402  1.0000
  H   H899      1.0  0.54733  0.72610  0.31506  1.0000
  C   C524      1.0  0.28053  0.66835  0.32718  1.0000
  C   C525      1.0  0.55746  0.70020  0.40247  1.0000
  C   C526      1.0  0.49380  0.06550  0.40389  1.0000
  N   N29       1.0  0.58408  0.71960  0.35950  1.0000
  H   H900      1.0  0.37731  0.88934  0.38284  1.0000
  H   H901      1.0  0.26444  0.76611  0.41902  1.0000
  H   H902      1.0  0.49349  0.67447  0.27528  1.0000
  H   H903      1.0  0.21422  0.96387  0.36014  1.0000
  C   C527      1.0  0.52786  0.07722  0.38108  1.0000
  H   H904      1.0  0.49652  0.78445  0.25239  1.0000
  C   C528      1.0  0.53447  0.93769  0.37569  1.0000
  H   H905      1.0  0.17080  0.70760  0.27492  1.0000
  H   H906      1.0  0.46307  0.08467  0.44189  1.0000
  S   S124      1.0  0.20444  0.04148  0.40554  1.0000
  C   C529      1.0  0.20366  0.86143  0.42659  1.0000
  C   C530      1.0  0.28673  0.70336  0.29761  1.0000
  H   H907      1.0  0.47445  0.02548  0.24973  1.0000
  N   N30       1.0  0.23007  0.93358  0.44508  1.0000
  C   C531      1.0  0.25158  0.70478  0.30140  1.0000
  H   H908      1.0  0.35764  0.69567  0.43469  1.0000
  C   C532      1.0  0.17210  0.81936  0.44134  1.0000
  C   C533      1.0  0.56324  0.71209  0.31470  1.0000
  H   H909      1.0  0.19462  0.95502  0.43565  1.0000
  H   H910      1.0  0.43598  0.89613  0.25525  1.0000
  S   S125      1.0  0.38871  0.95277  0.31210  1.0000
  H   H911      1.0  0.54002  0.78205  0.45592  1.0000
  H   H912      1.0  0.31121  0.73003  0.31139  1.0000
  C   C534      1.0  0.37922  0.86231  0.44928  1.0000
  H   H913      1.0  0.18294  0.73192  0.37861  1.0000
  C   C535      1.0  0.23876  0.94802  0.30664  1.0000
  C   C536      1.0  0.34394  0.07541  0.40848  1.0000
  H   H914      1.0  0.50481  0.69014  0.37827  1.0000
  C   C537      1.0  0.21299  0.82552  0.30207  1.0000
  H   H915      1.0  0.24008  0.99110  0.45206  1.0000
  C   C538      1.0  0.56158  0.96012  0.41433  1.0000
  H   H916      1.0  0.31582  0.62263  0.36815  1.0000
  H   H917      1.0  0.19431  0.91218  0.35809  1.0000
  Fe  Fe64      1.0  0.41021  0.00031  0.36381  1.0000
  H   H918      1.0  0.30488  0.60753  0.25997  1.0000
  Fe  Fe65      1.0  0.35804  0.02329  0.33428  1.0000
  C   C539      1.0  0.60700  0.61792  0.47080  1.0000
  H   H919      1.0  0.27491  0.07939  0.33022  1.0000
  H   H920      1.0  0.55292  0.93993  0.44625  1.0000
  S   S126      1.0  0.35250  0.98040  0.39019  1.0000
  H   H921      1.0  0.21912  0.94530  0.27993  1.0000
  H   H922      1.0  0.49470  0.95345  0.29724  1.0000
  H   H923      1.0  0.52452  0.82679  0.38172  1.0000
  H   H924      1.0  0.17243  0.88837  0.43220  1.0000
  C   C540      1.0  0.43585  0.74805  0.31030  1.0000
  H   H925      1.0  0.22818  0.77088  0.27691  1.0000
  H   H926      1.0  0.18340  0.68554  0.31962  1.0000
  C   C541      1.0  0.51020  0.66261  0.26478  1.0000
  C   C542      1.0  0.35130  0.82265  0.30166  1.0000
  C   C543      1.0  0.53284  0.86531  0.25756  1.0000
  C   C544      1.0  0.29041  0.77335  0.26384  1.0000
  H   H927      1.0  0.45939  0.96365  0.29405  1.0000
  H   H928      1.0  0.55323  0.65688  0.29076  1.0000
  H   H929      1.0  0.24511  0.92569  0.30027  1.0000
  H   H930      1.0  0.20517  0.86462  0.38729  1.0000
  H   H931      1.0  0.36350  0.83790  0.33464  1.0000
  C   C545      1.0  0.52514  0.70642  0.40581  1.0000
  H   H932      1.0  0.51906  0.65006  0.33506  1.0000
  H   H933      1.0  0.25699  0.64041  0.31397  1.0000
  H   H934      1.0  0.53171  0.05560  0.36641  1.0000
  H   H935      1.0  0.41686  0.72753  0.28391  1.0000
  H   H936      1.0  0.30638  0.99647  0.45470  1.0000
  H   H937      1.0  0.47417  0.86648  0.42882  1.0000
  H   H938      1.0  0.34580  0.71693  0.38732  1.0000
  H   H939      1.0  0.17716  0.79858  0.42414  1.0000
  Fe  Fe66      1.0  0.33124  0.93717  0.33269  1.0000
  H   H940      1.0  0.24723  0.70745  0.33964  1.0000
  N   N31       1.0  0.33124  0.78946  0.47653  1.0000
  H   H941      1.0  0.53583  0.73776  0.40049  1.0000
  H   H942      1.0  0.57520  0.88780  0.33765  1.0000
  H   H943      1.0  0.60665  0.87424  0.31877  1.0000
  H   H944      1.0  0.41908  0.74398  0.34307  1.0000
  Fe  Fe67      1.0  0.15029  0.99490  0.37551  1.0000
  S   S127      1.0  0.33697  0.06120  0.34947  1.0000
  H   H945      1.0  0.35952  0.84505  0.27253  1.0000
  C   C546      1.0  0.29111  0.97970  0.48800  1.0000
  H   H946      1.0  0.36350  0.90399  0.43420  1.0000
  H   H947      1.0  0.22721  0.67531  0.29288  1.0000
  H   H948      1.0  0.54378  0.82506  0.29441  1.0000
  H   H949      1.0  0.58966  0.67068  0.35267  1.0000
  C   C547      1.0  0.47965  0.79675  0.24507  1.0000
  C   C548      1.0  0.50510  0.03876  0.24937  1.0000
  H   H950      1.0  0.30975  0.76734  0.24581  1.0000
  H   H951      1.0  0.50419  0.77486  0.38637  1.0000
  H   H952      1.0  0.28510  0.73890  0.40861  1.0000
  C   C549      1.0  0.26348  0.87528  0.25016  1.0000
  C   C550      1.0  0.46438  0.84618  0.45930  1.0000
  H   H953      1.0  0.30586  0.09392  0.40849  1.0000
  S   S128      1.0  0.27960  0.87539  0.34358  1.0000
  H   H954      1.0  0.58741  0.07269  0.42803  1.0000
  H   H955      1.0  0.46508  0.86176  0.28067  1.0000
  C   C551      1.0  0.52952  0.80402  0.39300  1.0000
  H   H956      1.0  0.41200  0.92291  0.42196  1.0000
  N   N32       1.0  0.25200  0.73639  0.27206  1.0000
  H   H957      1.0  0.20239  0.81212  0.33727  1.0000
  C   C552      1.0  0.13551  0.95773  0.25979  1.0000
  H   H958      1.0  0.23586  0.68143  0.45219  1.0000
  C   C553      1.0  0.61322  0.61195  0.26598  1.0000
  H   H959      1.0  0.33625  0.65974  0.24865  1.0000
  C   C554      1.0  0.18957  0.81124  0.26338  1.0000
  Fe  Fe68      1.0  0.11776  0.04412  0.37913  1.0000
  C   C555      1.0  0.51056  0.00444  0.25216  1.0000
  H   H960      1.0  0.23130  0.05205  0.30079  1.0000
  H   H961      1.0  0.32652  0.82159  0.41855  1.0000
  H   H962      1.0  0.48095  0.69678  0.45504  1.0000
  H   H963      1.0  0.21500  0.69759  0.41138  1.0000
  C   C556      1.0  0.25873  0.05609  0.30492  1.0000
  H   H964      1.0  0.14497  0.81329  0.43048  1.0000
  H   H965      1.0  0.23905  0.75925  0.33239  1.0000
  C   C557      1.0  0.58867  0.88389  0.30624  1.0000
  H   H966      1.0  0.31100  0.71154  0.45951  1.0000
  C   C558      1.0  0.38309  0.89660  0.42046  1.0000
  H   H967      1.0  0.23000  0.86557  0.43767  1.0000
  C   C559      1.0  0.23158  0.70514  0.44342  1.0000
  H   H968      1.0  0.51206  0.80076  0.46531  1.0000
  H   H969      1.0  0.49948  0.99338  0.32899  1.0000
  H   H970      1.0  0.53449  0.98461  0.44809  1.0000
  C   C560      1.0  0.34136  0.73426  0.45820  1.0000
  H   H971      1.0  0.56599  0.86893  0.44420  1.0000
  C   C561      1.0  0.35963  0.72251  0.42149  1.0000
  H   H972      1.0  0.49118  0.65992  0.45987  1.0000
  H   H973      1.0  0.16098  0.98538  0.26625  1.0000
  H   H974      1.0  0.32195  0.83621  0.47507  1.0000
  H   H975      1.0  0.38959  0.74591  0.41537  1.0000
  C   C562      1.0  0.26921  0.74425  0.43486  1.0000
  C   C563      1.0  0.37275  0.08105  0.48302  1.0000
  C   C564      1.0  0.28967  0.75939  0.48169  1.0000
  H   H976      1.0  0.21511  0.70636  0.47311  1.0000
  H   H977      1.0  0.27243  0.92304  0.46282  1.0000
  S   S129      1.0  0.43552  0.73526  0.48522  1.0000
  H   H978      1.0  0.61175  0.92801  0.46213  1.0000
  H   H979      1.0  0.57314  0.10329  0.24881  1.0000
  H   H980      1.0  0.17082  0.81422  0.48037  1.0000
  H   H981      1.0  0.55886  0.10395  0.48023  1.0000
  H   H982      1.0  0.57470  0.85076  0.24382  1.0000
  H   H983      1.0  0.49052  0.63106  0.25889  1.0000
  H   H984      1.0  0.33695  0.60738  0.44010  1.0000
  C   C565      1.0  0.25898  0.93740  0.47773  1.0000
  H   H985      1.0  0.43611  0.60716  0.41381  1.0000
  H   H986      1.0  0.16861  0.10009  0.25224  1.0000
  H   H987      1.0  0.61265  0.08421  0.47985  1.0000
  C   C566      1.0  0.47241  0.87551  0.24434  1.0000
  H   H988      1.0  0.49802  0.90557  0.24564  1.0000
  H   H989      1.0  0.54978  0.89576  0.24150  1.0000
  H   H990      1.0  0.79134  0.45750  0.69150  1.0000
  H   H991      1.0  0.09201  0.53026  0.64454  1.0000
  H   H992      1.0  0.88622  0.33596  0.60657  1.0000
  C   C567      1.0  0.01278  0.12235  0.62418  1.0000
  S   S130      1.0  0.63349  0.33421  0.51071  1.0000
  H   H993      1.0  0.02734  0.26053  0.53319  1.0000
  H   H994      1.0  0.98242  0.21834  0.51929  1.0000
  S   S131      1.0  0.10976  0.32914  0.57326  1.0000
  H   H995      1.0  0.75628  0.42530  0.50953  1.0000
  H   H996      1.0  0.96367  0.32684  0.69964  1.0000
  C   C568      1.0  0.82370  0.35548  0.65270  1.0000
  H   H997      1.0  0.99877  0.13696  0.63586  1.0000
  H   H998      1.0  0.98562  0.56174  0.56149  1.0000
  H   H999      1.0  0.74172  0.12223  0.55286  1.0000
  H   H1000     1.0  0.06240  0.45153  0.54777  1.0000
  C   C569      1.0  0.80336  0.54682  0.52112  1.0000
  C   C570      1.0  0.02785  0.38935  0.56761  1.0000
  H   H1001     1.0  0.73994  0.28202  0.58445  1.0000
  C   C571      1.0  0.78586  0.30650  0.53249  1.0000
  S   S132      1.0  0.92536  0.47028  0.68938  1.0000
  H   H1002     1.0  0.00871  0.32082  0.53465  1.0000
  H   H1003     1.0  0.98291  0.57655  0.69256  1.0000
  H   H1004     1.0  0.69451  0.19658  0.64024  1.0000
  C   C572      1.0  0.08693  0.36683  0.72468  1.0000
  H   H1005     1.0  0.07621  0.43784  0.60044  1.0000
  H   H1006     1.0  0.77248  0.59623  0.56183  1.0000
  C   C573      1.0  0.75309  0.30075  0.55269  1.0000
  C   C574      1.0  0.01355  0.12088  0.56947  1.0000
  C   C575      1.0  0.77241  0.45668  0.51829  1.0000
  H   H1007     1.0  0.68214  0.13137  0.63047  1.0000
  C   C576      1.0  0.08300  0.25950  0.69156  1.0000
  H   H1008     1.0  0.81453  0.22585  0.63460  1.0000
  H   H1009     1.0  0.75198  0.11708  0.68960  1.0000
  C   C577      1.0  0.97790  0.29443  0.65150  1.0000
  H   H1010     1.0  0.94978  0.26657  0.65142  1.0000
  H   H1011     1.0  0.09532  0.28245  0.66243  1.0000
  H   H1012     1.0  0.75361  0.19863  0.62712  1.0000
  H   H1013     1.0  0.70438  0.14912  0.70746  1.0000
  S   S133      1.0  0.10800  0.16959  0.52750  1.0000
  H   H1014     1.0  0.03839  0.25632  0.61750  1.0000
  H   H1015     1.0  0.81801  0.32618  0.64542  1.0000
  H   H1016     1.0  0.69006  0.13982  0.56748  1.0000
  H   H1017     1.0  0.86402  0.41567  0.62670  1.0000
  H   H1018     1.0  0.04537  0.21689  0.61504  1.0000
  C   C578      1.0  0.84136  0.58564  0.52218  1.0000
  H   H1019     1.0  0.69610  0.53327  0.59778  1.0000
  C   C579      1.0  0.77277  0.42614  0.70367  1.0000
  H   H1020     1.0  0.67953  0.30403  0.70522  1.0000
  Fe  Fe69      1.0  0.94256  0.43629  0.73117  1.0000
  C   C580      1.0  0.66929  0.59713  0.60914  1.0000
  H   H1021     1.0  0.75508  0.18499  0.56964  1.0000
  C   C581      1.0  0.97931  0.26066  0.56010  1.0000
  C   C582      1.0  0.76733  0.59123  0.60092  1.0000
  H   H1022     1.0  0.02457  0.15121  0.55588  1.0000
  H   H1023     1.0  0.62192  0.58509  0.65519  1.0000
  H   H1024     1.0  0.95479  0.54833  0.61329  1.0000
  H   H1025     1.0  0.85757  0.37895  0.58694  1.0000
  C   C583      1.0  0.69913  0.15414  0.60188  1.0000
  H   H1026     1.0  0.84640  0.39288  0.71286  1.0000
  C   C584      1.0  0.99877  0.25054  0.52297  1.0000
  S   S134      1.0  0.85834  0.23747  0.51484  1.0000
  H   H1027     1.0  0.92915  0.27977  0.58576  1.0000
  H   H1028     1.0  0.84188  0.34784  0.72005  1.0000
  C   C585      1.0  0.81260  0.46897  0.52903  1.0000
  H   H1029     1.0  0.81789  0.42547  0.73203  1.0000
  H   H1030     1.0  0.87591  0.28883  0.59284  1.0000
  C   C586      1.0  0.73433  0.59344  0.61602  1.0000
  H   H1031     1.0  0.95598  0.32238  0.54840  1.0000
  C   C587      1.0  0.01390  0.58788  0.62582  1.0000
  H   H1032     1.0  0.73377  0.49016  0.52710  1.0000
  C   C588      1.0  0.81194  0.43817  0.56152  1.0000
  H   H1033     1.0  0.02903  0.20339  0.70321  1.0000
  H   H1034     1.0  0.76214  0.56238  0.61203  1.0000
  C   C589      1.0  0.65259  0.54142  0.66390  1.0000
  H   H1035     1.0  0.04030  0.36517  0.62743  1.0000
  C   C590      1.0  0.64875  0.28773  0.70469  1.0000
  H   H1036     1.0  0.06435  0.57426  0.68915  1.0000
  H   H1037     1.0  0.02569  0.24509  0.70424  1.0000
  C   C591      1.0  0.85747  0.21558  0.64742  1.0000
  H   H1038     1.0  0.75205  0.34943  0.69251  1.0000
  C   C592      1.0  0.88887  0.50618  0.70491  1.0000
  H   H1039     1.0  0.84085  0.44846  0.57035  1.0000
  H   H1040     1.0  0.08821  0.52175  0.58168  1.0000
  H   H1041     1.0  0.10345  0.39444  0.58635  1.0000
  C   C593      1.0  0.77064  0.36385  0.72241  1.0000
  H   H1042     1.0  0.73120  0.59126  0.65533  1.0000
  H   H1043     1.0  0.10739  0.34039  0.68103  1.0000
  H   H1044     1.0  0.64702  0.49029  0.56244  1.0000
  H   H1045     1.0  0.09619  0.56674  0.60285  1.0000
  H   H1046     1.0  0.00298  0.54895  0.68564  1.0000
  H   H1047     1.0  0.82733  0.49693  0.54742  1.0000
  H   H1048     1.0  0.80704  0.19538  0.68699  1.0000
  H   H1049     1.0  0.06973  0.17469  0.62324  1.0000
  H   H1050     1.0  0.80069  0.14402  0.63346  1.0000
  H   H1051     1.0  0.99995  0.20642  0.63195  1.0000
  H   H1052     1.0  0.63557  0.54581  0.54633  1.0000
  C   C594      1.0  0.79569  0.40825  0.70716  1.0000
  H   H1053     1.0  0.64197  0.30295  0.67807  1.0000
  C   C595      1.0  0.66177  0.51132  0.68008  1.0000
  H   H1054     1.0  0.86859  0.21993  0.61033  1.0000
  C   C596      1.0  0.00324  0.30512  0.56970  1.0000
  C   C597      1.0  0.81636  0.20158  0.64908  1.0000
  N   N33       1.0  0.75132  0.14439  0.62359  1.0000
  H   H1055     1.0  0.93710  0.26105  0.73884  1.0000
  H   H1056     1.0  0.84243  0.60098  0.55457  1.0000
  S   S135      1.0  0.80374  0.28074  0.55604  1.0000
  C   C598      1.0  0.73262  0.15454  0.70863  1.0000
  C   C599      1.0  0.73483  0.11084  0.59053  1.0000
  H   H1057     1.0  0.75954  0.45702  0.55288  1.0000
  H   H1058     1.0  0.71004  0.31174  0.54466  1.0000
  H   H1059     1.0  0.65015  0.47050  0.73914  1.0000
  C   C600      1.0  0.62181  0.48940  0.57362  1.0000
  C   C601      1.0  0.73584  0.12785  0.67346  1.0000
  S   S136      1.0  0.06017  0.43980  0.71038  1.0000
  H   H1060     1.0  0.08547  0.38327  0.69390  1.0000
  H   H1061     1.0  0.78203  0.55390  0.51955  1.0000
  H   H1062     1.0  0.71284  0.22000  0.72709  1.0000
  H   H1063     1.0  0.69235  0.52616  0.68260  1.0000
  H   H1064     1.0  0.63763  0.25745  0.69386  1.0000
  N   N34       1.0  0.79035  0.34393  0.73501  1.0000
  C   C602      1.0  0.87277  0.52091  0.73351  1.0000
  H   H1065     1.0  0.79962  0.41007  0.54361  1.0000
  H   H1066     1.0  0.03104  0.31271  0.58089  1.0000
  H   H1067     1.0  0.70161  0.56808  0.55479  1.0000
  C   C603      1.0  0.01488  0.36140  0.61257  1.0000
  H   H1068     1.0  0.95204  0.25188  0.54620  1.0000
  H   H1069     1.0  0.75984  0.42453  0.73898  1.0000
  C   C604      1.0  0.64368  0.49237  0.72906  1.0000
  C   C605      1.0  0.08437  0.33036  0.70789  1.0000
  C   C606      1.0  0.93317  0.33049  0.61159  1.0000
  H   H1070     1.0  0.86246  0.53710  0.71729  1.0000
  H   H1071     1.0  0.99775  0.28528  0.65482  1.0000
  C   C607      1.0  0.10268  0.54428  0.60835  1.0000
  H   H1072     1.0  0.75284  0.18621  0.70083  1.0000
  C   C608      1.0  0.63063  0.53081  0.58172  1.0000
  H   H1073     1.0  0.00975  0.33813  0.70423  1.0000
  H   H1074     1.0  0.00443  0.37284  0.63943  1.0000
  H   H1075     1.0  0.69397  0.24366  0.69497  1.0000
  H   H1076     1.0  0.66683  0.44360  0.55137  1.0000
  N   N35       1.0  0.66255  0.55681  0.61274  1.0000
  C   C609      1.0  0.73613  0.31742  0.53012  1.0000
  H   H1077     1.0  0.80364  0.17239  0.58262  1.0000
  H   H1078     1.0  0.79830  0.52973  0.55486  1.0000
  C   C610      1.0  0.76576  0.30109  0.72411  1.0000
  H   H1079     1.0  0.03505  0.11547  0.55784  1.0000
  H   H1080     1.0  0.05808  0.31256  0.68930  1.0000
  H   H1081     1.0  0.87403  0.24384  0.66495  1.0000
  S   S137      1.0  0.95575  0.39737  0.69515  1.0000
  C   C611      1.0  0.82695  0.36121  0.70700  1.0000
  C   C612      1.0  0.05225  0.14544  0.64205  1.0000
  C   C613      1.0  0.70082  0.23782  0.73052  1.0000
  H   H1082     1.0  0.88399  0.38783  0.63922  1.0000
  H   H1083     1.0  0.90293  0.33009  0.55038  1.0000
  H   H1084     1.0  0.03531  0.43973  0.60292  1.0000
  C   C614      1.0  0.03042  0.22783  0.63447  1.0000
  H   H1085     1.0  0.06537  0.12895  0.63628  1.0000
  C   C615      1.0  0.95101  0.31161  0.58602  1.0000
  H   H1086     1.0  0.86420  0.58070  0.52292  1.0000
  C   C616      1.0  0.74158  0.17243  0.60567  1.0000
  C   C617      1.0  0.89750  0.32069  0.58865  1.0000
  H   H1087     1.0  0.66030  0.17182  0.59641  1.0000
  C   C618      1.0  0.04019  0.23297  0.68651  1.0000
  H   H1088     1.0  0.00387  0.38523  0.54857  1.0000
  H   H1089     1.0  0.97395  0.24247  0.59290  1.0000
  C   C619      1.0  0.69780  0.56112  0.59373  1.0000
  H   H1090     1.0  0.89031  0.51041  0.66671  1.0000
  H   H1091     1.0  0.75891  0.29807  0.68606  1.0000
  H   H1092     1.0  0.92523  0.31934  0.64891  1.0000
  H   H1093     1.0  0.78102  0.28658  0.72914  1.0000
  H   H1094     1.0  0.04499  0.38431  0.54275  1.0000
  H   H1095     1.0  0.95249  0.36280  0.60935  1.0000
  H   H1096     1.0  0.80054  0.35668  0.63874  1.0000
  C   C620      1.0  0.63517  0.59937  0.61988  1.0000
  C   C621      1.0  0.05191  0.43222  0.58061  1.0000
  H   H1097     1.0  0.89738  0.12029  0.54663  1.0000
  H   H1098     1.0  0.98166  0.52697  0.60585  1.0000
  N   N36       1.0  0.98637  0.31854  0.60551  1.0000
  C   C622      1.0  0.79313  0.16443  0.62045  1.0000
  C   C623      1.0  0.98200  0.55405  0.60016  1.0000
  H   H1099     1.0  0.82961  0.47330  0.49654  1.0000
  H   H1100     1.0  0.65245  0.48763  0.65521  1.0000
  H   H1101     1.0  0.70791  0.20978  0.57802  1.0000
  C   C624      1.0  0.85959  0.38640  0.62477  1.0000
  C   C625      1.0  0.69000  0.18510  0.60418  1.0000
  H   H1102     1.0  0.79547  0.43309  0.59502  1.0000
  H   H1103     1.0  0.96019  0.13247  0.55540  1.0000
  H   H1104     1.0  0.86098  0.19389  0.66648  1.0000
  H   H1105     1.0  0.62245  0.52845  0.67248  1.0000
  H   H1106     1.0  0.04055  0.59299  0.61154  1.0000
  C   C626      1.0  0.00895  0.57893  0.68030  1.0000
  C   C627      1.0  0.90413  0.48718  0.72571  1.0000
  H   H1107     1.0  0.05132  0.14972  0.68061  1.0000
  H   H1108     1.0  0.09398  0.24109  0.68369  1.0000
  H   H1109     1.0  0.69796  0.41583  0.51179  1.0000
  H   H1110     1.0  0.80965  0.41262  0.67181  1.0000
  H   H1111     1.0  0.75066  0.41064  0.67787  1.0000
  H   H1112     1.0  0.66734  0.56582  0.68816  1.0000
  C   C628      1.0  0.98043  0.31411  0.69883  1.0000
  C   C629      1.0  0.66353  0.43863  0.51284  1.0000
  S   S138      1.0  0.63701  0.25696  0.50167  1.0000
  H   H1113     1.0  0.69226  0.24056  0.49339  1.0000
  H   H1114     1.0  0.63688  0.41007  0.50824  1.0000
  N   N37       1.0  0.09528  0.27701  0.73924  1.0000
  C   C630      1.0  0.69605  0.43798  0.49123  1.0000
  H   H1115     1.0  0.70600  0.20656  0.49494  1.0000
  C   C631      1.0  0.07413  0.60494  0.69699  1.0000
  C   C632      1.0  0.80315  0.33122  0.49188  1.0000
  H   H1116     1.0  0.66193  0.46200  0.49480  1.0000
  Fe  Fe70      1.0  0.82962  0.26727  0.49620  1.0000
  C   C633      1.0  0.73308  0.47904  0.49137  1.0000
  H   H1117     1.0  0.84588  0.60499  0.49085  1.0000
  C   C634      1.0  0.00192  0.54896  0.83154  1.0000
  H   H1118     1.0  0.64282  0.27502  0.77973  1.0000
  H   H1119     1.0  0.10213  0.40579  0.84637  1.0000
  S   S139      1.0  0.95855  0.43326  0.90363  1.0000
  H   H1120     1.0  0.07985  0.42834  0.82135  1.0000
  C   C635      1.0  0.79078  0.26594  0.85749  1.0000
  C   C636      1.0  0.11616  0.17187  0.86056  1.0000
  H   H1121     1.0  0.11389  0.38649  0.74138  1.0000
  H   H1122     1.0  0.92272  0.57921  0.89571  1.0000
  Fe  Fe71      1.0  0.03600  0.10594  0.79320  1.0000
  C   C637      1.0  0.01083  0.55490  0.77804  1.0000
  H   H1123     1.0  0.76782  0.15647  0.76354  1.0000
  H   H1124     1.0  0.05374  0.37608  0.83212  1.0000
  H   H1125     1.0  0.08798  0.28030  0.83777  1.0000
  H   H1126     1.0  0.72060  0.11391  0.76872  1.0000
  C   C638      1.0  0.82843  0.38536  0.85921  1.0000
  C   C639      1.0  0.87137  0.51615  0.78297  1.0000
  C   C640      1.0  0.88603  0.49651  0.80383  1.0000
  H   H1127     1.0  0.06250  0.19462  0.85672  1.0000
  C   C641      1.0  0.05930  0.46976  0.95319  1.0000
  H   H1128     1.0  0.98403  0.53535  0.76111  1.0000
  H   H1129     1.0  0.09186  0.59559  0.76572  1.0000
  H   H1130     1.0  0.09527  0.33885  0.87518  1.0000
  S   S140      1.0  0.67323  0.16796  0.83650  1.0000
  H   H1131     1.0  0.79331  0.11860  0.92917  1.0000
  S   S141      1.0  0.09405  0.15393  0.76915  1.0000
  H   H1132     1.0  0.08195  0.22062  0.76725  1.0000
  C   C642      1.0  0.78784  0.15530  0.87795  1.0000
  C   C643      1.0  0.79746  0.34588  0.78731  1.0000
  H   H1133     1.0  0.96298  0.12034  0.91495  1.0000
  H   H1134     1.0  0.71456  0.29237  0.75803  1.0000
  C   C644      1.0  0.78462  0.11654  0.89185  1.0000
  C   C645      1.0  0.91413  0.17280  0.82903  1.0000
  C   C646      1.0  0.78069  0.24301  0.81781  1.0000
  H   H1135     1.0  0.67448  0.22064  0.75282  1.0000
  H   H1136     1.0  0.81121  0.17981  0.89658  1.0000
  C   C647      1.0  0.90279  0.48239  0.77518  1.0000
  S   S142      1.0  0.99308  0.11560  0.82262  1.0000
  H   H1137     1.0  0.83629  0.31250  0.89406  1.0000
  H   H1138     1.0  0.77094  0.32962  0.80931  1.0000
  H   H1139     1.0  0.72955  0.13270  0.86779  1.0000
  H   H1140     1.0  0.02769  0.56682  0.85109  1.0000
  H   H1141     1.0  0.84706  0.37479  0.86224  1.0000
  H   H1142     1.0  0.07525  0.15922  0.96612  1.0000
  H   H1143     1.0  0.80381  0.12703  0.78973  1.0000
  H   H1144     1.0  0.05898  0.53972  0.96270  1.0000
  H   H1145     1.0  0.98189  0.55700  0.84084  1.0000
  Fe  Fe72      1.0  0.92355  0.35410  0.75593  1.0000
  H   H1146     1.0  0.85684  0.14773  0.89424  1.0000
  H   H1147     1.0  0.74247  0.14141  0.92849  1.0000
  N   N38       1.0  0.08469  0.45638  0.96434  1.0000
  H   H1148     1.0  0.64351  0.56469  0.76830  1.0000
  H   H1149     1.0  0.86739  0.13256  0.79013  1.0000
  C   C648      1.0  0.03457  0.51081  0.97638  1.0000
  C   C649      1.0  0.73817  0.14574  0.75944  1.0000
  H   H1150     1.0  0.96021  0.32290  0.97155  1.0000
  H   H1151     1.0  0.80049  0.23276  0.75238  1.0000
  H   H1152     1.0  0.09230  0.14304  0.87162  1.0000
  H   H1153     1.0  0.03838  0.40906  0.89149  1.0000
  C   C650      1.0  0.07581  0.40458  0.84578  1.0000
  C   C651      1.0  0.84657  0.14073  0.85762  1.0000
  C   C652      1.0  0.02865  0.59808  0.76097  1.0000
  S   S143      1.0  0.93596  0.24209  0.97666  1.0000
  H   H1154     1.0  0.97018  0.29982  0.77463  1.0000
  C   C653      1.0  0.95454  0.34494  0.97802  1.0000
  H   H1155     1.0  0.93005  0.15209  0.93546  1.0000
  H   H1156     1.0  0.81585  0.27566  0.96720  1.0000
  C   C654      1.0  0.06008  0.17341  0.97333  1.0000
  C   C655      1.0  0.87451  0.13617  0.82787  1.0000
  H   H1157     1.0  0.01503  0.49702  0.94758  1.0000
  H   H1158     1.0  0.05666  0.29048  0.76853  1.0000
  Fe  Fe73      1.0  0.62915  0.16214  0.96127  1.0000
  H   H1159     1.0  0.02999  0.54576  0.76910  1.0000
  H   H1160     1.0  0.07091  0.23015  0.89974  1.0000
  H   H1161     1.0  0.73274  0.26849  0.78958  1.0000
  S   S144      1.0  0.65072  0.21400  0.91020  1.0000
  H   H1162     1.0  0.91584  0.19853  0.81208  1.0000
  H   H1163     1.0  0.80241  0.36559  0.88137  1.0000
  H   H1164     1.0  0.07154  0.49220  0.92322  1.0000
  H   H1165     1.0  0.10399  0.32641  0.77682  1.0000
  H   H1166     1.0  0.84939  0.16761  0.84258  1.0000
  H   H1167     1.0  0.96898  0.36900  0.90585  1.0000
  C   C656      1.0  0.81969  0.38711  0.80743  1.0000
  H   H1168     1.0  0.73032  0.16053  0.78454  1.0000
  H   H1169     1.0  0.93381  0.16799  0.80932  1.0000
  C   C657      1.0  0.75195  0.15270  0.89131  1.0000
  C   C658      1.0  0.86576  0.27683  0.95352  1.0000
  H   H1170     1.0  0.93710  0.56214  0.97574  1.0000
  C   C659      1.0  0.96706  0.28472  0.74127  1.0000
  H   H1171     1.0  0.98878  0.51764  0.84267  1.0000
  C   C660      1.0  0.64430  0.58913  0.78293  1.0000
  Fe  Fe74      1.0  0.95831  0.41627  0.82878  1.0000
  H   H1172     1.0  0.06371  0.35866  0.75074  1.0000
  H   H1173     1.0  0.79374  0.16304  0.83944  1.0000
  C   C661      1.0  0.80825  0.24902  0.78420  1.0000
  C   C662      1.0  0.92547  0.59525  0.92815  1.0000
  H   H1174     1.0  0.88439  0.27102  0.97285  1.0000
  C   C663      1.0  0.08821  0.25446  0.82803  1.0000
  C   C664      1.0  0.63233  0.28703  0.75363  1.0000
  S   S145      1.0  0.97327  0.37596  0.80015  1.0000
  H   H1175     1.0  0.03938  0.16544  0.94582  1.0000
  S   S146      1.0  0.90648  0.39146  0.78841  1.0000
  H   H1176     1.0  0.75165  0.36012  0.75269  1.0000
  S   S147      1.0  0.99326  0.46418  0.77354  1.0000
  H   H1177     1.0  0.04603  0.59407  0.93243  1.0000
  C   C665      1.0  0.07667  0.24350  0.77634  1.0000
  H   H1178     1.0  0.06942  0.50693  0.75746  1.0000
  S   S148      1.0  0.03523  0.27467  0.93165  1.0000
  C   C666      1.0  0.07550  0.31814  0.94749  1.0000
  C   C667      1.0  0.91795  0.12186  0.94680  1.0000
  C   C668      1.0  0.95961  0.37114  0.94079  1.0000
  C   C669      1.0  0.08493  0.30576  0.75041  1.0000
  H   H1179     1.0  0.98502  0.58262  0.91634  1.0000
  H   H1180     1.0  0.92290  0.17934  0.86606  1.0000
  H   H1181     1.0  0.10631  0.47107  0.89096  1.0000
  H   H1182     1.0  0.91520  0.46841  0.79149  1.0000
  C   C670      1.0  0.09372  0.50624  0.76219  1.0000
  H   H1183     1.0  0.98377  0.27172  0.74302  1.0000
  S   S149      1.0  0.87994  0.29067  0.74566  1.0000
  H   H1184     1.0  0.64346  0.31777  0.76188  1.0000
  H   H1185     1.0  0.81225  0.33136  0.79540  1.0000
  H   H1186     1.0  0.69843  0.60469  0.87365  1.0000
  S   S150      1.0  0.67934  0.16014  0.95030  1.0000
  H   H1187     1.0  0.80310  0.40025  0.80653  1.0000
  C   C671      1.0  0.85580  0.29938  0.83132  1.0000
  H   H1188     1.0  0.85733  0.25996  0.92088  1.0000
  H   H1189     1.0  0.03283  0.44546  0.93945  1.0000
  H   H1190     1.0  0.88598  0.49380  0.84207  1.0000
  H   H1191     1.0  0.89731  0.58189  0.94558  1.0000
  H   H1192     1.0  0.75655  0.18203  0.88726  1.0000
  H   H1193     1.0  0.04586  0.22871  0.77708  1.0000
  H   H1194     1.0  0.08051  0.20569  0.97137  1.0000
  C   C672      1.0  0.84579  0.27785  0.79059  1.0000
  C   C673      1.0  0.95236  0.39984  0.94898  1.0000
  C   C674      1.0  0.09534  0.44638  0.91806  1.0000
  Fe  Fe75      1.0  0.69909  0.20877  0.89562  1.0000
  H   H1195     1.0  0.75167  0.22187  0.81217  1.0000
  H   H1196     1.0  0.79158  0.20784  0.96200  1.0000
  S   S151      1.0  0.85799  0.54135  0.81795  1.0000
  S   S152      1.0  0.75734  0.26175  0.89832  1.0000
  C   C675      1.0  0.10034  0.34533  0.91213  1.0000
  C   C676      1.0  0.06367  0.40875  0.89529  1.0000
  N   N39       1.0  0.80631  0.10625  0.85985  1.0000
  H   H1197     1.0  0.84293  0.41517  0.87318  1.0000
  Fe  Fe76      1.0  0.89686  0.60217  0.78706  1.0000
  Fe  Fe77      1.0  0.62325  0.16974  0.85440  1.0000
  C   C677      1.0  0.82833  0.29412  0.86402  1.0000
  C   C678      1.0  0.72811  0.27623  0.75365  1.0000
  H   H1198     1.0  0.88140  0.30854  0.94313  1.0000
  H   H1199     1.0  0.87501  0.11089  0.84158  1.0000
  Fe  Fe78      1.0  0.64903  0.11963  0.89290  1.0000
  H   H1200     1.0  0.84645  0.40653  0.78713  1.0000
  H   H1201     1.0  0.88483  0.32072  0.83738  1.0000
  H   H1202     1.0  0.05576  0.38209  0.91714  1.0000
  C   C679      1.0  0.83169  0.26546  0.98534  1.0000
  H   H1203     1.0  0.03285  0.21304  0.86129  1.0000
  H   H1204     1.0  0.65475  0.51484  0.75617  1.0000
  C   C680      1.0  0.06186  0.22078  0.86339  1.0000
  C   C681      1.0  0.95114  0.59315  0.96239  1.0000
  H   H1205     1.0  0.11650  0.26084  0.83261  1.0000
  H   H1206     1.0  0.00791  0.60539  0.76931  1.0000
  H   H1207     1.0  0.03509  0.40033  0.98829  1.0000
  C   C682      1.0  0.09672  0.47750  0.74116  1.0000
  Fe  Fe79      1.0  0.00436  0.42230  0.74148  1.0000
  H   H1208     1.0  0.98391  0.58303  0.03103  1.0000
  H   H1209     1.0  0.02898  0.14588  0.11796  1.0000
  H   H1210     1.0  0.09078  0.20609  0.21859  1.0000
  C   C683      1.0  0.83636  0.13107  0.16266  1.0000
  H   H1211     1.0  0.04063  0.24008  0.08425  1.0000
  H   H1212     1.0  0.87616  0.24105  0.14137  1.0000
  H   H1213     1.0  0.00282  0.56861  0.10797  1.0000
  H   H1214     1.0  0.97984  0.14214  0.08073  1.0000
  H   H1215     1.0  0.72949  0.20951  0.10129  1.0000
  H   H1216     1.0  0.77337  0.25610  0.03057  1.0000
  H   H1217     1.0  0.93499  0.35948  0.21091  1.0000
  C   C684      1.0  0.79641  0.25031  0.23664  1.0000
  H   H1218     1.0  0.64157  0.12702  0.19406  1.0000
  H   H1219     1.0  0.05687  0.44457  0.06166  1.0000
  H   H1220     1.0  0.06235  0.11094  0.08162  1.0000
  H   H1221     1.0  0.04075  0.32482  0.19995  1.0000
  H   H1222     1.0  0.10719  0.26225  0.08170  1.0000
  H   H1223     1.0  0.07801  0.52958  0.19224  1.0000
  H   H1224     1.0  0.63337  0.46772  0.23430  1.0000
  H   H1225     1.0  0.81097  0.28098  0.22536  1.0000
  C   C685      1.0  0.04188  0.38630  0.07934  1.0000
  C   C686      1.0  0.96494  0.10998  0.07757  1.0000
  H   H1226     1.0  0.83958  0.15849  0.14936  1.0000
  C   C687      1.0  0.94093  0.34659  0.02291  1.0000
  H   H1227     1.0  0.06986  0.50279  0.01891  1.0000
  C   C688      1.0  0.75571  0.22362  0.02876  1.0000
  C   C689      1.0  0.06491  0.41986  0.99707  1.0000
  C   C690      1.0  0.07979  0.21381  0.18974  1.0000
  Fe  Fe80      1.0  0.99113  0.25123  0.99054  1.0000
  H   H1228     1.0  0.95964  0.36208  0.15688  1.0000
  S   S153      1.0  0.93028  0.31166  0.06874  1.0000
  C   C691      1.0  0.84982  0.23934  0.13717  1.0000
  C   C692      1.0  0.93465  0.37593  0.03125  1.0000
  H   H1229     1.0  0.69915  0.17777  0.05720  1.0000
  H   H1230     1.0  0.00640  0.48747  0.20188  1.0000
  C   C693      1.0  0.75141  0.18212  0.22173  1.0000
  Fe  Fe81      1.0  0.91115  0.18387  0.01525  1.0000
  C   C694      1.0  0.80639  0.22045  0.99505  1.0000
  C   C695      1.0  0.99152  0.41217  0.20038  1.0000
  H   H1231     1.0  0.99441  0.55744  0.99066  1.0000
  C   C696      1.0  0.01805  0.56046  0.08394  1.0000
  C   C697      1.0  0.96267  0.36846  0.19512  1.0000
  H   H1232     1.0  0.01846  0.41854  0.18523  1.0000
  C   C698      1.0  0.05189  0.30643  0.19394  1.0000
  H   H1233     1.0  0.05594  0.58478  0.02266  1.0000
  C   C699      1.0  0.76992  0.22182  0.20803  1.0000
  H   H1234     1.0  0.11493  0.49602  0.02042  1.0000
  C   C700      1.0  0.00676  0.58598  0.00787  1.0000
  C   C701      1.0  0.11292  0.36287  0.00758  1.0000
  H   H1235     1.0  0.09434  0.16615  0.13217  1.0000
  H   H1236     1.0  0.79464  0.14936  0.01601  1.0000
  C   C702      1.0  0.83442  0.22355  0.08902  1.0000
  H   H1237     1.0  0.09526  0.43877  0.06273  1.0000
  C   C703      1.0  0.07993  0.13601  0.14835  1.0000
  C   C704      1.0  0.77028  0.13846  0.04093  1.0000
  H   H1238     1.0  0.69606  0.23199  0.02183  1.0000
  H   H1239     1.0  0.77880  0.13883  0.07768  1.0000
  S   S154      1.0  0.96606  0.19123  0.02348  1.0000
  H   H1240     1.0  0.98155  0.53780  0.22554  1.0000
  S   S155      1.0  0.71961  0.14797  0.18314  1.0000
  H   H1241     1.0  0.97179  0.35074  0.21242  1.0000
  H   H1242     1.0  0.82081  0.10690  0.09311  1.0000
  H   H1243     1.0  0.06507  0.30450  0.02259  1.0000
  Fe  Fe82      1.0  0.96727  0.21715  0.09242  1.0000
  H   H1244     1.0  0.07553  0.32193  0.16712  1.0000
  C   C705      1.0  0.01421  0.11506  0.02750  1.0000
  H   H1245     1.0  0.05141  0.36673  0.07152  1.0000
  S   S156      1.0  0.99691  0.27829  0.06065  1.0000
  H   H1246     1.0  0.83598  0.58217  0.20120  1.0000
  C   C706      1.0  0.08912  0.24503  0.11211  1.0000
  H   H1247     1.0  0.02355  0.45951  0.01558  1.0000
  H   H1248     1.0  0.04363  0.39105  0.11799  1.0000
  H   H1249     1.0  0.02415  0.18402  0.22185  1.0000
  C   C707      1.0  0.04224  0.20119  0.19133  1.0000
  C   C708      1.0  0.94072  0.40274  0.99450  1.0000
  H   H1250     1.0  0.10095  0.12855  0.15079  1.0000
  H   H1251     1.0  0.68045  0.22110  0.08348  1.0000
  H   H1252     1.0  0.71121  0.54479  0.22289  1.0000
  H   H1253     1.0  0.83695  0.19123  0.22851  1.0000
  H   H1254     1.0  0.01230  0.37173  0.07017  1.0000
  H   H1255     1.0  0.85603  0.26933  0.14007  1.0000
  H   H1256     1.0  0.90285  0.16423  0.22628  1.0000
  H   H1257     1.0  0.02500  0.17448  0.02715  1.0000
  H   H1258     1.0  0.86379  0.13468  0.15906  1.0000
  H   H1259     1.0  0.64064  0.58980  0.22737  1.0000
  C   C709      1.0  0.04893  0.10739  0.11704  1.0000
  C   C710      1.0  0.04734  0.48496  0.99473  1.0000
  H   H1260     1.0  0.80267  0.24923  0.09107  1.0000
  C   C711      1.0  0.05144  0.23253  0.11365  1.0000
  C   C712      1.0  0.03634  0.59005  0.04159  1.0000
  C   C713      1.0  0.02821  0.21123  0.15376  1.0000
  H   H1261     1.0  0.03998  0.56057  0.10378  1.0000
  C   C714      1.0  0.63176  0.14662  0.18758  1.0000
  H   H1262     1.0  0.87839  0.19823  0.20147  1.0000
  H   H1263     1.0  0.93539  0.42510  0.00102  1.0000
  H   H1264     1.0  0.99814  0.53036  0.07234  1.0000
  H   H1265     1.0  0.70017  0.49597  0.21649  1.0000
  C   C715      1.0  0.70517  0.23304  0.05855  1.0000
  H   H1266     1.0  0.85594  0.24423  0.06192  1.0000
  H   H1267     1.0  0.82488  0.20981  0.99889  1.0000
  H   H1268     1.0  0.92032  0.13391  0.11161  1.0000
  C   C716      1.0  0.10777  0.50280  0.17694  1.0000
  H   H1269     1.0  0.06870  0.13515  0.18454  1.0000
  S   S157      1.0  0.98199  0.19800  0.15842  1.0000
  C   C717      1.0  0.07227  0.49964  0.19421  1.0000
  H   H1270     1.0  0.98256  0.42830  0.17904  1.0000
  C   C718      1.0  0.10343  0.23638  0.15079  1.0000
  H   H1271     1.0  0.64924  0.16775  0.15768  1.0000
  S   S158      1.0  0.91071  0.20623  0.08660  1.0000
  H   H1272     1.0  0.92442  0.37749  0.06597  1.0000
  C   C719      1.0  0.79698  0.21992  0.08344  1.0000
  C   C720      1.0  0.04043  0.16035  0.02250  1.0000
  N   N40       1.0  0.77865  0.20661  0.03668  1.0000
  H   H1273     1.0  0.05074  0.48219  0.16870  1.0000
  Fe  Fe83      1.0  0.94036  0.26560  0.04889  1.0000
  C   C721      1.0  0.08253  0.32643  0.99521  1.0000
  H   H1274     1.0  0.73563  0.15383  0.00538  1.0000
  H   H1275     1.0  0.84153  0.28140  0.01852  1.0000
  H   H1276     1.0  0.82927  0.21990  0.16589  1.0000
  H   H1277     1.0  0.72594  0.26398  0.06667  1.0000
  C   C722      1.0  0.86125  0.18940  0.23533  1.0000
  H   H1278     1.0  0.01987  0.51515  0.00562  1.0000
  H   H1279     1.0  0.79566  0.12220  0.21646  1.0000
  H   H1280     1.0  0.77757  0.19987  0.11294  1.0000
  H   H1281     1.0  0.68319  0.51600  0.17480  1.0000
  H   H1282     1.0  0.73199  0.15144  0.06820  1.0000
  C   C723      1.0  0.72163  0.20849  0.06402  1.0000
  H   H1283     1.0  0.63680  0.53042  0.20326  1.0000
  C   C724      1.0  0.06632  0.42552  0.05135  1.0000
  H   H1284     1.0  0.83119  0.19508  0.08598  1.0000
  H   H1285     1.0  0.76401  0.23071  0.17495  1.0000
  H   H1286     1.0  0.06228  0.17163  0.04889  1.0000
  C   C725      1.0  0.75252  0.16249  0.03734  1.0000
  H   H1287     1.0  0.02977  0.27863  0.17922  1.0000
  H   H1288     1.0  0.02569  0.58267  0.23477  1.0000
  H   H1289     1.0  0.63533  0.16331  0.21958  1.0000
  H   H1290     1.0  0.10243  0.47315  0.17426  1.0000
  C   C726      1.0  0.82106  0.12134  0.21500  1.0000
  H   H1291     1.0  0.08012  0.28495  0.23172  1.0000
  C   C727      1.0  0.68926  0.51483  0.21256  1.0000
  H   H1292     1.0  0.93199  0.12680  0.22860  1.0000
  H   H1293     1.0  0.74534  0.21835  0.99226  1.0000
  C   C728      1.0  0.01226  0.55222  0.22344  1.0000
  H   H1294     1.0  0.92174  0.26825  0.21651  1.0000
  C   C729      1.0  0.01696  0.11401  0.11588  1.0000
  H   H1295     1.0  0.87974  0.26581  0.23407  1.0000
  S   S159      1.0  0.86366  0.12572  0.99305  1.0000
  H   H1296     1.0  0.02186  0.55352  0.18626  1.0000
  H   H1297     1.0  0.07723  0.40246  0.99135  1.0000
  C   C730      1.0  0.97286  0.32343  0.36220  1.0000
  C   C731      1.0  0.08599  0.29648  0.39355  1.0000
  C   C732      1.0  0.00495  0.48730  0.24111  1.0000
  C   C733      1.0  0.65396  0.49795  0.24452  1.0000
  N   N41       1.0  0.02052  0.46569  0.26306  1.0000
  C   C734      1.0  0.04991  0.37555  0.36955  1.0000
  H   H1298     1.0  0.62320  0.56007  0.31228  1.0000
  H   H1299     1.0  0.04775  0.30764  0.43043  1.0000
  C   C735      1.0  0.91128  0.10710  0.25731  1.0000
  H   H1300     1.0  0.66722  0.22770  0.39422  1.0000
  N   N42       1.0  0.71154  0.25536  0.33961  1.0000
  C   C736      1.0  0.79137  0.44885  0.36169  1.0000
  H   H1301     1.0  0.69892  0.22238  0.27628  1.0000
  C   C737      1.0  0.68897  0.18199  0.33522  1.0000
  H   H1302     1.0  0.08054  0.50595  0.26873  1.0000
  C   C738      1.0  0.80244  0.34467  0.31959  1.0000
  H   H1303     1.0  0.97459  0.47169  0.25103  1.0000
  H   H1304     1.0  0.04120  0.43736  0.41870  1.0000
  H   H1305     1.0  0.09798  0.14157  0.36788  1.0000
  H   H1306     1.0  0.01249  0.24970  0.39549  1.0000
  C   C739      1.0  0.82412  0.11862  0.46857  1.0000
  H   H1307     1.0  0.01239  0.45640  0.41469  1.0000
  C   C740      1.0  0.61869  0.39162  0.39024  1.0000
  C   C741      1.0  0.96946  0.21876  0.34696  1.0000
  C   C742      1.0  0.02346  0.53027  0.25545  1.0000
  H   H1308     1.0  0.74364  0.14017  0.27635  1.0000
  H   H1309     1.0  0.82435  0.49225  0.41129  1.0000
  H   H1310     1.0  0.88074  0.60043  0.42772  1.0000
  C   C743      1.0  0.00808  0.25532  0.35836  1.0000
  C   C744      1.0  0.68923  0.21744  0.31444  1.0000
  H   H1311     1.0  0.66135  0.55308  0.25394  1.0000
  C   C745      1.0  0.87709  0.10576  0.43265  1.0000
  C   C746      1.0  0.99167  0.13285  0.46937  1.0000
  Fe  Fe84      1.0  0.73833  0.55061  0.34345  1.0000
  S   S160      1.0  0.96055  0.30419  0.45810  1.0000
  C   C747      1.0  0.71666  0.23722  0.42701  1.0000
  H   H1312     1.0  0.62939  0.55386  0.39829  1.0000
  H   H1313     1.0  0.73068  0.49851  0.46564  1.0000
  H   H1314     1.0  0.82885  0.33635  0.47677  1.0000
  C   C748      1.0  0.78698  0.34911  0.47045  1.0000
  H   H1315     1.0  0.08368  0.31217  0.46559  1.0000
  C   C749      1.0  0.75265  0.34077  0.48831  1.0000
  N   N43       1.0  0.84776  0.14789  0.25111  1.0000
  H   H1316     1.0  0.67487  0.49116  0.38895  1.0000
  H   H1317     1.0  0.07299  0.32599  0.33931  1.0000
  C   C750      1.0  0.69781  0.24963  0.39101  1.0000
  H   H1318     1.0  0.02777  0.13702  0.41086  1.0000
  C   C751      1.0  0.02651  0.35739  0.41047  1.0000
  C   C752      1.0  0.07687  0.19592  0.31621  1.0000
  H   H1319     1.0  0.07957  0.39600  0.37279  1.0000
  H   H1320     1.0  0.82754  0.52638  0.47156  1.0000
  H   H1321     1.0  0.67907  0.33257  0.31486  1.0000
  S   S161      1.0  0.72804  0.49363  0.32202  1.0000
  S   S162      1.0  0.79173  0.22258  0.44547  1.0000
  C   C753      1.0  0.63910  0.38487  0.35735  1.0000
  C   C754      1.0  0.99535  0.42274  0.25315  1.0000
  S   S163      1.0  0.68279  0.59006  0.47120  1.0000
  H   H1322     1.0  0.68096  0.31986  0.25445  1.0000
  H   H1323     1.0  0.98481  0.33369  0.28659  1.0000
  C   C755      1.0  0.76467  0.46395  0.43214  1.0000
  H   H1324     1.0  0.88636  0.56021  0.42231  1.0000
  C   C756      1.0  0.82669  0.13891  0.29840  1.0000
  H   H1325     1.0  0.06644  0.45912  0.25064  1.0000
  C   C757      1.0  0.06504  0.29889  0.24033  1.0000
  C   C758      1.0  0.88856  0.14139  0.45213  1.0000
  C   C759      1.0  0.80052  0.52326  0.47741  1.0000
  H   H1326     1.0  0.63661  0.29946  0.28602  1.0000
  H   H1327     1.0  0.76549  0.41894  0.36100  1.0000
  H   H1328     1.0  0.96764  0.19157  0.35832  1.0000
  H   H1329     1.0  0.00333  0.41274  0.34904  1.0000
  C   C760      1.0  0.79786  0.46295  0.41230  1.0000
  H   H1330     1.0  0.78880  0.46909  0.33773  1.0000
  C   C761      1.0  0.66590  0.30858  0.28971  1.0000
  H   H1331     1.0  0.94308  0.30359  0.35928  1.0000
  H   H1332     1.0  0.94349  0.22390  0.41130  1.0000
  H   H1333     1.0  0.99914  0.15526  0.39676  1.0000
  H   H1334     1.0  0.78922  0.19143  0.32925  1.0000
  H   H1335     1.0  0.68914  0.42844  0.45438  1.0000
  H   H1336     1.0  0.10197  0.25485  0.33607  1.0000
  H   H1337     1.0  0.84551  0.15799  0.32594  1.0000
  H   H1338     1.0  0.00558  0.40590  0.27002  1.0000
  H   H1339     1.0  0.65003  0.26184  0.34182  1.0000
  C   C762      1.0  0.02788  0.44359  0.34684  1.0000
  H   H1340     1.0  0.72064  0.12468  0.40406  1.0000
  H   H1341     1.0  0.09190  0.15218  0.42758  1.0000
  H   H1342     1.0  0.87455  0.59617  0.27123  1.0000
  S   S164      1.0  0.63316  0.30152  0.40733  1.0000
  C   C763      1.0  0.89858  0.59146  0.41191  1.0000
  H   H1343     1.0  0.78241  0.10964  0.37992  1.0000
  C   C764      1.0  0.62324  0.57189  0.41822  1.0000
  H   H1344     1.0  0.91123  0.19043  0.36927  1.0000
  C   C765      1.0  0.66655  0.27351  0.30783  1.0000
  H   H1345     1.0  0.89498  0.15777  0.28890  1.0000
  H   H1346     1.0  0.65285  0.25082  0.28118  1.0000
  C   C766      1.0  0.88133  0.14554  0.25505  1.0000
  H   H1347     1.0  0.72211  0.21601  0.41274  1.0000
  Fe  Fe85      1.0  0.66796  0.31828  0.47030  1.0000
  H   H1348     1.0  0.67962  0.15360  0.26810  1.0000
  H   H1349     1.0  0.74395  0.26322  0.43630  1.0000
  H   H1350     1.0  0.09963  0.30849  0.31866  1.0000
  C   C767      1.0  0.99993  0.13217  0.41652  1.0000
  H   H1351     1.0  0.06179  0.48734  0.39770  1.0000
  H   H1352     1.0  0.75890  0.48026  0.40549  1.0000
  H   H1353     1.0  0.91791  0.16421  0.45232  1.0000
  C   C768      1.0  0.64524  0.59266  0.45582  1.0000
  H   H1354     1.0  0.72087  0.29311  0.27807  1.0000
  H   H1355     1.0  0.91753  0.28504  0.27329  1.0000
  H   H1356     1.0  0.96769  0.13579  0.47312  1.0000
  S   S165      1.0  0.06437  0.38789  0.27327  1.0000
  H   H1357     1.0  0.00057  0.26466  0.48803  1.0000
  H   H1358     1.0  0.91794  0.58648  0.34364  1.0000
  C   C769      1.0  0.63126  0.43002  0.40090  1.0000
  C   C770      1.0  0.86206  0.14816  0.46922  1.0000
  C   C771      1.0  0.03183  0.27270  0.27621  1.0000
  H   H1359     1.0  0.80028  0.36803  0.43884  1.0000
  H   H1360     1.0  0.79852  0.53872  0.44573  1.0000
  H   H1361     1.0  0.01643  0.15936  0.48295  1.0000
  S   S166      1.0  0.75453  0.57292  0.41592  1.0000
  H   H1362     1.0  0.87102  0.17665  0.48162  1.0000
  H   H1363     1.0  0.72106  0.31302  0.33346  1.0000
  S   S167      1.0  0.72984  0.35793  0.45657  1.0000
  C   C772      1.0  0.01929  0.46930  0.31622  1.0000
  C   C773      1.0  0.07743  0.31788  0.42960  1.0000
  H   H1364     1.0  0.74036  0.43302  0.43253  1.0000
  H   H1365     1.0  0.07198  0.18522  0.35389  1.0000
  H   H1366     1.0  0.80055  0.44180  0.43404  1.0000
  C   C774      1.0  0.06037  0.48205  0.24609  1.0000
  H   H1367     1.0  0.01274  0.24503  0.25829  1.0000
  Fe  Fe86      1.0  0.83781  0.25878  0.39020  1.0000
  H   H1368     1.0  0.62106  0.50335  0.33588  1.0000
  N   N44       1.0  0.76844  0.48067  0.48027  1.0000
  H   H1369     1.0  0.10310  0.19983  0.30266  1.0000
  H   H1370     1.0  0.93595  0.24244  0.35749  1.0000
  H   H1371     1.0  0.00621  0.28126  0.35937  1.0000
  H   H1372     1.0  0.66802  0.12176  0.31979  1.0000
  H   H1373     1.0  0.09479  0.34993  0.42089  1.0000
  H   H1374     1.0  0.03839  0.36358  0.44500  1.0000
  H   H1375     1.0  0.66161  0.49624  0.28131  1.0000
  C   C775      1.0  0.75843  0.17089  0.26535  1.0000
  C   C776      1.0  0.78421  0.19977  0.29506  1.0000
  H   H1376     1.0  0.01443  0.53106  0.29241  1.0000
  H   H1377     1.0  0.08439  0.32804  0.25458  1.0000
  H   H1378     1.0  0.96686  0.41028  0.26950  1.0000
  S   S168      1.0  0.69680  0.56675  0.33930  1.0000
  C   C777      1.0  0.90083  0.59685  0.35789  1.0000
  S   S169      1.0  0.87300  0.30658  0.43929  1.0000
  C   C778      1.0  0.88547  0.22178  0.26998  1.0000
  C   C779      1.0  0.80338  0.23947  0.28028  1.0000
  S   S170      1.0  0.83493  0.27674  0.31599  1.0000
  H   H1379     1.0  0.01675  0.28764  0.27895  1.0000
  H   H1380     1.0  0.05427  0.54622  0.25353  1.0000
  C   C780      1.0  0.75240  0.27087  0.33410  1.0000
  H   H1381     1.0  0.90880  0.21994  0.28145  1.0000
  C   C781      1.0  0.98811  0.33066  0.40684  1.0000
  H   H1382     1.0  0.07272  0.26568  0.40675  1.0000
  H   H1383     1.0  0.86816  0.21914  0.30143  1.0000
  C   C782      1.0  0.07508  0.30015  0.34238  1.0000
  H   H1384     1.0  0.66426  0.19388  0.46591  1.0000
  H   H1385     1.0  0.80549  0.14616  0.29524  1.0000
  H   H1386     1.0  0.05373  0.17338  0.29537  1.0000
  C   C783      1.0  0.99644  0.34059  0.32112  1.0000
  H   H1387     1.0  0.67481  0.17297  0.37109  1.0000
  H   H1388     1.0  0.96412  0.21735  0.30869  1.0000
  Fe  Fe87      1.0  0.82244  0.19458  0.46196  1.0000
  H   H1389     1.0  0.03966  0.50019  0.32544  1.0000
  H   H1390     1.0  0.78426  0.34943  0.29758  1.0000
  H   H1391     1.0  0.71752  0.18868  0.33717  1.0000
  H   H1392     1.0  0.76077  0.27326  0.29586  1.0000
  C   C784      1.0  0.68554  0.45470  0.34750  1.0000
  H   H1393     1.0  0.68856  0.41102  0.31111  1.0000
  C   C785      1.0  0.08000  0.23490  0.31217  1.0000
  H   H1394     1.0  0.81518  0.44774  0.34825  1.0000
  C   C786      1.0  0.70698  0.28530  0.31431  1.0000
  C   C787      1.0  0.66713  0.14648  0.30481  1.0000
  C   C788      1.0  0.67260  0.41638  0.33612  1.0000
  C   C789      1.0  0.03502  0.36653  0.32475  1.0000
  H   H1395     1.0  0.75832  0.24992  0.34948  1.0000
  H   H1396     1.0  0.81959  0.33858  0.29616  1.0000
  H   H1397     1.0  0.02060  0.20571  0.30416  1.0000
  C   C790      1.0  0.04218  0.22869  0.32645  1.0000
  H   H1398     1.0  0.65926  0.20688  0.31526  1.0000
  H   H1399     1.0  0.03495  0.21490  0.36288  1.0000
  H   H1400     1.0  0.63752  0.13694  0.30388  1.0000
  H   H1401     1.0  0.05218  0.44447  0.33138  1.0000
  N   N45       1.0  0.04024  0.26432  0.32531  1.0000
  H   H1402     1.0  0.99132  0.46192  0.32906  1.0000
  H   H1403     1.0  0.82152  0.37200  0.33790  1.0000
  C   C791      1.0  0.69307  0.21837  0.47303  1.0000
  C   C792      1.0  0.77940  0.31088  0.35659  1.0000
  H   H1404     1.0  0.70139  0.27682  0.40426  1.0000
  H   H1405     1.0  0.62899  0.35535  0.34805  1.0000
  Fe  Fe88      1.0  0.71737  0.59446  0.40822  1.0000
  C   C793      1.0  0.66474  0.46163  0.37958  1.0000
  H   H1406     1.0  0.87203  0.57785  0.34577  1.0000
  H   H1407     1.0  0.79923  0.30843  0.37830  1.0000
  S   S171      1.0  0.86530  0.22675  0.40210  1.0000
  C   C794      1.0  0.03628  0.45715  0.39756  1.0000
  H   H1408     1.0  0.76453  0.31892  0.38115  1.0000
  Fe  Fe89      1.0  0.89858  0.27282  0.45352  1.0000
  H   H1409     1.0  0.08926  0.24744  0.27557  1.0000
  C   C795      1.0  0.93816  0.21884  0.37306  1.0000
  H   H1410     1.0  0.92305  0.11817  0.29229  1.0000
  C   C796      1.0  0.11150  0.15132  0.40222  1.0000
  H   H1411     1.0  0.11661  0.30990  0.39312  1.0000
  C   C797      1.0  0.90212  0.26263  0.24681  1.0000
  S   S172      1.0  0.79148  0.13026  0.47953  1.0000
  H   H1412     1.0  0.98585  0.60066  0.28344  1.0000
  C   C798      1.0  0.63857  0.52432  0.24146  1.0000
  H   H1413     1.0  0.80342  0.10126  0.71281  1.0000
  C   C799      1.0  0.88332  0.89413  0.57008  1.0000
  H   H1414     1.0  0.70510  0.86077  0.49544  1.0000
  H   H1415     1.0  0.92742  0.83725  0.52693  1.0000
  C   C800      1.0  0.70284  0.84411  0.52727  1.0000
  Fe  Fe90      1.0  0.74170  0.69506  0.69537  1.0000
  C   C801      1.0  0.90540  0.99330  0.69761  1.0000
  H   H1416     1.0  0.95879  0.63515  0.52051  1.0000
  H   H1417     1.0  0.62175  0.64309  0.62284  1.0000
  S   S173      1.0  0.09393  0.72607  0.50551  1.0000
  C   C802      1.0  0.79630  0.96706  0.58236  1.0000
  H   H1418     1.0  0.69051  0.61674  0.63423  1.0000
  C   C803      1.0  0.10448  0.10138  0.52427  1.0000
  H   H1419     1.0  0.99823  0.88164  0.59104  1.0000
  H   H1420     1.0  0.01408  0.74880  0.53367  1.0000
  H   H1421     1.0  0.75439  0.06583  0.72835  1.0000
  H   H1422     1.0  0.67505  0.78616  0.73814  1.0000
  C   C804      1.0  0.96259  0.05034  0.56545  1.0000
  H   H1423     1.0  0.94331  0.09655  0.60269  1.0000
  C   C805      1.0  0.11139  0.84170  0.58089  1.0000
  H   H1424     1.0  0.89590  0.04448  0.55340  1.0000
  H   H1425     1.0  0.78341  0.04975  0.70863  1.0000
  N   N46       1.0  0.97687  0.09182  0.54857  1.0000
  H   H1426     1.0  0.90065  0.95656  0.64233  1.0000
  H   H1427     1.0  0.08482  0.79096  0.53934  1.0000
  H   H1428     1.0  0.80493  0.87516  0.69899  1.0000
  C   C806      1.0  0.88159  0.95864  0.66710  1.0000
  C   C807      1.0  0.91136  0.89658  0.72381  1.0000
  C   C808      1.0  0.79928  0.63925  0.72412  1.0000
  C   C809      1.0  0.98385  0.65499  0.53869  1.0000
  C   C810      1.0  0.78839  0.90733  0.65429  1.0000
  S   S174      1.0  0.71058  0.63537  0.73244  1.0000
  H   H1429     1.0  0.01288  0.05389  0.58802  1.0000
  H   H1430     1.0  0.79283  0.61459  0.61766  1.0000
  H   H1431     1.0  0.81880  0.00124  0.51519  1.0000
  C   C811      1.0  0.64686  0.64200  0.62003  1.0000
  C   C812      1.0  0.78277  0.07181  0.72961  1.0000
  H   H1432     1.0  0.77958  0.99985  0.54132  1.0000
  H   H1433     1.0  0.78503  0.65304  0.71062  1.0000
  S   S175      1.0  0.66951  0.02044  0.68830  1.0000
  C   C813      1.0  0.69640  0.85433  0.57160  1.0000
  H   H1434     1.0  0.87107  0.98690  0.61069  1.0000
  C   C814      1.0  0.00344  0.85017  0.67916  1.0000
  H   H1435     1.0  0.85611  0.04784  0.67079  1.0000
  H   H1436     1.0  0.86168  0.81095  0.51049  1.0000
  H   H1437     1.0  0.91740  0.67930  0.49051  1.0000
  H   H1438     1.0  0.66725  0.96565  0.54109  1.0000
  H   H1439     1.0  0.88302  0.94635  0.56606  1.0000
  H   H1440     1.0  0.01353  0.61415  0.61695  1.0000
  C   C815      1.0  0.99120  0.03865  0.56163  1.0000
  H   H1441     1.0  0.92526  0.71976  0.52402  1.0000
  H   H1442     1.0  0.09798  0.08889  0.71615  1.0000
  C   C816      1.0  0.90998  0.07580  0.54186  1.0000
  H   H1443     1.0  0.03213  0.01138  0.63261  1.0000
  H   H1444     1.0  0.10622  0.86293  0.59645  1.0000
  H   H1445     1.0  0.02395  0.64731  0.69826  1.0000
  H   H1446     1.0  0.93832  0.02913  0.54485  1.0000
  Fe  Fe91      1.0  0.81103  0.75230  0.63136  1.0000
  H   H1447     1.0  0.86407  0.86213  0.56603  1.0000
  S   S176      1.0  0.72385  0.73688  0.69818  1.0000
  H   H1448     1.0  0.06426  0.77747  0.67310  1.0000
  C   C817      1.0  0.08785  0.91239  0.68634  1.0000
  H   H1449     1.0  0.01669  0.79088  0.67378  1.0000
  H   H1450     1.0  0.06069  0.83670  0.66248  1.0000
  H   H1451     1.0  0.99756  0.09260  0.64125  1.0000
  H   H1452     1.0  0.97975  0.81878  0.67940  1.0000
  H   H1453     1.0  0.07682  0.90853  0.65047  1.0000
  H   H1454     1.0  0.00794  0.90663  0.67158  1.0000
  C   C818      1.0  0.89894  0.73787  0.64206  1.0000
  C   C819      1.0  0.79150  0.98223  0.53494  1.0000
  H   H1455     1.0  0.05491  0.79132  0.58465  1.0000
  H   H1456     1.0  0.62136  0.05996  0.54321  1.0000
  C   C820      1.0  0.87344  0.86573  0.72619  1.0000
  C   C821      1.0  0.91047  0.75114  0.72524  1.0000
  H   H1457     1.0  0.10761  0.69002  0.71499  1.0000
  H   H1458     1.0  0.10076  0.89550  0.69071  1.0000
  H   H1459     1.0  0.91799  0.71067  0.68777  1.0000
  H   H1460     1.0  0.08895  0.62250  0.66353  1.0000
  H   H1461     1.0  0.66444  0.65668  0.65051  1.0000
  H   H1462     1.0  0.69734  0.78577  0.64116  1.0000
  H   H1463     1.0  0.95147  0.04443  0.60283  1.0000
  Fe  Fe92      1.0  0.67410  0.96899  0.69688  1.0000
  C   C822      1.0  0.85024  0.03890  0.70803  1.0000
  H   H1464     1.0  0.99098  0.77354  0.53674  1.0000
  C   C823      1.0  0.70579  0.81195  0.52384  1.0000
  H   H1465     1.0  0.91223  0.07809  0.50259  1.0000
  C   C824      1.0  0.94875  0.10094  0.56346  1.0000
  H   H1466     1.0  0.88074  0.80467  0.67568  1.0000
  H   H1467     1.0  0.70709  0.10113  0.67297  1.0000
  C   C825      1.0  0.61766  0.89011  0.51311  1.0000
  S   S177      1.0  0.86127  0.76168  0.59207  1.0000
  C   C826      1.0  0.74704  0.08185  0.59693  1.0000
  H   H1468     1.0  0.09238  0.73260  0.67957  1.0000
  H   H1469     1.0  0.77213  0.95742  0.51297  1.0000
  C   C827      1.0  0.70416  0.79116  0.56490  1.0000
  H   H1470     1.0  0.06106  0.65689  0.65839  1.0000
  H   H1471     1.0  0.62222  0.98894  0.57779  1.0000
  H   H1472     1.0  0.96050  0.88571  0.61100  1.0000
  C   C828      1.0  0.86247  0.91431  0.56535  1.0000
  H   H1473     1.0  0.00521  0.04611  0.52582  1.0000
  C   C829      1.0  0.91064  0.73178  0.68522  1.0000
  H   H1474     1.0  0.76451  0.88118  0.63852  1.0000
  H   H1475     1.0  0.86766  0.93198  0.69086  1.0000
  N   N47       1.0  0.82141  0.92764  0.61896  1.0000
  H   H1476     1.0  0.78649  0.91252  0.55864  1.0000
  H   H1477     1.0  0.77645  0.09587  0.58367  1.0000
  C   C830      1.0  0.05018  0.64806  0.69591  1.0000
  H   H1478     1.0  0.76869  0.95125  0.60174  1.0000
  C   C831      1.0  0.85392  0.96389  0.63917  1.0000
  H   H1479     1.0  0.08810  0.85295  0.50196  1.0000
  C   C832      1.0  0.69871  0.80191  0.60936  1.0000
  H   H1480     1.0  0.63924  0.03410  0.60704  1.0000
  H   H1481     1.0  0.91899  0.02142  0.67645  1.0000
  H   H1482     1.0  0.02183  0.85441  0.64822  1.0000
  C   C833      1.0  0.98287  0.09476  0.49538  1.0000
  C   C834      1.0  0.62383  0.03521  0.53512  1.0000
  S   S178      1.0  0.63360  0.91117  0.66651  1.0000
  H   H1483     1.0  0.81461  0.92026  0.72294  1.0000
  H   H1484     1.0  0.81632  0.99272  0.60259  1.0000
  H   H1485     1.0  0.84340  0.97727  0.66280  1.0000
  C   C835      1.0  0.07926  0.68237  0.72506  1.0000
  H   H1486     1.0  0.95364  0.83827  0.61094  1.0000
  C   C836      1.0  0.08747  0.05727  0.65193  1.0000
  H   H1487     1.0  0.63311  0.05766  0.72186  1.0000
  H   H1488     1.0  0.66297  0.65852  0.58675  1.0000
  H   H1489     1.0  0.73403  0.02621  0.57223  1.0000
  H   H1490     1.0  0.83295  0.95390  0.54756  1.0000
  Fe  Fe93      1.0  0.93845  0.64563  0.69466  1.0000
  H   H1491     1.0  0.88770  0.99323  0.72695  1.0000
  H   H1492     1.0  0.94350  0.69165  0.54338  1.0000
  H   H1493     1.0  0.89644  0.72075  0.61212  1.0000
  H   H1494     1.0  0.79328  0.99235  0.69901  1.0000
  C   C837      1.0  0.05093  0.70071  0.53728  1.0000
  C   C838      1.0  0.00444  0.76400  0.51140  1.0000
  C   C839      1.0  0.04870  0.70604  0.58564  1.0000
  C   C840      1.0  0.80961  0.93917  0.57505  1.0000
  H   H1495     1.0  0.85054  0.90874  0.52985  1.0000
  C   C841      1.0  0.07705  0.80958  0.55659  1.0000
  C   C842      1.0  0.11019  0.07503  0.69667  1.0000
  H   H1496     1.0  0.76231  0.70599  0.51560  1.0000
  S   S179      1.0  0.79877  0.79841  0.63103  1.0000
  Fe  Fe94      1.0  0.68345  0.90960  0.64741  1.0000
  C   C843      1.0  0.72349  0.04540  0.56863  1.0000
  C   C844      1.0  0.97243  0.99464  0.57087  1.0000
  H   H1497     1.0  0.96246  0.86535  0.69187  1.0000
  C   C845      1.0  0.98716  0.87493  0.66781  1.0000
  H   H1498     1.0  0.03324  0.03154  0.68887  1.0000
  C   C846      1.0  0.79464  0.89430  0.70302  1.0000
  H   H1499     1.0  0.80559  0.87203  0.59138  1.0000
  C   C847      1.0  0.88702  0.76323  0.63929  1.0000
  S   S180      1.0  0.70880  0.75173  0.56018  1.0000
  H   H1500     1.0  0.01203  0.69039  0.64779  1.0000
  H   H1501     1.0  0.65245  0.04667  0.52076  1.0000
  H   H1502     1.0  0.72504  0.05364  0.53040  1.0000
  C   C848      1.0  0.90143  0.77886  0.72127  1.0000
  H   H1503     1.0  0.85729  0.07118  0.54174  1.0000
  H   H1504     1.0  0.90615  0.90637  0.54220  1.0000
  C   C849      1.0  0.88473  0.08911  0.55795  1.0000
  H   H1505     1.0  0.77883  0.92671  0.66304  1.0000
  C   C850      1.0  0.01849  0.67561  0.51365  1.0000
  H   H1506     1.0  0.65427  0.63190  0.51075  1.0000
  S   S181      1.0  0.72413  0.97011  0.67143  1.0000
  H   H1507     1.0  0.74448  0.07226  0.63476  1.0000
  C   C851      1.0  0.83075  0.89882  0.60453  1.0000
  C   C852      1.0  0.06284  0.82708  0.52033  1.0000
  C   C853      1.0  0.69400  0.83294  0.61255  1.0000
  C   C854      1.0  0.88972  0.78487  0.67818  1.0000
  S   S182      1.0  0.69054  0.89322  0.57457  1.0000
  H   H1508     1.0  0.07480  0.08752  0.52180  1.0000
  C   C855      1.0  0.93791  0.70392  0.51181  1.0000
  C   C856      1.0  0.04785  0.02257  0.66517  1.0000
  S   S183      1.0  0.97458  0.70271  0.72892  1.0000
  C   C857      1.0  0.97415  0.86973  0.61706  1.0000
  S   S184      1.0  0.75321  0.70331  0.61666  1.0000
  C   C858      1.0  0.01388  0.68600  0.61057  1.0000
  H   H1509     1.0  0.99317  0.98702  0.56482  1.0000
  Fe  Fe95      1.0  0.73996  0.74870  0.62035  1.0000
  H   H1510     1.0  0.68890  0.84038  0.64671  1.0000
  H   H1511     1.0  0.05027  0.71208  0.71748  1.0000
  H   H1512     1.0  0.94994  0.97811  0.54589  1.0000
  S   S185      1.0  0.93772  0.63433  0.61728  1.0000
  H   H1513     1.0  0.88014  0.08574  0.59714  1.0000
  C   C859      1.0  0.98150  0.66015  0.58714  1.0000
  C   C860      1.0  0.04309  0.81326  0.68988  1.0000
  H   H1514     1.0  0.07382  0.72613  0.60338  1.0000
  H   H1515     1.0  0.83817  0.88780  0.63549  1.0000
  H   H1516     1.0  0.89595  0.89913  0.60514  1.0000
  S   S186      1.0  0.88531  0.63254  0.73020  1.0000
  H   H1517     1.0  0.69404  0.02863  0.58244  1.0000
  S   S187      1.0  0.80095  0.73967  0.71010  1.0000
  H   H1518     1.0  0.04916  0.83895  0.54110  1.0000
  H   H1519     1.0  0.96097  0.98578  0.60806  1.0000
  Fe  Fe96      1.0  0.63403  0.88548  0.73726  1.0000
  H   H1520     1.0  0.04813  0.99835  0.68310  1.0000
  H   H1521     1.0  0.70381  0.09312  0.59442  1.0000
  H   H1522     1.0  0.62677  0.89280  0.55014  1.0000
  H   H1523     1.0  0.86225  0.84498  0.69862  1.0000
  C   C861      1.0  0.07902  0.71895  0.71499  1.0000
  H   H1524     1.0  0.08563  0.07971  0.63179  1.0000
  H   H1525     1.0  0.62876  0.77877  0.69889  1.0000
  H   H1526     1.0  0.10798  0.97442  0.68379  1.0000
  C   C862      1.0  0.65894  0.96395  0.50386  1.0000
  C   C863      1.0  0.91730  0.82698  0.49112  1.0000
  H   H1527     1.0  0.61775  0.71509  0.69979  1.0000
  H   H1528     1.0  0.92737  0.99078  0.71310  1.0000
  H   H1529     1.0  0.73735  0.84432  0.71618  1.0000
  H   H1530     1.0  0.63797  0.83619  0.49691  1.0000
  Fe  Fe97      1.0  0.78436  0.78237  0.70878  1.0000
  H   H1531     1.0  0.10043  0.04665  0.62793  1.0000
  C   C864      1.0  0.61856  0.01340  0.58233  1.0000
  H   H1532     1.0  0.92934  0.89954  0.69424  1.0000
  S   S188      1.0  0.68059  0.87929  0.71630  1.0000
  N   N48       1.0  0.04135  0.60777  0.70915  1.0000
  H   H1533     1.0  0.82902  0.65748  0.71114  1.0000
  H   H1534     1.0  0.74176  0.62296  0.60370  1.0000
  C   C865      1.0  0.06381  0.79415  0.70313  1.0000
  C   C866      1.0  0.81463  0.00739  0.72400  1.0000
  H   H1535     1.0  0.04866  0.92058  0.72514  1.0000
  H   H1536     1.0  0.10080  0.04685  0.52416  1.0000
  N   N49       1.0  0.02327  0.85796  0.72502  1.0000
  H   H1537     1.0  0.09301  0.81702  0.71069  1.0000
  S   S189      1.0  0.92480  0.09023  0.71870  1.0000
  C   C867      1.0  0.05703  0.89939  0.72576  1.0000
  C   C868      1.0  0.10365  0.61716  0.73500  1.0000
  H   H1538     1.0  0.62623  0.76980  0.50108  1.0000
  C   C869      1.0  0.03400  0.82889  0.73401  1.0000
  C   C870      1.0  0.61943  0.92788  0.49919  1.0000
  S   S190      1.0  0.00166  0.07037  0.73406  1.0000
  H   H1539     1.0  0.68105  0.61109  0.57297  1.0000
  H   H1540     1.0  0.10424  0.05034  0.72106  1.0000
  H   H1541     1.0  0.05029  0.77386  0.73495  1.0000
  C   C871      1.0  0.75851  0.87122  0.73366  1.0000
  H   H1542     1.0  0.78906  0.86323  0.50019  1.0000
  H   H1543     1.0  0.66029  0.99100  0.49365  1.0000
  H   H1544     1.0  0.61952  0.78335  0.55873  1.0000
  H   H1545     1.0  0.78614  0.60981  0.70952  1.0000
  C   C872      1.0  0.87876  0.05692  0.73979  1.0000
  H   H1546     1.0  0.63974  0.89080  0.49091  1.0000
  H   H1547     1.0  0.90175  0.79434  0.75187  1.0000
  H   H1548     1.0  0.02980  0.88765  0.82275  1.0000
  H   H1549     1.0  0.90295  0.67649  0.91469  1.0000
  Fe  Fe98      1.0  0.97969  0.01789  0.78330  1.0000
  H   H1550     1.0  0.70030  0.68834  0.78593  1.0000
  C   C873      1.0  0.07383  0.76147  0.87447  1.0000
  H   H1551     1.0  0.10552  0.81252  0.91543  1.0000
  C   C874      1.0  0.74955  0.66327  0.86670  1.0000
  C   C875      1.0  0.06903  0.65136  0.89894  1.0000
  H   H1552     1.0  0.84704  0.80855  0.83692  1.0000
  H   H1553     1.0  0.76613  0.61591  0.78959  1.0000
  C   C876      1.0  0.87539  0.65383  0.93192  1.0000
  H   H1554     1.0  0.66215  0.87558  0.93312  1.0000
  H   H1555     1.0  0.79810  0.68792  0.78643  1.0000
  H   H1556     1.0  0.99705  0.63118  0.91112  1.0000
  C   C877      1.0  0.67477  0.62743  0.77204  1.0000
  C   C878      1.0  0.83157  0.74847  0.83715  1.0000
  H   H1557     1.0  0.82727  0.72012  0.90530  1.0000
  H   H1558     1.0  0.68932  0.03322  0.85792  1.0000
  H   H1559     1.0  0.92382  0.85541  0.93521  1.0000
  H   H1560     1.0  0.63030  0.77600  0.80495  1.0000
  C   C879      1.0  0.68217  0.02951  0.78271  1.0000
  H   H1561     1.0  0.05821  0.84141  0.75728  1.0000
  H   H1562     1.0  0.09241  0.62254  0.86289  1.0000
  H   H1563     1.0  0.10708  0.08211  0.79734  1.0000
  C   C880      1.0  0.62339  0.88105  0.88896  1.0000
  H   H1564     1.0  0.09491  0.74051  0.74192  1.0000
  H   H1565     1.0  0.07570  0.96004  0.79466  1.0000
  S   S191      1.0  0.92824  0.65518  0.82953  1.0000
  H   H1566     1.0  0.62621  0.07650  0.80269  1.0000
  C   C881      1.0  0.05282  0.80289  0.89803  1.0000
  H   H1567     1.0  0.69186  0.86149  0.86705  1.0000
  H   H1568     1.0  0.11347  0.64611  0.74878  1.0000
  H   H1569     1.0  0.08932  0.03657  0.95029  1.0000
  C   C882      1.0  0.67697  0.03850  0.82837  1.0000
  H   H1570     1.0  0.78428  0.00786  0.94386  1.0000
  S   S192      1.0  0.80271  0.82306  0.76861  1.0000
  C   C883      1.0  0.65667  0.05522  0.83562  1.0000
  H   H1571     1.0  0.72142  0.78657  0.78794  1.0000
  H   H1572     1.0  0.69987  0.01902  0.77703  1.0000
  H   H1573     1.0  0.77372  0.98993  0.88474  1.0000
  H   H1574     1.0  0.97951  0.93541  0.89047  1.0000
  C   C884      1.0  0.81391  0.67593  0.79982  1.0000
  H   H1575     1.0  0.07716  0.04686  0.89447  1.0000
  H   H1576     1.0  0.86647  0.73294  0.86731  1.0000
  C   C885      1.0  0.66430  0.85722  0.86294  1.0000
  H   H1577     1.0  0.10019  0.01159  0.80349  1.0000
  C   C886      1.0  0.76487  0.00034  0.91474  1.0000
  S   S193      1.0  0.94831  0.61263  0.74974  1.0000
  H   H1578     1.0  0.04205  0.00245  0.83793  1.0000
  H   H1579     1.0  0.71313  0.62937  0.92899  1.0000
  H   H1580     1.0  0.69778  0.80510  0.81916  1.0000
  H   H1581     1.0  0.75347  0.04332  0.92981  1.0000
  H   H1582     1.0  0.61910  0.72822  0.81804  1.0000
  H   H1583     1.0  0.84627  0.88680  0.82864  1.0000
  C   C887      1.0  0.96340  0.91272  0.96266  1.0000
  C   C888      1.0  0.69417  0.77850  0.80414  1.0000
  H   H1584     1.0  0.69247  0.64375  0.88594  1.0000
  Fe  Fe99      1.0  0.97899  0.66840  0.78789  1.0000
  Fe  Fe100     1.0  0.95759  0.07669  0.76610  1.0000
  C   C889      1.0  0.63673  0.96028  0.97385  1.0000
  Fe  Fe101     1.0  0.97145  0.05948  0.86563  1.0000
  C   C890      1.0  0.05564  0.96862  0.88463  1.0000
  H   H1585     1.0  0.85846  0.69372  0.93502  1.0000
  S   S194      1.0  0.06077  0.84473  0.92487  1.0000
  H   H1586     1.0  0.05186  0.61626  0.78428  1.0000
  H   H1587     1.0  0.08516  0.99247  0.89027  1.0000
  C   C891      1.0  0.77752  0.65205  0.87752  1.0000
  H   H1588     1.0  0.98790  0.84273  0.88881  1.0000
  C   C892      1.0  0.83841  0.66130  0.86858  1.0000
  C   C893      1.0  0.79020  0.09891  0.81127  1.0000
  H   H1589     1.0  0.82118  0.64290  0.94400  1.0000
  C   C894      1.0  0.84933  0.78789  0.86027  1.0000
  C   C895      1.0  0.83571  0.71928  0.86795  1.0000
  H   H1590     1.0  0.86547  0.67649  0.84742  1.0000
  H   H1591     1.0  0.03763  0.74396  0.97974  1.0000
  H   H1592     1.0  0.76396  0.86278  0.76857  1.0000
  H   H1593     1.0  0.99226  0.90267  0.90693  1.0000
  C   C896      1.0  0.05346  0.62331  0.94369  1.0000
  H   H1594     1.0  0.01093  0.99922  0.91076  1.0000
  H   H1595     1.0  0.07402  0.67571  0.76373  1.0000
  C   C897      1.0  0.79216  0.06913  0.78086  1.0000
  H   H1596     1.0  0.88491  0.76645  0.97092  1.0000
  C   C898      1.0  0.79616  0.63524  0.77838  1.0000
  H   H1597     1.0  0.06294  0.98911  0.76268  1.0000
  H   H1598     1.0  0.09439  0.75442  0.87483  1.0000
  N   N50       1.0  0.02062  0.61907  0.97083  1.0000
  C   C899      1.0  0.07258  0.98498  0.79694  1.0000
  H   H1599     1.0  0.81042  0.62073  0.78876  1.0000
  C   C900      1.0  0.02951  0.99752  0.93575  1.0000
  H   H1600     1.0  0.66258  0.86464  0.82540  1.0000
  H   H1601     1.0  0.62213  0.65295  0.92944  1.0000
  C   C901      1.0  0.08007  0.79441  0.89731  1.0000
  H   H1602     1.0  0.68267  0.01895  0.94907  1.0000
  H   H1603     1.0  0.82068  0.07993  0.91494  1.0000
  H   H1604     1.0  0.98816  0.87346  0.76081  1.0000
  H   H1605     1.0  0.04164  0.07057  0.94059  1.0000
  H   H1606     1.0  0.95755  0.80701  0.84801  1.0000
  H   H1607     1.0  0.76008  0.08802  0.81402  1.0000
  H   H1608     1.0  0.64206  0.82598  0.87176  1.0000
  C   C902      1.0  0.86436  0.88947  0.79933  1.0000
  H   H1609     1.0  0.84617  0.75410  0.80192  1.0000
  H   H1610     1.0  0.02455  0.84128  0.82169  1.0000
  H   H1611     1.0  0.97000  0.82255  0.76307  1.0000
  C   C903      1.0  0.66032  0.88372  0.89599  1.0000
  C   C904      1.0  0.84998  0.86199  0.76417  1.0000
  H   H1612     1.0  0.07101  0.90374  0.75976  1.0000
  H   H1613     1.0  0.07746  0.63411  0.96695  1.0000
  H   H1614     1.0  0.82001  0.07392  0.78003  1.0000
  H   H1615     1.0  0.74731  0.71212  0.95706  1.0000
  C   C905      1.0  0.62635  0.74986  0.78805  1.0000
  C   C906      1.0  0.83562  0.01349  0.80380  1.0000
  S   S195      1.0  0.65115  0.06650  0.89303  1.0000
  C   C907      1.0  0.10157  0.65203  0.87481  1.0000
  H   H1616     1.0  0.01099  0.80200  0.75421  1.0000
  S   S196      1.0  0.03208  0.69479  0.82562  1.0000
  C   C908      1.0  0.66516  0.76271  0.76632  1.0000
  H   H1617     1.0  0.96221  0.85353  0.84871  1.0000
  C   C909      1.0  0.01393  0.74649  0.85156  1.0000
  C   C910      1.0  0.62334  0.67325  0.95557  1.0000
  H   H1618     1.0  0.80215  0.73743  0.83106  1.0000
  H   H1619     1.0  0.04745  0.64195  0.87248  1.0000
  C   C911      1.0  0.90210  0.92050  0.79672  1.0000
  H   H1620     1.0  0.83023  0.00369  0.84086  1.0000
  H   H1621     1.0  0.76453  0.62076  0.86946  1.0000
  H   H1622     1.0  0.07985  0.68172  0.90855  1.0000
  H   H1623     1.0  0.91300  0.94129  0.82435  1.0000
  H   H1624     1.0  0.72593  0.73935  0.95902  1.0000
  C   C912      1.0  0.04069  0.73733  0.85167  1.0000
  H   H1625     1.0  0.91458  0.89244  0.92072  1.0000
  H   H1626     1.0  0.66435  0.73775  0.75091  1.0000
  C   C913      1.0  0.06512  0.06985  0.95445  1.0000
  H   H1627     1.0  0.74777  0.88971  0.74043  1.0000
  N   N51       1.0  0.81574  0.67725  0.85318  1.0000
  C   C914      1.0  0.88837  0.04457  0.97873  1.0000
  H   H1628     1.0  0.02130  0.89098  0.96367  1.0000
  H   H1629     1.0  0.66777  0.93745  0.94871  1.0000
  H   H1630     1.0  0.81714  0.06036  0.85927  1.0000
  C   C915      1.0  0.01003  0.85624  0.81582  1.0000
  C   C916      1.0  0.92211  0.06534  0.95154  1.0000
  S   S197      1.0  0.67084  0.94284  0.76882  1.0000
  C   C917      1.0  0.64163  0.06316  0.79714  1.0000
  C   C918      1.0  0.99620  0.85206  0.76473  1.0000
  H   H1631     1.0  0.04037  0.69453  0.93381  1.0000
  H   H1632     1.0  0.99809  0.78449  0.87668  1.0000
  H   H1633     1.0  0.93679  0.62633  0.91813  1.0000
  C   C919      1.0  0.84694  0.66399  0.92218  1.0000
  H   H1634     1.0  0.05594  0.94213  0.87911  1.0000
  N   N52       1.0  0.03076  0.96207  0.92741  1.0000
  C   C920      1.0  0.64626  0.65186  0.82233  1.0000
  S   S198      1.0  0.93258  0.02112  0.81121  1.0000
  H   H1635     1.0  0.73653  0.97611  0.92795  1.0000
  S   S199      1.0  0.91867  0.73845  0.78076  1.0000
  C   C921      1.0  0.64566  0.05268  0.75150  1.0000
  H   H1636     1.0  0.75910  0.69203  0.88125  1.0000
  S   S200      1.0  0.97287  0.96340  0.75522  1.0000
  Fe  Fe102     1.0  0.92258  0.68732  0.76903  1.0000
  H   H1637     1.0  0.06913  0.92239  0.94123  1.0000
  H   H1638     1.0  0.74471  0.02751  0.86986  1.0000
  S   S201      1.0  0.94720  0.04402  0.94040  1.0000
  S   S202      1.0  0.76277  0.95589  0.79258  1.0000
  C   C922      1.0  0.97735  0.83891  0.85254  1.0000
  H   H1639     1.0  0.84238  0.69533  0.78309  1.0000
  C   C923      1.0  0.67615  0.65880  0.79259  1.0000
  H   H1640     1.0  0.01692  0.95113  0.82695  1.0000
  C   C924      1.0  0.92422  0.88084  0.94861  1.0000
  H   H1641     1.0  0.99717  0.67469  0.96671  1.0000
  C   C925      1.0  0.92569  0.92413  0.75900  1.0000
  H   H1642     1.0  0.89308  0.05914  0.81271  1.0000
  C   C926      1.0  0.93660  0.10383  0.93508  1.0000
  H   H1643     1.0  0.11265  0.67283  0.84326  1.0000
  C   C927      1.0  0.01946  0.77843  0.87589  1.0000
  H   H1644     1.0  0.98887  0.72916  0.83281  1.0000
  H   H1645     1.0  0.82399  0.62971  0.86147  1.0000
  C   C928      1.0  0.06760  0.03776  0.93217  1.0000
  C   C929      1.0  0.76435  0.03587  0.89874  1.0000
  C   C930      1.0  0.02716  0.68652  0.96986  1.0000
  C   C931      1.0  0.87124  0.04480  0.78783  1.0000
  H   H1646     1.0  0.64508  0.70373  0.94274  1.0000
  C   C932      1.0  0.80727  0.99466  0.77187  1.0000
  Fe  Fe103     1.0  0.71814  0.93985  0.74171  1.0000
  C   C933      1.0  0.99175  0.92774  0.91947  1.0000
  H   H1647     1.0  0.83482  0.78440  0.89499  1.0000
  H   H1648     1.0  0.96189  0.93673  0.97687  1.0000
  H   H1649     1.0  0.86607  0.62467  0.91854  1.0000
  H   H1650     1.0  0.62720  0.89743  0.85487  1.0000
  H   H1651     1.0  0.75440  0.09259  0.89308  1.0000
  C   C934      1.0  0.66543  0.03516  0.74452  1.0000
  H   H1652     1.0  0.68450  0.91424  0.88755  1.0000
  H   H1653     1.0  0.87939  0.80080  0.86537  1.0000
  C   C935      1.0  0.04418  0.97692  0.83669  1.0000
  H   H1654     1.0  0.68586  0.75590  0.83312  1.0000
  S   S203      1.0  0.01762  0.05314  0.84049  1.0000
  H   H1655     1.0  0.77177  0.03877  0.79529  1.0000
  C   C936      1.0  0.71115  0.63335  0.89036  1.0000
  C   C937      1.0  0.64359  0.93766  0.93637  1.0000
  H   H1656     1.0  0.65324  0.95573  0.90229  1.0000
  H   H1657     1.0  0.64728  0.67619  0.83793  1.0000
  C   C938      1.0  0.80403  0.07120  0.88268  1.0000
  C   C939      1.0  0.04609  0.95436  0.97048  1.0000
  H   H1658     1.0  0.09144  0.09884  0.94607  1.0000
  C   C940      1.0  0.88436  0.10128  0.97412  1.0000
  H   H1659     1.0  0.77963  0.65291  0.91666  1.0000
  H   H1660     1.0  0.74605  0.66460  0.82812  1.0000
  H   H1661     1.0  0.87880  0.65308  0.97073  1.0000
  C   C941      1.0  0.67261  0.99985  0.98209  1.0000
  H   H1662     1.0  0.01653  0.99466  0.97151  1.0000
  H   H1663     1.0  0.07477  0.97981  0.97599  1.0000
  C   C942      1.0  0.98951  0.60716  0.93774  1.0000
  C   C943      1.0  0.04870  0.91827  0.96944  1.0000
  C   C944      1.0  0.73146  0.72003  0.98017  1.0000
  H   H1664     1.0  0.90448  0.87076  0.98010  1.0000
  H   H1665     1.0  0.63172  0.66722  0.98977  1.0000
  C   C945      1.0  0.86910  0.06228  0.98922  1.0000
  H   H1666     1.0  0.75540  0.07887  0.03463  1.0000
  H   H1667     1.0  0.84325  0.04633  0.01065  1.0000
  S   S204      1.0  0.90793  0.72496  0.11497  1.0000
  S   S205      1.0  0.10626  0.72343  0.09548  1.0000
  H   H1668     1.0  0.82762  0.71846  0.02031  1.0000
  Fe  Fe104     1.0  0.64124  0.79252  0.09244  1.0000
  H   H1669     1.0  0.67718  0.71266  0.17753  1.0000
  H   H1670     1.0  0.82420  0.75512  0.99024  1.0000
  H   H1671     1.0  0.90765  0.89174  0.20408  1.0000
  S   S206      1.0  0.72291  0.00582  0.10571  1.0000
  C   C946      1.0  0.79115  0.96754  0.14571  1.0000
  N   N53       1.0  0.05622  0.01894  0.21736  1.0000
  H   H1672     1.0  0.85063  0.76628  0.09241  1.0000
  H   H1673     1.0  0.08591  0.85075  0.15068  1.0000
  C   C947      1.0  0.03230  0.65617  0.99580  1.0000
  H   H1674     1.0  0.03165  0.71679  0.03420  1.0000
  H   H1675     1.0  0.89173  0.80537  0.00705  1.0000
  H   H1676     1.0  0.03201  0.10410  0.01951  1.0000
  H   H1677     1.0  0.70426  0.69303  0.99212  1.0000
  N   N54       1.0  0.10856  0.84241  0.08610  1.0000
  Fe  Fe105     1.0  0.68923  0.01401  0.16027  1.0000
  H   H1678     1.0  0.78187  0.09536  0.13235  1.0000
  S   S207      1.0  0.97797  0.80951  0.20043  1.0000
  S   S208      1.0  0.71839  0.05254  0.22074  1.0000
  C   C948      1.0  0.97013  0.05364  0.07571  1.0000
  C   C949      1.0  0.69289  0.71067  0.20526  1.0000
  H   H1679     1.0  0.06680  0.04663  0.14719  1.0000
  H   H1680     1.0  0.93251  0.62607  0.07622  1.0000
  C   C950      1.0  0.89084  0.96313  0.18983  1.0000
  H   H1681     1.0  0.78018  0.66205  0.07284  1.0000
  S   S209      1.0  0.96354  0.83875  0.09956  1.0000
  H   H1682     1.0  0.02896  0.80375  0.11430  1.0000
  H   H1683     1.0  0.92013  0.05908  0.12233  1.0000
  H   H1684     1.0  0.97860  0.97657  0.04572  1.0000
  H   H1685     1.0  0.04461  0.96109  0.15058  1.0000
  N   N55       1.0  0.79063  0.73590  0.09010  1.0000
  H   H1686     1.0  0.62647  0.94331  0.00841  1.0000
  Fe  Fe106     1.0  0.10514  0.67224  0.21327  1.0000
  H   H1687     1.0  0.07559  0.02537  0.07115  1.0000
  C   C951      1.0  0.96594  0.72031  0.14368  1.0000
  C   C952      1.0  0.70402  0.95915  0.08397  1.0000
  H   H1688     1.0  0.81079  0.09031  0.22292  1.0000
  H   H1689     1.0  0.10084  0.88984  0.08335  1.0000
  H   H1690     1.0  0.71547  0.90299  0.16350  1.0000
  C   C953      1.0  0.06256  0.91246  0.01589  1.0000
  H   H1691     1.0  0.78046  0.76861  0.00980  1.0000
  S   S210      1.0  0.06664  0.90856  0.15111  1.0000
  H   H1692     1.0  0.09244  0.00231  0.14544  1.0000
  H   H1693     1.0  0.72299  0.91478  0.99833  1.0000
  H   H1694     1.0  0.05438  0.77804  0.15195  1.0000
  C   C954      1.0  0.76436  0.88056  0.15599  1.0000
  C   C955      1.0  0.92225  0.67036  0.09256  1.0000
  C   C956      1.0  0.79077  0.94541  0.19104  1.0000
  S   S211      1.0  0.97179  0.88574  0.19446  1.0000
  H   H1695     1.0  0.04310  0.84246  0.07170  1.0000
  C   C957      1.0  0.90677  0.10174  0.11470  1.0000
  H   H1696     1.0  0.76063  0.68812  0.14299  1.0000
  C   C958      1.0  0.03806  0.81313  0.07661  1.0000
  S   S212      1.0  0.63764  0.80415  0.16879  1.0000
  C   C959      1.0  0.65969  0.88861  0.09034  1.0000
  C   C960      1.0  0.72218  0.95499  0.04511  1.0000
  S   S213      1.0  0.07577  0.63995  0.15022  1.0000
  H   H1697     1.0  0.62502  0.88236  0.99606  1.0000
  H   H1698     1.0  0.94939  0.10312  0.04435  1.0000
  C   C961      1.0  0.97378  0.66864  0.12139  1.0000
  H   H1699     1.0  0.03735  0.07735  0.13183  1.0000
  H   H1700     1.0  0.07465  0.73902  0.99791  1.0000
  C   C962      1.0  0.83782  0.74983  0.01947  1.0000
  H   H1701     1.0  0.06637  0.88812  0.01218  1.0000
  H   H1702     1.0  0.89050  0.08863  0.08285  1.0000
  C   C963      1.0  0.78872  0.70582  0.12429  1.0000
  H   H1703     1.0  0.73984  0.85566  0.03893  1.0000
  C   C964      1.0  0.75603  0.86010  0.07081  1.0000
  H   H1704     1.0  0.84924  0.62119  0.15759  1.0000
  H   H1705     1.0  0.73347  0.09312  0.99314  1.0000
  H   H1706     1.0  0.93730  0.97705  0.04689  1.0000
  H   H1707     1.0  0.70121  0.86349  0.20509  1.0000
  H   H1708     1.0  0.77290  0.80139  0.18975  1.0000
  H   H1709     1.0  0.86325  0.09128  0.21863  1.0000
  H   H1710     1.0  0.03023  0.97970  0.07713  1.0000
  Fe  Fe107     1.0  0.92840  0.85336  0.14159  1.0000
  C   C965      1.0  0.67209  0.92606  0.10567  1.0000
  S   S214      1.0  0.63794  0.96989  0.20479  1.0000
  H   H1711     1.0  0.01667  0.04544  0.06525  1.0000
  H   H1712     1.0  0.66714  0.01478  0.01014  1.0000
  C   C966      1.0  0.76076  0.71492  0.05476  1.0000
  C   C967      1.0  0.82066  0.01131  0.14724  1.0000
  H   H1713     1.0  0.94932  0.10284  0.15387  1.0000
  H   H1714     1.0  0.79889  0.62704  0.12465  1.0000
  H   H1715     1.0  0.84871  0.01668  0.15037  1.0000
  H   H1716     1.0  0.06482  0.76812  0.23340  1.0000
  C   C968      1.0  0.93563  0.09150  0.11993  1.0000
  S   S215      1.0  0.73017  0.64213  0.23755  1.0000
  C   C969      1.0  0.71500  0.91762  0.23539  1.0000
  C   C970      1.0  0.70873  0.91782  0.02830  1.0000
  H   H1717     1.0  0.71280  0.85360  0.11794  1.0000
  H   H1718     1.0  0.66373  0.90553  0.20543  1.0000
  H   H1719     1.0  0.00945  0.71380  0.16784  1.0000
  H   H1720     1.0  0.76382  0.96360  0.14133  1.0000
  N   N56       1.0  0.76051  0.90244  0.19576  1.0000
  H   H1721     1.0  0.65741  0.92938  0.13468  1.0000
  C   C971      1.0  0.88166  0.95829  0.14224  1.0000
  H   H1722     1.0  0.78998  0.96067  0.22264  1.0000
  H   H1723     1.0  0.69043  0.66139  0.17608  1.0000
  H   H1724     1.0  0.10346  0.01390  0.22433  1.0000
  C   C972      1.0  0.06330  0.99235  0.13878  1.0000
  H   H1725     1.0  0.06626  0.78306  0.06911  1.0000
  H   H1726     1.0  0.87420  0.92560  0.08033  1.0000
  N   N57       1.0  0.99230  0.09800  0.07434  1.0000
  H   H1727     1.0  0.04540  0.85813  0.23612  1.0000
  H   H1728     1.0  0.00659  0.63381  0.23146  1.0000
  H   H1729     1.0  0.80938  0.87946  0.21188  1.0000
  S   S216      1.0  0.66507  0.04743  0.13615  1.0000
  C   C973      1.0  0.70035  0.68152  0.20451  1.0000
  H   H1730     1.0  0.83638  0.79257  0.05980  1.0000
  C   C974      1.0  0.93414  0.70426  0.11698  1.0000
  H   H1731     1.0  0.82082  0.02639  0.11387  1.0000
  C   C975      1.0  0.82949  0.76234  0.06713  1.0000
  H   H1732     1.0  0.87484  0.97711  0.12462  1.0000
  H   H1733     1.0  0.96149  0.04158  0.11309  1.0000
  S   S217      1.0  0.08368  0.71072  0.21013  1.0000
  H   H1734     1.0  0.99959  0.75526  0.04952  1.0000
  C   C976      1.0  0.10254  0.83884  0.13946  1.0000
  H   H1735     1.0  0.01220  0.79572  0.00840  1.0000
  S   S218      1.0  0.66353  0.83804  0.03248  1.0000
  H   H1736     1.0  0.76056  0.62706  0.15145  1.0000
  H   H1737     1.0  0.88725  0.09000  0.14623  1.0000
  C   C977      1.0  0.05996  0.99455  0.08539  1.0000
  H   H1738     1.0  0.99522  0.02793  0.19635  1.0000
  H   H1739     1.0  0.79773  0.75946  0.19104  1.0000
  H   H1740     1.0  0.73747  0.75024  0.04348  1.0000
  H   H1741     1.0  0.07168  0.97949  0.06798  1.0000
  H   H1742     1.0  0.82059  0.82744  0.20752  1.0000
  H   H1743     1.0  0.98019  0.78388  0.05812  1.0000
  H   H1744     1.0  0.78604  0.88165  0.06084  1.0000
  C   C978      1.0  0.74310  0.87531  0.11044  1.0000
  Fe  Fe108     1.0  0.00432  0.86582  0.15724  1.0000
  H   H1745     1.0  0.74686  0.98059  0.02817  1.0000
  H   H1746     1.0  0.04202  0.90491  0.04577  1.0000
  H   H1747     1.0  0.69473  0.99598  0.99400  1.0000
  C   C979      1.0  0.75385  0.74149  0.02285  1.0000
  C   C980      1.0  0.80602  0.78092  0.16062  1.0000
  H   H1748     1.0  0.97111  0.89991  0.99144  1.0000
  H   H1749     1.0  0.75421  0.85006  0.16862  1.0000
  H   H1750     1.0  0.99125  0.03938  0.01334  1.0000
  H   H1751     1.0  0.80723  0.65953  0.17164  1.0000
  H   H1752     1.0  0.74700  0.90290  0.09698  1.0000
  C   C981      1.0  0.74232  0.09561  0.03017  1.0000
  H   H1753     1.0  0.06137  0.06491  0.99363  1.0000
  C   C982      1.0  0.08321  0.79710  0.16303  1.0000
  H   H1754     1.0  0.00334  0.96305  0.22766  1.0000
  C   C983      1.0  0.08167  0.79835  0.21713  1.0000
  H   H1755     1.0  0.80515  0.07067  0.14111  1.0000
  C   C984      1.0  0.05137  0.01676  0.16464  1.0000
  C   C985      1.0  0.89199  0.90611  0.13880  1.0000
  C   C986      1.0  0.72221  0.89527  0.19791  1.0000
  C   C987      1.0  0.67813  0.88450  0.05175  1.0000
  C   C988      1.0  0.94200  0.65250  0.09485  1.0000
  H   H1756     1.0  0.09799  0.78305  0.15344  1.0000
  C   C989      1.0  0.78136  0.76053  0.11824  1.0000
  C   C990      1.0  0.00563  0.78529  0.04629  1.0000
  H   H1757     1.0  0.06198  0.67158  0.00539  1.0000
  H   H1758     1.0  0.00021  0.10076  0.14987  1.0000
  C   C991      1.0  0.98574  0.70242  0.14593  1.0000
  H   H1759     1.0  0.06866  0.81400  0.22840  1.0000
  H   H1760     1.0  0.78390  0.78423  0.09483  1.0000
  Fe  Fe109     1.0  0.65917  0.76656  0.18492  1.0000
  H   H1761     1.0  0.73351  0.69293  0.07374  1.0000
  C   C992      1.0  0.96494  0.98991  0.06236  1.0000
  H   H1762     1.0  0.02943  0.95124  0.00303  1.0000
  H   H1763     1.0  0.07738  0.81884  0.02324  1.0000
  H   H1764     1.0  0.08991  0.93915  0.02369  1.0000
  H   H1765     1.0  0.06159  0.07441  0.21766  1.0000
  H   H1766     1.0  0.79434  0.89487  0.14480  1.0000
  H   H1767     1.0  0.89758  0.65771  0.07214  1.0000
  C   C993      1.0  0.80940  0.09905  0.13045  1.0000
  C   C994      1.0  0.07322  0.81331  0.06248  1.0000
  H   H1768     1.0  0.94370  0.04185  0.05694  1.0000
  Fe  Fe110     1.0  0.05700  0.68048  0.14365  1.0000
  H   H1769     1.0  0.76656  0.69746  0.03139  1.0000
  H   H1770     1.0  0.97494  0.74605  0.16314  1.0000
  S   S219      1.0  0.89754  0.79726  0.18582  1.0000
  C   C995      1.0  0.79061  0.64587  0.14011  1.0000
  H   H1771     1.0  0.75165  0.83168  0.08224  1.0000
  H   H1772     1.0  0.71737  0.08221  0.05482  1.0000
  C   C996      1.0  0.98866  0.03420  0.05246  1.0000
  Fe  Fe111     1.0  0.93456  0.78376  0.14644  1.0000
  H   H1773     1.0  0.75181  0.74255  0.13237  1.0000
  H   H1774     1.0  0.89415  0.76614  0.03276  1.0000
  C   C997      1.0  0.80215  0.81344  0.17760  1.0000
  H   H1775     1.0  0.01633  0.64905  0.03026  1.0000
  H   H1776     1.0  0.81458  0.02368  0.17787  1.0000
  H   H1777     1.0  0.04287  0.96009  0.22815  1.0000
  H   H1778     1.0  0.83578  0.79443  0.15049  1.0000
  C   C998      1.0  0.08692  0.91575  0.20654  1.0000
  H   H1779     1.0  0.82752  0.69362  0.09132  1.0000
  H   H1780     1.0  0.79859  0.95727  0.11412  1.0000
  H   H1781     1.0  0.96127  0.98260  0.10114  1.0000
  C   C999      1.0  0.90037  0.91024  0.18680  1.0000
  C   C1000     1.0  0.79760  0.67734  0.10305  1.0000
  S   S220      1.0  0.66813  0.76014  0.10832  1.0000
  C   C1001     1.0  0.88124  0.92912  0.11718  1.0000
  H   H1782     1.0  0.81842  0.94958  0.19094  1.0000
  H   H1783     1.0  0.63570  0.86297  0.10803  1.0000
  S   S221      1.0  0.89678  0.87408  0.10438  1.0000
  H   H1784     1.0  0.80895  0.72025  0.15254  1.0000
  H   H1785     1.0  0.81093  0.83626  0.14874  1.0000
  Fe  Fe112     1.0  0.69119  0.08348  0.19903  1.0000
  H   H1786     1.0  0.02159  0.00332  0.15700  1.0000
  S   S222      1.0  0.99690  0.64482  0.12527  1.0000
  H   H1787     1.0  0.90479  0.63165  0.19267  1.0000
  H   H1788     1.0  0.99480  0.10524  0.99803  1.0000
  C   C1002     1.0  0.89940  0.93854  0.21254  1.0000
  H   H1789     1.0  0.82960  0.62106  0.21474  1.0000
  H   H1790     1.0  0.05282  0.61987  0.05518  1.0000
  S   S223      1.0  0.89177  0.00054  0.21953  1.0000
  C   C1003     1.0  0.84801  0.61403  0.19610  1.0000
  H   H1791     1.0  0.73103  0.94941  0.22501  1.0000
  C   C1004     1.0  0.88728  0.63818  0.21438  1.0000
  C   C1005     1.0  0.00341  0.03052  0.23365  1.0000
  H   H1792     1.0  0.89771  0.66949  0.20796  1.0000
  H   H1793     1.0  0.95429  0.61091  0.99312  1.0000
  C   C1006     1.0  0.09629  0.03592  0.22864  1.0000
  H   H1794     1.0  0.95504  0.64802  0.22886  1.0000
  C   C1007     1.0  0.04507  0.04517  0.23649  1.0000
  H   H1795     1.0  0.11024  0.81350  0.23049  1.0000
  C   C1008     1.0  0.87972  0.77347  0.00680  1.0000
  H   H1796     1.0  0.87711  0.01479  0.99159  1.0000
  C   C1009     1.0  0.04390  0.72385  0.99725  1.0000
  Fe  Fe113     1.0  0.94380  0.82843  0.23557  1.0000
  H   H1797     1.0  0.61872  0.63371  0.23710  1.0000
  C   C1010     1.0  0.03227  0.97806  0.23982  1.0000
  C   C1011     1.0  0.67368  0.90253  0.23993  1.0000
  H   H1798     1.0  0.01374  0.08883  0.23840  1.0000
  H   H1799     1.0  0.63325  0.78507  0.29305  1.0000
  C   C1012     1.0  0.97377  0.73148  0.48154  1.0000
  H   H1800     1.0  0.85506  0.80482  0.28255  1.0000
  H   H1801     1.0  0.63996  0.02284  0.42934  1.0000
  C   C1013     1.0  0.72587  0.73381  0.27752  1.0000
  H   H1802     1.0  0.09709  0.78366  0.37497  1.0000
  H   H1803     1.0  0.82391  0.75273  0.27684  1.0000
  C   C1014     1.0  0.88730  0.62829  0.26788  1.0000
  H   H1804     1.0  0.68031  0.89582  0.41778  1.0000
  H   H1805     1.0  0.91980  0.69997  0.27902  1.0000
  C   C1015     1.0  0.03428  0.02888  0.39863  1.0000
  C   C1016     1.0  0.96933  0.72241  0.31642  1.0000
  H   H1806     1.0  0.77598  0.82641  0.27273  1.0000
  H   H1807     1.0  0.10022  0.04305  0.26663  1.0000
  C   C1017     1.0  0.06661  0.76113  0.37741  1.0000
  H   H1808     1.0  0.95793  0.07005  0.47926  1.0000
  C   C1018     1.0  0.86920  0.81691  0.43235  1.0000
  Fe  Fe114     1.0  0.74377  0.62366  0.30540  1.0000
  H   H1809     1.0  0.74030  0.85580  0.24961  1.0000
  H   H1810     1.0  0.01817  0.91543  0.29870  1.0000
  H   H1811     1.0  0.64222  0.92212  0.39841  1.0000
  C   C1019     1.0  0.03444  0.87587  0.40101  1.0000
  H   H1812     1.0  0.00638  0.09194  0.48532  1.0000
  C   C1020     1.0  0.79581  0.85671  0.28368  1.0000
  S   S224      1.0  0.91010  0.10139  0.40208  1.0000
  C   C1021     1.0  0.91810  0.78294  0.34024  1.0000
  H   H1813     1.0  0.95644  0.70348  0.24432  1.0000
  H   H1814     1.0  0.66158  0.77828  0.33238  1.0000
  S   S225      1.0  0.94126  0.83013  0.31451  1.0000
  H   H1815     1.0  0.96794  0.77178  0.29059  1.0000
  H   H1816     1.0  0.76708  0.87070  0.45177  1.0000
  C   C1022     1.0  0.65853  0.69644  0.38703  1.0000
  H   H1817     1.0  0.63553  0.62671  0.29172  1.0000
  C   C1023     1.0  0.73234  0.70380  0.27756  1.0000
  C   C1024     1.0  0.74079  0.96966  0.33855  1.0000
  C   C1025     1.0  0.68372  0.96760  0.34970  1.0000
  H   H1818     1.0  0.97875  0.10367  0.40193  1.0000
  C   C1026     1.0  0.00371  0.63194  0.27085  1.0000
  H   H1819     1.0  0.05230  0.05105  0.27408  1.0000
  C   C1027     1.0  0.66242  0.08498  0.42793  1.0000
  S   S226      1.0  0.64021  0.04544  0.24671  1.0000
  H   H1820     1.0  0.03948  0.97999  0.40927  1.0000
  H   H1821     1.0  0.64237  0.66532  0.37736  1.0000
  C   C1028     1.0  0.63271  0.71016  0.39755  1.0000
  H   H1822     1.0  0.85514  0.08429  0.28160  1.0000
  H   H1823     1.0  0.72960  0.00852  0.30157  1.0000
  H   H1824     1.0  0.06460  0.88289  0.46303  1.0000
  H   H1825     1.0  0.00523  0.92929  0.35173  1.0000
  H   H1826     1.0  0.07476  0.86165  0.41517  1.0000
  H   H1827     1.0  0.01713  0.98926  0.30976  1.0000
  C   C1029     1.0  0.80020  0.77078  0.45275  1.0000
  S   S227      1.0  0.09728  0.63638  0.27902  1.0000
  H   H1828     1.0  0.05721  0.75338  0.34077  1.0000
  H   H1829     1.0  0.94402  0.65777  0.36180  1.0000
  H   H1830     1.0  0.00497  0.80228  0.42772  1.0000
  H   H1831     1.0  0.79562  0.07354  0.29462  1.0000
  H   H1832     1.0  0.05764  0.76301  0.47067  1.0000
  H   H1833     1.0  0.90707  0.73549  0.44616  1.0000
  C   C1030     1.0  0.69788  0.09324  0.40204  1.0000
  H   H1834     1.0  0.90617  0.94199  0.24949  1.0000
  C   C1031     1.0  0.94874  0.63833  0.26705  1.0000
  H   H1835     1.0  0.85299  0.86971  0.42423  1.0000
  S   S228      1.0  0.85331  0.98871  0.43237  1.0000
  H   H1836     1.0  0.67429  0.69921  0.41886  1.0000
  H   H1837     1.0  0.05227  0.80324  0.38060  1.0000
  C   C1032     1.0  0.82411  0.80504  0.37279  1.0000
  H   H1838     1.0  0.83368  0.84486  0.48062  1.0000
  C   C1033     1.0  0.81275  0.08141  0.45400  1.0000
  C   C1034     1.0  0.72695  0.93782  0.37137  1.0000
  H   H1839     1.0  0.79664  0.80013  0.36570  1.0000
  H   H1840     1.0  0.05607  0.90576  0.38617  1.0000
  C   C1035     1.0  0.77366  0.08681  0.35362  1.0000
  C   C1036     1.0  0.05201  0.86142  0.43484  1.0000
  H   H1841     1.0  0.97726  0.91754  0.30095  1.0000
  C   C1037     1.0  0.98886  0.76491  0.29787  1.0000
  H   H1842     1.0  0.98540  0.65149  0.32746  1.0000
  S   S229      1.0  0.65665  0.98647  0.33830  1.0000
  H   H1843     1.0  0.68846  0.84786  0.31522  1.0000
  C   C1038     1.0  0.97538  0.01765  0.42541  1.0000
  H   H1844     1.0  0.96612  0.74321  0.45179  1.0000
  H   H1845     1.0  0.81485  0.72996  0.42703  1.0000
  H   H1846     1.0  0.90613  0.07758  0.25436  1.0000
  H   H1847     1.0  0.88898  0.75507  0.27763  1.0000
  H   H1848     1.0  0.06117  0.73451  0.39715  1.0000
  C   C1039     1.0  0.88380  0.82937  0.48257  1.0000
  S   S230      1.0  0.91325  0.94576  0.44662  1.0000
  H   H1849     1.0  0.89317  0.86034  0.48616  1.0000
  C   C1040     1.0  0.66977  0.93558  0.38204  1.0000
  H   H1850     1.0  0.65557  0.10513  0.41188  1.0000
  C   C1041     1.0  0.02227  0.81998  0.45691  1.0000
  S   S231      1.0  0.84329  0.01174  0.32418  1.0000
  H   H1851     1.0  0.64651  0.84299  0.33788  1.0000
  H   H1852     1.0  0.66954  0.91980  0.26585  1.0000
  N   N58       1.0  0.83053  0.80764  0.42527  1.0000
  C   C1042     1.0  0.82719  0.77849  0.29386  1.0000
  H   H1853     1.0  0.82898  0.74600  0.48556  1.0000
  H   H1854     1.0  0.97422  0.93472  0.44173  1.0000
  S   S232      1.0  0.92202  0.02381  0.35065  1.0000
  H   H1855     1.0  0.82304  0.86067  0.28943  1.0000
  H   H1856     1.0  0.02209  0.85622  0.37102  1.0000
  C   C1043     1.0  0.70605  0.73723  0.24140  1.0000
  C   C1044     1.0  0.01149  0.04272  0.40556  1.0000
  H   H1857     1.0  0.07312  0.86850  0.31391  1.0000
  C   C1045     1.0  0.71895  0.98418  0.32718  1.0000
  S   S233      1.0  0.76158  0.65293  0.37462  1.0000
  C   C1046     1.0  0.00626  0.93161  0.31243  1.0000
  H   H1858     1.0  0.03173  0.64472  0.28515  1.0000
  H   H1859     1.0  0.72287  0.91400  0.27106  1.0000
  C   C1047     1.0  0.04588  0.77699  0.40199  1.0000
  Fe  Fe115     1.0  0.88435  0.04017  0.38042  1.0000
  C   C1048     1.0  0.80673  0.09657  0.32065  1.0000
  H   H1860     1.0  0.74813  0.68908  0.45696  1.0000
  H   H1861     1.0  0.67477  0.83541  0.37712  1.0000
  N   N59       1.0  0.92489  0.65054  0.28980  1.0000
  C   C1049     1.0  0.80660  0.73735  0.46038  1.0000
  C   C1050     1.0  0.98499  0.96516  0.43314  1.0000
  H   H1862     1.0  0.94028  0.84584  0.46426  1.0000
  H   H1863     1.0  0.98368  0.71377  0.46684  1.0000
  H   H1864     1.0  0.05818  0.98774  0.30873  1.0000
  H   H1865     1.0  0.77668  0.67694  0.48815  1.0000
  C   C1051     1.0  0.82390  0.77185  0.34781  1.0000
  H   H1866     1.0  0.73609  0.75425  0.30558  1.0000
  H   H1867     1.0  0.98476  0.00161  0.25273  1.0000
  H   H1868     1.0  0.01232  0.87723  0.42002  1.0000
  H   H1869     1.0  0.79524  0.77762  0.48908  1.0000
  H   H1870     1.0  0.00723  0.78513  0.32465  1.0000
  S   S234      1.0  0.84812  0.93563  0.34469  1.0000
  C   C1052     1.0  0.76484  0.88626  0.24198  1.0000
  H   H1871     1.0  0.84721  0.76963  0.35772  1.0000
  H   H1872     1.0  0.77314  0.75825  0.43551  1.0000
  H   H1873     1.0  0.08843  0.81228  0.44961  1.0000
  C   C1053     1.0  0.94198  0.69390  0.28015  1.0000
  C   C1054     1.0  0.98708  0.65428  0.28824  1.0000
  H   H1874     1.0  0.78465  0.86056  0.31740  1.0000
  S   S235      1.0  0.11401  0.99936  0.43014  1.0000
  S   S236      1.0  0.75282  0.91783  0.38502  1.0000
  H   H1875     1.0  0.76526  0.90301  0.27253  1.0000
  H   H1876     1.0  0.99094  0.71683  0.32441  1.0000
  H   H1877     1.0  0.66887  0.09241  0.46533  1.0000
  H   H1878     1.0  0.02128  0.07235  0.39387  1.0000
  C   C1055     1.0  0.77124  0.70011  0.48154  1.0000
  C   C1056     1.0  0.87296  0.71320  0.33610  1.0000
  C   C1057     1.0  0.64203  0.78771  0.33010  1.0000
  H   H1879     1.0  0.96654  0.04888  0.25334  1.0000
  H   H1880     1.0  0.62518  0.71390  0.32159  1.0000
  H   H1881     1.0  0.82667  0.09415  0.34206  1.0000
  C   C1058     1.0  0.87842  0.70775  0.38346  1.0000
  C   C1059     1.0  0.63685  0.61528  0.48234  1.0000
  C   C1060     1.0  0.03008  0.97460  0.29470  1.0000
  Fe  Fe116     1.0  0.87867  0.99096  0.29825  1.0000
  H   H1882     1.0  0.81713  0.90014  0.45316  1.0000
  H   H1883     1.0  0.79732  0.74344  0.35738  1.0000
  Fe  Fe117     1.0  0.66504  0.01112  0.26355  1.0000
  H   H1884     1.0  0.82422  0.91602  0.25354  1.0000
  H   H1885     1.0  0.74744  0.70108  0.30556  1.0000
  H   H1886     1.0  0.88993  0.84117  0.40691  1.0000
  H   H1887     1.0  0.69302  0.08630  0.36408  1.0000
  S   S237      1.0  0.07590  0.05810  0.36456  1.0000
  Fe  Fe118     1.0  0.79764  0.62943  0.37814  1.0000
  H   H1888     1.0  0.02025  0.67163  0.47616  1.0000
  H   H1889     1.0  0.87108  0.79187  0.42398  1.0000
  C   C1061     1.0  0.08622  0.89179  0.28655  1.0000
  C   C1062     1.0  0.05831  0.78806  0.45331  1.0000
  H   H1890     1.0  0.76791  0.81066  0.44466  1.0000
  C   C1063     1.0  0.83933  0.07511  0.43520  1.0000
  C   C1064     1.0  0.87471  0.10449  0.25276  1.0000
  H   H1891     1.0  0.62327  0.03948  0.38479  1.0000
  Fe  Fe119     1.0  0.81500  0.95839  0.37328  1.0000
  H   H1892     1.0  0.89948  0.64879  0.35729  1.0000
  H   H1893     1.0  0.79165  0.84611  0.39566  1.0000
  H   H1894     1.0  0.86759  0.63343  0.28726  1.0000
  H   H1895     1.0  0.80531  0.78254  0.28147  1.0000
  C   C1065     1.0  0.79170  0.87046  0.46150  1.0000
  H   H1896     1.0  0.83038  0.04724  0.42069  1.0000
  C   C1066     1.0  0.99620  0.05927  0.25640  1.0000
  H   H1897     1.0  0.94310  0.80238  0.40734  1.0000
  C   C1067     1.0  0.90385  0.73974  0.40914  1.0000
  H   H1898     1.0  0.70712  0.07539  0.41882  1.0000
  C   C1068     1.0  0.07031  0.88595  0.24235  1.0000
  H   H1899     1.0  0.76217  0.05817  0.37297  1.0000
  H   H1900     1.0  0.65053  0.74157  0.40538  1.0000
  C   C1069     1.0  0.89332  0.75081  0.31418  1.0000
  C   C1070     1.0  0.66409  0.83109  0.34086  1.0000
  H   H1901     1.0  0.85311  0.68847  0.31629  1.0000
  H   H1902     1.0  0.65668  0.87123  0.25253  1.0000
  C   C1071     1.0  0.91809  0.64040  0.34249  1.0000
  C   C1072     1.0  0.69119  0.92054  0.39263  1.0000
  H   H1903     1.0  0.00679  0.68558  0.27656  1.0000
  H   H1904     1.0  0.84555  0.83352  0.35395  1.0000
  H   H1905     1.0  0.00217  0.06136  0.29468  1.0000
  C   C1073     1.0  0.02182  0.99070  0.41457  1.0000
  H   H1906     1.0  0.95755  0.02806  0.43002  1.0000
  H   H1907     1.0  0.01569  0.75446  0.40122  1.0000
  H   H1908     1.0  0.76782  0.98247  0.32094  1.0000
  C   C1074     1.0  0.92375  0.77744  0.38747  1.0000
  H   H1909     1.0  0.75119  0.08472  0.33279  1.0000
  H   H1910     1.0  0.95374  0.71924  0.35015  1.0000
  Fe  Fe120     1.0  0.88857  0.97016  0.39985  1.0000
  H   H1911     1.0  0.00590  0.77014  0.26490  1.0000
  H   H1912     1.0  0.78337  0.05837  0.45413  1.0000
  H   H1913     1.0  0.67922  0.96262  0.48028  1.0000
  H   H1914     1.0  0.67872  0.71472  0.35733  1.0000
  C   C1075     1.0  0.96138  0.97843  0.43646  1.0000
  C   C1076     1.0  0.62928  0.04180  0.42323  1.0000
  S   S238      1.0  0.85284  0.66102  0.41075  1.0000
  C   C1077     1.0  0.82953  0.84180  0.44185  1.0000
  C   C1078     1.0  0.79308  0.83985  0.43366  1.0000
  N   N60       1.0  0.03690  0.79943  0.48429  1.0000
  H   H1915     1.0  0.70991  0.80356  0.48942  1.0000
  H   H1916     1.0  0.00303  0.82328  0.48036  1.0000
  C   C1079     1.0  0.80076  0.88635  0.24519  1.0000
  S   S239      1.0  0.69858  0.77523  0.24094  1.0000
  H   H1917     1.0  0.92679  0.60930  0.42629  1.0000
  H   H1918     1.0  0.93308  0.60580  0.26696  1.0000
  S   S240      1.0  0.78439  0.60570  0.30562  1.0000
  H   H1919     1.0  0.61834  0.76969  0.40207  1.0000
  H   H1920     1.0  0.90916  0.79618  0.48968  1.0000
  C   C1080     1.0  0.72006  0.67800  0.24064  1.0000
