data_image0
_chemical_formula_structural       H2FeCSH2SC2SH4C6HCH4CH3SCHC2H2CHCFeCH2CH4CHCH4CH3CSCH2FeHCHFeHNHC2H6S2HCH2C3H4CH2FeS3HCHCS2H3SCFeH2C6HCH2CH2CHCH2CSH3CH3C2H2CH11CHCHFeCHCHCHCFeCNH6CHC2H3CHCH5CH3FeS2HSCHCFeSH2SFeS2FeS2FeSFeS3CH3C2HC6H4CH2C6H4C2HC2H5CHCH2SH17CHNH3CH3CH2CHC2HFeHC2H2CNHNC4HC4H2CH18C2H3CHCHNCH6C2H4CH2CH4CNHCHCHC3H4C2H2CHCHC2HCH2CSH5C2H3C2H3CH5CHCH5CH3C3H2NC2H3CH2CH3CH2FeCHC2H2C3H2C3FeS2FeS2FeSFeS4CSHFeSHNHFeS2H2CH3C7H4C3HC7H4C2FeHC2H3CH3C2HC2HCNH3C2H2CH4CH7CH2CH5C2HCH5CHC4HNHC4H6CH6CHCH2CH3CH3CHCHCH3CH4CH5CHCH3CH2CHC2H3CH3CH3CH3NH2CH3NCH2SCHCHSHCH4C2HCH8C2H2CSCSCSH4SCHSH2SHCFeS2FeSHFeSFeS3CHFe2SCHSHSC6H4C6H8C9H2NH10CH2SCHCH4CSCH3CH2C3HCH3C2H3C3HNCH2SH3CH5C2H3C3HFeHCH3CHCSH3CH2C2HC2H2FeH2CSCH2C2HC2H2FeCHSHCH3CFeCH3FeH2CFeHCHCH2CH11CHSH2FeH3SH2C2HC4H3CHCHNCHCH2CH11CH3CFeSH2C2SHS2H3CHSHCSHCH3FeS2FeS2FeSFeHS2CHCH6C9H5CH2FeC2H3C6H3C2H4C7H2CH5CNH2SCHCHFeCHCH5CH2CH3CH2CH2FeCH4CH2CH5C2H2CH3C2H2C3NH2CHCHCH3CNC2H3C2H3C2H4CHFeH5C2H2CSC2H4NCH3CH2CHCHCH5NC4HC4H2CH8C2HCH4CHCH3C2H2C2HC4H6SC2SCSH3CH8SH2CH5FeH4NHCH6C2HC2H2SFe2S3FeSHCSCSHFe2SHFeS2FeS2FeSFeS3HSC6H10C6H4C6H7C3HC3H3C2H3CHCH4SHS2H2NH2C2HCH2NH2NC6SC4H21CHCH3SH3CH4CH13CHCHCHSCH2CH5C2HC3H3CH3CH3C2H6CHCFeCH9CHCH3CHCH8CH2C2H2CFeHCH3SHCH2CH3CHCSHCHCH3CNH2CNC3HCH2CHC3H9CHNC8HC2H12C2H2CH8CHCHCHCHC2H5C2HCH2CH12C2H4SHCHCHCFeHSFeS2HFeS2FeS2FeS2FeS2FeSFeS3FeS2FeS2HFeHSH2SHCH2C3HSC6H5CHCH3C8H4CHC6H4C2H2C3HCH3C2NHNH5SH12CSH2FeHFeCHSHC3H2C2H2CHCHCH5CH3CNC12H27C2H3SHCH2CH4CH5CH2CH3C2HC2H5CHNH2C2H2CH4C3HCH11C2H5C2HCH7CHCHSHCH2C3H2C5HCSH5CHC2H2CH2C2FeCHFeHCH4CH3C3NCSCHCH2CH3CH3CH3CHCSHCHCH2FeHCNH2NFeS2FeS2FeSFeS3H2CHCHFeS3FeS3FeSFeS2CSH2NHC6H4C2HCH2C6H4C6H14CH3CH4CHSCH7CHCH4CHC3H2CHCH4C2H5CH4CNCFeC2HC2HNHC3HCH5NCH4CHCH4SHSCH3C2HNH2CHCSC4NC10H10CH5CH5CHCH2CHCSHCFeH5CH2NCFeH3SHCHNC2H2CH3CHCHSH3CHC2H2C2HCH2CH5CHCHCH6C3H2CH2CHCH4CHCH2NHC2HCSH10C2H4SH5FeH5CHCH2CH2CH4FeHC3H2FeH3CH2C4H2C2FeS2FeS2FeSFeS3Fe2HSHCSHFeS2FeS2HSFeSHCHC6H5CHCHC2NCHC6H4C2H3C6H4CH2SC4H5NH4C3H6CH3CH4CH2SHCHSC2HCH2CHC2H3CH3C2H2C2H4NFeHCH3C2H13CH3NSH2C2SH2CH4C2H9CH3CHC2H6CH2CH2CH4CHSH2CHCH5C3H2C2H4CHCHCHCNHCHCSH7C2H9CSCSC3HCNC5SC4HCHCH9CH3C3H3CH2C2H3CSH5CHCHCH2FeCHCHFeH6CH5CH4CHCNH4CH10CHFe2H2SCFeS2FeS2FeSFeS3H3SC3SCSHSC2SFeS2CH3SC2SH4CH2C6H7CH2CHCHC7H4C6H6CHCH2CH7CH8CHSH3CH3CNH2CH2CH4C4HCH8C3H3CNCH2C4HC3H8CH4CH8CH4CH3CH2CNH5SNC4H2CH2C2H2CHCHCH3FeHCHFeNC2H2CHCH3CFeHFeC3HC5H2CHCHCH3CHNH6C2FeH5CSH2CHSH2S2H3FeSFeS2FeS2FeSFeS3C2H2SH2SH5SC3HCH2CSH2CHC6H5C2H2C7H5C2HC6HCH3CH9C2HCH2CH5CH2CHFeH3CHCHCH3FeC2H2C2H2NH2C2H8C3H7CH5CHCH2C2H2CH6CH2CH2CNC6HCH13CH2C2H3NC2H2SHSCHNHC3H2CHC4HCH3CH2C2H2CHCH4CH4C3H6C2HC2H6Fe2S2FeS2FeSFeS4FeSHFeSC7H4C6H5C2HCH4C3H3CH4C6H2C2HSCH3CHCH6CH3CHCHCH5NC3H2C4HC2H7NC2HSH9CH6NC2HC3HCHC2H3SCHCHCH7CH2CH6SHNH4CH14C2H2CH3C2H2C2H2NCH2SH2C3HCH9CH2FeS2NH2FeS2FeS2FeSFeS3FeSH3C6H4CHCH4CH2CHCH2CHC6H4NC12H21CH5CHC2H2CH3CH2CHC3H3C2H2CH7CHNHCH2CHCH3C2HC2HSCH3FeH3SCHCH2SCH4C3H5CH2C2H5SH2CH2CSH2CHFeHCH3NCHC2HFeHC2SCH2FeHFeS2C6H8SCHCSHSHFe2CHSCHCHCFeCH3SHCH3SH2CHCH4SCH2CHSCH2FeSH2FeSH3FeS2H2SCH2C8H10CH4C2H4CHFeCH7CHCH2SHCH2CH2CHCH3C2NC2FeHCHC2HCHSH2NCH3SC3HC2H3C2HCHCH4CHC2SH4
_chemical_formula_sum              "H2304 Fe144 C1296 S288 N72"
_cell_length_a       78.6909
_cell_length_b       78.4006
_cell_length_c       40.8906
_cell_angle_alpha    91.4969
_cell_angle_beta     91.4534
_cell_angle_gamma    116.986

_space_group_name_H-M_alt    "P 1"
_space_group_IT_number       1

loop_
  _space_group_symop_operation_xyz
  'x, y, z'

loop_
  _atom_site_type_symbol
  _atom_site_label
  _atom_site_symmetry_multiplicity
  _atom_site_fract_x
  _atom_site_fract_y
  _atom_site_fract_z
  _atom_site_occupancy
  H   H1        1.0  0.13496  0.42930  0.25167  1.0000
  H   H2        1.0  0.12056  0.41584  0.19256  1.0000
  Fe  Fe1       1.0  0.00363  0.42250  0.31252  1.0000
  C   C1        1.0  0.13921  0.47844  0.03387  1.0000
  S   S1        1.0  0.02349  0.42635  0.26949  1.0000
  H   H3        1.0  0.21511  0.46358  0.15174  1.0000
  H   H4        1.0  0.98793  0.47636  0.47775  1.0000
  S   S2        1.0  0.01100  0.43890  0.36100  1.0000
  C   C2        1.0  0.14810  0.43931  0.23944  1.0000
  C   C3        1.0  0.20225  0.48250  0.07146  1.0000
  S   S3        1.0  0.13817  0.47513  0.14780  1.0000
  H   H5        1.0  0.17206  0.44600  0.05696  1.0000
  H   H6        1.0  0.14372  0.42357  0.17492  1.0000
  H   H7        1.0  0.16789  0.42372  0.34032  1.0000
  H   H8        1.0  0.09202  0.47022  0.29547  1.0000
  C   C4        1.0  0.04818  0.44004  0.26087  1.0000
  C   C5        1.0  0.05383  0.44015  0.22837  1.0000
  C   C6        1.0  0.07300  0.45126  0.21989  1.0000
  C   C7        1.0  0.08698  0.46219  0.24397  1.0000
  C   C8        1.0  0.08138  0.46195  0.27652  1.0000
  C   C9        1.0  0.06215  0.45110  0.28491  1.0000
  H   H9        1.0  0.04324  0.43163  0.20951  1.0000
  C   C10       1.0  0.17885  0.42828  0.32145  1.0000
  H   H10       1.0  0.04073  0.46688  0.22984  1.0000
  H   H11       1.0  0.05817  0.45114  0.31003  1.0000
  H   H12       1.0  0.15365  0.45686  0.19593  1.0000
  H   H13       1.0  0.13036  0.44961  0.21213  1.0000
  C   C11       1.0  0.18060  0.47635  0.06719  1.0000
  H   H14       1.0  0.07699  0.45111  0.19480  1.0000
  H   H15       1.0  0.17197  0.45250  0.09983  1.0000
  H   H16       1.0  0.15549  0.43071  0.23198  1.0000
  S   S4        1.0  0.99877  0.40785  0.43500  1.0000
  C   C12       1.0  0.01222  0.46409  0.23068  1.0000
  H   H17       1.0  0.19559  0.48663  0.28972  1.0000
  C   C13       1.0  0.15038  0.46726  0.27054  1.0000
  C   C14       1.0  0.00374  0.44920  0.20234  1.0000
  H   H18       1.0  0.15341  0.45111  0.07164  1.0000
  H   H19       1.0  0.01079  0.43970  0.20175  1.0000
  C   C15       1.0  0.16357  0.44703  0.29393  1.0000
  H   H20       1.0  0.00244  0.46515  0.43601  1.0000
  C   C16       1.0  0.98757  0.48126  0.29932  1.0000
  Fe  Fe2       1.0  0.98617  0.44457  0.34956  1.0000
  C   C17       1.0  0.16886  0.45519  0.07434  1.0000
  H   H21       1.0  0.13419  0.48351  0.31289  1.0000
  H   H22       1.0  0.14025  0.47256  0.05700  1.0000
  C   C18       1.0  0.98982  0.40655  0.47527  1.0000
  H   H23       1.0  0.98827  0.44016  0.20578  1.0000
  H   H24       1.0  0.19158  0.44152  0.33051  1.0000
  H   H25       1.0  0.16485  0.48077  0.31821  1.0000
  H   H26       1.0  0.20539  0.47894  0.00550  1.0000
  C   C19       1.0  0.13284  0.42811  0.18226  1.0000
  H   H27       1.0  0.15872  0.41785  0.28052  1.0000
  C   C20       1.0  0.22394  0.47867  0.15756  1.0000
  H   H28       1.0  0.18284  0.45883  0.22878  1.0000
  H   H29       1.0  0.00929  0.45598  0.25341  1.0000
  H   H30       1.0  0.18326  0.41681  0.31746  1.0000
  H   H31       1.0  0.20182  0.46787  0.28048  1.0000
  C   C21       1.0  0.14153  0.44501  0.20724  1.0000
  H   H32       1.0  0.02861  0.48297  0.35034  1.0000
  H   H33       1.0  0.12764  0.43244  0.16000  1.0000
  H   H34       1.0  0.17345  0.45825  0.31179  1.0000
  C   C22       1.0  0.17078  0.43171  0.28930  1.0000
  S   S5        1.0  0.11162  0.47604  0.23522  1.0000
  C   C23       1.0  0.16063  0.48478  0.29471  1.0000
  H   H35       1.0  0.13606  0.45784  0.27999  1.0000
  H   H36       1.0  0.20506  0.47215  0.05645  1.0000
  Fe  Fe3       1.0  0.13095  0.48867  0.19147  1.0000
  H   H37       1.0  0.14748  0.47319  0.24795  1.0000
  C   C24       1.0  0.19765  0.47825  0.26944  1.0000
  H   H38       1.0  0.17796  0.47860  0.23158  1.0000
  Fe  Fe4       1.0  0.98903  0.41205  0.38319  1.0000
  H   H39       1.0  0.14982  0.44005  0.30663  1.0000
  N   N1        1.0  0.16085  0.45566  0.26288  1.0000
  H   H40       1.0  0.18197  0.43591  0.27093  1.0000
  C   C25       1.0  0.99380  0.45501  0.45453  1.0000
  C   C26       1.0  0.17943  0.46769  0.24669  1.0000
  H   H41       1.0  0.20505  0.47988  0.09717  1.0000
  H   H42       1.0  0.00547  0.45626  0.17861  1.0000
  H   H43       1.0  0.17621  0.48467  0.08438  1.0000
  H   H44       1.0  0.98823  0.46810  0.29367  1.0000
  H   H45       1.0  0.04437  0.47466  0.28855  1.0000
  H   H46       1.0  0.17685  0.47837  0.04177  1.0000
  S   S6        1.0  0.18976  0.48040  0.16129  1.0000
  S   S7        1.0  0.98772  0.47304  0.36420  1.0000
  H   H47       1.0  0.14531  0.45856  0.00488  1.0000
  C   C27       1.0  0.99327  0.46613  0.48545  1.0000
  H   H48       1.0  0.02409  0.47892  0.28963  1.0000
  H   H49       1.0  0.00463  0.47302  0.23092  1.0000
  C   C28       1.0  0.98772  0.48719  0.33191  1.0000
  C   C29       1.0  0.03400  0.47658  0.22756  1.0000
  C   C30       1.0  0.03966  0.48598  0.28560  1.0000
  H   H50       1.0  0.21811  0.48388  0.23126  1.0000
  H   H51       1.0  0.05044  0.48066  0.34855  1.0000
  H   H52       1.0  0.03608  0.48128  0.20195  1.0000
  H   H53       1.0  0.00045  0.44556  0.46024  1.0000
  C   C31       1.0  0.14198  0.47051  0.00435  1.0000
  H   H54       1.0  0.06647  0.48190  0.18888  1.0000
  H   H55       1.0  0.98549  0.48748  0.24866  1.0000
  Fe  Fe5       1.0  0.00111  0.41658  0.69839  1.0000
  S   S8        1.0  0.00661  0.43043  0.64973  1.0000
  S   S9        1.0  0.02379  0.41343  0.73049  1.0000
  S   S10       1.0  0.10941  0.47500  0.77432  1.0000
  H   H56       1.0  0.01786  0.41812  0.49874  1.0000
  C   C32       1.0  0.14011  0.47773  0.97409  1.0000
  H   H57       1.0  0.00758  0.39118  0.66394  1.0000
  C   C33       1.0  0.22690  0.47841  0.81591  1.0000
  S   S11       1.0  0.15059  0.47354  0.84096  1.0000
  S   S12       1.0  0.00566  0.47765  0.66239  1.0000
  H   H58       1.0  0.02754  0.47162  0.60676  1.0000
  H   H59       1.0  0.04727  0.41793  0.78872  1.0000
  H   H60       1.0  0.08500  0.47136  0.71830  1.0000
  S   S13       1.0  0.98751  0.43378  0.71964  1.0000
  C   C34       1.0  0.05757  0.36101  0.64921  1.0000
  Fe  Fe6       1.0  0.14438  0.48258  0.89056  1.0000
  H   H61       1.0  0.01950  0.36754  0.56310  1.0000
  H   H62       1.0  0.06168  0.40977  0.64100  1.0000
  C   C35       1.0  0.04686  0.43175  0.74401  1.0000
  C   C36       1.0  0.05758  0.44720  0.72469  1.0000
  C   C37       1.0  0.07661  0.46015  0.73437  1.0000
  C   C38       1.0  0.08504  0.45839  0.76414  1.0000
  C   C39       1.0  0.07410  0.44329  0.78396  1.0000
  C   C40       1.0  0.05529  0.42990  0.77366  1.0000
  H   H63       1.0  0.05147  0.44874  0.70165  1.0000
  C   C41       1.0  0.19603  0.44618  0.93426  1.0000
  H   H64       1.0  0.08033  0.44156  0.80675  1.0000
  H   H65       1.0  0.00004  0.44362  0.57968  1.0000
  C   C42       1.0  0.99826  0.36119  0.67223  1.0000
  H   H66       1.0  0.01063  0.45046  0.54042  1.0000
  H   H67       1.0  0.01020  0.48206  0.54783  1.0000
  C   C43       1.0  0.21511  0.44603  0.92855  1.0000
  H   H68       1.0  0.03421  0.36062  0.67544  1.0000
  C   C44       1.0  0.03269  0.37013  0.62573  1.0000
  H   H69       1.0  0.03835  0.47824  0.56748  1.0000
  H   H70       1.0  0.00272  0.48667  0.80126  1.0000
  C   C45       1.0  0.02855  0.46613  0.58192  1.0000
  S   S14       1.0  0.14310  0.46713  0.93734  1.0000
  H   H71       1.0  0.02542  0.38630  0.68122  1.0000
  H   H72       1.0  0.00300  0.46893  0.77267  1.0000
  H   H73       1.0  0.04904  0.44137  0.63537  1.0000
  C   C46       1.0  0.04409  0.36962  0.65699  1.0000
  H   H74       1.0  0.02386  0.40912  0.61733  1.0000
  H   H75       1.0  0.01517  0.38806  0.55912  1.0000
  H   H76       1.0  0.19585  0.45178  0.95942  1.0000
  C   C47       1.0  0.99595  0.36068  0.70926  1.0000
  C   C48       1.0  0.05942  0.43547  0.63314  1.0000
  H   H77       1.0  0.00644  0.41412  0.55561  1.0000
  H   H78       1.0  0.04286  0.37557  0.60560  1.0000
  C   C49       1.0  0.99629  0.40995  0.53503  1.0000
  H   H79       1.0  0.19333  0.45513  0.91621  1.0000
  H   H80       1.0  0.06840  0.37000  0.63193  1.0000
  H   H81       1.0  0.04945  0.34624  0.63835  1.0000
  H   H82       1.0  0.21681  0.43668  0.94683  1.0000
  H   H83       1.0  0.03462  0.45589  0.58457  1.0000
  H   H84       1.0  0.22882  0.47422  0.91100  1.0000
  H   H85       1.0  0.98444  0.34653  0.71561  1.0000
  H   H86       1.0  0.06513  0.36038  0.67212  1.0000
  H   H87       1.0  0.06426  0.43680  0.60762  1.0000
  H   H88       1.0  0.05272  0.38400  0.66872  1.0000
  H   H89       1.0  0.03923  0.40258  0.59501  1.0000
  C   C50       1.0  0.99973  0.46968  0.56082  1.0000
  H   H90       1.0  0.00942  0.36296  0.72232  1.0000
  C   C51       1.0  0.01378  0.38098  0.66204  1.0000
  H   H91       1.0  0.22163  0.46359  0.80773  1.0000
  Fe  Fe7       1.0  0.12993  0.48395  0.82021  1.0000
  C   C52       1.0  0.00910  0.37319  0.56751  1.0000
  H   H92       1.0  0.19878  0.47717  0.81469  1.0000
  C   C53       1.0  0.03317  0.40189  0.61950  1.0000
  H   H93       1.0  0.00170  0.34948  0.66456  1.0000
  C   C54       1.0  0.98954  0.48543  0.64749  1.0000
  H   H94       1.0  0.04642  0.41436  0.66855  1.0000
  C   C55       1.0  0.00881  0.45590  0.56471  1.0000
  Fe  Fe8       1.0  0.99131  0.44609  0.67016  1.0000
  C   C56       1.0  0.05046  0.41456  0.64276  1.0000
  N   N2        1.0  0.02134  0.38132  0.62839  1.0000
  H   H95       1.0  0.07198  0.44415  0.64983  1.0000
  H   H96       1.0  0.02314  0.35484  0.61844  1.0000
  H   H97       1.0  0.21403  0.43974  0.90352  1.0000
  H   H98       1.0  0.18424  0.43137  0.93131  1.0000
  H   H99       1.0  0.99207  0.37196  0.71785  1.0000
  H   H100      1.0  0.99273  0.48996  0.74415  1.0000
  C   C57       1.0  0.21388  0.48606  0.81990  1.0000
  H   H101      1.0  0.22419  0.47718  0.73230  1.0000
  C   C58       1.0  0.00273  0.41221  0.50266  1.0000
  C   C59       1.0  0.23177  0.46657  0.93118  1.0000
  H   H102      1.0  0.23038  0.47378  0.95397  1.0000
  H   H103      1.0  0.99919  0.47550  0.58570  1.0000
  H   H104      1.0  0.00812  0.47414  0.49556  1.0000
  C   C60       1.0  0.00439  0.37260  0.60425  1.0000
  H   H105      1.0  0.99503  0.37976  0.60730  1.0000
  C   C61       1.0  0.00991  0.48447  0.77969  1.0000
  H   H106      1.0  0.02516  0.48893  0.78642  1.0000
  H   H107      1.0  0.99531  0.35725  0.60910  1.0000
  H   H108      1.0  0.06340  0.48923  0.69309  1.0000
  H   H109      1.0  0.98523  0.34584  0.55135  1.0000
  H   H110      1.0  0.99470  0.36296  0.51976  1.0000
  C   C62       1.0  0.99115  0.36126  0.54600  1.0000
  H   H111      1.0  0.98425  0.35821  0.66041  1.0000
  H   H112      1.0  0.20920  0.48953  0.94846  1.0000
  H   H113      1.0  0.22931  0.49749  0.99918  1.0000
  Fe  Fe9       1.0  0.00152  0.59147  0.27905  1.0000
  S   S15       1.0  0.02879  0.61880  0.26938  1.0000
  S   S16       1.0  0.00088  0.56819  0.31049  1.0000
  H   H114      1.0  0.21130  0.50280  0.23860  1.0000
  S   S17       1.0  0.17171  0.51837  0.13167  1.0000
  C   C63       1.0  0.02844  0.59708  0.15668  1.0000
  H   H115      1.0  0.12598  0.63888  0.03541  1.0000
  C   C64       1.0  0.04425  0.49087  0.34725  1.0000
  Fe  Fe10      1.0  0.16201  0.52877  0.17561  1.0000
  S   S18       1.0  0.17437  0.55970  0.19376  1.0000
  H   H116      1.0  0.03017  0.50632  0.21995  1.0000
  H   H117      1.0  0.12832  0.51210  0.00233  1.0000
  S   S19       1.0  0.13081  0.51259  0.16237  1.0000
  Fe  Fe11      1.0  0.14104  0.66701  0.09383  1.0000
  S   S20       1.0  0.17008  0.66913  0.10353  1.0000
  S   S21       1.0  0.13721  0.67939  0.04648  1.0000
  Fe  Fe12      1.0  0.12496  0.64650  0.15821  1.0000
  S   S22       1.0  0.15359  0.64796  0.17240  1.0000
  S   S23       1.0  0.09834  0.62457  0.18353  1.0000
  Fe  Fe13      1.0  0.16702  0.67830  0.15450  1.0000
  S   S24       1.0  0.19164  0.70340  0.18287  1.0000
  Fe  Fe14      1.0  0.15433  0.63899  0.12015  1.0000
  S   S25       1.0  0.15884  0.61437  0.09937  1.0000
  S   S26       1.0  0.13831  0.67764  0.14431  1.0000
  S   S27       1.0  0.12554  0.63630  0.10649  1.0000
  C   C65       1.0  0.21197  0.72287  0.16710  1.0000
  H   H118      1.0  0.10777  0.52348  0.11204  1.0000
  H   H119      1.0  0.14398  0.57516  0.01276  1.0000
  H   H120      1.0  0.01330  0.63700  0.21472  1.0000
  C   C66       1.0  0.99853  0.62525  0.21015  1.0000
  C   C67       1.0  0.13054  0.60156  0.21487  1.0000
  H   H121      1.0  0.99412  0.67167  0.14656  1.0000
  C   C68       1.0  0.17047  0.57501  0.16721  1.0000
  C   C69       1.0  0.16465  0.56942  0.13442  1.0000
  C   C70       1.0  0.16153  0.58182  0.11367  1.0000
  C   C71       1.0  0.16372  0.59962  0.12576  1.0000
  C   C72       1.0  0.16949  0.60520  0.15851  1.0000
  C   C73       1.0  0.17308  0.59302  0.17913  1.0000
  H   H122      1.0  0.16266  0.55557  0.12502  1.0000
  H   H123      1.0  0.15701  0.57744  0.08836  1.0000
  H   H124      1.0  0.17072  0.61867  0.16801  1.0000
  H   H125      1.0  0.17739  0.59731  0.20457  1.0000
  C   C74       1.0  0.06271  0.56106  0.16312  1.0000
  H   H126      1.0  0.04220  0.61019  0.16149  1.0000
  H   H127      1.0  0.22052  0.51949  0.17591  1.0000
  C   C75       1.0  0.04793  0.62019  0.24516  1.0000
  C   C76       1.0  0.04992  0.60390  0.23587  1.0000
  C   C77       1.0  0.06547  0.60564  0.21725  1.0000
  C   C78       1.0  0.07916  0.62360  0.20723  1.0000
  C   C79       1.0  0.07709  0.63988  0.21631  1.0000
  C   C80       1.0  0.06164  0.63817  0.23528  1.0000
  H   H128      1.0  0.03958  0.58997  0.24330  1.0000
  H   H129      1.0  0.06692  0.59297  0.21064  1.0000
  H   H130      1.0  0.08747  0.65381  0.20894  1.0000
  H   H131      1.0  0.06034  0.65090  0.24238  1.0000
  C   C81       1.0  0.09051  0.59407  0.06584  1.0000
  C   C82       1.0  0.10360  0.57724  0.17754  1.0000
  H   H132      1.0  0.03847  0.53278  0.16639  1.0000
  C   C83       1.0  0.19091  0.70364  0.01937  1.0000
  C   C84       1.0  0.04158  0.54710  0.15731  1.0000
  H   H133      1.0  0.03280  0.55255  0.17071  1.0000
  H   H134      1.0  0.12612  0.59142  0.23507  1.0000
  H   H135      1.0  0.09294  0.64675  0.37323  1.0000
  H   H136      1.0  0.19964  0.69646  0.02691  1.0000
  H   H137      1.0  0.01549  0.60084  0.19981  1.0000
  C   C85       1.0  0.12775  0.64537  0.01198  1.0000
  H   H138      1.0  0.09737  0.59588  0.13359  1.0000
  C   C86       1.0  0.13318  0.66495  0.01046  1.0000
  H   H139      1.0  0.12310  0.56850  0.13194  1.0000
  H   H140      1.0  0.00778  0.62901  0.33716  1.0000
  S   S28       1.0  0.16207  0.50595  0.20759  1.0000
  H   H141      1.0  0.00690  0.59993  0.36058  1.0000
  H   H142      1.0  0.09020  0.62315  0.38125  1.0000
  H   H143      1.0  0.19372  0.74603  0.04309  1.0000
  H   H144      1.0  0.18473  0.64206  0.20940  1.0000
  H   H145      1.0  0.08300  0.56510  0.07699  1.0000
  H   H146      1.0  0.01022  0.66114  0.18901  1.0000
  H   H147      1.0  0.05935  0.53490  0.23430  1.0000
  H   H148      1.0  0.07763  0.62673  0.34641  1.0000
  H   H149      1.0  0.04744  0.55608  0.25809  1.0000
  H   H150      1.0  0.02549  0.59447  0.12983  1.0000
  H   H151      1.0  0.05930  0.63685  0.38404  1.0000
  H   H152      1.0  0.21854  0.67673  0.24311  1.0000
  H   H153      1.0  0.03746  0.54570  0.13082  1.0000
  H   H154      1.0  0.23003  0.56452  0.11068  1.0000
  H   H155      1.0  0.19467  0.76425  0.07230  1.0000
  H   H156      1.0  0.09640  0.58594  0.18546  1.0000
  H   H157      1.0  0.22716  0.75358  0.06101  1.0000
  C   C87       1.0  0.01042  0.54539  0.40398  1.0000
  H   H158      1.0  0.01973  0.68556  0.14767  1.0000
  N   N3        1.0  0.21552  0.50292  0.06380  1.0000
  H   H159      1.0  0.22679  0.61180  0.20063  1.0000
  H   H160      1.0  0.20828  0.62988  0.19974  1.0000
  H   H161      1.0  0.07159  0.63330  0.41892  1.0000
  C   C88       1.0  0.22215  0.76459  0.06465  1.0000
  H   H162      1.0  0.06411  0.50905  0.31360  1.0000
  H   H163      1.0  0.08067  0.58907  0.04384  1.0000
  H   H164      1.0  0.10710  0.54776  0.15195  1.0000
  C   C89       1.0  0.07799  0.49680  0.19234  1.0000
  H   H165      1.0  0.20043  0.66940  0.15786  1.0000
  H   H166      1.0  0.18905  0.71125  0.04122  1.0000
  C   C90       1.0  0.19397  0.65060  0.23051  1.0000
  H   H167      1.0  0.21671  0.54391  0.13435  1.0000
  C   C91       1.0  0.11262  0.53511  0.09433  1.0000
  C   C92       1.0  0.21101  0.51592  0.08610  1.0000
  H   H168      1.0  0.01321  0.58205  0.46891  1.0000
  Fe  Fe15      1.0  0.14040  0.50049  0.12002  1.0000
  H   H169      1.0  0.21930  0.78589  0.03585  1.0000
  C   C93       1.0  0.20061  0.71785  0.99276  1.0000
  C   C94       1.0  0.00987  0.65642  0.16307  1.0000
  H   H170      1.0  0.06897  0.54710  0.12206  1.0000
  H   H171      1.0  0.03076  0.61746  0.35250  1.0000
  C   C95       1.0  0.20967  0.67018  0.22035  1.0000
  N   N4        1.0  0.04360  0.49356  0.25155  1.0000
  H   H172      1.0  0.00915  0.61552  0.13329  1.0000
  N   N5        1.0  0.03381  0.60136  0.41286  1.0000
  C   C96       1.0  0.01977  0.58083  0.40443  1.0000
  C   C97       1.0  0.02436  0.61387  0.40527  1.0000
  C   C98       1.0  0.05122  0.60644  0.39295  1.0000
  C   C99       1.0  0.03979  0.60420  0.44877  1.0000
  H   H173      1.0  0.17654  0.69259  0.01044  1.0000
  C   C100      1.0  0.02599  0.56545  0.41411  1.0000
  C   C101      1.0  0.06584  0.62798  0.39363  1.0000
  C   C102      1.0  0.01866  0.61408  0.36870  1.0000
  C   C103      1.0  0.01150  0.62899  0.36354  1.0000
  H   H174      1.0  0.99703  0.54228  0.41658  1.0000
  H   H175      1.0  0.01512  0.53450  0.41064  1.0000
  C   C104      1.0  0.08265  0.63126  0.37232  1.0000
  H   H176      1.0  0.01638  0.57869  0.37765  1.0000
  H   H177      1.0  0.00597  0.57728  0.41561  1.0000
  H   H178      1.0  0.01092  0.60912  0.41855  1.0000
  H   H179      1.0  0.03345  0.62886  0.41462  1.0000
  H   H180      1.0  0.04702  0.60144  0.36687  1.0000
  H   H181      1.0  0.05920  0.59866  0.40157  1.0000
  H   H182      1.0  0.04881  0.59700  0.45452  1.0000
  H   H183      1.0  0.04906  0.61965  0.45505  1.0000
  H   H184      1.0  0.20273  0.67936  0.21437  1.0000
  H   H185      1.0  0.04190  0.51073  0.31503  1.0000
  H   H186      1.0  0.03913  0.56755  0.40170  1.0000
  H   H187      1.0  0.02864  0.56582  0.44095  1.0000
  H   H188      1.0  0.06574  0.56263  0.19003  1.0000
  H   H189      1.0  0.07003  0.57529  0.09821  1.0000
  H   H190      1.0  0.06526  0.57525  0.15419  1.0000
  H   H191      1.0  0.19831  0.50711  0.02569  1.0000
  H   H192      1.0  0.20058  0.64238  0.24247  1.0000
  H   H193      1.0  0.11348  0.59062  0.11144  1.0000
  C   C105      1.0  0.10249  0.54755  0.09918  1.0000
  C   C106      1.0  0.07569  0.55360  0.14633  1.0000
  H   H194      1.0  0.02245  0.50332  0.26033  1.0000
  H   H195      1.0  0.08701  0.53797  0.09566  1.0000
  H   H196      1.0  0.22763  0.54351  0.06271  1.0000
  C   C107      1.0  0.08444  0.57815  0.09031  1.0000
  H   H197      1.0  0.07490  0.54134  0.16055  1.0000
  C   C108      1.0  0.09868  0.58391  0.12047  1.0000
  H   H198      1.0  0.02987  0.58476  0.16679  1.0000
  N   N6        1.0  0.09626  0.56827  0.14362  1.0000
  C   C109      1.0  0.02331  0.59744  0.47307  1.0000
  H   H199      1.0  0.07290  0.51442  0.26393  1.0000
  H   H200      1.0  0.10015  0.56592  0.19578  1.0000
  H   H201      1.0  0.00742  0.54415  0.37709  1.0000
  H   H202      1.0  0.08984  0.60682  0.07691  1.0000
  H   H203      1.0  0.13014  0.60129  0.16219  1.0000
  H   H204      1.0  0.13324  0.58207  0.18067  1.0000
  C   C110      1.0  0.01034  0.61680  0.16053  1.0000
  C   C111      1.0  0.21900  0.54932  0.10916  1.0000
  H   H205      1.0  0.10723  0.55819  0.07974  1.0000
  H   H206      1.0  0.14624  0.61057  0.21730  1.0000
  H   H207      1.0  0.10522  0.59817  0.05790  1.0000
  H   H208      1.0  0.12361  0.61109  0.21714  1.0000
  C   C112      1.0  0.04841  0.50080  0.31464  1.0000
  H   H209      1.0  0.19659  0.74359  0.08635  1.0000
  H   H210      1.0  0.07019  0.49163  0.25304  1.0000
  C   C113      1.0  0.10777  0.55814  0.13323  1.0000
  H   H211      1.0  0.18879  0.64651  0.03231  1.0000
  H   H212      1.0  0.99897  0.58569  0.16800  1.0000
  H   H213      1.0  0.17371  0.66114  0.24441  1.0000
  H   H214      1.0  0.00799  0.66753  0.11543  1.0000
  C   C114      1.0  0.18103  0.65324  0.25526  1.0000
  N   N7        1.0  0.99435  0.62011  0.17406  1.0000
  H   H215      1.0  0.09046  0.49657  0.20530  1.0000
  C   C115      1.0  0.21523  0.49062  0.16353  1.0000
  H   H216      1.0  0.02766  0.53622  0.27517  1.0000
  C   C116      1.0  0.12530  0.59067  0.18164  1.0000
  H   H217      1.0  0.02898  0.53832  0.23130  1.0000
  C   C117      1.0  0.07126  0.50941  0.21171  1.0000
  C   C118      1.0  0.04878  0.52901  0.25358  1.0000
  C   C119      1.0  0.01222  0.59920  0.17309  1.0000
  H   H218      1.0  0.02435  0.62942  0.16657  1.0000
  H   H219      1.0  0.16346  0.63625  0.03768  1.0000
  H   H220      1.0  0.16996  0.63901  0.26230  1.0000
  H   H221      1.0  0.06000  0.51087  0.19701  1.0000
  C   C120      1.0  0.03750  0.54056  0.25453  1.0000
  C   C121      1.0  0.06479  0.50211  0.24656  1.0000
  H   H222      1.0  0.22303  0.63474  0.16541  1.0000
  H   H223      1.0  0.20791  0.71108  0.11779  1.0000
  C   C122      1.0  0.20044  0.75400  0.06654  1.0000
  H   H224      1.0  0.20368  0.63457  0.11068  1.0000
  C   C123      1.0  0.21686  0.72293  0.13442  1.0000
  H   H225      1.0  0.01521  0.60584  0.47078  1.0000
  C   C124      1.0  0.22322  0.63721  0.19229  1.0000
  C   C125      1.0  0.99222  0.63981  0.26176  1.0000
  H   H226      1.0  0.18232  0.56006  0.02007  1.0000
  C   C126      1.0  0.13238  0.50065  0.00305  1.0000
  H   H227      1.0  0.00496  0.65386  0.25953  1.0000
  H   H228      1.0  0.05680  0.53160  0.27731  1.0000
  C   C127      1.0  0.22692  0.51009  0.17108  1.0000
  S   S29       1.0  0.12922  0.50284  0.06952  1.0000
  H   H229      1.0  0.18942  0.66127  0.27767  1.0000
  H   H230      1.0  0.22382  0.76911  0.01281  1.0000
  H   H231      1.0  0.20962  0.51106  0.11165  1.0000
  H   H232      1.0  0.21451  0.72896  0.00339  1.0000
  H   H233      1.0  0.12833  0.54377  0.09738  1.0000
  C   C128      1.0  0.21417  0.49436  0.00136  1.0000
  C   C129      1.0  0.99321  0.63607  0.15576  1.0000
  H   H234      1.0  0.22730  0.49954  0.26718  1.0000
  H   H235      1.0  0.99838  0.61300  0.22335  1.0000
  H   H236      1.0  0.19921  0.64679  0.16374  1.0000
  C   C130      1.0  0.20953  0.66203  0.16172  1.0000
  C   C131      1.0  0.17456  0.63865  0.01960  1.0000
  H   H237      1.0  0.08248  0.50267  0.16785  1.0000
  H   H238      1.0  0.08353  0.52401  0.21423  1.0000
  H   H239      1.0  0.02383  0.65683  0.15807  1.0000
  C   C132      1.0  0.22563  0.53755  0.08739  1.0000
  H   H240      1.0  0.15760  0.54536  0.00812  1.0000
  H   H241      1.0  0.19535  0.65130  0.09693  1.0000
  H   H242      1.0  0.99640  0.63051  0.27644  1.0000
  H   H243      1.0  0.02275  0.64355  0.37115  1.0000
  H   H244      1.0  0.10927  0.52839  0.06920  1.0000
  C   C133      1.0  0.03539  0.50740  0.24588  1.0000
  H   H245      1.0  0.22529  0.67855  0.12060  1.0000
  C   C134      1.0  0.20821  0.64944  0.10293  1.0000
  H   H246      1.0  0.14436  0.49985  0.28026  1.0000
  H   H247      1.0  0.16408  0.56295  0.04168  1.0000
  H   H248      1.0  0.20554  0.54872  0.09882  1.0000
  H   H249      1.0  0.22300  0.52216  0.02368  1.0000
  H   H250      1.0  0.19690  0.51510  0.07893  1.0000
  C   C135      1.0  0.17230  0.61953  0.00491  1.0000
  H   H251      1.0  0.21645  0.65156  0.08046  1.0000
  H   H252      1.0  0.98456  0.52832  0.31948  1.0000
  H   H253      1.0  0.05059  0.50170  0.36780  1.0000
  C   C136      1.0  0.00772  0.67113  0.14182  1.0000
  C   C137      1.0  0.22057  0.66394  0.12991  1.0000
  C   C138      1.0  0.21252  0.50731  0.02900  1.0000
  H   H254      1.0  0.99855  0.62557  0.37769  1.0000
  H   H255      1.0  0.99278  0.63318  0.12888  1.0000
  N   N8        1.0  0.22191  0.66996  0.19263  1.0000
  C   C139      1.0  0.98603  0.49219  0.27390  1.0000
  C   C140      1.0  0.16819  0.55992  0.01726  1.0000
  H   H256      1.0  0.14227  0.60384  0.00914  1.0000
  H   H257      1.0  0.17439  0.61147  0.02526  1.0000
  H   H258      1.0  0.17329  0.64767  0.00010  1.0000
  C   C141      1.0  0.22823  0.77830  0.03577  1.0000
  H   H259      1.0  0.22810  0.69834  0.17706  1.0000
  H   H260      1.0  0.22805  0.77236  0.08853  1.0000
  C   C142      1.0  0.22408  0.73829  0.18842  1.0000
  H   H261      1.0  0.18055  0.58907  0.00244  1.0000
  H   H262      1.0  0.22058  0.73837  0.21382  1.0000
  H   H263      1.0  0.11287  0.58561  0.99313  1.0000
  C   C143      1.0  0.23295  0.65906  0.20149  1.0000
  H   H264      1.0  0.23377  0.62850  0.23535  1.0000
  H   H265      1.0  0.15514  0.50611  0.32092  1.0000
  Fe  Fe16      1.0  0.16935  0.49408  0.16240  1.0000
  C   C144      1.0  0.13424  0.49344  0.03328  1.0000
  H   H266      1.0  0.17340  0.49589  0.28346  1.0000
  C   C145      1.0  0.14773  0.49405  0.30265  1.0000
  C   C146      1.0  0.16931  0.57497  0.99316  1.0000
  H   H267      1.0  0.23145  0.81387  0.00720  1.0000
  H   H268      1.0  0.22915  0.80669  0.07716  1.0000
  C   C147      1.0  0.21457  0.49195  0.25036  1.0000
  C   C148      1.0  0.98568  0.51539  0.31367  1.0000
  C   C149      1.0  0.98706  0.50439  0.33903  1.0000
  H   H269      1.0  0.98714  0.50896  0.36423  1.0000
  H   H270      1.0  0.23346  0.66189  0.13441  1.0000
  C   C150      1.0  0.98518  0.50928  0.28110  1.0000
  C   C151      1.0  0.23349  0.73825  0.12329  1.0000
  C   C152      1.0  0.98420  0.63048  0.22789  1.0000
  Fe  Fe17      1.0  0.15408  0.67266  0.82287  1.0000
  S   S30       1.0  0.12514  0.66407  0.84394  1.0000
  S   S31       1.0  0.17404  0.70517  0.82718  1.0000
  Fe  Fe18      1.0  0.14312  0.63080  0.80459  1.0000
  S   S32       1.0  0.11366  0.61959  0.82351  1.0000
  S   S33       1.0  0.15368  0.61029  0.78501  1.0000
  Fe  Fe19      1.0  0.11258  0.64431  0.79900  1.0000
  S   S34       1.0  0.08540  0.64284  0.77421  1.0000
  Fe  Fe20      1.0  0.12853  0.63995  0.86650  1.0000
  S   S35       1.0  0.12210  0.62745  0.91675  1.0000
  S   S36       1.0  0.14125  0.65436  0.77648  1.0000
  S   S37       1.0  0.15811  0.64974  0.84889  1.0000
  S   S38       1.0  0.15366  0.51406  0.81587  1.0000
  C   C153      1.0  0.01730  0.51751  0.75990  1.0000
  S   S39       1.0  0.16802  0.51245  0.89059  1.0000
  H   H271      1.0  0.11913  0.61878  0.98439  1.0000
  Fe  Fe21      1.0  0.14644  0.51967  0.86626  1.0000
  S   S40       1.0  0.14151  0.54478  0.88312  1.0000
  H   H272      1.0  0.21553  0.51366  0.96263  1.0000
  N   N9        1.0  0.09891  0.52501  0.77200  1.0000
  H   H273      1.0  0.16865  0.70365  0.94890  1.0000
  Fe  Fe22      1.0  0.99697  0.57578  0.64345  1.0000
  S   S41       1.0  0.02746  0.58409  0.66369  1.0000
  S   S42       1.0  0.20529  0.51663  0.82962  1.0000
  H   H274      1.0  0.10224  0.69606  0.77164  1.0000
  H   H275      1.0  0.08681  0.67431  0.73212  1.0000
  C   C154      1.0  0.12847  0.71913  0.73244  1.0000
  H   H276      1.0  0.12468  0.53775  0.72003  1.0000
  H   H277      1.0  0.06634  0.54853  0.67451  1.0000
  H   H278      1.0  0.23189  0.76739  0.83131  1.0000
  C   C155      1.0  0.08689  0.50632  0.86046  1.0000
  C   C156      1.0  0.15012  0.59176  0.81171  1.0000
  C   C157      1.0  0.13771  0.58804  0.83741  1.0000
  C   C158      1.0  0.13482  0.57325  0.85850  1.0000
  C   C159      1.0  0.14464  0.56231  0.85464  1.0000
  C   C160      1.0  0.15707  0.56594  0.82894  1.0000
  C   C161      1.0  0.15967  0.58055  0.80732  1.0000
  H   H279      1.0  0.13037  0.59658  0.84128  1.0000
  H   H280      1.0  0.12495  0.57036  0.87787  1.0000
  H   H281      1.0  0.16491  0.55772  0.82609  1.0000
  H   H282      1.0  0.16938  0.58342  0.78759  1.0000
  C   C162      1.0  0.12641  0.64223  0.95236  1.0000
  C   C163      1.0  0.13205  0.66184  0.95075  1.0000
  C   C164      1.0  0.09755  0.57397  0.75970  1.0000
  H   H283      1.0  0.13358  0.66814  0.92714  1.0000
  C   C165      1.0  0.08896  0.51462  0.74020  1.0000
  C   C166      1.0  0.06938  0.62614  0.74383  1.0000
  C   C167      1.0  0.07413  0.61372  0.72546  1.0000
  C   C168      1.0  0.06128  0.60127  0.70077  1.0000
  C   C169      1.0  0.04331  0.60069  0.69449  1.0000
  C   C170      1.0  0.03856  0.61310  0.71290  1.0000
  C   C171      1.0  0.05159  0.62584  0.73715  1.0000
  H   H284      1.0  0.08784  0.61393  0.72993  1.0000
  H   H285      1.0  0.06538  0.59210  0.68631  1.0000
  H   H286      1.0  0.02489  0.61295  0.70836  1.0000
  H   H287      1.0  0.04778  0.63546  0.75101  1.0000
  C   C172      1.0  0.19887  0.71999  0.82174  1.0000
  C   C173      1.0  0.21107  0.71265  0.81101  1.0000
  Fe  Fe23      1.0  0.17349  0.50412  0.84039  1.0000
  H   H288      1.0  0.99976  0.53257  0.69407  1.0000
  C   C174      1.0  0.22055  0.50545  0.82895  1.0000
  C   C175      1.0  0.20658  0.73985  0.82887  1.0000
  H   H289      1.0  0.20541  0.69748  0.80507  1.0000
  H   H290      1.0  0.11881  0.73775  0.68283  1.0000
  H   H291      1.0  0.19730  0.74578  0.83695  1.0000
  C   C176      1.0  0.13516  0.67313  0.97976  1.0000
  H   H292      1.0  0.14869  0.61776  0.97410  1.0000
  H   H293      1.0  0.07476  0.50862  0.80151  1.0000
  H   H294      1.0  0.09393  0.52410  0.71924  1.0000
  C   C177      1.0  0.98379  0.51027  0.62325  1.0000
  C   C178      1.0  0.16273  0.59533  0.94036  1.0000
  H   H295      1.0  0.98921  0.52428  0.61318  1.0000
  C   C179      1.0  0.12906  0.58247  0.95187  1.0000
  C   C180      1.0  0.11957  0.52900  0.77146  1.0000
  H   H296      1.0  0.08957  0.49739  0.79383  1.0000
  C   C181      1.0  0.16349  0.61108  0.91728  1.0000
  N   N10       1.0  0.20854  0.71901  0.93143  1.0000
  H   H297      1.0  0.12049  0.51524  0.76912  1.0000
  H   H298      1.0  0.23279  0.82351  0.95020  1.0000
  H   H299      1.0  0.01884  0.59540  0.52522  1.0000
  C   C182      1.0  0.21020  0.67847  0.87556  1.0000
  C   C183      1.0  0.17156  0.70634  0.92270  1.0000
  H   H300      1.0  0.15938  0.58217  0.92486  1.0000
  H   H301      1.0  0.17602  0.60194  0.87764  1.0000
  C   C184      1.0  0.99912  0.52288  0.71393  1.0000
  H   H302      1.0  0.19954  0.66399  0.86636  1.0000
  H   H303      1.0  0.12679  0.57066  0.93379  1.0000
  H   H304      1.0  0.12728  0.59359  0.93793  1.0000
  H   H305      1.0  0.02149  0.55922  0.72777  1.0000
  C   C185      1.0  0.17867  0.61524  0.89187  1.0000
  H   H306      1.0  0.09220  0.57856  0.94264  1.0000
  H   H307      1.0  0.11405  0.71851  0.73171  1.0000
  H   H308      1.0  0.14968  0.60659  0.90365  1.0000
  H   H309      1.0  0.01314  0.54920  0.76582  1.0000
  H   H310      1.0  0.15966  0.55222  0.72439  1.0000
  H   H311      1.0  0.13443  0.55723  0.75060  1.0000
  H   H312      1.0  0.19271  0.73560  0.92992  1.0000
  C   C186      1.0  0.11703  0.68392  0.72132  1.0000
  H   H313      1.0  0.10268  0.53368  0.83950  1.0000
  H   H314      1.0  0.22821  0.70874  0.91487  1.0000
  C   C187      1.0  0.09953  0.51859  0.83389  1.0000
  H   H315      1.0  0.08443  0.54039  0.79301  1.0000
  H   H316      1.0  0.12995  0.72563  0.80003  1.0000
  H   H317      1.0  0.13900  0.68819  0.97849  1.0000
  H   H318      1.0  0.16710  0.62472  0.93113  1.0000
  H   H319      1.0  0.09547  0.69212  0.70150  1.0000
  C   C188      1.0  0.13427  0.74196  0.68647  1.0000
  C   C189      1.0  0.06683  0.50527  0.73925  1.0000
  H   H320      1.0  0.99723  0.50325  0.56045  1.0000
  C   C190      1.0  0.22546  0.73828  0.93968  1.0000
  H   H321      1.0  0.04180  0.58809  0.76527  1.0000
  H   H322      1.0  0.14084  0.75443  0.70423  1.0000
  H   H323      1.0  0.11308  0.51750  0.83544  1.0000
  H   H324      1.0  0.08215  0.54639  0.73525  1.0000
  H   H325      1.0  0.13071  0.71339  0.67973  1.0000
  C   C191      1.0  0.15105  0.54221  0.74306  1.0000
  H   H326      1.0  0.05583  0.55455  0.63983  1.0000
  C   C192      1.0  0.99648  0.50341  0.63391  1.0000
  C   C193      1.0  0.09731  0.54329  0.77884  1.0000
  C   C194      1.0  0.11644  0.69651  0.77614  1.0000
  C   C195      1.0  0.02328  0.55007  0.74667  1.0000
  H   H327      1.0  0.99785  0.49871  0.51747  1.0000
  N   N11       1.0  0.12750  0.70082  0.74514  1.0000
  H   H328      1.0  0.15879  0.71530  0.88274  1.0000
  C   C196      1.0  0.14727  0.70306  0.75371  1.0000
  C   C197      1.0  0.12611  0.71066  0.80602  1.0000
  C   C198      1.0  0.15793  0.69823  0.72627  1.0000
  C   C199      1.0  0.17854  0.70368  0.73720  1.0000
  H   H329      1.0  0.11654  0.67073  0.73194  1.0000
  H   H330      1.0  0.12477  0.68567  0.69841  1.0000
  H   H331      1.0  0.15670  0.71780  0.76397  1.0000
  H   H332      1.0  0.14655  0.69339  0.77363  1.0000
  H   H333      1.0  0.11347  0.68200  0.78425  1.0000
  H   H334      1.0  0.12036  0.71535  0.85624  1.0000
  C   C200      1.0  0.13721  0.72517  0.69864  1.0000
  H   H335      1.0  0.13926  0.71001  0.81471  1.0000
  H   H336      1.0  0.15080  0.68257  0.72025  1.0000
  H   H337      1.0  0.15822  0.70559  0.70349  1.0000
  H   H338      1.0  0.18642  0.71915  0.74454  1.0000
  H   H339      1.0  0.17884  0.69508  0.75815  1.0000
  H   H340      1.0  0.18598  0.70068  0.71680  1.0000
  C   C201      1.0  0.12401  0.63401  0.98302  1.0000
  H   H341      1.0  0.04806  0.52972  0.64845  1.0000
  C   C202      1.0  0.19216  0.72233  0.91833  1.0000
  H   H342      1.0  0.14215  0.70033  0.91146  1.0000
  H   H343      1.0  0.08917  0.65056  0.69197  1.0000
  C   C203      1.0  0.14968  0.57495  0.98815  1.0000
  H   H344      1.0  0.15906  0.54691  0.76701  1.0000
  H   H345      1.0  0.03192  0.52151  0.77008  1.0000
  H   H346      1.0  0.14916  0.52762  0.73618  1.0000
  C   C204      1.0  0.11277  0.70576  0.83464  1.0000
  H   H347      1.0  0.21735  0.68693  0.85424  1.0000
  H   H348      1.0  0.02477  0.54158  0.66484  1.0000
  H   H349      1.0  0.08642  0.57230  0.77727  1.0000
  C   C205      1.0  0.09309  0.56684  0.95615  1.0000
  H   H350      1.0  0.14113  0.74639  0.66265  1.0000
  C   C206      1.0  0.04370  0.56117  0.76261  1.0000
  H   H351      1.0  0.10804  0.69072  0.84151  1.0000
  C   C207      1.0  0.09623  0.67938  0.71107  1.0000
  H   H352      1.0  0.17818  0.62566  0.87446  1.0000
  H   H353      1.0  0.10748  0.55706  0.73165  1.0000
  H   H354      1.0  0.09571  0.58136  0.73808  1.0000
  C   C208      1.0  0.13168  0.54226  0.74472  1.0000
  H   H355      1.0  0.15284  0.73016  0.70076  1.0000
  H   H356      1.0  0.99554  0.50891  0.70125  1.0000
  H   H357      1.0  0.16906  0.69267  0.91019  1.0000
  H   H358      1.0  0.11181  0.58317  0.77155  1.0000
  C   C209      1.0  0.04612  0.57935  0.78118  1.0000
  H   H359      1.0  0.07277  0.65946  0.67899  1.0000
  H   H360      1.0  0.22098  0.67687  0.89149  1.0000
  H   H361      1.0  0.12726  0.53597  0.79495  1.0000
  H   H362      1.0  0.09999  0.70770  0.82805  1.0000
  H   H363      1.0  0.09588  0.66842  0.66129  1.0000
  C   C210      1.0  0.08809  0.66350  0.68416  1.0000
  H   H364      1.0  0.13723  0.73143  0.74961  1.0000
  C   C211      1.0  0.03096  0.60015  0.50854  1.0000
  H   H365      1.0  0.04284  0.55976  0.69092  1.0000
  H   H366      1.0  0.10959  0.55336  0.79507  1.0000
  H   H367      1.0  0.21831  0.71692  0.88302  1.0000
  C   C212      1.0  0.15674  0.71216  0.90904  1.0000
  H   H368      1.0  0.15776  0.72502  0.92277  1.0000
  H   H369      1.0  0.08123  0.56116  0.97329  1.0000
  C   C213      1.0  0.09604  0.55449  0.74889  1.0000
  H   H370      1.0  0.00961  0.51962  0.78088  1.0000
  C   C214      1.0  0.03279  0.53067  0.70897  1.0000
  C   C215      1.0  0.22623  0.75217  0.82578  1.0000
  H   H371      1.0  0.22547  0.79390  0.97894  1.0000
  H   H372      1.0  0.06131  0.58814  0.78936  1.0000
  H   H373      1.0  0.03726  0.57570  0.80308  1.0000
  C   C216      1.0  0.03749  0.54492  0.68103  1.0000
  H   H374      1.0  0.03861  0.59143  0.51278  1.0000
  H   H375      1.0  0.05458  0.56546  0.74370  1.0000
  H   H376      1.0  0.04686  0.55245  0.78035  1.0000
  C   C217      1.0  0.05290  0.54432  0.65974  1.0000
  H   H377      1.0  0.01167  0.51206  0.63181  1.0000
  H   H378      1.0  0.02799  0.51628  0.69680  1.0000
  H   H379      1.0  0.04642  0.53387  0.72246  1.0000
  C   C218      1.0  0.98825  0.49743  0.53755  1.0000
  H   H380      1.0  0.19313  0.62141  0.90394  1.0000
  H   H381      1.0  0.17755  0.60017  0.95005  1.0000
  H   H382      1.0  0.09471  0.51108  0.88463  1.0000
  N   N12       1.0  0.14889  0.59044  0.96767  1.0000
  H   H383      1.0  0.06269  0.51188  0.68902  1.0000
  H   H384      1.0  0.01523  0.49267  0.73013  1.0000
  C   C219      1.0  0.05846  0.49919  0.70430  1.0000
  H   H385      1.0  0.19358  0.72506  0.89174  1.0000
  H   H386      1.0  0.06171  0.51519  0.74983  1.0000
  H   H387      1.0  0.09135  0.55511  0.93843  1.0000
  N   N13       1.0  0.01812  0.53032  0.73237  1.0000
  C   C220      1.0  0.08990  0.51156  0.79933  1.0000
  H   H388      1.0  0.18914  0.68858  0.87822  1.0000
  H   H389      1.0  0.06113  0.49209  0.75363  1.0000
  S   S43       1.0  0.12204  0.49024  0.87010  1.0000
  C   C221      1.0  0.00815  0.49570  0.75092  1.0000
  H   H390      1.0  0.04265  0.49157  0.70458  1.0000
  C   C222      1.0  0.20392  0.70774  0.96215  1.0000
  H   H391      1.0  0.18373  0.62283  0.98730  1.0000
  S   S44       1.0  0.98937  0.55984  0.59397  1.0000
  H   H392      1.0  0.04074  0.61547  0.51465  1.0000
  C   C223      1.0  0.11220  0.57439  0.97535  1.0000
  H   H393      1.0  0.19112  0.69370  0.95806  1.0000
  H   H394      1.0  0.09289  0.50292  0.73449  1.0000
  H   H395      1.0  0.19343  0.67899  0.91535  1.0000
  H   H396      1.0  0.13396  0.49863  0.95045  1.0000
  C   C224      1.0  0.21477  0.70893  0.90598  1.0000
  C   C225      1.0  0.20032  0.68821  0.89479  1.0000
  H   H397      1.0  0.08323  0.49100  0.85568  1.0000
  C   C226      1.0  0.23069  0.72499  0.80770  1.0000
  H   H398      1.0  0.98987  0.52533  0.52878  1.0000
  H   H399      1.0  0.14023  0.56048  0.97669  1.0000
  H   H400      1.0  0.22149  0.74674  0.95740  1.0000
  H   H401      1.0  0.07356  0.50785  0.86150  1.0000
  H   H402      1.0  0.19186  0.49458  0.96861  1.0000
  H   H403      1.0  0.17379  0.57126  0.96955  1.0000
  H   H404      1.0  0.22276  0.75217  0.89491  1.0000
  H   H405      1.0  0.21565  0.70408  0.96897  1.0000
  C   C227      1.0  0.20730  0.49833  0.96836  1.0000
  C   C228      1.0  0.13552  0.49300  0.97360  1.0000
  H   H406      1.0  0.19163  0.72495  0.98644  1.0000
  H   H407      1.0  0.11215  0.56238  0.98920  1.0000
  C   C229      1.0  0.15218  0.60787  0.98862  1.0000
  S   S45       1.0  0.33848  0.48536  0.13180  1.0000
  C   C230      1.0  0.45468  0.13522  0.99698  1.0000
  S   S46       1.0  0.29417  0.47180  0.15021  1.0000
  C   C231      1.0  0.46126  0.03084  0.23523  1.0000
  S   S47       1.0  0.45173  0.35307  0.17300  1.0000
  H   H408      1.0  0.45334  0.09767  0.28677  1.0000
  H   H409      1.0  0.43322  0.07601  0.08564  1.0000
  H   H410      1.0  0.34458  0.42199  0.18325  1.0000
  H   H411      1.0  0.38299  0.43287  0.21650  1.0000
  S   S48       1.0  0.46148  0.31084  0.12712  1.0000
  C   C232      1.0  0.38689  0.09368  0.14002  1.0000
  H   H412      1.0  0.44074  0.13477  0.99631  1.0000
  S   S49       1.0  0.46324  0.15281  0.15676  1.0000
  H   H413      1.0  0.37549  0.11043  0.06810  1.0000
  H   H414      1.0  0.41220  0.48536  0.47326  1.0000
  S   S50       1.0  0.45186  0.13435  0.06413  1.0000
  H   H415      1.0  0.44781  0.43243  0.19597  1.0000
  C   C233      1.0  0.42837  0.14722  0.21766  1.0000
  Fe  Fe24      1.0  0.40429  0.41520  0.38154  1.0000
  S   S51       1.0  0.38708  0.40205  0.33388  1.0000
  S   S52       1.0  0.39199  0.41376  0.43248  1.0000
  Fe  Fe25      1.0  0.44074  0.43558  0.34510  1.0000
  S   S53       1.0  0.42686  0.42467  0.29540  1.0000
  H   H416      1.0  0.38686  0.12038  0.12510  1.0000
  Fe  Fe26      1.0  0.40348  0.43143  0.31329  1.0000
  S   S54       1.0  0.39623  0.45052  0.27945  1.0000
  Fe  Fe27      1.0  0.41194  0.39657  0.31905  1.0000
  S   S55       1.0  0.41234  0.36943  0.29748  1.0000
  S   S56       1.0  0.41912  0.44467  0.36149  1.0000
  S   S57       1.0  0.42733  0.40725  0.36831  1.0000
  C   C234      1.0  0.24402  0.48602  0.15920  1.0000
  H   H417      1.0  0.43959  0.15233  0.23768  1.0000
  Fe  Fe28      1.0  0.40953  0.00879  0.29881  1.0000
  Fe  Fe29      1.0  0.47849  0.30183  0.16208  1.0000
  S   S58       1.0  0.41281  0.02882  0.25630  1.0000
  C   C235      1.0  0.43633  0.08636  0.10671  1.0000
  H   H418      1.0  0.46155  0.20035  0.07772  1.0000
  S   S59       1.0  0.46425  0.00470  0.35666  1.0000
  H   H419      1.0  0.39192  0.36637  0.13450  1.0000
  S   S60       1.0  0.42360  0.01765  0.34901  1.0000
  C   C236      1.0  0.45170  0.09253  0.23446  1.0000
  C   C237      1.0  0.44785  0.08687  0.26700  1.0000
  C   C238      1.0  0.43663  0.06744  0.27429  1.0000
  C   C239      1.0  0.42895  0.05327  0.24907  1.0000
  C   C240      1.0  0.43305  0.05890  0.21657  1.0000
  C   C241      1.0  0.44444  0.07829  0.20933  1.0000
  H   H420      1.0  0.48305  0.37688  0.09246  1.0000
  H   H421      1.0  0.43339  0.06352  0.29936  1.0000
  H   H422      1.0  0.42723  0.04814  0.19678  1.0000
  H   H423      1.0  0.44756  0.08221  0.18430  1.0000
  C   C242      1.0  0.44186  0.35805  0.20878  1.0000
  C   C243      1.0  0.43566  0.37232  0.20792  1.0000
  C   C244      1.0  0.42745  0.37661  0.23532  1.0000
  C   C245      1.0  0.42492  0.36638  0.26385  1.0000
  C   C246      1.0  0.43116  0.35215  0.26475  1.0000
  C   C247      1.0  0.43976  0.34814  0.23760  1.0000
  H   H424      1.0  0.43704  0.37995  0.18571  1.0000
  H   H425      1.0  0.42237  0.38729  0.23391  1.0000
  H   H426      1.0  0.36078  0.37331  0.19624  1.0000
  H   H427      1.0  0.47933  0.17487  0.05305  1.0000
  H   H428      1.0  0.40329  0.11469  0.10337  1.0000
  H   H429      1.0  0.25046  0.47661  0.15474  1.0000
  H   H430      1.0  0.41133  0.08965  0.20807  1.0000
  H   H431      1.0  0.44459  0.49008  0.48901  1.0000
  C   C248      1.0  0.40020  0.41213  0.47291  1.0000
  C   C249      1.0  0.37400  0.09935  0.08575  1.0000
  C   C250      1.0  0.34456  0.45598  0.23281  1.0000
  C   C251      1.0  0.36329  0.46808  0.22447  1.0000
  C   C252      1.0  0.37883  0.46643  0.23953  1.0000
  C   C253      1.0  0.37598  0.45272  0.26320  1.0000
  C   C254      1.0  0.35729  0.44072  0.27173  1.0000
  C   C255      1.0  0.34173  0.44229  0.25652  1.0000
  C   C256      1.0  0.45624  0.01286  0.21364  1.0000
  H   H432      1.0  0.36578  0.47867  0.20631  1.0000
  H   H433      1.0  0.35481  0.43023  0.29003  1.0000
  N   N14       1.0  0.40397  0.09953  0.16335  1.0000
  H   H434      1.0  0.41376  0.45950  0.20458  1.0000
  H   H435      1.0  0.43162  0.09981  0.16453  1.0000
  H   H436      1.0  0.37115  0.05186  0.21847  1.0000
  H   H437      1.0  0.42953  0.11533  0.13621  1.0000
  H   H438      1.0  0.46118  0.32411  0.03389  1.0000
  H   H439      1.0  0.41616  0.45670  0.48765  1.0000
  H   H440      1.0  0.44509  0.00977  0.42856  1.0000
  H   H441      1.0  0.42160  0.40388  0.45847  1.0000
  H   H442      1.0  0.46638  0.04925  0.36608  1.0000
  H   H443      1.0  0.48370  0.21384  0.03001  1.0000
  C   C257      1.0  0.46341  0.13495  0.02727  1.0000
  H   H444      1.0  0.48365  0.45577  0.47698  1.0000
  H   H445      1.0  0.46053  0.05008  0.29040  1.0000
  S   S61       1.0  0.48360  0.32587  0.19950  1.0000
  C   C258      1.0  0.48162  0.03857  0.25127  1.0000
  H   H446      1.0  0.47515  0.42439  0.30798  1.0000
  C   C259      1.0  0.35878  0.39316  0.25547  1.0000
  H   H447      1.0  0.45432  0.42168  0.43419  1.0000
  H   H448      1.0  0.46589  0.29105  0.23936  1.0000
  H   H449      1.0  0.46538  0.20649  0.18287  1.0000
  H   H450      1.0  0.47948  0.38558  0.05391  1.0000
  C   C260      1.0  0.47413  0.18557  0.04853  1.0000
  S   S62       1.0  0.30232  0.46690  0.05529  1.0000
  C   C261      1.0  0.37371  0.38703  0.19209  1.0000
  H   H451      1.0  0.44308  0.08213  0.12697  1.0000
  H   H452      1.0  0.44648  0.10074  0.09882  1.0000
  H   H453      1.0  0.34049  0.38679  0.21136  1.0000
  C   C262      1.0  0.46905  0.99131  0.29704  1.0000
  H   H454      1.0  0.39518  0.05723  0.23187  1.0000
  H   H455      1.0  0.46065  0.40369  0.28376  1.0000
  C   C263      1.0  0.46526  0.39453  0.34621  1.0000
  C   C264      1.0  0.38461  0.05190  0.21085  1.0000
  C   C265      1.0  0.42292  0.46436  0.46546  1.0000
  H   H456      1.0  0.35937  0.09318  0.09515  1.0000
  C   C266      1.0  0.46887  0.32438  0.01220  1.0000
  H   H457      1.0  0.47384  0.06998  0.24610  1.0000
  H   H458      1.0  0.39209  0.39714  0.14930  1.0000
  H   H459      1.0  0.37397  0.09108  0.15389  1.0000
  C   C267      1.0  0.35625  0.42464  0.16637  1.0000
  C   C268      1.0  0.40831  0.11899  0.17846  1.0000
  H   H460      1.0  0.38323  0.07980  0.12703  1.0000
  H   H461      1.0  0.37624  0.35488  0.16712  1.0000
  H   H462      1.0  0.42903  0.34392  0.28644  1.0000
  C   C269      1.0  0.48231  0.46978  0.32399  1.0000
  C   C270      1.0  0.41945  0.44891  0.20206  1.0000
  C   C271      1.0  0.47956  0.48458  0.27412  1.0000
  H   H463      1.0  0.39503  0.11896  0.18747  1.0000
  N   N15       1.0  0.36940  0.40391  0.19657  1.0000
  C   C272      1.0  0.41175  0.47490  0.45397  1.0000
  H   H464      1.0  0.38745  0.08662  0.20531  1.0000
  H   H465      1.0  0.36978  0.40603  0.26910  1.0000
  S   S63       1.0  0.46534  0.11748  0.22680  1.0000
  H   H466      1.0  0.34546  0.43958  0.13464  1.0000
  H   H467      1.0  0.43649  0.12584  0.20061  1.0000
  H   H468      1.0  0.48188  0.02694  0.26599  1.0000
  C   C273      1.0  0.41786  0.08637  0.11724  1.0000
  H   H469      1.0  0.40785  0.07154  0.12287  1.0000
  H   H470      1.0  0.34841  0.39459  0.15643  1.0000
  H   H471      1.0  0.41774  0.11791  0.22937  1.0000
  H   H472      1.0  0.40471  0.06241  0.17317  1.0000
  H   H473      1.0  0.38167  0.03692  0.20445  1.0000
  C   C274      1.0  0.47339  0.22079  0.17422  1.0000
  C   C275      1.0  0.42142  0.10092  0.14642  1.0000
  H   H474      1.0  0.41169  0.09021  0.09564  1.0000
  H   H475      1.0  0.37160  0.41072  0.14511  1.0000
  H   H476      1.0  0.45656  0.00132  0.22845  1.0000
  C   C276      1.0  0.42330  0.12651  0.20745  1.0000
  C   C277      1.0  0.39232  0.06433  0.18130  1.0000
  C   C278      1.0  0.39883  0.08570  0.19077  1.0000
  H   H477      1.0  0.45585  0.46233  0.29700  1.0000
  Fe  Fe30      1.0  0.39805  0.99274  0.36838  1.0000
  H   H478      1.0  0.25606  0.45307  0.04007  1.0000
  C   C279      1.0  0.46749  0.19004  0.08100  1.0000
  H   H479      1.0  0.36410  0.38229  0.25354  1.0000
  H   H480      1.0  0.33520  0.39534  0.27908  1.0000
  H   H481      1.0  0.41366  0.13010  0.15971  1.0000
  C   C280      1.0  0.38893  0.10843  0.11382  1.0000
  H   H482      1.0  0.38086  0.05873  0.16185  1.0000
  C   C281      1.0  0.47784  0.00330  0.32468  1.0000
  S   S64       1.0  0.46759  0.27020  0.17513  1.0000
  H   H483      1.0  0.41564  0.14820  0.22669  1.0000
  H   H484      1.0  0.47593  0.38537  0.30543  1.0000
  H   H485      1.0  0.45735  0.27926  0.27690  1.0000
  C   C282      1.0  0.47652  0.25321  0.16720  1.0000
  H   H486      1.0  0.36833  0.37873  0.13976  1.0000
  H   H487      1.0  0.45218  0.05906  0.34589  1.0000
  C   C283      1.0  0.34110  0.38495  0.27611  1.0000
  C   C284      1.0  0.36148  0.40772  0.16505  1.0000
  H   H488      1.0  0.47623  0.26616  0.24747  1.0000
  C   C285      1.0  0.47553  0.41226  0.29379  1.0000
  C   C286      1.0  0.46619  0.23432  0.17751  1.0000
  H   H489      1.0  0.36063  0.43121  0.11476  1.0000
  H   H490      1.0  0.47083  0.48581  0.25434  1.0000
  Fe  Fe31      1.0  0.47687  0.13617  0.18177  1.0000
  H   H491      1.0  0.44423  0.33699  0.23866  1.0000
  H   H492      1.0  0.45019  0.38706  0.33670  1.0000
  C   C287      1.0  0.47037  0.28894  0.26428  1.0000
  S   S65       1.0  0.32425  0.45702  0.21403  1.0000
  C   C288      1.0  0.34927  0.42756  0.13275  1.0000
  H   H493      1.0  0.42459  0.44700  0.22662  1.0000
  H   H494      1.0  0.47271  0.03922  0.31197  1.0000
  C   C289      1.0  0.46465  0.42423  0.22873  1.0000
  C   C290      1.0  0.46675  0.06223  0.35508  1.0000
  H   H495      1.0  0.46771  0.38495  0.36315  1.0000
  C   C291      1.0  0.38762  0.36872  0.15922  1.0000
  C   C292      1.0  0.38685  0.42135  0.20980  1.0000
  H   H496      1.0  0.45260  0.23018  0.18855  1.0000
  H   H497      1.0  0.46181  0.45060  0.22684  1.0000
  Fe  Fe32      1.0  0.46875  0.33615  0.16295  1.0000
  C   C293      1.0  0.47108  0.47119  0.29817  1.0000
  H   H498      1.0  0.46010  0.04163  0.21959  1.0000
  S   S66       1.0  0.47217  0.45331  0.35443  1.0000
  H   H499      1.0  0.45290  0.41819  0.24593  1.0000
  C   C294      1.0  0.35412  0.39876  0.22145  1.0000
  H   H500      1.0  0.39659  0.46434  0.44865  1.0000
  H   H501      1.0  0.46322  0.41273  0.21087  1.0000
  H   H502      1.0  0.37609  0.08792  0.07252  1.0000
  C   C295      1.0  0.41487  0.40702  0.47891  1.0000
  Fe  Fe33      1.0  0.31168  0.48203  0.10555  1.0000
  C   C296      1.0  0.44430  0.47848  0.47255  1.0000
  H   H503      1.0  0.46766  0.40784  0.36018  1.0000
  H   H504      1.0  0.32994  0.37138  0.26448  1.0000
  H   H505      1.0  0.45034  0.02674  0.25401  1.0000
  Fe  Fe34      1.0  0.47128  0.14310  0.10989  1.0000
  H   H506      1.0  0.47487  0.36082  0.05686  1.0000
  H   H507      1.0  0.39239  0.41825  0.23302  1.0000
  C   C297      1.0  0.46178  0.43932  0.20976  1.0000
  Fe  Fe35      1.0  0.32206  0.47807  0.17764  1.0000
  H   H508      1.0  0.43396  0.15679  0.19685  1.0000
  C   C298      1.0  0.38046  0.38387  0.15812  1.0000
  H   H509      1.0  0.47952  0.19617  0.09949  1.0000
  C   C299      1.0  0.40404  0.42980  0.18744  1.0000
  H   H510      1.0  0.45988  0.46123  0.43734  1.0000
  H   H511      1.0  0.39318  0.47580  0.23261  1.0000
  C   C300      1.0  0.47887  0.39919  0.31805  1.0000
  H   H512      1.0  0.35094  0.41095  0.22674  1.0000
  H   H513      1.0  0.40023  0.37349  0.17644  1.0000
  H   H514      1.0  0.36877  0.43831  0.17424  1.0000
  H   H515      1.0  0.44028  0.01191  0.48724  1.0000
  H   H516      1.0  0.39987  0.43249  0.16278  1.0000
  H   H517      1.0  0.32735  0.43289  0.26332  1.0000
  H   H518      1.0  0.44159  0.00763  0.20263  1.0000
  H   H519      1.0  0.43175  0.45477  0.18584  1.0000
  H   H520      1.0  0.41057  0.41993  0.18531  1.0000
  H   H521      1.0  0.34497  0.38187  0.30080  1.0000
  H   H522      1.0  0.33636  0.41447  0.12385  1.0000
  C   C301      1.0  0.30746  0.48110  0.02056  1.0000
  H   H523      1.0  0.38457  0.38789  0.21103  1.0000
  S   S67       1.0  0.48270  0.12490  0.13452  1.0000
  H   H524      1.0  0.45622  0.17663  0.09046  1.0000
  H   H525      1.0  0.47193  0.39159  0.24238  1.0000
  Fe  Fe36      1.0  0.43413  0.99601  0.33944  1.0000
  H   H526      1.0  0.46139  0.17903  0.03153  1.0000
  H   H527      1.0  0.41761  0.48244  0.43117  1.0000
  H   H528      1.0  0.46637  0.01600  0.19360  1.0000
  S   S68       1.0  0.38848  0.99790  0.41876  1.0000
  H   H529      1.0  0.47729  0.30292  0.27822  1.0000
  H   H530      1.0  0.42120  0.45374  0.44560  1.0000
  C   C302      1.0  0.46869  0.44518  0.47060  1.0000
  C   C303      1.0  0.47731  0.48536  0.49080  1.0000
  H   H531      1.0  0.44126  0.44312  0.45857  1.0000
  C   C304      1.0  0.47487  0.05266  0.30000  1.0000
  C   C305      1.0  0.39017  0.99953  0.48658  1.0000
  C   C306      1.0  0.44158  0.99699  0.44337  1.0000
  C   C307      1.0  0.44756  0.00329  0.47931  1.0000
  H   H532      1.0  0.23685  0.48401  0.03954  1.0000
  H   H533      1.0  0.48042  0.08168  0.31750  1.0000
  H   H534      1.0  0.48304  0.08733  0.19368  1.0000
  C   C308      1.0  0.48139  0.13543  0.02787  1.0000
  H   H535      1.0  0.46310  0.01281  0.48062  1.0000
  C   C309      1.0  0.25540  0.44808  0.01419  1.0000
  H   H536      1.0  0.45009  0.48529  0.44908  1.0000
  N   N16       1.0  0.45669  0.47009  0.48653  1.0000
  C   C310      1.0  0.45597  0.45500  0.46192  1.0000
  H   H537      1.0  0.39163  0.01385  0.48428  1.0000
  C   C311      1.0  0.48065  0.06872  0.32731  1.0000
  H   H538      1.0  0.48039  0.36419  0.23507  1.0000
  H   H539      1.0  0.24254  0.43403  0.01021  1.0000
  C   C312      1.0  0.46903  0.43249  0.44187  1.0000
  H   H540      1.0  0.26666  0.47690  0.99839  1.0000
  H   H541      1.0  0.23490  0.47934  0.08232  1.0000
  H   H542      1.0  0.26832  0.44612  0.01007  1.0000
  H   H543      1.0  0.47320  0.44606  0.19203  1.0000
  H   H544      1.0  0.47135  0.07380  0.37449  1.0000
  H   H545      1.0  0.47588  0.44133  0.42075  1.0000
  H   H546      1.0  0.26676  0.48591  0.06482  1.0000
  H   H547      1.0  0.47736  0.42486  0.44917  1.0000
  H   H548      1.0  0.24097  0.46341  0.99535  1.0000
  H   H549      1.0  0.46294  0.43583  0.49163  1.0000
  H   H550      1.0  0.31075  0.43380  0.71878  1.0000
  C   C313      1.0  0.45240  0.00833  0.55003  1.0000
  H   H551      1.0  0.43960  0.39008  0.62000  1.0000
  H   H552      1.0  0.28689  0.33940  0.78751  1.0000
  H   H553      1.0  0.27059  0.45878  0.95234  1.0000
  C   C314      1.0  0.24664  0.48992  0.82155  1.0000
  Fe  Fe37      1.0  0.40948  0.99750  0.67507  1.0000
  S   S69       1.0  0.42999  0.02846  0.69336  1.0000
  H   H554      1.0  0.43522  0.17851  0.71710  1.0000
  H   H555      1.0  0.38908  0.00053  0.53954  1.0000
  C   C315      1.0  0.45290  0.34690  0.65286  1.0000
  C   C316      1.0  0.46985  0.47673  0.67273  1.0000
  S   S70       1.0  0.34156  0.46389  0.81676  1.0000
  H   H556      1.0  0.46966  0.38442  0.90481  1.0000
  S   S71       1.0  0.46415  0.30509  0.81997  1.0000
  S   S72       1.0  0.46667  0.18873  0.83167  1.0000
  H   H557      1.0  0.45898  0.45476  0.52836  1.0000
  H   H558      1.0  0.33323  0.36514  0.76710  1.0000
  H   H559      1.0  0.46866  0.04461  0.58234  1.0000
  C   C317      1.0  0.47007  0.32282  0.95242  1.0000
  H   H560      1.0  0.24141  0.47652  0.70462  1.0000
  S   S73       1.0  0.26259  0.48010  0.81325  1.0000
  H   H561      1.0  0.45259  0.21599  0.84654  1.0000
  C   C318      1.0  0.25587  0.45721  0.95504  1.0000
  S   S74       1.0  0.45864  0.13939  0.85876  1.0000
  H   H562      1.0  0.31732  0.47961  0.93979  1.0000
  C   C319      1.0  0.25492  0.46245  0.89554  1.0000
  H   H563      1.0  0.37480  0.34049  0.60685  1.0000
  H   H564      1.0  0.43673  0.34272  0.57674  1.0000
  H   H565      1.0  0.37615  0.00103  0.80314  1.0000
  Fe  Fe38      1.0  0.41201  0.41404  0.63000  1.0000
  S   S75       1.0  0.41411  0.44186  0.65070  1.0000
  S   S76       1.0  0.41922  0.40674  0.57883  1.0000
  Fe  Fe39      1.0  0.40811  0.39729  0.69877  1.0000
  S   S77       1.0  0.40946  0.42359  0.72490  1.0000
  S   S78       1.0  0.40504  0.37040  0.72395  1.0000
  Fe  Fe40      1.0  0.39037  0.42427  0.68369  1.0000
  S   S79       1.0  0.36669  0.43334  0.68954  1.0000
  Fe  Fe41      1.0  0.43272  0.43952  0.69081  1.0000
  H   H566      1.0  0.43793  0.47065  0.59602  1.0000
  S   S80       1.0  0.38665  0.39623  0.65990  1.0000
  S   S81       1.0  0.43300  0.41353  0.66815  1.0000
  C   C320      1.0  0.41169  0.40923  0.53840  1.0000
  H   H567      1.0  0.41294  0.99247  0.76473  1.0000
  C   C321      1.0  0.39719  0.41453  0.53241  1.0000
  H   H568      1.0  0.43170  0.40136  0.51560  1.0000
  H   H569      1.0  0.39021  0.41739  0.55278  1.0000
  H   H570      1.0  0.44181  0.38052  0.65772  1.0000
  H   H571      1.0  0.40843  0.13748  0.86405  1.0000
  H   H572      1.0  0.33497  0.36295  0.64068  1.0000
  H   H573      1.0  0.45724  0.13650  0.94434  1.0000
  C   C322      1.0  0.42051  0.40553  0.51140  1.0000
  C   C323      1.0  0.43900  0.00828  0.79315  1.0000
  C   C324      1.0  0.39145  0.41586  0.49993  1.0000
  C   C325      1.0  0.45480  0.35652  0.74968  1.0000
  C   C326      1.0  0.45849  0.37444  0.73745  1.0000
  C   C327      1.0  0.44347  0.37895  0.72964  1.0000
  C   C328      1.0  0.42450  0.36542  0.73333  1.0000
  C   C329      1.0  0.42080  0.34740  0.74503  1.0000
  C   C330      1.0  0.43584  0.34300  0.75333  1.0000
  H   H574      1.0  0.46563  0.38621  0.96384  1.0000
  H   H575      1.0  0.44655  0.39290  0.72078  1.0000
  H   H576      1.0  0.40618  0.33674  0.74766  1.0000
  H   H577      1.0  0.43275  0.32891  0.76146  1.0000
  H   H578      1.0  0.45489  0.37912  0.50903  1.0000
  C   C331      1.0  0.44945  0.46052  0.51832  1.0000
  H   H579      1.0  0.43977  0.32725  0.69203  1.0000
  H   H580      1.0  0.39855  0.34390  0.65106  1.0000
  Fe  Fe42      1.0  0.32993  0.48572  0.82462  1.0000
  C   C332      1.0  0.47940  0.00259  0.65359  1.0000
  C   C333      1.0  0.38211  0.15544  0.72600  1.0000
  H   H581      1.0  0.44558  0.38463  0.56415  1.0000
  H   H582      1.0  0.39112  0.03090  0.83366  1.0000
  H   H583      1.0  0.43215  0.15258  0.82312  1.0000
  C   C334      1.0  0.35060  0.45782  0.78110  1.0000
  C   C335      1.0  0.36109  0.44737  0.78444  1.0000
  C   C336      1.0  0.36713  0.44077  0.75674  1.0000
  C   C337      1.0  0.36231  0.44412  0.72519  1.0000
  C   C338      1.0  0.35204  0.45477  0.72184  1.0000
  C   C339      1.0  0.34646  0.46183  0.74958  1.0000
  H   H584      1.0  0.36440  0.44420  0.80867  1.0000
  H   H585      1.0  0.37499  0.43260  0.75982  1.0000
  H   H586      1.0  0.34818  0.45742  0.69760  1.0000
  C   C340      1.0  0.44684  0.17696  0.73049  1.0000
  C   C341      1.0  0.44258  0.36986  0.55610  1.0000
  H   H587      1.0  0.26511  0.44564  0.84344  1.0000
  H   H588      1.0  0.47324  0.17683  0.98489  1.0000
  H   H589      1.0  0.42763  0.30503  0.86115  1.0000
  H   H590      1.0  0.47758  0.17918  0.89428  1.0000
  C   C342      1.0  0.23955  0.48127  0.72952  1.0000
  C   C343      1.0  0.43096  0.04678  0.72156  1.0000
  C   C344      1.0  0.44891  0.06167  0.73198  1.0000
  C   C345      1.0  0.45055  0.07632  0.75468  1.0000
  C   C346      1.0  0.43420  0.07638  0.76724  1.0000
  C   C347      1.0  0.41622  0.06157  0.75667  1.0000
  C   C348      1.0  0.41459  0.04692  0.73396  1.0000
  H   H591      1.0  0.46170  0.06184  0.72251  1.0000
  H   H592      1.0  0.46449  0.08760  0.76236  1.0000
  C   C349      1.0  0.28047  0.33504  0.76228  1.0000
  H   H593      1.0  0.40068  0.03591  0.72565  1.0000
  H   H594      1.0  0.39193  0.35354  0.79209  1.0000
  H   H595      1.0  0.47152  0.37894  0.53999  1.0000
  H   H596      1.0  0.47076  0.39527  0.60284  1.0000
  H   H597      1.0  0.40656  0.05482  0.87878  1.0000
  C   C350      1.0  0.46403  0.13627  0.96753  1.0000
  N   N17       1.0  0.43472  0.36059  0.61615  1.0000
  H   H598      1.0  0.47762  0.01795  0.58369  1.0000
  H   H599      1.0  0.48277  0.46764  0.59800  1.0000
  S   S82       1.0  0.45945  0.46508  0.70808  1.0000
  C   C351      1.0  0.31226  0.39950  0.71604  1.0000
  H   H600      1.0  0.33837  0.46978  0.74654  1.0000
  C   C352      1.0  0.47658  0.21397  0.82582  1.0000
  H   H601      1.0  0.33400  0.39635  0.76587  1.0000
  Fe  Fe43      1.0  0.47608  0.32139  0.86854  1.0000
  C   C353      1.0  0.41730  0.14314  0.81401  1.0000
  H   H602      1.0  0.36761  0.37423  0.76901  1.0000
  C   C354      1.0  0.43903  0.16361  0.75960  1.0000
  H   H603      1.0  0.40697  0.11003  0.70511  1.0000
  H   H604      1.0  0.45900  0.39443  0.81414  1.0000
  H   H605      1.0  0.40705  0.16881  0.75778  1.0000
  H   H606      1.0  0.24800  0.42122  0.84956  1.0000
  H   H607      1.0  0.47272  0.40697  0.67579  1.0000
  C   C355      1.0  0.46717  0.39164  0.83404  1.0000
  H   H608      1.0  0.34698  0.39127  0.67910  1.0000
  H   H609      1.0  0.43536  0.44774  0.51409  1.0000
  C   C356      1.0  0.44958  0.32918  0.67186  1.0000
  H   H610      1.0  0.41009  0.15225  0.81064  1.0000
  H   H611      1.0  0.40329  0.11967  0.77776  1.0000
  H   H612      1.0  0.46238  0.48348  0.55610  1.0000
  C   C357      1.0  0.39681  0.15401  0.74947  1.0000
  H   H613      1.0  0.40864  0.36966  0.65045  1.0000
  H   H614      1.0  0.42015  0.06212  0.84251  1.0000
  C   C358      1.0  0.40735  0.12926  0.84088  1.0000
  H   H615      1.0  0.39898  0.02115  0.86675  1.0000
  H   H616      1.0  0.46099  0.16818  0.92583  1.0000
  Fe  Fe44      1.0  0.47730  0.16566  0.83111  1.0000
  C   C359      1.0  0.40384  0.03119  0.84648  1.0000
  H   H617      1.0  0.23981  0.43850  0.83888  1.0000
  H   H618      1.0  0.41298  0.99286  0.84314  1.0000
  H   H619      1.0  0.42800  0.36285  0.54429  1.0000
  H   H620      1.0  0.27018  0.47071  0.88949  1.0000
  C   C360      1.0  0.41760  0.13221  0.78198  1.0000
  H   H621      1.0  0.44591  0.13529  0.74104  1.0000
  H   H622      1.0  0.46713  0.36730  0.85831  1.0000
  C   C361      1.0  0.48329  0.19155  0.97797  1.0000
  H   H623      1.0  0.46237  0.34772  0.63277  1.0000
  H   H624      1.0  0.43414  0.17124  0.77729  1.0000
  H   H625      1.0  0.38004  0.41975  0.49569  1.0000
  H   H626      1.0  0.30279  0.36896  0.67570  1.0000
  H   H627      1.0  0.40403  0.30337  0.85546  1.0000
  C   C362      1.0  0.47125  0.46619  0.64571  1.0000
  C   C363      1.0  0.40166  0.35617  0.63523  1.0000
  H   H628      1.0  0.46437  0.25063  0.83651  1.0000
  H   H629      1.0  0.45374  0.35661  0.52074  1.0000
  C   C364      1.0  0.33273  0.38643  0.66687  1.0000
  H   H630      1.0  0.45888  0.36161  0.59010  1.0000
  H   H631      1.0  0.41427  0.36720  0.58988  1.0000
  H   H632      1.0  0.46477  0.00803  0.77577  1.0000
  C   C365      1.0  0.41546  0.05137  0.86179  1.0000
  C   C366      1.0  0.41441  0.35635  0.60679  1.0000
  H   H633      1.0  0.30168  0.43249  0.75913  1.0000
  H   H634      1.0  0.42248  0.03777  0.80550  1.0000
  C   C367      1.0  0.48107  0.47569  0.61843  1.0000
  C   C368      1.0  0.43233  0.13384  0.72943  1.0000
  C   C369      1.0  0.29466  0.34697  0.73716  1.0000
  N   N18       1.0  0.31614  0.38263  0.72240  1.0000
  H   H635      1.0  0.24678  0.46609  0.87666  1.0000
  H   H636      1.0  0.34392  0.38502  0.61952  1.0000
  C   C370      1.0  0.38874  0.99201  0.51806  1.0000
  H   H637      1.0  0.44351  0.10545  0.71589  1.0000
  C   C371      1.0  0.43069  0.10380  0.70134  1.0000
  H   H638      1.0  0.32426  0.41081  0.70331  1.0000
  C   C372      1.0  0.45056  0.00557  0.76575  1.0000
  H   H639      1.0  0.44014  0.37626  0.95766  1.0000
  H   H640      1.0  0.32325  0.41823  0.76046  1.0000
  H   H641      1.0  0.45401  0.17147  0.71318  1.0000
  C   C373      1.0  0.45402  0.38501  0.94647  1.0000
  N   N19       1.0  0.25170  0.46847  0.92940  1.0000
  C   C374      1.0  0.41608  0.02593  0.82286  1.0000
  C   C375      1.0  0.46011  0.32231  0.98078  1.0000
  H   H642      1.0  0.36341  0.39328  0.78671  1.0000
  H   H643      1.0  0.29927  0.39982  0.76377  1.0000
  H   H644      1.0  0.42750  0.12608  0.78825  1.0000
  C   C376      1.0  0.38834  0.00621  0.78652  1.0000
  C   C377      1.0  0.30169  0.42385  0.73713  1.0000
  H   H645      1.0  0.37617  0.35377  0.82310  1.0000
  H   H646      1.0  0.29942  0.39492  0.69924  1.0000
  H   H647      1.0  0.28644  0.36935  0.73574  1.0000
  C   C378      1.0  0.44370  0.35807  0.58538  1.0000
  C   C379      1.0  0.40680  0.14328  0.73272  1.0000
  H   H648      1.0  0.47367  0.43011  0.76622  1.0000
  H   H649      1.0  0.40344  0.06152  0.76591  1.0000
  H   H650      1.0  0.44343  0.31613  0.65536  1.0000
  H   H651      1.0  0.42222  0.45165  0.56774  1.0000
  C   C380      1.0  0.46127  0.03234  0.59829  1.0000
  H   H652      1.0  0.30786  0.45915  0.98821  1.0000
  Fe  Fe45      1.0  0.46154  0.12154  0.81681  1.0000
  H   H653      1.0  0.44416  0.45212  0.58322  1.0000
  H   H654      1.0  0.39033  0.99210  0.84566  1.0000
  H   H655      1.0  0.45557  0.39961  0.94254  1.0000
  H   H656      1.0  0.46702  0.20637  0.72139  1.0000
  H   H657      1.0  0.48236  0.01717  0.66004  1.0000
  C   C381      1.0  0.47596  0.40995  0.64965  1.0000
  C   C382      1.0  0.25089  0.43639  0.85310  1.0000
  H   H658      1.0  0.28685  0.41593  0.72673  1.0000
  H   H659      1.0  0.39551  0.12830  0.72808  1.0000
  C   C383      1.0  0.26565  0.48936  0.93591  1.0000
  S   S83       1.0  0.45899  0.32042  0.91316  1.0000
  C   C384      1.0  0.41962  0.11219  0.72060  1.0000
  C   C385      1.0  0.46231  0.01453  0.58459  1.0000
  H   H660      1.0  0.37340  0.35355  0.64274  1.0000
  H   H661      1.0  0.24633  0.44164  0.95147  1.0000
  H   H662      1.0  0.41524  0.29772  0.82178  1.0000
  H   H663      1.0  0.41091  0.14899  0.70795  1.0000
  N   N20       1.0  0.42370  0.14349  0.75124  1.0000
  C   C386      1.0  0.45658  0.37116  0.52994  1.0000
  H   H664      1.0  0.46523  0.45078  0.64621  1.0000
  H   H665      1.0  0.40694  0.34224  0.59306  1.0000
  H   H666      1.0  0.46755  0.19267  0.91540  1.0000
  C   C387      1.0  0.46607  0.22374  0.83505  1.0000
  H   H667      1.0  0.34617  0.40212  0.72926  1.0000
  H   H668      1.0  0.31852  0.37042  0.62149  1.0000
  C   C388      1.0  0.34226  0.37523  0.74894  1.0000
  H   H669      1.0  0.41423  0.11983  0.84524  1.0000
  C   C389      1.0  0.38240  0.35400  0.62198  1.0000
  H   H670      1.0  0.33104  0.39915  0.65971  1.0000
  C   C390      1.0  0.41951  0.00604  0.77943  1.0000
  H   H671      1.0  0.38441  0.36631  0.60687  1.0000
  H   H672      1.0  0.26724  0.33679  0.76029  1.0000
  H   H673      1.0  0.39641  0.37580  0.81331  1.0000
  H   H674      1.0  0.43707  0.99752  0.81164  1.0000
  H   H675      1.0  0.43616  0.14090  0.70565  1.0000
  N   N21       1.0  0.43806  0.36296  0.85708  1.0000
  C   C391      1.0  0.43938  0.37377  0.88892  1.0000
  C   C392      1.0  0.42466  0.36584  0.83344  1.0000
  C   C393      1.0  0.43102  0.34206  0.86405  1.0000
  C   C394      1.0  0.45728  0.37016  0.84215  1.0000
  H   H676      1.0  0.42819  0.02646  0.83826  1.0000
  C   C395      1.0  0.45528  0.37551  0.91413  1.0000
  C   C396      1.0  0.42671  0.32815  0.83379  1.0000
  C   C397      1.0  0.40337  0.35658  0.84226  1.0000
  C   C398      1.0  0.39129  0.36019  0.81607  1.0000
  H   H677      1.0  0.43522  0.11103  0.67785  1.0000
  H   H678      1.0  0.42823  0.05248  0.87580  1.0000
  C   C399      1.0  0.41784  0.30733  0.84379  1.0000
  H   H679      1.0  0.42562  0.36678  0.90144  1.0000
  H   H680      1.0  0.44141  0.38851  0.88438  1.0000
  H   H681      1.0  0.42908  0.38139  0.83113  1.0000
  H   H682      1.0  0.42560  0.36063  0.80837  1.0000
  H   H683      1.0  0.41811  0.33680  0.87899  1.0000
  H   H684      1.0  0.44180  0.34012  0.87941  1.0000
  H   H685      1.0  0.39084  0.02087  0.78012  1.0000
  H   H686      1.0  0.45614  0.36212  0.81875  1.0000
  C   C400      1.0  0.46168  0.19699  0.74248  1.0000
  C   C401      1.0  0.38141  0.99425  0.75364  1.0000
  H   H687      1.0  0.45417  0.36128  0.91968  1.0000
  C   C402      1.0  0.44790  0.47322  0.54652  1.0000
  H   H688      1.0  0.44008  0.33098  0.82146  1.0000
  H   H689      1.0  0.41660  0.32943  0.81587  1.0000
  H   H690      1.0  0.39745  0.34084  0.84407  1.0000
  H   H691      1.0  0.40163  0.36271  0.86595  1.0000
  C   C403      1.0  0.29995  0.36855  0.74190  1.0000
  H   H692      1.0  0.47308  0.38491  0.73405  1.0000
  C   C404      1.0  0.30941  0.40988  0.74678  1.0000
  H   H693      1.0  0.47044  0.41993  0.64122  1.0000
  H   H694      1.0  0.44771  0.02286  0.80433  1.0000
  H   H695      1.0  0.42461  0.33119  0.62955  1.0000
  C   C405      1.0  0.36166  0.99162  0.74252  1.0000
  C   C406      1.0  0.44504  0.38065  0.63134  1.0000
  H   H696      1.0  0.42683  0.34726  0.66292  1.0000
  H   H697      1.0  0.34247  0.36712  0.72648  1.0000
  C   C407      1.0  0.47272  0.24345  0.82940  1.0000
  C   C408      1.0  0.31670  0.37368  0.68948  1.0000
  H   H698      1.0  0.23645  0.43106  0.89821  1.0000
  C   C409      1.0  0.43375  0.34591  0.64026  1.0000
  C   C410      1.0  0.33241  0.37543  0.63525  1.0000
  C   C411      1.0  0.33488  0.39002  0.74168  1.0000
  C   C412      1.0  0.48209  0.13691  0.96825  1.0000
  H   H699      1.0  0.45559  0.00320  0.60218  1.0000
  H   H700      1.0  0.30291  0.37247  0.76858  1.0000
  H   H701      1.0  0.30729  0.34431  0.73944  1.0000
  H   H702      1.0  0.43811  0.00809  0.55069  1.0000
  H   H703      1.0  0.38919  0.16391  0.70462  1.0000
  H   H704      1.0  0.45536  0.20355  0.75965  1.0000
  S   S84       1.0  0.47418  0.35113  0.75701  1.0000
  C   C413      1.0  0.25052  0.44116  0.88947  1.0000
  C   C414      1.0  0.46709  0.39136  0.62852  1.0000
  S   S85       1.0  0.43534  0.09457  0.79583  1.0000
  C   C415      1.0  0.36265  0.38510  0.76365  1.0000
  S   S86       1.0  0.30640  0.47975  0.86007  1.0000
  H   H705      1.0  0.37118  0.14094  0.71726  1.0000
  H   H706      1.0  0.45137  0.16305  0.77254  1.0000
  H   H707      1.0  0.37239  0.39504  0.74599  1.0000
  C   C416      1.0  0.40034  0.99111  0.82791  1.0000
  H   H708      1.0  0.31841  0.36051  0.69222  1.0000
  H   H709      1.0  0.42150  0.08826  0.69591  1.0000
  H   H710      1.0  0.44002  0.48117  0.53881  1.0000
  H   H711      1.0  0.47414  0.38261  0.63594  1.0000
  H   H712      1.0  0.47361  0.43562  0.72382  1.0000
  H   H713      1.0  0.39203  0.12025  0.83394  1.0000
  H   H714      1.0  0.38897  0.14598  0.77065  1.0000
  H   H715      1.0  0.45273  0.01593  0.74629  1.0000
  S   S87       1.0  0.47801  0.14756  0.78764  1.0000
  H   H716      1.0  0.41458  0.10372  0.74274  1.0000
  H   H717      1.0  0.28779  0.34154  0.71243  1.0000
  C   C417      1.0  0.47283  0.18181  0.91833  1.0000
  H   H718      1.0  0.27657  0.31964  0.75778  1.0000
  H   H719      1.0  0.37479  0.16275  0.73885  1.0000
  H   H720      1.0  0.44557  0.32025  0.97845  1.0000
  H   H721      1.0  0.46034  0.35950  0.67009  1.0000
  H   H722      1.0  0.46828  0.03622  0.62316  1.0000
  Fe  Fe46      1.0  0.47986  0.33385  0.79681  1.0000
  H   H723      1.0  0.39142  0.00167  0.73413  1.0000
  H   H724      1.0  0.36193  0.00572  0.73881  1.0000
  H   H725      1.0  0.47400  0.19629  0.75516  1.0000
  H   H726      1.0  0.47468  0.19954  0.97574  1.0000
  N   N22       1.0  0.40589  0.00691  0.80398  1.0000
  H   H727      1.0  0.42263  0.01739  0.76155  1.0000
  C   C418      1.0  0.31491  0.48519  0.96274  1.0000
  H   H728      1.0  0.24389  0.47370  0.74797  1.0000
  H   H729      1.0  0.46844  0.40098  0.85575  1.0000
  H   H730      1.0  0.46091  0.02033  0.53433  1.0000
  H   H731      1.0  0.46337  0.33089  0.68280  1.0000
  H   H732      1.0  0.44617  0.02949  0.60042  1.0000
  H   H733      1.0  0.26155  0.43841  0.90251  1.0000
  C   C419      1.0  0.43741  0.46111  0.57502  1.0000
  C   C420      1.0  0.48296  0.43688  0.74555  1.0000
  H   H734      1.0  0.48277  0.00074  0.49266  1.0000
  C   C421      1.0  0.30961  0.47366  0.99019  1.0000
  C   C422      1.0  0.25452  0.46276  0.99123  1.0000
  H   H735      1.0  0.45159  0.99023  0.67398  1.0000
  H   H736      1.0  0.44312  0.99078  0.75471  1.0000
  S   S88       1.0  0.45499  0.66530  0.10753  1.0000
  Fe  Fe47      1.0  0.30189  0.50291  0.15978  1.0000
  Fe  Fe48      1.0  0.45121  0.64220  0.14233  1.0000
  S   S89       1.0  0.42332  0.62517  0.16733  1.0000
  S   S90       1.0  0.46463  0.81202  0.07763  1.0000
  S   S91       1.0  0.46239  0.82421  0.15376  1.0000
  Fe  Fe49      1.0  0.45488  0.83109  0.10445  1.0000
  S   S92       1.0  0.42782  0.83259  0.08854  1.0000
  H   H737      1.0  0.38629  0.96136  0.44007  1.0000
  C   C423      1.0  0.40063  0.77338  0.06771  1.0000
  S   S93       1.0  0.31828  0.51277  0.11375  1.0000
  C   C424      1.0  0.46503  0.57293  0.16547  1.0000
  S   S94       1.0  0.32860  0.50869  0.19075  1.0000
  H   H738      1.0  0.40103  0.84248  0.02077  1.0000
  Fe  Fe50      1.0  0.39581  0.96537  0.31026  1.0000
  Fe  Fe51      1.0  0.34395  0.51568  0.14343  1.0000
  S   S95       1.0  0.37447  0.53622  0.13204  1.0000
  H   H739      1.0  0.26631  0.81757  0.00868  1.0000
  Fe  Fe52      1.0  0.32492  0.82748  0.09950  1.0000
  S   S96       1.0  0.31773  0.79866  0.11868  1.0000
  S   S97       1.0  0.33643  0.83180  0.04862  1.0000
  Fe  Fe53      1.0  0.31948  0.84312  0.16631  1.0000
  S   S98       1.0  0.31099  0.81463  0.18990  1.0000
  S   S99       1.0  0.32316  0.87195  0.18905  1.0000
  Fe  Fe54      1.0  0.33564  0.81465  0.16285  1.0000
  S   S100      1.0  0.35899  0.80841  0.18341  1.0000
  Fe  Fe55      1.0  0.29326  0.80050  0.14314  1.0000
  S   S101      1.0  0.26540  0.77340  0.12781  1.0000
  S   S102      1.0  0.34480  0.84338  0.14206  1.0000
  S   S103      1.0  0.29979  0.82905  0.12136  1.0000
  H   H740      1.0  0.33460  0.96144  0.29053  1.0000
  S   S104      1.0  0.38400  0.93339  0.29407  1.0000
  C   C425      1.0  0.34067  0.88902  0.21760  1.0000
  C   C426      1.0  0.35104  0.88387  0.24012  1.0000
  C   C427      1.0  0.36430  0.89765  0.26297  1.0000
  C   C428      1.0  0.36736  0.91683  0.26390  1.0000
  C   C429      1.0  0.35700  0.92202  0.24139  1.0000
  C   C430      1.0  0.34369  0.90820  0.21860  1.0000
  H   H741      1.0  0.34842  0.86910  0.24043  1.0000
  H   H742      1.0  0.37204  0.89332  0.28036  1.0000
  H   H743      1.0  0.35918  0.93667  0.24153  1.0000
  H   H744      1.0  0.33569  0.91240  0.20153  1.0000
  H   H745      1.0  0.44482  0.85404  0.02320  1.0000
  H   H746      1.0  0.44460  0.97479  0.48823  1.0000
  H   H747      1.0  0.47996  0.92282  0.27997  1.0000
  H   H748      1.0  0.31714  0.93770  0.42515  1.0000
  H   H749      1.0  0.24556  0.82654  0.05411  1.0000
  H   H750      1.0  0.25585  0.53242  0.17933  1.0000
  C   C431      1.0  0.40923  0.82658  0.11588  1.0000
  C   C432      1.0  0.39221  0.82656  0.10499  1.0000
  C   C433      1.0  0.37681  0.82112  0.12569  1.0000
  C   C434      1.0  0.37838  0.81577  0.15754  1.0000
  C   C435      1.0  0.39553  0.81611  0.16870  1.0000
  C   C436      1.0  0.41095  0.82152  0.14791  1.0000
  H   H751      1.0  0.39082  0.83059  0.08035  1.0000
  H   H752      1.0  0.36361  0.82077  0.11671  1.0000
  H   H753      1.0  0.39685  0.81209  0.19340  1.0000
  H   H754      1.0  0.42409  0.82168  0.15659  1.0000
  C   C437      1.0  0.40933  0.60050  0.15696  1.0000
  C   C438      1.0  0.39152  0.59024  0.17092  1.0000
  C   C439      1.0  0.38037  0.57049  0.16335  1.0000
  C   C440      1.0  0.38719  0.56092  0.14218  1.0000
  C   C441      1.0  0.40491  0.57119  0.12827  1.0000
  C   C442      1.0  0.41581  0.59087  0.13534  1.0000
  H   H755      1.0  0.38636  0.59758  0.18766  1.0000
  H   H756      1.0  0.36669  0.56267  0.17420  1.0000
  H   H757      1.0  0.41025  0.56385  0.11191  1.0000
  H   H758      1.0  0.42928  0.59850  0.12424  1.0000
  H   H759      1.0  0.42667  0.76369  0.17884  1.0000
  H   H760      1.0  0.38491  0.90887  0.39534  1.0000
  H   H761      1.0  0.40327  0.59380  0.01573  1.0000
  C   C443      1.0  0.40692  0.83774  0.99987  1.0000
  C   C444      1.0  0.32846  0.94566  0.28646  1.0000
  C   C445      1.0  0.25572  0.50544  0.16724  1.0000
  H   H762      1.0  0.39535  0.73454  0.14627  1.0000
  C   C446      1.0  0.48111  0.52667  0.32773  1.0000
  C   C447      1.0  0.39739  0.73206  0.09363  1.0000
  C   C448      1.0  0.24437  0.81659  0.07365  1.0000
  H   H763      1.0  0.42548  0.67974  0.02827  1.0000
  H   H764      1.0  0.48107  0.50083  0.41531  1.0000
  H   H765      1.0  0.43418  0.86867  0.03826  1.0000
  C   C449      1.0  0.32304  0.83252  0.01398  1.0000
  C   C450      1.0  0.31037  0.84051  0.01556  1.0000
  H   H766      1.0  0.33950  0.74944  0.12959  1.0000
  H   H767      1.0  0.30839  0.84624  0.03871  1.0000
  H   H768      1.0  0.48313  0.59017  0.10817  1.0000
  C   C451      1.0  0.38707  0.97000  0.46160  1.0000
  H   H769      1.0  0.44964  0.71316  0.02609  1.0000
  C   C452      1.0  0.40255  0.74424  0.12612  1.0000
  H   H770      1.0  0.39319  0.75831  0.05848  1.0000
  H   H771      1.0  0.28882  0.80282  0.05212  1.0000
  H   H772      1.0  0.48072  0.58234  0.16553  1.0000
  H   H773      1.0  0.35357  0.78390  0.05367  1.0000
  S   S105      1.0  0.40968  0.97177  0.36133  1.0000
  H   H774      1.0  0.31660  0.52577  0.99758  1.0000
  S   S106      1.0  0.46304  0.62785  0.10857  1.0000
  S   S107      1.0  0.28114  0.51551  0.17082  1.0000
  H   H775      1.0  0.37859  0.52602  0.02217  1.0000
  H   H776      1.0  0.45197  0.60023  0.18904  1.0000
  N   N23       1.0  0.45715  0.57576  0.19742  1.0000
  H   H777      1.0  0.47748  0.60505  0.25082  1.0000
  H   H778      1.0  0.31274  0.93904  0.28879  1.0000
  C   C453      1.0  0.47280  0.75798  0.13410  1.0000
  C   C454      1.0  0.31469  0.51123  0.99541  1.0000
  H   H779      1.0  0.36344  0.90112  0.13110  1.0000
  C   C455      1.0  0.34908  0.76212  0.11604  1.0000
  H   H780      1.0  0.36113  0.59029  0.11610  1.0000
  H   H781      1.0  0.34324  0.95931  0.46583  1.0000
  N   N24       1.0  0.24919  0.79224  0.03531  1.0000
  H   H782      1.0  0.45203  0.87753  0.00772  1.0000
  H   H783      1.0  0.46921  0.63105  0.26472  1.0000
  N   N25       1.0  0.40274  0.88009  0.19065  1.0000
  C   C456      1.0  0.41584  0.87140  0.18243  1.0000
  C   C457      1.0  0.38644  0.86581  0.20948  1.0000
  C   C458      1.0  0.39429  0.88290  0.15881  1.0000
  C   C459      1.0  0.41278  0.89919  0.20937  1.0000
  C   C460      1.0  0.42985  0.90237  0.23298  1.0000
  C   C461      1.0  0.43154  0.88244  0.15800  1.0000
  S   S108      1.0  0.45867  0.64514  0.02263  1.0000
  C   C462      1.0  0.39155  0.86108  0.24374  1.0000
  C   C463      1.0  0.37415  0.84516  0.25868  1.0000
  C   C464      1.0  0.42916  0.78843  0.20595  1.0000
  C   C465      1.0  0.44751  0.87642  0.15940  1.0000
  H   H784      1.0  0.46329  0.51172  0.36768  1.0000
  H   H785      1.0  0.40738  0.85665  0.17143  1.0000
  H   H786      1.0  0.42288  0.86942  0.20480  1.0000
  H   H787      1.0  0.37577  0.87104  0.21397  1.0000
  H   H788      1.0  0.37871  0.85210  0.19467  1.0000
  H   H789      1.0  0.38715  0.86910  0.14410  1.0000
  H   H790      1.0  0.40576  0.89294  0.14349  1.0000
  H   H791      1.0  0.41863  0.91115  0.19219  1.0000
  H   H792      1.0  0.37404  0.60335  0.08192  1.0000
  H   H793      1.0  0.44242  0.90431  0.21884  1.0000
  H   H794      1.0  0.42664  0.89019  0.24887  1.0000
  H   H795      1.0  0.42520  0.87919  0.13259  1.0000
  H   H796      1.0  0.43792  0.89815  0.16284  1.0000
  H   H797      1.0  0.38995  0.77898  0.06759  1.0000
  H   H798      1.0  0.27086  0.81673  0.06296  1.0000
  H   H799      1.0  0.40272  0.85620  0.24275  1.0000
  H   H800      1.0  0.39638  0.87386  0.26066  1.0000
  H   H801      1.0  0.37810  0.84246  0.28358  1.0000
  H   H802      1.0  0.36950  0.82661  0.00510  1.0000
  H   H803      1.0  0.36895  0.83166  0.24353  1.0000
  H   H804      1.0  0.24696  0.66512  0.18958  1.0000
  C   C466      1.0  0.37983  0.89131  0.16181  1.0000
  H   H805      1.0  0.36368  0.53950  0.06787  1.0000
  C   C467      1.0  0.23584  0.69054  0.18678  1.0000
  H   H806      1.0  0.36706  0.50938  0.07263  1.0000
  H   H807      1.0  0.44165  0.86072  0.15467  1.0000
  H   H808      1.0  0.45512  0.62628  0.22703  1.0000
  S   S109      1.0  0.46250  0.77414  0.13458  1.0000
  H   H809      1.0  0.45105  0.53610  0.40556  1.0000
  H   H810      1.0  0.24952  0.76566  0.19373  1.0000
  H   H811      1.0  0.41266  0.82845  0.01090  1.0000
  C   C468      1.0  0.25218  0.82874  0.10545  1.0000
  H   H812      1.0  0.47964  0.74190  0.06515  1.0000
  H   H813      1.0  0.37703  0.57342  0.08836  1.0000
  H   H814      1.0  0.35727  0.49229  0.03844  1.0000
  H   H815      1.0  0.47666  0.93101  0.39563  1.0000
  C   C469      1.0  0.24158  0.49070  0.06435  1.0000
  H   H816      1.0  0.47832  0.69695  0.03596  1.0000
  H   H817      1.0  0.45378  0.98290  0.29519  1.0000
  H   H818      1.0  0.24352  0.83626  0.11125  1.0000
  H   H819      1.0  0.36909  0.74215  0.13875  1.0000
  H   H820      1.0  0.34453  0.53372  0.03929  1.0000
  H   H821      1.0  0.40677  0.74056  0.07419  1.0000
  H   H822      1.0  0.46814  0.60582  0.99336  1.0000
  H   H823      1.0  0.45789  0.88369  0.14035  1.0000
  H   H824      1.0  0.26720  0.83970  0.10294  1.0000
  H   H825      1.0  0.42613  0.77881  0.04099  1.0000
  H   H826      1.0  0.42783  0.80178  0.20247  1.0000
  H   H827      1.0  0.38702  0.90735  0.11712  1.0000
  H   H828      1.0  0.36960  0.78757  0.00223  1.0000
  C   C470      1.0  0.36369  0.57242  0.07719  1.0000
  H   H829      1.0  0.43300  0.95071  0.36963  1.0000
  C   C471      1.0  0.36977  0.76932  0.12836  1.0000
  H   H830      1.0  0.46093  0.57095  0.24867  1.0000
  C   C472      1.0  0.37159  0.80088  0.01568  1.0000
  H   H831      1.0  0.25644  0.79778  0.08736  1.0000
  S   S110      1.0  0.48260  0.85747  0.10052  1.0000
  C   C473      1.0  0.42627  0.59084  0.03981  1.0000
  H   H832      1.0  0.34746  0.75822  0.08946  1.0000
  H   H833      1.0  0.47336  0.97984  0.25131  1.0000
  C   C474      1.0  0.46500  0.51656  0.30179  1.0000
  H   H834      1.0  0.41322  0.79050  0.11174  1.0000
  H   H835      1.0  0.39685  0.70589  0.07355  1.0000
  H   H836      1.0  0.41953  0.78014  0.22531  1.0000
  H   H837      1.0  0.24891  0.63363  0.20052  1.0000
  H   H838      1.0  0.35481  0.51559  0.00381  1.0000
  C   C475      1.0  0.36337  0.52140  0.02711  1.0000
  C   C476      1.0  0.33743  0.96486  0.44598  1.0000
  H   H839      1.0  0.36641  0.88098  0.17242  1.0000
  C   C477      1.0  0.40065  0.71438  0.09713  1.0000
  C   C478      1.0  0.26463  0.72137  0.20648  1.0000
  C   C479      1.0  0.36162  0.59001  0.08896  1.0000
  H   H840      1.0  0.23669  0.66095  0.22825  1.0000
  H   H841      1.0  0.44641  0.54975  0.45727  1.0000
  H   H842      1.0  0.36822  0.88298  0.11159  1.0000
  C   C480      1.0  0.43964  0.68448  0.04093  1.0000
  H   H843      1.0  0.39443  0.55861  0.05734  1.0000
  H   H844      1.0  0.44187  0.56579  0.12828  1.0000
  H   H845      1.0  0.45339  0.93085  0.33366  1.0000
  C   C481      1.0  0.40521  0.58624  0.03686  1.0000
  H   H846      1.0  0.39164  0.70513  0.11631  1.0000
  H   H847      1.0  0.46838  0.96583  0.38268  1.0000
  H   H848      1.0  0.27276  0.73016  0.22852  1.0000
  C   C482      1.0  0.43572  0.92036  0.25509  1.0000
  C   C483      1.0  0.42441  0.77639  0.17391  1.0000
  H   H849      1.0  0.24594  0.51989  0.05806  1.0000
  H   H850      1.0  0.48301  0.62052  0.04873  1.0000
  H   H851      1.0  0.25154  0.81959  0.12616  1.0000
  H   H852      1.0  0.25461  0.69462  0.23050  1.0000
  H   H853      1.0  0.30725  0.78773  0.02914  1.0000
  H   H854      1.0  0.34823  0.58951  0.07851  1.0000
  C   C484      1.0  0.36012  0.53824  0.04118  1.0000
  H   H855      1.0  0.47074  0.55916  0.41554  1.0000
  C   C485      1.0  0.46371  0.54399  0.42241  1.0000
  Fe  Fe56      1.0  0.47416  0.80648  0.12678  1.0000
  C   C486      1.0  0.41550  0.78443  0.04290  1.0000
  H   H856      1.0  0.28602  0.76843  0.01037  1.0000
  H   H857      1.0  0.44923  0.93026  0.37678  1.0000
  H   H858      1.0  0.46899  0.56464  0.09997  1.0000
  H   H859      1.0  0.41813  0.74910  0.13042  1.0000
  H   H860      1.0  0.44544  0.73315  0.13573  1.0000
  H   H861      1.0  0.41589  0.71867  0.10358  1.0000
  H   H862      1.0  0.40209  0.59247  0.05920  1.0000
  H   H863      1.0  0.42403  0.77600  0.10072  1.0000
  H   H864      1.0  0.37184  0.74766  0.09720  1.0000
  C   C487      1.0  0.45654  0.57731  0.13399  1.0000
  H   H865      1.0  0.38472  0.80614  0.03170  1.0000
  C   C488      1.0  0.25344  0.80356  0.00446  1.0000
  H   H866      1.0  0.45848  0.70959  0.13638  1.0000
  H   H867      1.0  0.25452  0.76947  0.01476  1.0000
  H   H868      1.0  0.34252  0.50097  0.05883  1.0000
  C   C489      1.0  0.37693  0.75406  0.12216  1.0000
  H   H869      1.0  0.47477  0.51168  0.48047  1.0000
  C   C490      1.0  0.24534  0.75394  0.14435  1.0000
  H   H870      1.0  0.39829  0.55817  0.01508  1.0000
  H   H871      1.0  0.34882  0.56611  0.03007  1.0000
  H   H872      1.0  0.36241  0.84924  0.26067  1.0000
  H   H873      1.0  0.28919  0.77140  0.05468  1.0000
  H   H874      1.0  0.42596  0.98762  0.44055  1.0000
  H   H875      1.0  0.27070  0.50875  0.04975  1.0000
  H   H876      1.0  0.43452  0.78499  0.15554  1.0000
  H   H877      1.0  0.44801  0.92244  0.27148  1.0000
  C   C491      1.0  0.26020  0.78067  0.03500  1.0000
  H   H878      1.0  0.43070  0.58623  0.01703  1.0000
  H   H879      1.0  0.43513  0.60652  0.04389  1.0000
  C   C492      1.0  0.43972  0.86459  0.01624  1.0000
  C   C493      1.0  0.40363  0.77025  0.16145  1.0000
  H   H880      1.0  0.38579  0.90467  0.17745  1.0000
  H   H881      1.0  0.24584  0.69118  0.16755  1.0000
  C   C494      1.0  0.45233  0.93923  0.35505  1.0000
  Fe  Fe57      1.0  0.46908  0.65214  0.07573  1.0000
  H   H882      1.0  0.27458  0.71853  0.19110  1.0000
  C   C495      1.0  0.46477  0.60490  0.23815  1.0000
  H   H883      1.0  0.47119  0.51713  0.27748  1.0000
  H   H884      1.0  0.45523  0.88041  0.18369  1.0000
  H   H885      1.0  0.35661  0.80802  0.05360  1.0000
  S   S111      1.0  0.42176  0.98832  0.28811  1.0000
  H   H886      1.0  0.44002  0.93323  0.24020  1.0000
  C   C496      1.0  0.46838  0.57839  0.10433  1.0000
  H   H887      1.0  0.37875  0.78281  0.11630  1.0000
  H   H888      1.0  0.40226  0.90186  0.22365  1.0000
  C   C497      1.0  0.24834  0.70259  0.21686  1.0000
  H   H889      1.0  0.40167  0.78340  0.16308  1.0000
  H   H890      1.0  0.46301  0.55794  0.16249  1.0000
  H   H891      1.0  0.46826  0.51928  0.42536  1.0000
  C   C498      1.0  0.46803  0.72474  0.13546  1.0000
  H   H892      1.0  0.47219  0.74195  0.02419  1.0000
  C   C499      1.0  0.24059  0.75379  0.17713  1.0000
  S   S112      1.0  0.38231  0.98521  0.31846  1.0000
  H   H893      1.0  0.45565  0.52371  0.30029  1.0000
  C   C500      1.0  0.35465  0.79551  0.03768  1.0000
  H   H894      1.0  0.45220  0.59637  0.25252  1.0000
  C   C501      1.0  0.47299  0.52679  0.36185  1.0000
  H   H895      1.0  0.46363  0.53386  0.35872  1.0000
  H   H896      1.0  0.32472  0.95710  0.39749  1.0000
  H   H897      1.0  0.40841  0.78287  0.01841  1.0000
  C   C502      1.0  0.29162  0.77901  0.03138  1.0000
  N   N26       1.0  0.37115  0.55737  0.02592  1.0000
  H   H898      1.0  0.37197  0.58543  0.03037  1.0000
  H   H899      1.0  0.47240  0.96758  0.34059  1.0000
  C   C503      1.0  0.36380  0.57080  0.03932  1.0000
  N   N27       1.0  0.39820  0.76114  0.12725  1.0000
  C   C504      1.0  0.32965  0.95048  0.41678  1.0000
  C   C505      1.0  0.45641  0.54332  0.45689  1.0000
  C   C506      1.0  0.43524  0.94309  0.34818  1.0000
  H   H900      1.0  0.44412  0.79248  0.21420  1.0000
  C   C507      1.0  0.46510  0.56817  0.22421  1.0000
  H   H901      1.0  0.43750  0.95191  0.32635  1.0000
  H   H902      1.0  0.34469  0.77361  0.12020  1.0000
  C   C508      1.0  0.46066  0.73816  0.13494  1.0000
  H   H903      1.0  0.33140  0.94259  0.26113  1.0000
  C   C509      1.0  0.43573  0.56379  0.19489  1.0000
  C   C510      1.0  0.42452  0.56412  0.22532  1.0000
  C   C511      1.0  0.40401  0.54811  0.22257  1.0000
  H   H904      1.0  0.45888  0.55227  0.22135  1.0000
  H   H905      1.0  0.42376  0.91896  0.27052  1.0000
  H   H906      1.0  0.42938  0.56859  0.17483  1.0000
  H   H907      1.0  0.43212  0.54860  0.18826  1.0000
  H   H908      1.0  0.43095  0.56214  0.24836  1.0000
  H   H909      1.0  0.42382  0.57795  0.22715  1.0000
  H   H910      1.0  0.40378  0.53383  0.22224  1.0000
  H   H911      1.0  0.39602  0.54922  0.24385  1.0000
  H   H912      1.0  0.39657  0.54920  0.19996  1.0000
  C   C512      1.0  0.47088  0.95826  0.36134  1.0000
  H   H913      1.0  0.28541  0.79980  0.00819  1.0000
  N   N28       1.0  0.33944  0.93192  0.37370  1.0000
  C   C513      1.0  0.35661  0.92926  0.36468  1.0000
  C   C514      1.0  0.33416  0.94183  0.34679  1.0000
  C   C515      1.0  0.34502  0.94490  0.40425  1.0000
  C   C516      1.0  0.32261  0.91323  0.38116  1.0000
  C   C517      1.0  0.31600  0.89696  0.35435  1.0000
  C   C518      1.0  0.36396  0.91959  0.39024  1.0000
  C   C519      1.0  0.23604  0.50709  0.07117  1.0000
  C   C520      1.0  0.33745  0.93738  0.31090  1.0000
  H   H914      1.0  0.42214  0.92934  0.34331  1.0000
  C   C521      1.0  0.30075  0.87817  0.36688  1.0000
  C   C522      1.0  0.37972  0.91555  0.37652  1.0000
  H   H915      1.0  0.36870  0.94340  0.35967  1.0000
  H   H916      1.0  0.35383  0.92064  0.34147  1.0000
  H   H917      1.0  0.31896  0.93888  0.34826  1.0000
  H   H918      1.0  0.34261  0.95771  0.35020  1.0000
  H   H919      1.0  0.35821  0.95841  0.40026  1.0000
  H   H920      1.0  0.34860  0.93814  0.42514  1.0000
  H   H921      1.0  0.32543  0.90776  0.40448  1.0000
  H   H922      1.0  0.30988  0.91549  0.38567  1.0000
  H   H923      1.0  0.32788  0.89419  0.34621  1.0000
  H   H924      1.0  0.30944  0.90057  0.33303  1.0000
  H   H925      1.0  0.37009  0.92902  0.41254  1.0000
  H   H926      1.0  0.35237  0.90571  0.39731  1.0000
  C   C523      1.0  0.47462  0.70881  0.04134  1.0000
  C   C524      1.0  0.47734  0.53463  0.42089  1.0000
  H   H927      1.0  0.35298  0.94403  0.30671  1.0000
  H   H928      1.0  0.33161  0.92186  0.30496  1.0000
  C   C525      1.0  0.24698  0.51739  0.17301  1.0000
  H   H929      1.0  0.47641  0.60587  0.19116  1.0000
  H   H930      1.0  0.25894  0.72975  0.19245  1.0000
  H   H931      1.0  0.28817  0.87988  0.37473  1.0000
  H   H932      1.0  0.29596  0.86685  0.34698  1.0000
  H   H933      1.0  0.30661  0.87343  0.38780  1.0000
  H   H934      1.0  0.37426  0.90560  0.35460  1.0000
  H   H935      1.0  0.39193  0.92906  0.36954  1.0000
  H   H936      1.0  0.35158  0.55955  0.08651  1.0000
  C   C526      1.0  0.30950  0.49976  0.02278  1.0000
  H   H937      1.0  0.37025  0.77271  0.15503  1.0000
  C   C527      1.0  0.40979  0.77571  0.10281  1.0000
  H   H938      1.0  0.39404  0.76043  0.17961  1.0000
  C   C528      1.0  0.39222  0.56424  0.03370  1.0000
  H   H939      1.0  0.42304  0.79989  0.05013  1.0000
  C   C529      1.0  0.38921  0.98858  0.45806  1.0000
  H   H940      1.0  0.38224  0.72693  0.08572  1.0000
  C   C530      1.0  0.28209  0.79219  0.03144  1.0000
  C   C531      1.0  0.46254  0.59684  0.20238  1.0000
  H   H941      1.0  0.32584  0.96757  0.45590  1.0000
  H   H942      1.0  0.46181  0.58137  0.08226  1.0000
  H   H943      1.0  0.48238  0.77631  0.01807  1.0000
  H   H944      1.0  0.30728  0.50543  0.04570  1.0000
  H   H945      1.0  0.45606  0.59115  0.13696  1.0000
  C   C532      1.0  0.45457  0.70201  0.02470  1.0000
  C   C533      1.0  0.37437  0.89596  0.12827  1.0000
  H   H946      1.0  0.43853  0.68796  0.06707  1.0000
  C   C534      1.0  0.25589  0.80559  0.06537  1.0000
  H   H947      1.0  0.44865  0.52827  0.46447  1.0000
  H   H948      1.0  0.34887  0.97870  0.43832  1.0000
  C   C535      1.0  0.46760  0.62553  0.23896  1.0000
  H   H949      1.0  0.25836  0.77291  0.05806  1.0000
  H   H950      1.0  0.48130  0.92925  0.34082  1.0000
  H   H951      1.0  0.42898  0.58368  0.06099  1.0000
  H   H952      1.0  0.45628  0.50129  0.30750  1.0000
  H   H953      1.0  0.23975  0.51082  0.09782  1.0000
  H   H954      1.0  0.47328  0.70928  0.06844  1.0000
  H   H955      1.0  0.23961  0.70646  0.23363  1.0000
  H   H956      1.0  0.47695  0.95158  0.29894  1.0000
  H   H957      1.0  0.47407  0.84454  0.02323  1.0000
  H   H958      1.0  0.23728  0.73788  0.09818  1.0000
  H   H959      1.0  0.34113  0.79051  0.02275  1.0000
  H   H960      1.0  0.23974  0.53985  0.09768  1.0000
  C   C536      1.0  0.35716  0.50504  0.05072  1.0000
  C   C537      1.0  0.47976  0.84443  0.99947  1.0000
  H   H961      1.0  0.46844  0.55157  0.47477  1.0000
  H   H962      1.0  0.45477  0.69768  0.99869  1.0000
  H   H963      1.0  0.44341  0.67246  0.03930  1.0000
  H   H964      1.0  0.48071  0.63486  0.22617  1.0000
  S   S113      1.0  0.47926  0.65989  0.17008  1.0000
  H   H965      1.0  0.26850  0.50458  0.09318  1.0000
  C   C538      1.0  0.26319  0.49800  0.06822  1.0000
  H   H966      1.0  0.48197  0.95242  0.41827  1.0000
  C   C539      1.0  0.48016  0.98936  0.27246  1.0000
  H   H967      1.0  0.44927  0.98922  0.43354  1.0000
  C   C540      1.0  0.23391  0.62727  0.20824  1.0000
  Fe  Fe58      1.0  0.45348  0.64233  0.82113  1.0000
  H   H968      1.0  0.33761  0.52720  0.71822  1.0000
  S   S114      1.0  0.42956  0.61660  0.84347  1.0000
  Fe  Fe59      1.0  0.46809  0.68312  0.79553  1.0000
  S   S115      1.0  0.45961  0.65399  0.77053  1.0000
  S   S116      1.0  0.45943  0.67086  0.84467  1.0000
  H   H969      1.0  0.32025  0.80488  0.70698  1.0000
  Fe  Fe60      1.0  0.44382  0.82228  0.79125  1.0000
  S   S117      1.0  0.45748  0.85190  0.81396  1.0000
  S   S118      1.0  0.41326  0.80886  0.77148  1.0000
  Fe  Fe61      1.0  0.46853  0.83962  0.85334  1.0000
  S   S119      1.0  0.46886  0.82727  0.76025  1.0000
  S   S120      1.0  0.45259  0.80944  0.83263  1.0000
  Fe  Fe62      1.0  0.28522  0.79073  0.82494  1.0000
  S   S121      1.0  0.28277  0.81839  0.82530  1.0000
  S   S122      1.0  0.26336  0.75963  0.81012  1.0000
  Fe  Fe63      1.0  0.32719  0.81169  0.85136  1.0000
  S   S123      1.0  0.32750  0.84041  0.85447  1.0000
  S   S124      1.0  0.35407  0.81132  0.87141  1.0000
  Fe  Fe64      1.0  0.29844  0.82432  0.87475  1.0000
  S   S125      1.0  0.29031  0.83481  0.92113  1.0000
  Fe  Fe65      1.0  0.31245  0.83248  0.80490  1.0000
  S   S126      1.0  0.32402  0.85130  0.76030  1.0000
  S   S127      1.0  0.29920  0.79613  0.87537  1.0000
  S   S128      1.0  0.31374  0.80423  0.80073  1.0000
  Fe  Fe66      1.0  0.37804  0.95654  0.68699  1.0000
  S   S129      1.0  0.35938  0.94054  0.72921  1.0000
  S   S130      1.0  0.38510  0.94363  0.64308  1.0000
  Fe  Fe67      1.0  0.33459  0.52584  0.81295  1.0000
  S   S131      1.0  0.34905  0.51479  0.84850  1.0000
  S   S132      1.0  0.35004  0.55235  0.78344  1.0000
  H   H970      1.0  0.41037  0.68174  0.79840  1.0000
  Fe  Fe68      1.0  0.32446  0.50959  0.88054  1.0000
  H   H971      1.0  0.43088  0.92787  0.78732  1.0000
  S   S133      1.0  0.31158  0.52320  0.84682  1.0000
  H   H972      1.0  0.33539  0.81913  0.98241  1.0000
  H   H973      1.0  0.24630  0.50948  0.71523  1.0000
  S   S134      1.0  0.32683  0.52003  0.93341  1.0000
  H   H974      1.0  0.40070  0.64646  0.72457  1.0000
  C   C541      1.0  0.41424  0.63958  0.90530  1.0000
  H   H975      1.0  0.47786  0.68900  0.72880  1.0000
  H   H976      1.0  0.40613  0.93192  0.73126  1.0000
  C   C542      1.0  0.30329  0.83431  0.95664  1.0000
  C   C543      1.0  0.31599  0.82639  0.95524  1.0000
  C   C544      1.0  0.47732  0.49662  0.67183  1.0000
  H   H977      1.0  0.31839  0.82102  0.93212  1.0000
  S   S135      1.0  0.40855  0.97349  0.70506  1.0000
  C   C545      1.0  0.33476  0.87639  0.75323  1.0000
  C   C546      1.0  0.33606  0.89015  0.77701  1.0000
  C   C547      1.0  0.34389  0.90971  0.76943  1.0000
  C   C548      1.0  0.35088  0.91587  0.73824  1.0000
  C   C549      1.0  0.35013  0.90217  0.71483  1.0000
  C   C550      1.0  0.34192  0.88259  0.72218  1.0000
  H   H978      1.0  0.33055  0.88567  0.80094  1.0000
  H   H979      1.0  0.34425  0.92010  0.78772  1.0000
  H   H980      1.0  0.35521  0.90657  0.69063  1.0000
  H   H981      1.0  0.34073  0.87209  0.70340  1.0000
  H   H982      1.0  0.42624  0.82345  0.95627  1.0000
  C   C551      1.0  0.45804  0.96853  0.65248  1.0000
  H   H983      1.0  0.47295  0.91222  0.71791  1.0000
  C   C552      1.0  0.47262  0.66385  0.93161  1.0000
  H   H984      1.0  0.33926  0.64118  0.83619  1.0000
  H   H985      1.0  0.38504  0.63031  0.79325  1.0000
  H   H986      1.0  0.39608  0.80110  0.97458  1.0000
  C   C553      1.0  0.42887  0.95285  0.54324  1.0000
  C   C554      1.0  0.46981  0.84523  0.97106  1.0000
  C   C555      1.0  0.39680  0.80918  0.79959  1.0000
  C   C556      1.0  0.40300  0.81836  0.83049  1.0000
  C   C557      1.0  0.38973  0.81895  0.85222  1.0000
  C   C558      1.0  0.37024  0.81051  0.84318  1.0000
  C   C559      1.0  0.36401  0.80136  0.81224  1.0000
  C   C560      1.0  0.37728  0.80062  0.79058  1.0000
  H   H987      1.0  0.41800  0.82490  0.83777  1.0000
  H   H988      1.0  0.39460  0.82608  0.87602  1.0000
  H   H989      1.0  0.34897  0.79463  0.80523  1.0000
  H   H990      1.0  0.37241  0.79327  0.76687  1.0000
  C   C561      1.0  0.23409  0.75126  0.91031  1.0000
  H   H991      1.0  0.27044  0.53391  0.77914  1.0000
  C   C562      1.0  0.40763  0.59904  0.82563  1.0000
  C   C563      1.0  0.39468  0.58541  0.84594  1.0000
  C   C564      1.0  0.37714  0.57098  0.83315  1.0000
  C   C565      1.0  0.37221  0.57021  0.79989  1.0000
  C   C566      1.0  0.38498  0.58405  0.77956  1.0000
  C   C567      1.0  0.40276  0.59830  0.79230  1.0000
  H   H992      1.0  0.39826  0.58588  0.87169  1.0000
  H   H993      1.0  0.36739  0.56048  0.84908  1.0000
  H   H994      1.0  0.38131  0.58345  0.75374  1.0000
  H   H995      1.0  0.41281  0.60838  0.77627  1.0000
  C   C568      1.0  0.46410  0.75898  0.77853  1.0000
  C   C569      1.0  0.45714  0.73906  0.77214  1.0000
  H   H996      1.0  0.45789  0.76675  0.76542  1.0000
  H   H997      1.0  0.44550  0.73170  0.75427  1.0000
  C   C570      1.0  0.39520  0.81123  0.95692  1.0000
  C   C571      1.0  0.38252  0.86683  0.93538  1.0000
  C   C572      1.0  0.38076  0.85236  0.96104  1.0000
  H   H998      1.0  0.47574  0.50470  0.69237  1.0000
  C   C573      1.0  0.47968  0.76897  0.80054  1.0000
  H   H999      1.0  0.41969  0.86731  0.98311  1.0000
  H   H1000     1.0  0.40265  0.79676  0.89824  1.0000
  H   H1001     1.0  0.44809  0.61311  0.95999  1.0000
  C   C574      1.0  0.41397  0.81838  0.93836  1.0000
  C   C575      1.0  0.41443  0.80221  0.91728  1.0000
  N   N29       1.0  0.39136  0.82632  0.97421  1.0000
  H   H1002     1.0  0.23725  0.73635  0.95204  1.0000
  N   N30       1.0  0.39757  0.65572  0.82580  1.0000
  H   H1003     1.0  0.37852  0.82930  0.92873  1.0000
  H   H1004     1.0  0.40211  0.84716  0.93629  1.0000
  H   H1005     1.0  0.24790  0.50700  0.75891  1.0000
  H   H1006     1.0  0.34002  0.54898  0.70026  1.0000
  H   H1007     1.0  0.42663  0.72154  0.86291  1.0000
  S   S136      1.0  0.37825  0.98128  0.65846  1.0000
  H   H1008     1.0  0.37088  0.54368  0.97885  1.0000
  H   H1009     1.0  0.42007  0.64025  0.72806  1.0000
  H   H1010     1.0  0.25723  0.79617  0.98442  1.0000
  H   H1011     1.0  0.46683  0.97415  0.52709  1.0000
  H   H1012     1.0  0.24557  0.53181  0.84241  1.0000
  H   H1013     1.0  0.46165  0.93152  0.79109  1.0000
  H   H1014     1.0  0.38631  0.65147  0.77574  1.0000
  H   H1015     1.0  0.27427  0.50485  0.70654  1.0000
  H   H1016     1.0  0.41603  0.83010  0.92193  1.0000
  H   H1017     1.0  0.25491  0.54795  0.67712  1.0000
  H   H1018     1.0  0.44024  0.91088  0.67217  1.0000
  H   H1019     1.0  0.41323  0.79028  0.93264  1.0000
  C   C576      1.0  0.33207  0.53308  0.69850  1.0000
  S   S137      1.0  0.46399  0.84705  0.90546  1.0000
  H   H1020     1.0  0.37463  0.85925  0.91227  1.0000
  H   H1021     1.0  0.36534  0.84413  0.96564  1.0000
  Fe  Fe69      1.0  0.29476  0.49368  0.82445  1.0000
  H   H1022     1.0  0.30556  0.53200  0.68097  1.0000
  Fe  Fe70      1.0  0.41530  0.96203  0.65972  1.0000
  C   C577      1.0  0.40848  0.65231  0.88482  1.0000
  H   H1023     1.0  0.39538  0.65178  0.89513  1.0000
  S   S138      1.0  0.43587  0.94968  0.66008  1.0000
  H   H1024     1.0  0.39840  0.96780  0.79356  1.0000
  C   C578      1.0  0.37269  0.81609  0.99108  1.0000
  C   C579      1.0  0.39417  0.64604  0.79210  1.0000
  C   C580      1.0  0.24825  0.77165  0.92175  1.0000
  H   H1025     1.0  0.42668  0.67832  0.82463  1.0000
  H   H1026     1.0  0.48204  0.58273  0.96297  1.0000
  C   C581      1.0  0.47689  0.84512  0.93999  1.0000
  C   C582      1.0  0.42781  0.71114  0.84531  1.0000
  H   H1027     1.0  0.41566  0.64415  0.93158  1.0000
  H   H1028     1.0  0.42823  0.64086  0.89784  1.0000
  C   C583      1.0  0.36251  0.63329  0.83970  1.0000
  H   H1029     1.0  0.40335  0.62433  0.90237  1.0000
  C   C584      1.0  0.44170  0.98577  0.50130  1.0000
  H   H1030     1.0  0.25984  0.77166  0.93787  1.0000
  C   C585      1.0  0.37867  0.65399  0.83663  1.0000
  H   H1031     1.0  0.40995  0.68719  0.87317  1.0000
  H   H1032     1.0  0.42263  0.66353  0.77198  1.0000
  H   H1033     1.0  0.37335  0.66140  0.81926  1.0000
  H   H1034     1.0  0.26820  0.51791  0.83752  1.0000
  H   H1035     1.0  0.41945  0.64118  0.78785  1.0000
  C   C586      1.0  0.41224  0.64829  0.77433  1.0000
  H   H1036     1.0  0.25631  0.83513  0.96964  1.0000
  H   H1037     1.0  0.25453  0.53852  0.73499  1.0000
  H   H1038     1.0  0.24078  0.77866  0.93490  1.0000
  C   C587      1.0  0.40701  0.63906  0.73977  1.0000
  N   N31       1.0  0.38267  0.85038  0.74424  1.0000
  C   C588      1.0  0.36904  0.83170  0.72686  1.0000
  C   C589      1.0  0.40252  0.85179  0.74674  1.0000
  C   C590      1.0  0.37585  0.85041  0.77853  1.0000
  C   C591      1.0  0.38273  0.86738  0.72768  1.0000
  C   C592      1.0  0.38995  0.87077  0.69249  1.0000
  C   C593      1.0  0.34767  0.82709  0.72536  1.0000
  C   C594      1.0  0.39016  0.86590  0.80351  1.0000
  C   C595      1.0  0.40869  0.84280  0.71788  1.0000
  C   C596      1.0  0.43011  0.84879  0.72024  1.0000
  C   C597      1.0  0.38741  0.88721  0.67757  1.0000
  C   C598      1.0  0.33547  0.80783  0.70735  1.0000
  C   C599      1.0  0.38068  0.86574  0.83574  1.0000
  H   H1039     1.0  0.37002  0.81962  0.73901  1.0000
  H   H1040     1.0  0.37298  0.83091  0.70125  1.0000
  H   H1041     1.0  0.41336  0.86698  0.75096  1.0000
  H   H1042     1.0  0.40393  0.84413  0.76844  1.0000
  H   H1043     1.0  0.37180  0.83630  0.78946  1.0000
  H   H1044     1.0  0.36262  0.85229  0.77792  1.0000
  H   H1045     1.0  0.36828  0.86665  0.72760  1.0000
  H   H1046     1.0  0.39188  0.88077  0.74197  1.0000
  H   H1047     1.0  0.38209  0.85786  0.67616  1.0000
  H   H1048     1.0  0.40545  0.87493  0.69287  1.0000
  H   H1049     1.0  0.34218  0.82601  0.75028  1.0000
  H   H1050     1.0  0.34544  0.83817  0.71229  1.0000
  H   H1051     1.0  0.39556  0.88050  0.79419  1.0000
  H   H1052     1.0  0.40256  0.86319  0.80930  1.0000
  H   H1053     1.0  0.40105  0.82691  0.71864  1.0000
  H   H1054     1.0  0.40536  0.84666  0.69360  1.0000
  H   H1055     1.0  0.43458  0.84659  0.74511  1.0000
  H   H1056     1.0  0.43354  0.84001  0.70238  1.0000
  H   H1057     1.0  0.43843  0.86404  0.71458  1.0000
  H   H1058     1.0  0.39352  0.88996  0.65294  1.0000
  H   H1059     1.0  0.37203  0.88348  0.67482  1.0000
  H   H1060     1.0  0.39483  0.90059  0.69307  1.0000
  H   H1061     1.0  0.33984  0.80804  0.68169  1.0000
  H   H1062     1.0  0.33675  0.79609  0.72012  1.0000
  H   H1063     1.0  0.39124  0.87650  0.85353  1.0000
  H   H1064     1.0  0.36866  0.86931  0.83173  1.0000
  H   H1065     1.0  0.37517  0.85143  0.84646  1.0000
  C   C600      1.0  0.28232  0.54265  0.71549  1.0000
  C   C601      1.0  0.44783  0.90044  0.78547  1.0000
  H   H1066     1.0  0.42009  0.95027  0.52024  1.0000
  H   H1067     1.0  0.39629  0.62992  0.84629  1.0000
  H   H1068     1.0  0.39866  0.91249  0.75915  1.0000
  S   S139      1.0  0.45714  0.70392  0.77684  1.0000
  H   H1069     1.0  0.34757  0.64052  0.87768  1.0000
  C   C602      1.0  0.41062  0.69146  0.84752  1.0000
  H   H1070     1.0  0.25169  0.50207  0.90364  1.0000
  H   H1071     1.0  0.45366  0.61972  0.91820  1.0000
  C   C603      1.0  0.31066  0.52633  0.70154  1.0000
  H   H1072     1.0  0.27742  0.53498  0.69112  1.0000
  H   H1073     1.0  0.35102  0.54826  0.98451  1.0000
  H   H1074     1.0  0.35840  0.62544  0.81555  1.0000
  H   H1075     1.0  0.46905  0.89918  0.81938  1.0000
  C   C604      1.0  0.40537  0.64572  0.84821  1.0000
  H   H1076     1.0  0.36692  0.62514  0.85680  1.0000
  H   H1077     1.0  0.42033  0.66706  0.88788  1.0000
  H   H1078     1.0  0.42841  0.71651  0.82028  1.0000
  H   H1079     1.0  0.37213  0.55601  0.92220  1.0000
  H   H1080     1.0  0.45663  0.84611  0.97317  1.0000
  C   C605      1.0  0.26780  0.54997  0.72584  1.0000
  H   H1081     1.0  0.42817  0.80772  0.90471  1.0000
  H   H1082     1.0  0.38026  0.66148  0.86072  1.0000
  C   C606      1.0  0.34457  0.63348  0.85281  1.0000
  H   H1083     1.0  0.33318  0.61853  0.85440  1.0000
  H   H1084     1.0  0.27413  0.56119  0.74579  1.0000
  H   H1085     1.0  0.29377  0.52641  0.92526  1.0000
  C   C607      1.0  0.41183  0.67660  0.82302  1.0000
  C   C608      1.0  0.25126  0.50298  0.73466  1.0000
  H   H1086     1.0  0.39670  0.62364  0.74050  1.0000
  C   C609      1.0  0.25317  0.50903  0.83220  1.0000
  C   C610      1.0  0.27897  0.52412  0.92009  1.0000
  H   H1087     1.0  0.30275  0.56627  0.76942  1.0000
  H   H1088     1.0  0.44835  0.89636  0.71828  1.0000
  H   H1089     1.0  0.40476  0.93639  0.77422  1.0000
  H   H1090     1.0  0.36064  0.80881  0.97259  1.0000
  H   H1091     1.0  0.44757  0.64469  0.95600  1.0000
  C   C611      1.0  0.42783  0.59408  0.92381  1.0000
  H   H1092     1.0  0.37576  0.96704  0.80319  1.0000
  N   N32       1.0  0.45577  0.92457  0.73901  1.0000
  H   H1093     1.0  0.39774  0.87604  0.93033  1.0000
  H   H1094     1.0  0.44464  0.88386  0.82861  1.0000
  C   C612      1.0  0.43523  0.92096  0.73642  1.0000
  C   C613      1.0  0.38496  0.96224  0.49297  1.0000
  H   H1095     1.0  0.44269  0.97445  0.58163  1.0000
  H   H1096     1.0  0.46298  0.94985  0.71078  1.0000
  C   C614      1.0  0.42928  0.93198  0.76210  1.0000
  H   H1097     1.0  0.46844  0.95036  0.62910  1.0000
  H   H1098     1.0  0.42151  0.58193  0.94034  1.0000
  H   H1099     1.0  0.41945  0.64769  0.84014  1.0000
  H   H1100     1.0  0.37691  0.58063  0.91837  1.0000
  C   C615      1.0  0.40845  0.92786  0.75622  1.0000
  C   C616      1.0  0.46102  0.59706  0.93365  1.0000
  C   C617      1.0  0.36673  0.55439  0.98945  1.0000
  H   H1101     1.0  0.43291  0.89817  0.78691  1.0000
  C   C618      1.0  0.23847  0.74483  0.81516  1.0000
  H   H1102     1.0  0.42538  0.90541  0.73732  1.0000
  H   H1103     1.0  0.43205  0.92508  0.71209  1.0000
  H   H1104     1.0  0.47691  0.73102  0.91736  1.0000
  H   H1105     1.0  0.46696  0.72525  0.97443  1.0000
  H   H1106     1.0  0.39761  0.69314  0.84158  1.0000
  H   H1107     1.0  0.44076  0.94940  0.53833  1.0000
  H   H1108     1.0  0.39221  0.57694  0.96904  1.0000
  H   H1109     1.0  0.28049  0.56231  0.81515  1.0000
  H   H1110     1.0  0.43807  0.94767  0.76060  1.0000
  H   H1111     1.0  0.38306  0.80245  0.93929  1.0000
  H   H1112     1.0  0.24987  0.81485  0.94132  1.0000
  C   C619      1.0  0.31795  0.50419  0.96561  1.0000
  C   C620      1.0  0.46539  0.72871  0.78803  1.0000
  H   H1113     1.0  0.44132  0.71039  0.85125  1.0000
  H   H1114     1.0  0.45812  0.90452  0.62939  1.0000
  H   H1115     1.0  0.27360  0.52815  0.94237  1.0000
  H   H1116     1.0  0.25231  0.56444  0.70562  1.0000
  H   H1117     1.0  0.35712  0.98306  0.71901  1.0000
  C   C621      1.0  0.26604  0.50328  0.90923  1.0000
  C   C622      1.0  0.48108  0.50625  0.49957  1.0000
  H   H1118     1.0  0.27164  0.50031  0.88628  1.0000
  C   C623      1.0  0.42415  0.85615  0.98893  1.0000
  H   H1119     1.0  0.27508  0.57094  0.68789  1.0000
  H   H1120     1.0  0.42728  0.58840  0.89841  1.0000
  H   H1121     1.0  0.45371  0.58368  0.94736  1.0000
  H   H1122     1.0  0.27923  0.53364  0.90025  1.0000
  H   H1123     1.0  0.30369  0.51045  0.69905  1.0000
  H   H1124     1.0  0.25485  0.78019  0.90013  1.0000
  H   H1125     1.0  0.30533  0.57575  0.82793  1.0000
  C   C624      1.0  0.46246  0.65498  0.95905  1.0000
  H   H1126     1.0  0.42584  0.97961  0.50164  1.0000
  C   C625      1.0  0.48115  0.61591  0.98093  1.0000
  H   H1127     1.0  0.45232  0.88686  0.66018  1.0000
  S   S140      1.0  0.31668  0.49706  0.78712  1.0000
  H   H1128     1.0  0.28609  0.52443  0.79035  1.0000
  C   C626      1.0  0.38867  0.83857  0.94870  1.0000
  H   H1129     1.0  0.45457  0.90929  0.83724  1.0000
  H   H1130     1.0  0.47629  0.90631  0.65885  1.0000
  C   C627      1.0  0.24026  0.51682  0.83529  1.0000
  C   C628      1.0  0.45449  0.89816  0.81978  1.0000
  C   C629      1.0  0.30000  0.55518  0.78763  1.0000
  H   H1131     1.0  0.37983  0.94103  0.82802  1.0000
  H   H1132     1.0  0.23995  0.71913  0.79919  1.0000
  C   C630      1.0  0.24457  0.82107  0.96091  1.0000
  C   C631      1.0  0.30067  0.84158  0.98683  1.0000
  C   C632      1.0  0.44841  0.60759  0.93489  1.0000
  C   C633      1.0  0.45544  0.91470  0.67788  1.0000
  C   C634      1.0  0.30641  0.53301  0.73505  1.0000
  H   H1133     1.0  0.31033  0.52551  0.75432  1.0000
  C   C635      1.0  0.46100  0.92050  0.77268  1.0000
  S   S141      1.0  0.41901  0.98706  0.63046  1.0000
  H   H1134     1.0  0.29225  0.55115  0.83869  1.0000
  H   H1135     1.0  0.47503  0.50727  0.52324  1.0000
  H   H1136     1.0  0.43054  0.85347  0.96686  1.0000
  H   H1137     1.0  0.31370  0.55475  0.79317  1.0000
  H   H1138     1.0  0.41918  0.60201  0.92417  1.0000
  C   C636      1.0  0.32578  0.82548  0.98377  1.0000
  H   H1139     1.0  0.31681  0.54842  0.73879  1.0000
  C   C637      1.0  0.41628  0.93860  0.56772  1.0000
  C   C638      1.0  0.43627  0.97383  0.55679  1.0000
  H   H1140     1.0  0.37622  0.87609  0.94449  1.0000
  H   H1141     1.0  0.41056  0.92377  0.55707  1.0000
  C   C639      1.0  0.46086  0.90227  0.65531  1.0000
  H   H1142     1.0  0.47913  0.71059  0.93199  1.0000
  H   H1143     1.0  0.46554  0.66020  0.90769  1.0000
  C   C640      1.0  0.38565  0.97311  0.52147  1.0000
  C   C641      1.0  0.26224  0.55886  0.69726  1.0000
  Fe  Fe71      1.0  0.48347  0.85670  0.78601  1.0000
  C   C642      1.0  0.37663  0.57224  0.96864  1.0000
  H   H1144     1.0  0.46578  0.58348  0.61811  1.0000
  Fe  Fe72      1.0  0.38819  0.96947  0.61526  1.0000
  H   H1145     1.0  0.44803  0.88890  0.76946  1.0000
  C   C643      1.0  0.27286  0.50923  0.73196  1.0000
  H   H1146     1.0  0.33476  0.52801  0.67450  1.0000
  H   H1147     1.0  0.42467  0.93966  0.59058  1.0000
  H   H1148     1.0  0.27675  0.50027  0.74839  1.0000
  H   H1149     1.0  0.35386  0.56326  0.93071  1.0000
  C   C644      1.0  0.29407  0.56141  0.81928  1.0000
  H   H1150     1.0  0.29571  0.55577  0.71074  1.0000
  H   H1151     1.0  0.40405  0.94136  0.57377  1.0000
  H   H1152     1.0  0.40152  0.95785  0.84961  1.0000
  C   C645      1.0  0.45852  0.91148  0.71436  1.0000
  C   C646      1.0  0.48033  0.73849  0.81126  1.0000
  C   C647      1.0  0.28475  0.53512  0.77445  1.0000
  N   N33       1.0  0.28626  0.53020  0.73909  1.0000
  C   C648      1.0  0.23734  0.80748  0.98912  1.0000
  S   S142      1.0  0.38080  0.96174  0.55994  1.0000
  C   C649      1.0  0.36942  0.56770  0.93284  1.0000
  H   H1153     1.0  0.37394  0.58424  0.97751  1.0000
  C   C650      1.0  0.48129  0.58818  0.62237  1.0000
  H   H1154     1.0  0.47564  0.92165  0.77321  1.0000
  H   H1155     1.0  0.38819  0.86018  0.98418  1.0000
  C   C651      1.0  0.47159  0.96485  0.63656  1.0000
  H   H1156     1.0  0.46045  0.59244  0.90751  1.0000
  H   H1157     1.0  0.47729  0.57701  0.90165  1.0000
  H   H1158     1.0  0.42340  0.97603  0.56060  1.0000
  C   C652      1.0  0.47154  0.65886  0.99018  1.0000
  H   H1159     1.0  0.24199  0.74561  0.89488  1.0000
  H   H1160     1.0  0.38064  0.97989  0.75528  1.0000
  H   H1161     1.0  0.47858  0.69000  0.68491  1.0000
  C   C653      1.0  0.46198  0.98736  0.66133  1.0000
  H   H1162     1.0  0.38249  0.94758  0.49518  1.0000
  H   H1163     1.0  0.46806  0.95471  0.75321  1.0000
  H   H1164     1.0  0.37885  0.95716  0.85925  1.0000
  C   C654      1.0  0.48239  0.73213  0.96997  1.0000
  H   H1165     1.0  0.48011  0.62955  0.98000  1.0000
  C   C655      1.0  0.38750  0.95578  0.83925  1.0000
  S   S143      1.0  0.48323  0.64594  0.83147  1.0000
  H   H1166     1.0  0.46424  0.92976  0.67170  1.0000
  C   C656      1.0  0.46877  0.98814  0.53762  1.0000
  H   H1167     1.0  0.26273  0.49484  0.95939  1.0000
  C   C657      1.0  0.39021  0.97030  0.81315  1.0000
  H   H1168     1.0  0.35099  0.98373  0.76085  1.0000
  H   H1169     1.0  0.47358  0.98845  0.56363  1.0000
  Fe  Fe73      1.0  0.47860  0.81598  0.80377  1.0000
  H   H1170     1.0  0.29120  0.84813  0.98795  1.0000
  C   C658      1.0  0.46843  0.94536  0.73260  1.0000
  N   N34       1.0  0.48145  0.60840  0.94652  1.0000
  H   H1171     1.0  0.48373  0.57528  0.62213  1.0000
  H   H1172     1.0  0.28047  0.49105  0.93886  1.0000
  N   N35       1.0  0.45018  0.98937  0.53599  1.0000
  Fe  Fe74      1.0  0.65353  0.16860  0.08595  1.0000
  S   S144      1.0  0.66256  0.19344  0.12251  1.0000
  S   S145      1.0  0.64939  0.17603  0.03416  1.0000
  Fe  Fe75      1.0  0.65030  0.14020  0.13928  1.0000
  S   S146      1.0  0.65989  0.16331  0.17903  1.0000
  S   S147      1.0  0.63945  0.10796  0.14560  1.0000
  Fe  Fe76      1.0  0.63983  0.17238  0.15335  1.0000
  S   S148      1.0  0.61859  0.17792  0.18241  1.0000
  Fe  Fe77      1.0  0.68197  0.18250  0.14427  1.0000
  S   S149      1.0  0.71417  0.20131  0.15530  1.0000
  S   S150      1.0  0.62934  0.14854  0.11527  1.0000
  S   S151      1.0  0.67393  0.15839  0.10612  1.0000
  H   H1173     1.0  0.56483  0.15583  0.02683  1.0000
  H   H1174     1.0  0.72624  0.24160  0.02550  1.0000
  C   C659      1.0  0.71999  0.23925  0.16009  1.0000
  H   H1175     1.0  0.70375  0.19569  0.06783  1.0000
  C   C660      1.0  0.53126  0.09975  0.10284  1.0000
  H   H1176     1.0  0.53336  0.29235  0.36045  1.0000
  Fe  Fe78      1.0  0.58388  0.02353  0.27316  1.0000
  S   S152      1.0  0.60526  0.05522  0.26838  1.0000
  S   S153      1.0  0.56004  0.01906  0.30709  1.0000
  S   S154      1.0  0.64866  0.45877  0.09622  1.0000
  Fe  Fe79      1.0  0.61937  0.45297  0.11153  1.0000
  S   S155      1.0  0.59304  0.42484  0.09975  1.0000
  S   S156      1.0  0.58888  0.99983  0.29550  1.0000
  S   S157      1.0  0.50635  0.31863  0.13852  1.0000
  Fe  Fe80      1.0  0.51011  0.34323  0.17225  1.0000
  S   S158      1.0  0.53771  0.36495  0.19771  1.0000
  Fe  Fe81      1.0  0.51079  0.15165  0.13702  1.0000
  S   S159      1.0  0.68559  0.48187  0.16972  1.0000
  S   S160      1.0  0.53595  0.14945  0.11509  1.0000
  C   C661      1.0  0.49005  0.20394  0.03464  1.0000
  S   S161      1.0  0.50602  0.16228  0.18585  1.0000
  H   H1177     1.0  0.50166  0.25929  0.26544  1.0000
  H   H1178     1.0  0.50280  0.22850  0.22935  1.0000
  N   N36       1.0  0.48921  0.41951  0.26634  1.0000
  H   H1179     1.0  0.50209  0.27255  0.14433  1.0000
  C   C662      1.0  0.57816  0.40886  0.12827  1.0000
  C   C663      1.0  0.56217  0.39240  0.11603  1.0000
  C   C664      1.0  0.54980  0.37895  0.13718  1.0000
  C   C665      1.0  0.55331  0.38185  0.17103  1.0000
  C   C666      1.0  0.56930  0.39841  0.18353  1.0000
  C   C667      1.0  0.58171  0.41195  0.16218  1.0000
  H   H1180     1.0  0.55949  0.38996  0.08997  1.0000
  H   H1181     1.0  0.53767  0.36619  0.12720  1.0000
  H   H1182     1.0  0.57212  0.40070  0.20972  1.0000
  H   H1183     1.0  0.59408  0.42458  0.17187  1.0000
  C   C668      1.0  0.55568  0.42164  0.99933  1.0000
  C   C669      1.0  0.50883  0.01129  0.30327  1.0000
  H   H1184     1.0  0.52048  0.16687  0.04834  1.0000
  C   C670      1.0  0.51039  0.26580  0.24413  1.0000
  H   H1185     1.0  0.58102  0.01982  0.41032  1.0000
  H   H1186     1.0  0.52436  0.43321  0.18913  1.0000
  C   C671      1.0  0.59564  0.17032  0.16368  1.0000
  C   C672      1.0  0.58081  0.17044  0.18198  1.0000
  C   C673      1.0  0.56242  0.16432  0.16744  1.0000
  C   C674      1.0  0.55880  0.15802  0.13449  1.0000
  C   C675      1.0  0.57363  0.15791  0.11629  1.0000
  C   C676      1.0  0.59195  0.16408  0.13074  1.0000
  H   H1187     1.0  0.58357  0.17532  0.20744  1.0000
  H   H1188     1.0  0.55108  0.16444  0.18168  1.0000
  H   H1189     1.0  0.57096  0.15310  0.09080  1.0000
  H   H1190     1.0  0.60330  0.16437  0.11613  1.0000
  C   C677      1.0  0.62926  0.09366  0.17988  1.0000
  C   C678      1.0  0.61977  0.07357  0.17527  1.0000
  C   C679      1.0  0.61193  0.06160  0.20180  1.0000
  C   C680      1.0  0.61375  0.06958  0.23351  1.0000
  C   C681      1.0  0.62310  0.08969  0.23805  1.0000
  C   C682      1.0  0.63068  0.10167  0.21144  1.0000
  H   H1191     1.0  0.61865  0.06718  0.15103  1.0000
  H   H1192     1.0  0.60491  0.04619  0.19784  1.0000
  H   H1193     1.0  0.62465  0.09605  0.26243  1.0000
  H   H1194     1.0  0.63797  0.11706  0.21549  1.0000
  H   H1195     1.0  0.53659  0.00457  0.40698  1.0000
  H   H1196     1.0  0.55553  0.46944  0.08627  1.0000
  H   H1197     1.0  0.53809  0.46526  0.19994  1.0000
  H   H1198     1.0  0.52713  0.36050  0.01553  1.0000
  H   H1199     1.0  0.72307  0.17338  0.00804  1.0000
  H   H1200     1.0  0.49356  0.40605  0.32906  1.0000
  H   H1201     1.0  0.53073  0.25980  0.21626  1.0000
  H   H1202     1.0  0.50448  0.02290  0.34885  1.0000
  H   H1203     1.0  0.52569  0.23025  0.24136  1.0000
  H   H1204     1.0  0.51426  0.42136  0.29318  1.0000
  C   C683      1.0  0.60932  0.47666  0.24441  1.0000
  H   H1205     1.0  0.49355  0.37847  0.20187  1.0000
  H   H1206     1.0  0.52121  0.28704  0.19349  1.0000
  H   H1207     1.0  0.66174  0.14634  0.02168  1.0000
  C   C684      1.0  0.53499  0.45714  0.31543  1.0000
  H   H1208     1.0  0.58166  0.47436  0.25262  1.0000
  H   H1209     1.0  0.55361  0.13029  0.03106  1.0000
  H   H1210     1.0  0.59199  0.46537  0.18396  1.0000
  H   H1211     1.0  0.53648  0.44694  0.33221  1.0000
  C   C685      1.0  0.56244  0.36596  0.02834  1.0000
  H   H1212     1.0  0.51928  0.43507  0.25784  1.0000
  S   S162      1.0  0.56467  0.00412  0.23228  1.0000
  C   C686      1.0  0.56360  0.47164  0.15410  1.0000
  H   H1213     1.0  0.51378  0.46000  0.28577  1.0000
  H   H1214     1.0  0.52795  0.08743  0.08545  1.0000
  H   H1215     1.0  0.58179  0.45231  0.23940  1.0000
  H   H1216     1.0  0.66496  0.40571  0.11363  1.0000
  H   H1217     1.0  0.70461  0.20551  0.31223  1.0000
  H   H1218     1.0  0.73297  0.26059  0.09369  1.0000
  H   H1219     1.0  0.52928  0.41569  0.02131  1.0000
  C   C687      1.0  0.55120  0.10689  0.11886  1.0000
  H   H1220     1.0  0.49798  0.29379  0.21967  1.0000
  C   C688      1.0  0.50028  0.39364  0.24974  1.0000
  H   H1221     1.0  0.71794  0.44080  0.04550  1.0000
  H   H1222     1.0  0.51662  0.04159  0.26370  1.0000
  H   H1223     1.0  0.55371  0.35200  0.01497  1.0000
  H   H1224     1.0  0.52432  0.01836  0.41764  1.0000
  C   C689      1.0  0.50194  0.48174  0.32574  1.0000
  H   H1225     1.0  0.71565  0.39602  0.08494  1.0000
  C   C690      1.0  0.70414  0.42293  0.10370  1.0000
  C   C691      1.0  0.53422  0.43174  0.17163  1.0000
  C   C692      1.0  0.49063  0.13632  0.99850  1.0000
  H   H1226     1.0  0.60151  0.99518  0.40121  1.0000
  H   H1227     1.0  0.56179  0.07791  0.21562  1.0000
  C   C693      1.0  0.69089  0.43255  0.10914  1.0000
  H   H1228     1.0  0.58634  0.46706  0.13112  1.0000
  C   C694      1.0  0.67018  0.41878  0.09908  1.0000
  H   H1229     1.0  0.69870  0.40983  0.11835  1.0000
  H   H1230     1.0  0.61744  0.42283  0.03508  1.0000
  H   H1231     1.0  0.53733  0.20863  0.02772  1.0000
  H   H1232     1.0  0.52844  0.01502  0.37528  1.0000
  C   C695      1.0  0.55509  0.44229  0.18580  1.0000
  C   C696      1.0  0.54167  0.06507  0.28516  1.0000
  H   H1233     1.0  0.55718  0.04017  0.18250  1.0000
  H   H1234     1.0  0.69107  0.43682  0.13528  1.0000
  H   H1235     1.0  0.69512  0.44540  0.09432  1.0000
  H   H1236     1.0  0.56404  0.43729  0.17170  1.0000
  H   H1237     1.0  0.51654  0.08626  0.23208  1.0000
  C   C697      1.0  0.72710  0.44098  0.14805  1.0000
  H   H1238     1.0  0.66881  0.41465  0.07259  1.0000
  H   H1239     1.0  0.70299  0.15682  0.19263  1.0000
  H   H1240     1.0  0.66101  0.42590  0.10369  1.0000
  H   H1241     1.0  0.49850  0.36529  0.01119  1.0000
  C   C698      1.0  0.55287  0.47014  0.21016  1.0000
  N   N37       1.0  0.70191  0.19774  0.26061  1.0000
  C   C699      1.0  0.70280  0.19313  0.29598  1.0000
  Fe  Fe82      1.0  0.64871  0.48336  0.06939  1.0000
  C   C700      1.0  0.68637  0.20383  0.25576  1.0000
  C   C701      1.0  0.69718  0.18044  0.23824  1.0000
  H   H1242     1.0  0.71104  0.16619  0.26673  1.0000
  C   C702      1.0  0.68507  0.17545  0.30766  1.0000
  C   C703      1.0  0.68624  0.21335  0.22296  1.0000
  H   H1243     1.0  0.53906  0.14244  0.02639  1.0000
  N   N38       1.0  0.51858  0.28738  0.24595  1.0000
  H   H1244     1.0  0.57773  0.37045  0.02400  1.0000
  C   C704      1.0  0.53211  0.18045  0.04013  1.0000
  C   C705      1.0  0.66871  0.21682  0.21916  1.0000
  C   C706      1.0  0.71123  0.20638  0.04922  1.0000
  H   H1245     1.0  0.59242  0.48728  0.19607  1.0000
  C   C707      1.0  0.73165  0.25918  0.16522  1.0000
  H   H1246     1.0  0.57936  0.45045  0.00156  1.0000
  H   H1247     1.0  0.68693  0.21387  0.27600  1.0000
  H   H1248     1.0  0.67206  0.19124  0.25706  1.0000
  H   H1249     1.0  0.68224  0.16933  0.24122  1.0000
  H   H1250     1.0  0.69760  0.18434  0.21236  1.0000
  N   N39       1.0  0.49907  0.20125  0.00398  1.0000
  C   C708      1.0  0.53190  0.29630  0.27555  1.0000
  H   H1251     1.0  0.67197  0.17727  0.30416  1.0000
  H   H1252     1.0  0.68291  0.16213  0.29411  1.0000
  H   H1253     1.0  0.68602  0.20426  0.20163  1.0000
  H   H1254     1.0  0.69902  0.22742  0.22173  1.0000
  C   C709      1.0  0.70800  0.48790  0.15220  1.0000
  H   H1255     1.0  0.50013  0.10649  0.22045  1.0000
  C   C710      1.0  0.49782  0.09387  0.20447  1.0000
  H   H1256     1.0  0.50670  0.05392  0.31071  1.0000
  H   H1257     1.0  0.52048  0.19839  0.05956  1.0000
  H   H1258     1.0  0.57396  0.43931  0.04043  1.0000
  H   H1259     1.0  0.57673  0.46798  0.07418  1.0000
  S   S163      1.0  0.49575  0.35452  0.13758  1.0000
  H   H1260     1.0  0.70005  0.17013  0.34871  1.0000
  S   S164      1.0  0.61877  0.47623  0.08166  1.0000
  C   C711      1.0  0.72815  0.22669  0.15955  1.0000
  H   H1261     1.0  0.66887  0.22340  0.19536  1.0000
  H   H1262     1.0  0.65541  0.20307  0.21942  1.0000
  H   H1263     1.0  0.66863  0.22663  0.23917  1.0000
  C   C712      1.0  0.52400  0.23693  0.01795  1.0000
  C   C713      1.0  0.53772  0.31659  0.21035  1.0000
  H   H1264     1.0  0.48500  0.48635  0.46786  1.0000
  N   N40       1.0  0.72513  0.43522  0.11203  1.0000
  H   H1265     1.0  0.51542  0.24923  0.14056  1.0000
  H   H1266     1.0  0.49450  0.99427  0.39191  1.0000
  C   C714      1.0  0.51545  0.23607  0.24632  1.0000
  H   H1267     1.0  0.71797  0.20020  0.03231  1.0000
  C   C715      1.0  0.57888  0.01550  0.46256  1.0000
  S   S165      1.0  0.63026  0.47135  0.15781  1.0000
  C   C716      1.0  0.71045  0.17074  0.24147  1.0000
  C   C717      1.0  0.55237  0.14214  0.01867  1.0000
  C   C718      1.0  0.72110  0.21343  0.25223  1.0000
  C   C719      1.0  0.48695  0.40309  0.24321  1.0000
  N   N41       1.0  0.57229  0.09586  0.15336  1.0000
  C   C720      1.0  0.55295  0.09073  0.13749  1.0000
  C   C721      1.0  0.57220  0.07787  0.16589  1.0000
  C   C722      1.0  0.57614  0.11058  0.18078  1.0000
  C   C723      1.0  0.58789  0.10431  0.12925  1.0000
  C   C724      1.0  0.58525  0.09206  0.09730  1.0000
  C   C725      1.0  0.56757  0.44110  0.01699  1.0000
  C   C726      1.0  0.59436  0.11587  0.20272  1.0000
  C   C727      1.0  0.55832  0.06816  0.19362  1.0000
  C   C728      1.0  0.57128  0.46386  0.12579  1.0000
  C   C729      1.0  0.59618  0.13010  0.23047  1.0000
  H   H1268     1.0  0.54193  0.08637  0.15627  1.0000
  H   H1269     1.0  0.54832  0.07796  0.12046  1.0000
  H   H1270     1.0  0.56820  0.06684  0.14563  1.0000
  H   H1271     1.0  0.58681  0.08061  0.17435  1.0000
  H   H1272     1.0  0.56374  0.10595  0.19683  1.0000
  H   H1273     1.0  0.57776  0.12429  0.17071  1.0000
  H   H1274     1.0  0.58999  0.11879  0.12256  1.0000
  H   H1275     1.0  0.60180  0.10673  0.14074  1.0000
  H   H1276     1.0  0.57146  0.08840  0.08419  1.0000
  H   H1277     1.0  0.52033  0.09547  0.12172  1.0000
  C   C730      1.0  0.70332  0.15292  0.21852  1.0000
  H   H1278     1.0  0.60737  0.12267  0.18828  1.0000
  H   H1279     1.0  0.59411  0.10310  0.21416  1.0000
  H   H1280     1.0  0.51281  0.29342  0.31533  1.0000
  H   H1281     1.0  0.54335  0.06381  0.18532  1.0000
  H   H1282     1.0  0.57342  0.05378  0.21625  1.0000
  C   C731      1.0  0.49407  0.25824  0.15292  1.0000
  H   H1283     1.0  0.61145  0.47389  0.27032  1.0000
  H   H1284     1.0  0.49548  0.44060  0.22936  1.0000
  H   H1285     1.0  0.59655  0.14331  0.22051  1.0000
  H   H1286     1.0  0.58403  0.12362  0.24689  1.0000
  H   H1287     1.0  0.60966  0.13416  0.24505  1.0000
  C   C732      1.0  0.53989  0.25423  0.00272  1.0000
  H   H1288     1.0  0.51074  0.48039  0.34521  1.0000
  C   C733      1.0  0.53592  0.37574  0.02359  1.0000
  H   H1289     1.0  0.72509  0.26865  0.16669  1.0000
  H   H1290     1.0  0.53750  0.17748  0.01694  1.0000
  C   C734      1.0  0.49770  0.01350  0.32758  1.0000
  H   H1291     1.0  0.56272  0.44815  0.12160  1.0000
  C   C735      1.0  0.50505  0.38129  0.05786  1.0000
  S   S166      1.0  0.51366  0.99559  0.24598  1.0000
  H   H1292     1.0  0.56024  0.36401  0.05500  1.0000
  C   C736      1.0  0.55693  0.38117  0.01639  1.0000
  Fe  Fe83      1.0  0.49260  0.17796  0.15737  1.0000
  H   H1293     1.0  0.71567  0.19107  0.30140  1.0000
  H   H1294     1.0  0.72075  0.48423  0.19702  1.0000
  H   H1295     1.0  0.53542  0.37603  0.05063  1.0000
  H   H1296     1.0  0.50031  0.48353  0.40446  1.0000
  H   H1297     1.0  0.51091  0.23309  0.27191  1.0000
  C   C737      1.0  0.50735  0.38039  0.02028  1.0000
  H   H1298     1.0  0.50040  0.38870  0.00974  1.0000
  H   H1299     1.0  0.54438  0.40955  0.04587  1.0000
  N   N42       1.0  0.48856  0.05669  0.27255  1.0000
  C   C738      1.0  0.68735  0.17255  0.34402  1.0000
  Fe  Fe84      1.0  0.54144  0.99846  0.26710  1.0000
  H   H1300     1.0  0.56155  0.11229  0.09918  1.0000
  H   H1301     1.0  0.51415  0.39586  0.06870  1.0000
  H   H1302     1.0  0.50883  0.37106  0.07044  1.0000
  S   S167      1.0  0.50251  0.21063  0.16107  1.0000
  H   H1303     1.0  0.54547  0.46050  0.29591  1.0000
  C   C739      1.0  0.53000  0.29482  0.21580  1.0000
  H   H1304     1.0  0.51785  0.27314  0.31012  1.0000
  N   N43       1.0  0.52751  0.38782  0.00881  1.0000
  C   C740      1.0  0.50127  0.07921  0.22384  1.0000
  C   C741      1.0  0.52494  0.25762  0.24117  1.0000
  H   H1305     1.0  0.53647  0.40814  0.14618  1.0000
  H   H1306     1.0  0.71879  0.22982  0.08380  1.0000
  C   C742      1.0  0.53954  0.29751  0.33639  1.0000
  H   H1307     1.0  0.60014  0.43098  0.02291  1.0000
  H   H1308     1.0  0.61639  0.47024  0.22865  1.0000
  H   H1309     1.0  0.55115  0.46312  0.23398  1.0000
  C   C743      1.0  0.65777  0.15029  0.99862  1.0000
  H   H1310     1.0  0.72829  0.26782  0.05541  1.0000
  C   C744      1.0  0.49130  0.22607  0.16122  1.0000
  H   H1311     1.0  0.61527  0.10633  0.08520  1.0000
  S   S168      1.0  0.50034  0.33163  0.05347  1.0000
  H   H1312     1.0  0.58592  0.07859  0.10284  1.0000
  H   H1313     1.0  0.55363  0.11905  0.13597  1.0000
  H   H1314     1.0  0.53831  0.47062  0.32972  1.0000
  C   C745      1.0  0.52799  0.41036  0.16563  1.0000
  H   H1315     1.0  0.54808  0.04227  0.22142  1.0000
  C   C746      1.0  0.72912  0.40840  0.07824  1.0000
  C   C747      1.0  0.51464  0.44876  0.30065  1.0000
  H   H1316     1.0  0.55409  0.33765  0.17538  1.0000
  H   H1317     1.0  0.70465  0.23361  0.15725  1.0000
  C   C748      1.0  0.52209  0.05730  0.26736  1.0000
  C   C749      1.0  0.50859  0.18855  0.00913  1.0000
  H   H1318     1.0  0.56245  0.32012  0.18287  1.0000
  C   C750      1.0  0.55937  0.05004  0.20396  1.0000
  H   H1319     1.0  0.58821  0.03040  0.46914  1.0000
  H   H1320     1.0  0.51269  0.40286  0.15744  1.0000
  C   C751      1.0  0.61545  0.43438  0.02307  1.0000
  H   H1321     1.0  0.56658  0.39489  0.02963  1.0000
  H   H1322     1.0  0.54714  0.32543  0.23120  1.0000
  H   H1323     1.0  0.59899  0.09361  0.05129  1.0000
  H   H1324     1.0  0.55860  0.44836  0.02213  1.0000
  H   H1325     1.0  0.72895  0.47587  0.04443  1.0000
  C   C752      1.0  0.60104  0.10276  0.07370  1.0000
  H   H1326     1.0  0.55090  0.29307  0.33230  1.0000
  C   C753      1.0  0.72631  0.22482  0.06638  1.0000
  H   H1327     1.0  0.52410  0.06339  0.24287  1.0000
  C   C754      1.0  0.50154  0.24490  0.15058  1.0000
  H   H1328     1.0  0.60073  0.11617  0.06638  1.0000
  H   H1329     1.0  0.49375  0.08621  0.27017  1.0000
  H   H1330     1.0  0.68875  0.14221  0.22472  1.0000
  H   H1331     1.0  0.55119  0.06089  0.27118  1.0000
  H   H1332     1.0  0.52417  0.01911  0.30566  1.0000
  H   H1333     1.0  0.50452  0.13665  0.99935  1.0000
  C   C755      1.0  0.58798  0.46788  0.23538  1.0000
  C   C756      1.0  0.54951  0.32228  0.17973  1.0000
  C   C757      1.0  0.48863  0.07310  0.25394  1.0000
  H   H1334     1.0  0.70447  0.15017  0.99466  1.0000
  H   H1335     1.0  0.54705  0.26593  0.02174  1.0000
  C   C758      1.0  0.52497  0.00806  0.39917  1.0000
  H   H1336     1.0  0.54261  0.29195  0.21614  1.0000
  H   H1337     1.0  0.54842  0.08095  0.28776  1.0000
  C   C759      1.0  0.50972  0.43052  0.27892  1.0000
  H   H1338     1.0  0.54031  0.05904  0.30981  1.0000
  C   C760      1.0  0.52387  0.28892  0.30930  1.0000
  H   H1339     1.0  0.50030  0.38971  0.27551  1.0000
  H   H1340     1.0  0.53669  0.31200  0.27725  1.0000
  H   H1341     1.0  0.71909  0.42811  0.16263  1.0000
  H   H1342     1.0  0.50020  0.25984  0.22260  1.0000
  C   C761      1.0  0.50813  0.06184  0.28781  1.0000
  H   H1343     1.0  0.52588  0.32047  0.20708  1.0000
  C   C762      1.0  0.49443  0.37553  0.22811  1.0000
  H   H1344     1.0  0.54388  0.18570  0.05919  1.0000
  H   H1345     1.0  0.50783  0.30802  0.25598  1.0000
  N   N44       1.0  0.56398  0.46389  0.18739  1.0000
  H   H1346     1.0  0.52991  0.40381  0.18831  1.0000
  C   C763      1.0  0.53876  0.40861  0.02019  1.0000
  C   C764      1.0  0.57488  0.00952  0.42907  1.0000
  H   H1347     1.0  0.49507  0.07280  0.33829  1.0000
  C   C765      1.0  0.48764  0.32693  0.01531  1.0000
  S   S169      1.0  0.49959  0.16885  0.10907  1.0000
  H   H1348     1.0  0.51517  0.40371  0.24403  1.0000
  H   H1349     1.0  0.72628  0.41374  0.05501  1.0000
  H   H1350     1.0  0.71304  0.14623  0.22087  1.0000
  H   H1351     1.0  0.49133  0.04029  0.23108  1.0000
  H   H1352     1.0  0.56530  0.41526  0.99390  1.0000
  H   H1353     1.0  0.51554  0.07734  0.29544  1.0000
  H   H1354     1.0  0.54095  0.31368  0.15786  1.0000
  H   H1355     1.0  0.53242  0.43742  0.14797  1.0000
  H   H1356     1.0  0.70166  0.41764  0.07777  1.0000
  H   H1357     1.0  0.73147  0.23127  0.29769  1.0000
  C   C766      1.0  0.58454  0.47160  0.19930  1.0000
  C   C767      1.0  0.50263  0.29318  0.24539  1.0000
  H   H1358     1.0  0.54895  0.46925  0.14675  1.0000
  H   H1359     1.0  0.55482  0.43678  0.21065  1.0000
  H   H1360     1.0  0.53056  0.11144  0.08896  1.0000
  H   H1361     1.0  0.48820  0.13510  0.05101  1.0000
  S   S170      1.0  0.66231  0.48611  0.02035  1.0000
  H   H1362     1.0  0.68886  0.18521  0.35905  1.0000
  H   H1363     1.0  0.54595  0.31341  0.33730  1.0000
  H   H1364     1.0  0.50785  0.09893  0.18419  1.0000
  H   H1365     1.0  0.48657  0.27637  0.28707  1.0000
  H   H1366     1.0  0.54524  0.29486  0.27294  1.0000
  Fe  Fe85      1.0  0.65991  0.47965  0.13916  1.0000
  H   H1367     1.0  0.62361  0.44795  0.03763  1.0000
  H   H1368     1.0  0.57234  0.48750  0.15500  1.0000
  H   H1369     1.0  0.72905  0.29829  0.07980  1.0000
  H   H1370     1.0  0.50486  0.44564  0.32118  1.0000
  H   H1371     1.0  0.67452  0.15978  0.35172  1.0000
  C   C768      1.0  0.73252  0.45056  0.05531  1.0000
  H   H1372     1.0  0.53695  0.26448  0.25951  1.0000
  C   C769      1.0  0.57050  0.47315  0.09375  1.0000
  H   H1373     1.0  0.72142  0.21605  0.22559  1.0000
  H   H1374     1.0  0.50513  0.37007  0.23131  1.0000
  C   C770      1.0  0.65094  0.16394  0.99827  1.0000
  H   H1375     1.0  0.53048  0.23245  0.03817  1.0000
  H   H1376     1.0  0.70039  0.20908  0.03545  1.0000
  C   C771      1.0  0.50004  0.99915  0.27581  1.0000
  H   H1377     1.0  0.73034  0.28843  0.11883  1.0000
  H   H1378     1.0  0.48438  0.44464  0.26417  1.0000
  H   H1379     1.0  0.48973  0.40791  0.21761  1.0000
  H   H1380     1.0  0.50089  0.21097  0.05490  1.0000
  Fe  Fe86      1.0  0.56371  0.99431  0.32685  1.0000
  H   H1381     1.0  0.49786  0.17392  0.01480  1.0000
  C   C772      1.0  0.57100  0.00247  0.48763  1.0000
  C   C773      1.0  0.52502  0.19549  0.03551  1.0000
  C   C774      1.0  0.72306  0.48803  0.17170  1.0000
  H   H1382     1.0  0.72070  0.45081  0.15288  1.0000
  H   H1383     1.0  0.72614  0.46221  0.09935  1.0000
  Fe  Fe87      1.0  0.48981  0.32870  0.10525  1.0000
  H   H1384     1.0  0.51404  0.24179  0.02882  1.0000
  H   H1385     1.0  0.71673  0.23778  0.27181  1.0000
  H   H1386     1.0  0.73246  0.20896  0.25667  1.0000
  C   C775      1.0  0.48390  0.27987  0.26209  1.0000
  H   H1387     1.0  0.49840  0.06691  0.20680  1.0000
  H   H1388     1.0  0.72514  0.18059  0.23455  1.0000
  C   C776      1.0  0.72781  0.23276  0.27187  1.0000
  C   C777      1.0  0.73322  0.45323  0.09299  1.0000
  C   C778      1.0  0.48434  0.37583  0.06559  1.0000
  C   C779      1.0  0.48437  0.43318  0.24746  1.0000
  H   H1389     1.0  0.57896  0.48899  0.09640  1.0000
  H   H1390     1.0  0.55072  0.25037  0.99263  1.0000
  C   C780      1.0  0.56328  0.99022  0.42003  1.0000
  C   C781      1.0  0.51307  0.22050  0.99181  1.0000
  Fe  Fe88      1.0  0.67221  0.17924  0.80449  1.0000
  S   S171      1.0  0.66654  0.14839  0.80768  1.0000
  S   S172      1.0  0.70072  0.20242  0.78681  1.0000
  Fe  Fe89      1.0  0.63165  0.16948  0.82547  1.0000
  S   S173      1.0  0.62306  0.13822  0.83098  1.0000
  S   S174      1.0  0.61366  0.18428  0.83862  1.0000
  Fe  Fe90      1.0  0.65248  0.14907  0.85481  1.0000
  S   S175      1.0  0.65935  0.13824  0.90167  1.0000
  Fe  Fe91      1.0  0.63757  0.13976  0.78336  1.0000
  S   S176      1.0  0.62460  0.12042  0.73683  1.0000
  S   S177      1.0  0.66000  0.18019  0.85294  1.0000
  S   S178      1.0  0.64426  0.17069  0.77651  1.0000
  Fe  Fe92      1.0  0.53539  0.00621  0.62185  1.0000
  Fe  Fe93      1.0  0.57321  0.01410  0.65439  1.0000
  H   H1391     1.0  0.67589  0.21946  0.96419  1.0000
  S   S179      1.0  0.59190  0.03070  0.69958  1.0000
  H   H1392     1.0  0.70318  0.23259  0.92410  1.0000
  C   C782      1.0  0.71524  0.42157  0.86229  1.0000
  S   S180      1.0  0.56538  0.02655  0.61135  1.0000
  H   H1393     1.0  0.53658  0.47577  0.76482  1.0000
  Fe  Fe94      1.0  0.51557  0.34560  0.84248  1.0000
  S   S181      1.0  0.54035  0.37350  0.86088  1.0000
  S   S182      1.0  0.50300  0.31817  0.86930  1.0000
  Fe  Fe95      1.0  0.50402  0.14828  0.81348  1.0000
  S   S183      1.0  0.52779  0.14798  0.78376  1.0000
  S   S184      1.0  0.50472  0.16832  0.85457  1.0000
  H   H1394     1.0  0.63930  0.99657  0.66194  1.0000
  S   S185      1.0  0.65340  0.47150  0.83354  1.0000
  Fe  Fe96      1.0  0.63076  0.45315  0.79583  1.0000
  S   S186      1.0  0.61800  0.42086  0.79197  1.0000
  H   H1395     1.0  0.59298  0.99708  0.72812  1.0000
  C   C783      1.0  0.48964  0.18902  0.94324  1.0000
  H   H1396     1.0  0.71976  0.45493  0.79830  1.0000
  C   C784      1.0  0.56036  0.38642  0.83763  1.0000
  C   C785      1.0  0.57051  0.40625  0.84372  1.0000
  C   C786      1.0  0.58781  0.41698  0.82875  1.0000
  C   C787      1.0  0.59535  0.40787  0.80820  1.0000
  C   C788      1.0  0.58498  0.38806  0.80139  1.0000
  C   C789      1.0  0.56739  0.37735  0.81583  1.0000
  H   H1397     1.0  0.56507  0.41322  0.86060  1.0000
  H   H1398     1.0  0.59566  0.43219  0.83408  1.0000
  H   H1399     1.0  0.59073  0.38092  0.78538  1.0000
  H   H1400     1.0  0.55970  0.36199  0.81124  1.0000
  H   H1401     1.0  0.63640  0.01756  0.65324  1.0000
  C   C790      1.0  0.70788  0.18995  0.89552  1.0000
  H   H1402     1.0  0.51363  0.25154  0.79235  1.0000
  C   C791      1.0  0.51815  0.39342  0.91625  1.0000
  H   H1403     1.0  0.51743  0.10608  0.86904  1.0000
  C   C792      1.0  0.65975  0.48669  0.95372  1.0000
  C   C793      1.0  0.60713  0.42699  0.70322  1.0000
  N   N45       1.0  0.71511  0.20207  0.92692  1.0000
  C   C794      1.0  0.57430  0.16192  0.92071  1.0000
  H   H1404     1.0  0.64832  0.21176  0.81121  1.0000
  C   C795      1.0  0.58975  0.17386  0.82358  1.0000
  C   C796      1.0  0.57802  0.18221  0.83268  1.0000
  C   C797      1.0  0.55890  0.17424  0.82095  1.0000
  C   C798      1.0  0.55149  0.15800  0.79977  1.0000
  C   C799      1.0  0.56331  0.14983  0.79029  1.0000
  C   C800      1.0  0.58234  0.15762  0.80239  1.0000
  H   H1405     1.0  0.58375  0.19489  0.84879  1.0000
  H   H1406     1.0  0.54998  0.18083  0.82776  1.0000
  H   H1407     1.0  0.55769  0.13737  0.77367  1.0000
  H   H1408     1.0  0.59132  0.15117  0.79508  1.0000
  C   C801      1.0  0.65506  0.14738  0.93878  1.0000
  C   C802      1.0  0.64769  0.16057  0.93865  1.0000
  H   H1409     1.0  0.56865  0.44561  0.92299  1.0000
  H   H1410     1.0  0.64362  0.16452  0.91574  1.0000
  H   H1411     1.0  0.67265  0.21595  0.81240  1.0000
  C   C803      1.0  0.61607  0.09544  0.72732  1.0000
  C   C804      1.0  0.61102  0.08868  0.69449  1.0000
  C   C805      1.0  0.60353  0.06898  0.68570  1.0000
  C   C806      1.0  0.60092  0.05568  0.70963  1.0000
  C   C807      1.0  0.60612  0.06243  0.74244  1.0000
  C   C808      1.0  0.61356  0.08215  0.75129  1.0000
  H   H1412     1.0  0.61302  0.09879  0.67568  1.0000
  H   H1413     1.0  0.60009  0.06412  0.66030  1.0000
  H   H1414     1.0  0.60437  0.05235  0.76119  1.0000
  H   H1415     1.0  0.61737  0.08706  0.77663  1.0000
  C   C809      1.0  0.71800  0.22509  0.80394  1.0000
  H   H1416     1.0  0.49879  0.46703  0.70538  1.0000
  H   H1417     1.0  0.56737  0.06192  0.66648  1.0000
  S   S187      1.0  0.51425  0.01779  0.62641  1.0000
  C   C810      1.0  0.53095  0.37994  0.75549  1.0000
  C   C811      1.0  0.55323  0.44225  0.78247  1.0000
  C   C812      1.0  0.56212  0.45146  0.81603  1.0000
  C   C813      1.0  0.56137  0.99214  0.75898  1.0000
  H   H1418     1.0  0.54391  0.01788  0.74729  1.0000
  H   H1419     1.0  0.55576  0.40456  0.77405  1.0000
  H   H1420     1.0  0.56461  0.45912  0.70871  1.0000
  H   H1421     1.0  0.54187  0.42760  0.78651  1.0000
  H   H1422     1.0  0.60453  0.20772  0.72884  1.0000
  N   N46       1.0  0.55355  0.15593  0.92725  1.0000
  H   H1423     1.0  0.51554  0.09291  0.63819  1.0000
  H   H1424     1.0  0.59946  0.41370  0.68760  1.0000
  H   H1425     1.0  0.56842  0.44304  0.82826  1.0000
  H   H1426     1.0  0.53169  0.11345  0.83344  1.0000
  C   C814      1.0  0.49394  0.22428  0.81085  1.0000
  C   C815      1.0  0.53686  0.05256  0.70539  1.0000
  C   C816      1.0  0.49626  0.45797  0.75468  1.0000
  H   H1427     1.0  0.61318  0.17311  0.92476  1.0000
  H   H1428     1.0  0.58341  0.11749  0.75347  1.0000
  H   H1429     1.0  0.49170  0.41707  0.64756  1.0000
  H   H1430     1.0  0.50218  0.21706  0.80333  1.0000
  H   H1431     1.0  0.57515  0.08047  0.71620  1.0000
  H   H1432     1.0  0.59605  0.41304  0.97203  1.0000
  C   C817      1.0  0.49283  0.99890  0.63721  1.0000
  H   H1433     1.0  0.53126  0.19493  0.91782  1.0000
  H   H1434     1.0  0.55631  0.03936  0.70178  1.0000
  H   H1435     1.0  0.67110  0.22833  0.92663  1.0000
  C   C818      1.0  0.55689  0.06708  0.65917  1.0000
  H   H1436     1.0  0.58039  0.09553  0.65035  1.0000
  H   H1437     1.0  0.52639  0.04174  0.68748  1.0000
  H   H1438     1.0  0.52641  0.13055  0.91849  1.0000
  H   H1439     1.0  0.58508  0.09751  0.77172  1.0000
  C   C819      1.0  0.65157  0.48800  0.98320  1.0000
  H   H1440     1.0  0.57067  0.10745  0.78974  1.0000
  H   H1441     1.0  0.48771  0.01817  0.52608  1.0000
  S   S188      1.0  0.49488  0.13883  0.93241  1.0000
  H   H1442     1.0  0.55856  0.43684  0.65739  1.0000
  C   C820      1.0  0.54642  0.20140  0.91090  1.0000
  H   H1443     1.0  0.63881  0.21508  0.72221  1.0000
  S   S189      1.0  0.48939  0.34968  0.84526  1.0000
  C   C821      1.0  0.61439  0.99731  0.68290  1.0000
  C   C822      1.0  0.55188  0.13895  0.98150  1.0000
  H   H1444     1.0  0.57772  0.16818  0.89616  1.0000
  C   C823      1.0  0.57752  0.43204  0.70711  1.0000
  H   H1445     1.0  0.58658  0.18819  0.95356  1.0000
  H   H1446     1.0  0.51818  0.40773  0.96206  1.0000
  C   C824      1.0  0.73322  0.41875  0.86494  1.0000
  H   H1447     1.0  0.69489  0.27059  0.75750  1.0000
  C   C825      1.0  0.54703  0.43739  0.67172  1.0000
  C   C826      1.0  0.53529  0.02440  0.73644  1.0000
  H   H1448     1.0  0.62168  0.44941  0.97835  1.0000
  H   H1449     1.0  0.68851  0.21295  0.89639  1.0000
  H   H1450     1.0  0.57962  0.45669  0.75694  1.0000
  C   C827      1.0  0.52630  0.38472  0.97201  1.0000
  H   H1451     1.0  0.53128  0.16360  0.91385  1.0000
  H   H1452     1.0  0.51486  0.18662  0.98611  1.0000
  H   H1453     1.0  0.57175  0.09932  0.69983  1.0000
  C   C828      1.0  0.56759  0.08424  0.63707  1.0000
  C   C829      1.0  0.48881  0.32544  0.95576  1.0000
  H   H1454     1.0  0.52912  0.45193  0.66754  1.0000
  H   H1455     1.0  0.54068  0.39050  0.96180  1.0000
  C   C830      1.0  0.67395  0.21573  0.70810  1.0000
  C   C831      1.0  0.64574  0.16884  0.96827  1.0000
  H   H1456     1.0  0.56261  0.35857  0.90740  1.0000
  H   H1457     1.0  0.57322  0.00693  0.76237  1.0000
  H   H1458     1.0  0.68509  0.20117  0.67562  1.0000
  H   H1459     1.0  0.53447  0.42304  0.66993  1.0000
  N   N47       1.0  0.66355  0.23193  0.75422  1.0000
  Fe  Fe97      1.0  0.56456  0.00188  0.58006  1.0000
  H   H1460     1.0  0.69478  0.17645  0.89963  1.0000
  C   C832      1.0  0.54698  0.16938  0.91197  1.0000
  H   H1461     1.0  0.60208  0.44271  0.74202  1.0000
  H   H1462     1.0  0.52097  0.38339  0.76966  1.0000
  H   H1463     1.0  0.67014  0.43515  0.90067  1.0000
  C   C833      1.0  0.49747  0.32733  0.98695  1.0000
  C   C834      1.0  0.50895  0.46804  0.72568  1.0000
  H   H1464     1.0  0.69829  0.25711  0.72426  1.0000
  H   H1465     1.0  0.50957  0.39931  0.90319  1.0000
  H   H1466     1.0  0.54660  0.45083  0.77209  1.0000
  H   H1467     1.0  0.58029  0.36869  0.87710  1.0000
  H   H1468     1.0  0.57422  0.39305  0.90865  1.0000
  H   H1469     1.0  0.63010  0.23808  0.75371  1.0000
  H   H1470     1.0  0.66784  0.45694  0.89608  1.0000
  H   H1471     1.0  0.54955  0.17030  0.88541  1.0000
  H   H1472     1.0  0.63650  0.99343  0.80301  1.0000
  H   H1473     1.0  0.62008  0.19420  0.95124  1.0000
  H   H1474     1.0  0.53292  0.14138  0.86266  1.0000
  H   H1475     1.0  0.54325  0.09460  0.67223  1.0000
  H   H1476     1.0  0.69049  0.23059  0.75252  1.0000
  C   C835      1.0  0.51940  0.06826  0.65274  1.0000
  H   H1477     1.0  0.68744  0.27388  0.68428  1.0000
  H   H1478     1.0  0.67936  0.22833  0.69249  1.0000
  H   H1479     1.0  0.55362  0.21653  0.92037  1.0000
  N   N48       1.0  0.56126  0.43199  0.72629  1.0000
  S   S190      1.0  0.57504  0.99072  0.62294  1.0000
  H   H1480     1.0  0.63806  0.44036  0.99032  1.0000
  H   H1481     1.0  0.72274  0.16665  0.83721  1.0000
  C   C836      1.0  0.66324  0.22295  0.81475  1.0000
  C   C837      1.0  0.54156  0.13620  0.91149  1.0000
  S   S191      1.0  0.64581  0.47095  0.75373  1.0000
  H   H1482     1.0  0.55053  0.07686  0.75920  1.0000
  H   H1483     1.0  0.53216  0.41237  0.73696  1.0000
  C   C838      1.0  0.55647  0.19041  0.92540  1.0000
  H   H1484     1.0  0.68404  0.24808  0.79347  1.0000
  H   H1485     1.0  0.66024  0.25697  0.74227  1.0000
  H   H1486     1.0  0.49913  0.07845  0.66825  1.0000
  H   H1487     1.0  0.54696  0.20124  0.88375  1.0000
  C   C839      1.0  0.55359  0.44377  0.70810  1.0000
  C   C840      1.0  0.66576  0.23122  0.84978  1.0000
  H   H1488     1.0  0.54588  0.05504  0.64377  1.0000
  H   H1489     1.0  0.50995  0.05351  0.66015  1.0000
  H   H1490     1.0  0.66169  0.21945  0.86705  1.0000
  H   H1491     1.0  0.55833  0.09064  0.62874  1.0000
  H   H1492     1.0  0.53455  0.15245  0.96662  1.0000
  H   H1493     1.0  0.66250  0.24421  0.70781  1.0000
  H   H1494     1.0  0.68085  0.24185  0.85536  1.0000
  H   H1495     1.0  0.61290  0.99577  0.76521  1.0000
  H   H1496     1.0  0.63013  0.22613  0.79070  1.0000
  C   C841      1.0  0.58948  0.17615  0.94605  1.0000
  H   H1497     1.0  0.63948  0.20384  0.75855  1.0000
  H   H1498     1.0  0.52376  0.37245  0.73193  1.0000
  H   H1499     1.0  0.51565  0.47785  0.66217  1.0000
  C   C842      1.0  0.54128  0.45137  0.65522  1.0000
  H   H1500     1.0  0.50805  0.00595  0.55445  1.0000
  C   C843      1.0  0.60941  0.18465  0.93228  1.0000
  C   C844      1.0  0.65180  0.48836  0.92356  1.0000
  H   H1501     1.0  0.53394  0.25962  0.98286  1.0000
  H   H1502     1.0  0.54846  0.09676  0.74186  1.0000
  H   H1503     1.0  0.54074  0.10662  0.86909  1.0000
  H   H1504     1.0  0.57576  0.43473  0.77360  1.0000
  H   H1505     1.0  0.51376  0.37864  0.90615  1.0000
  H   H1506     1.0  0.49912  0.38379  0.95552  1.0000
  C   C845      1.0  0.65980  0.14201  0.96887  1.0000
  H   H1507     1.0  0.64026  0.17922  0.96804  1.0000
  H   H1508     1.0  0.72892  0.17844  0.89431  1.0000
  C   C846      1.0  0.54932  0.39807  0.74967  1.0000
  H   H1509     1.0  0.68051  0.19189  0.71605  1.0000
  H   H1510     1.0  0.51588  0.45913  0.71751  1.0000
  C   C847      1.0  0.57537  0.10394  0.76622  1.0000
  H   H1511     1.0  0.58061  0.44412  0.88679  1.0000
  H   H1512     1.0  0.62235  0.00488  0.70575  1.0000
  H   H1513     1.0  0.54100  0.44354  0.72016  1.0000
  H   H1514     1.0  0.66167  0.24813  0.79651  1.0000
  C   C848      1.0  0.68592  0.20520  0.70206  1.0000
  H   H1515     1.0  0.57189  0.42076  0.68703  1.0000
  S   S192      1.0  0.50698  0.33091  0.79277  1.0000
  H   H1516     1.0  0.51956  0.36907  0.96527  1.0000
  H   H1517     1.0  0.53443  0.37003  0.76987  1.0000
  C   C849      1.0  0.55801  0.08996  0.74520  1.0000
  H   H1518     1.0  0.70112  0.21446  0.70967  1.0000
  C   C850      1.0  0.71544  0.23286  0.83348  1.0000
  H   H1519     1.0  0.65631  0.23811  0.85349  1.0000
  H   H1520     1.0  0.58154  0.38584  0.94589  1.0000
  H   H1521     1.0  0.70258  0.22506  0.84643  1.0000
  H   H1522     1.0  0.59328  0.46231  0.91835  1.0000
  H   H1523     1.0  0.70748  0.29029  0.70991  1.0000
  C   C851      1.0  0.69196  0.21747  0.92254  1.0000
  C   C852      1.0  0.69858  0.20428  0.94099  1.0000
  C   C853      1.0  0.66796  0.24896  0.73352  1.0000
  H   H1524     1.0  0.70317  0.19731  0.87721  1.0000
  H   H1525     1.0  0.66661  0.44228  0.86052  1.0000
  C   C854      1.0  0.54526  0.41193  0.72827  1.0000
  C   C855      1.0  0.60771  0.20931  0.75568  1.0000
  H   H1526     1.0  0.58768  0.41726  0.74223  1.0000
  H   H1527     1.0  0.68581  0.19006  0.94189  1.0000
  H   H1528     1.0  0.67058  0.20851  0.75846  1.0000
  H   H1529     1.0  0.54107  0.40475  0.70349  1.0000
  C   C856      1.0  0.66841  0.23884  0.78959  1.0000
  H   H1530     1.0  0.69572  0.46730  0.79564  1.0000
  C   C857      1.0  0.48552  0.00349  0.51951  1.0000
  H   H1531     1.0  0.62118  0.99508  0.63205  1.0000
  C   C858      1.0  0.51464  0.39302  0.95285  1.0000
  H   H1532     1.0  0.58452  0.07219  0.61339  1.0000
  C   C859      1.0  0.56847  0.44166  0.75971  1.0000
  N   N49       1.0  0.54824  0.07118  0.68901  1.0000
  H   H1533     1.0  0.61542  0.40750  0.97496  1.0000
  C   C860      1.0  0.53225  0.11388  0.86065  1.0000
  H   H1534     1.0  0.72016  0.48861  0.91108  1.0000
  C   C861      1.0  0.71223  0.17012  0.84959  1.0000
  S   S193      1.0  0.54288  0.99505  0.66683  1.0000
  H   H1535     1.0  0.60523  0.19522  0.76503  1.0000
  H   H1536     1.0  0.55897  0.05246  0.73996  1.0000
  H   H1537     1.0  0.55898  0.39352  0.73700  1.0000
  H   H1538     1.0  0.55612  0.14190  0.86456  1.0000
  H   H1539     1.0  0.48714  0.46486  0.76119  1.0000
  H   H1540     1.0  0.71018  0.42231  0.88714  1.0000
  H   H1541     1.0  0.51595  0.01352  0.51404  1.0000
  C   C862      1.0  0.67407  0.21700  0.93716  1.0000
  C   C863      1.0  0.50681  0.07806  0.64601  1.0000
  H   H1542     1.0  0.53347  0.40249  0.91163  1.0000
  H   H1543     1.0  0.70082  0.15668  0.85876  1.0000
  H   H1544     1.0  0.52728  0.08067  0.70161  1.0000
  H   H1545     1.0  0.66537  0.13168  0.96914  1.0000
  H   H1546     1.0  0.59768  0.21367  0.76761  1.0000
  H   H1547     1.0  0.58633  0.36117  0.91526  1.0000
  H   H1548     1.0  0.65903  0.20588  0.69996  1.0000
  H   H1549     1.0  0.52502  0.01414  0.71770  1.0000
  H   H1550     1.0  0.54651  0.12589  0.92063  1.0000
  C   C864      1.0  0.62829  0.22436  0.76363  1.0000
  S   S194      1.0  0.48754  0.12149  0.84052  1.0000
  C   C865      1.0  0.67518  0.22183  0.74481  1.0000
  S   S195      1.0  0.49839  0.27824  0.80352  1.0000
  C   C866      1.0  0.64264  0.21805  0.74885  1.0000
  C   C867      1.0  0.57441  0.07793  0.60651  1.0000
  C   C868      1.0  0.54143  0.13471  0.87353  1.0000
  H   H1551     1.0  0.55101  0.45187  0.83178  1.0000
  C   C869      1.0  0.59348  0.42964  0.72636  1.0000
  N   N50       1.0  0.61409  0.42104  0.93023  1.0000
  C   C870      1.0  0.68935  0.26380  0.73283  1.0000
  C   C871      1.0  0.60492  0.40161  0.91237  1.0000
  C   C872      1.0  0.63530  0.42967  0.92507  1.0000
  C   C873      1.0  0.60678  0.43434  0.91649  1.0000
  C   C874      1.0  0.58846  0.43368  0.93094  1.0000
  S   S196      1.0  0.57762  0.01078  0.52952  1.0000
  C   C875      1.0  0.64115  0.43067  0.88893  1.0000
  C   C876      1.0  0.58391  0.38782  0.91943  1.0000
  C   C877      1.0  0.57802  0.36789  0.90383  1.0000
  C   C878      1.0  0.58240  0.44722  0.91362  1.0000
  H   H1552     1.0  0.55034  0.42426  0.97557  1.0000
  C   C879      1.0  0.66278  0.44196  0.88655  1.0000
  H   H1553     1.0  0.58191  0.09038  0.59099  1.0000
  C   C880      1.0  0.53500  0.07959  0.67984  1.0000
  H   H1554     1.0  0.60519  0.40322  0.88534  1.0000
  H   H1555     1.0  0.61341  0.39379  0.91785  1.0000
  H   H1556     1.0  0.64168  0.42154  0.93828  1.0000
  H   H1557     1.0  0.64272  0.44461  0.93574  1.0000
  H   H1558     1.0  0.61784  0.44957  0.91977  1.0000
  H   H1559     1.0  0.60429  0.43187  0.88961  1.0000
  H   H1560     1.0  0.59100  0.43841  0.95712  1.0000
  H   H1561     1.0  0.57635  0.41918  0.92895  1.0000
  H   H1562     1.0  0.56516  0.13829  0.97482  1.0000
  C   C881      1.0  0.62272  0.43693  0.98844  1.0000
  H   H1563     1.0  0.63432  0.43764  0.87395  1.0000
  H   H1564     1.0  0.63685  0.41610  0.87800  1.0000
  H   H1565     1.0  0.52804  0.05441  0.72469  1.0000
  C   C882      1.0  0.50420  0.00270  0.52789  1.0000
  C   C883      1.0  0.54850  0.04302  0.72069  1.0000
  C   C884      1.0  0.72442  0.47006  0.79551  1.0000
  H   H1566     1.0  0.61386  0.43951  0.68751  1.0000
  H   H1567     1.0  0.58984  0.16865  0.96851  1.0000
  H   H1568     1.0  0.52733  0.02720  0.75617  1.0000
  C   C885      1.0  0.62868  0.00180  0.65585  1.0000
  H   H1569     1.0  0.49130  0.42897  0.74015  1.0000
  H   H1570     1.0  0.50489  0.45839  0.77682  1.0000
  C   C886      1.0  0.61131  0.41857  0.96646  1.0000
  C   C887      1.0  0.71072  0.47703  0.79395  1.0000
  H   H1571     1.0  0.58525  0.44593  0.69489  1.0000
  H   H1572     1.0  0.61863  0.42579  0.71777  1.0000
  H   H1573     1.0  0.57346  0.46635  0.81361  1.0000
  C   C888      1.0  0.50039  0.24389  0.80458  1.0000
  S   S197      1.0  0.61256  0.46788  0.80308  1.0000
  H   H1574     1.0  0.72956  0.40540  0.87802  1.0000
  H   H1575     1.0  0.73329  0.19774  0.86693  1.0000
  H   H1576     1.0  0.55221  0.99151  0.73743  1.0000
  H   H1577     1.0  0.53683  0.44664  0.62920  1.0000
  H   H1578     1.0  0.49667  0.32593  0.93431  1.0000
  C   C889      1.0  0.56411  0.08536  0.71161  1.0000
  H   H1579     1.0  0.69974  0.16284  0.94259  1.0000
  C   C890      1.0  0.53573  0.48948  0.76251  1.0000
  H   H1580     1.0  0.52578  0.06724  0.62935  1.0000
  C   C891      1.0  0.70686  0.17307  0.96363  1.0000
  H   H1581     1.0  0.70210  0.20999  0.96686  1.0000
  H   H1582     1.0  0.57153  0.19772  0.91815  1.0000
  Fe  Fe98      1.0  0.49213  0.30322  0.81965  1.0000
  C   C892      1.0  0.48988  0.25367  0.81377  1.0000
  H   H1583     1.0  0.56212  0.06672  0.59192  1.0000
  C   C893      1.0  0.72217  0.18478  0.87779  1.0000
  H   H1584     1.0  0.72873  0.40715  0.81484  1.0000
  Fe  Fe99      1.0  0.48605  0.14132  0.87993  1.0000
  H   H1585     1.0  0.55587  0.19150  0.95236  1.0000
  H   H1586     1.0  0.68392  0.28745  0.71771  1.0000
  H   H1587     1.0  0.55358  0.46593  0.65582  1.0000
  H   H1588     1.0  0.60471  0.00352  0.67601  1.0000
  H   H1589     1.0  0.70367  0.40943  0.84798  1.0000
  H   H1590     1.0  0.51192  0.32912  0.98906  1.0000
  C   C894      1.0  0.69212  0.27980  0.70973  1.0000
  H   H1591     1.0  0.66158  0.20296  0.93108  1.0000
  H   H1592     1.0  0.61008  0.19325  0.91073  1.0000
  H   H1593     1.0  0.55855  0.16868  0.97663  1.0000
  H   H1594     1.0  0.57714  0.14924  0.91904  1.0000
  H   H1595     1.0  0.69592  0.17499  0.97766  1.0000
  C   C895      1.0  0.54950  0.15489  0.96325  1.0000
  H   H1596     1.0  0.49606  0.06997  0.62610  1.0000
  H   H1597     1.0  0.49515  0.17826  0.94310  1.0000
  H   H1598     1.0  0.70593  0.17605  0.83129  1.0000
  H   H1599     1.0  0.53959  0.12479  0.97497  1.0000
  C   C896      1.0  0.72967  0.25070  0.84638  1.0000
  H   H1600     1.0  0.48667  0.38874  0.79989  1.0000
  C   C897      1.0  0.71583  0.16386  0.98620  1.0000
  N   N51       1.0  0.52386  0.48859  0.73216  1.0000
  H   H1601     1.0  0.52377  0.21885  0.97644  1.0000
  H   H1602     1.0  0.72758  0.25644  0.86941  1.0000
  H   H1603     1.0  0.50557  0.22629  0.97534  1.0000
  H   H1604     1.0  0.71832  0.43516  0.85023  1.0000
  C   C898      1.0  0.72202  0.19266  0.95217  1.0000
  H   H1605     1.0  0.54395  0.48569  0.70026  1.0000
  H   H1606     1.0  0.67241  0.48457  0.95426  1.0000
  H   H1607     1.0  0.72627  0.16067  0.97293  1.0000
  H   H1608     1.0  0.48506  0.48134  0.50989  1.0000
  H   H1609     1.0  0.72783  0.20236  0.97440  1.0000
  H   H1610     1.0  0.72788  0.22648  0.89636  1.0000
  H   H1611     1.0  0.50087  0.20261  0.93439  1.0000
  H   H1612     1.0  0.65835  0.48762  0.90106  1.0000
  H   H1613     1.0  0.55946  0.38243  0.98988  1.0000
  H   H1614     1.0  0.70166  0.48467  0.85939  1.0000
  C   C899      1.0  0.73079  0.22180  0.92041  1.0000
  H   H1615     1.0  0.73098  0.23255  0.93899  1.0000
  Fe  Fe100     1.0  0.63619  0.48767  0.83780  1.0000
  Fe  Fe101     1.0  0.62871  0.48712  0.76340  1.0000
  H   H1616     1.0  0.49395  0.41280  0.81582  1.0000
  H   H1617     1.0  0.49632  0.39554  0.84144  1.0000
  S   S198      1.0  0.61110  0.49008  0.72003  1.0000
  C   C900      1.0  0.48726  0.39750  0.82210  1.0000
  Fe  Fe102     1.0  0.55505  0.56156  0.33648  1.0000
  S   S199      1.0  0.55704  0.53890  0.30404  1.0000
  S   S200      1.0  0.55001  0.55361  0.39066  1.0000
  Fe  Fe103     1.0  0.55333  0.58399  0.27587  1.0000
  S   S201      1.0  0.55551  0.56300  0.23944  1.0000
  S   S202      1.0  0.54746  0.60966  0.26619  1.0000
  Fe  Fe104     1.0  0.53484  0.54067  0.27113  1.0000
  S   S203      1.0  0.50924  0.51510  0.24862  1.0000
  Fe  Fe105     1.0  0.57783  0.56242  0.27453  1.0000
  S   S204      1.0  0.60390  0.55796  0.26223  1.0000
  S   S205      1.0  0.53101  0.56133  0.30515  1.0000
  S   S206      1.0  0.57764  0.58550  0.30928  1.0000
  H   H1618     1.0  0.54837  0.93373  0.04922  1.0000
  H   H1619     1.0  0.56570  0.86871  0.09223  1.0000
  H   H1620     1.0  0.52826  0.91302  0.34515  1.0000
  S   S207      1.0  0.50729  0.62814  0.14277  1.0000
  C   C901      1.0  0.49057  0.95110  0.30443  1.0000
  C   C902      1.0  0.53457  0.72317  0.06669  1.0000
  C   C903      1.0  0.49802  0.61933  0.00517  1.0000
  S   S208      1.0  0.49851  0.66952  0.09804  1.0000
  C   C904      1.0  0.55921  0.98320  0.47853  1.0000
  S   S209      1.0  0.51040  0.84433  0.03295  1.0000
  H   H1621     1.0  0.50565  0.93636  0.28281  1.0000
  S   S210      1.0  0.49985  0.87267  0.19113  1.0000
  C   C905      1.0  0.72014  0.55475  0.18112  1.0000
  C   C906      1.0  0.52623  0.59031  0.39881  1.0000
  S   S211      1.0  0.50367  0.83160  0.12639  1.0000
  Fe  Fe106     1.0  0.56721  0.97991  0.25684  1.0000
  S   S212      1.0  0.56932  0.95559  0.22747  1.0000
  S   S213      1.0  0.54272  0.97325  0.28909  1.0000
  C   C907      1.0  0.60543  0.98457  0.41222  1.0000
  H   H1622     1.0  0.53620  0.58845  0.38197  1.0000
  H   H1623     1.0  0.51066  0.53425  0.41520  1.0000
  H   H1624     1.0  0.65522  0.49863  0.25143  1.0000
  S   S214      1.0  0.61441  0.51205  0.13904  1.0000
  C   C908      1.0  0.50688  0.49942  0.40494  1.0000
  C   C909      1.0  0.49991  0.75083  0.13488  1.0000
  S   S215      1.0  0.66130  0.50476  0.11192  1.0000
  H   H1625     1.0  0.49822  0.64362  0.03279  1.0000
  H   H1626     1.0  0.57506  0.92664  0.39505  1.0000
  H   H1627     1.0  0.50506  0.70337  0.06194  1.0000
  H   H1628     1.0  0.71781  0.59431  0.26420  1.0000
  C   C910      1.0  0.50100  0.52788  0.39319  1.0000
  H   H1629     1.0  0.53480  0.59971  0.41999  1.0000
  H   H1630     1.0  0.70151  0.52496  0.21051  1.0000
  C   C911      1.0  0.51923  0.89601  0.19901  1.0000
  C   C912      1.0  0.53750  0.90137  0.18746  1.0000
  C   C913      1.0  0.55260  0.91971  0.19594  1.0000
  C   C914      1.0  0.54964  0.93298  0.21587  1.0000
  C   C915      1.0  0.53132  0.92770  0.22698  1.0000
  C   C916      1.0  0.51632  0.90929  0.21895  1.0000
  H   H1631     1.0  0.54011  0.89119  0.17279  1.0000
  H   H1632     1.0  0.56672  0.92355  0.18737  1.0000
  H   H1633     1.0  0.52877  0.93771  0.24216  1.0000
  H   H1634     1.0  0.50232  0.90531  0.22823  1.0000
  H   H1635     1.0  0.69998  0.49340  0.10441  1.0000
  H   H1636     1.0  0.53902  0.89567  0.11329  1.0000
  H   H1637     1.0  0.53400  0.72716  0.09279  1.0000
  C   C917      1.0  0.51609  0.90985  0.11884  1.0000
  H   H1638     1.0  0.62887  0.49185  0.00498  1.0000
  H   H1639     1.0  0.51878  0.59743  0.38585  1.0000
  C   C918      1.0  0.55217  0.88612  0.07703  1.0000
  H   H1640     1.0  0.51219  0.94037  0.39401  1.0000
  C   C919      1.0  0.55348  0.87130  0.09913  1.0000
  H   H1641     1.0  0.59045  0.94352  0.07965  1.0000
  C   C920      1.0  0.48776  0.73100  0.13590  1.0000
  C   C921      1.0  0.53585  0.61420  0.23178  1.0000
  C   C922      1.0  0.53284  0.60425  0.20154  1.0000
  C   C923      1.0  0.52408  0.60873  0.17475  1.0000
  C   C924      1.0  0.51797  0.62302  0.17780  1.0000
  C   C925      1.0  0.52064  0.63272  0.20819  1.0000
  C   C926      1.0  0.52966  0.62844  0.23486  1.0000
  H   H1642     1.0  0.53756  0.59333  0.19865  1.0000
  H   H1643     1.0  0.52216  0.60114  0.15140  1.0000
  H   H1644     1.0  0.51616  0.64382  0.21099  1.0000
  H   H1645     1.0  0.53197  0.63630  0.25803  1.0000
  C   C927      1.0  0.60569  0.54404  0.22860  1.0000
  C   C928      1.0  0.61942  0.53718  0.23036  1.0000
  C   C929      1.0  0.62201  0.52698  0.20356  1.0000
  C   C930      1.0  0.61126  0.52399  0.17429  1.0000
  C   C931      1.0  0.59741  0.53066  0.17265  1.0000
  C   C932      1.0  0.59448  0.54043  0.19970  1.0000
  H   H1646     1.0  0.62814  0.53987  0.25261  1.0000
  H   H1647     1.0  0.63245  0.52167  0.20541  1.0000
  H   H1648     1.0  0.58899  0.52844  0.15018  1.0000
  H   H1649     1.0  0.58397  0.54572  0.19787  1.0000
  H   H1650     1.0  0.53000  0.91882  0.13166  1.0000
  H   H1651     1.0  0.61906  0.94987  0.30770  1.0000
  C   C933      1.0  0.56850  0.59185  0.47010  1.0000
  H   H1652     1.0  0.52026  0.74526  0.04314  1.0000
  C   C934      1.0  0.55533  0.56437  0.43114  1.0000
  H   H1653     1.0  0.57015  0.59366  0.41727  1.0000
  H   H1654     1.0  0.54143  0.53704  0.45339  1.0000
  C   C935      1.0  0.49082  0.67218  0.99395  1.0000
  H   H1655     1.0  0.50299  0.57359  0.42885  1.0000
  H   H1656     1.0  0.61336  0.96988  0.35663  1.0000
  H   H1657     1.0  0.58835  0.95780  0.11307  1.0000
  H   H1658     1.0  0.49800  0.67504  0.01783  1.0000
  H   H1659     1.0  0.65798  0.49442  0.20884  1.0000
  H   H1660     1.0  0.59592  0.97794  0.34837  1.0000
  H   H1661     1.0  0.58811  0.96292  0.29250  1.0000
  C   C936      1.0  0.49925  0.55752  0.38198  1.0000
  H   H1662     1.0  0.53886  0.71148  0.06591  1.0000
  H   H1663     1.0  0.54551  0.73571  0.05455  1.0000
  H   H1664     1.0  0.51330  0.50501  0.42980  1.0000
  H   H1665     1.0  0.66451  0.52822  0.22151  1.0000
  H   H1666     1.0  0.68832  0.54218  0.14102  1.0000
  H   H1667     1.0  0.51237  0.88205  0.03519  1.0000
  H   H1668     1.0  0.50422  0.79343  0.03872  1.0000
  H   H1669     1.0  0.54715  0.96211  0.43856  1.0000
  C   C937      1.0  0.56146  0.93419  0.09580  1.0000
  H   H1670     1.0  0.55523  0.51260  0.24468  1.0000
  S   S216      1.0  0.55798  0.98149  0.37815  1.0000
  H   H1671     1.0  0.56617  0.89911  0.07919  1.0000
  H   H1672     1.0  0.69793  0.56678  0.15119  1.0000
  H   H1673     1.0  0.50598  0.94509  0.34275  1.0000
  C   C938      1.0  0.51189  0.57092  0.41084  1.0000
  H   H1674     1.0  0.51847  0.50480  0.38722  1.0000
  H   H1675     1.0  0.66998  0.57037  0.13157  1.0000
  H   H1676     1.0  0.62206  0.97409  0.30592  1.0000
  C   C939      1.0  0.54927  0.49679  0.24128  1.0000
  N   N52       1.0  0.48891  0.95633  0.36709  1.0000
  H   H1677     1.0  0.50070  0.91638  0.15638  1.0000
  H   H1678     1.0  0.49427  0.59179  0.22451  1.0000
  C   C940      1.0  0.58148  0.94987  0.08963  1.0000
  H   H1679     1.0  0.66024  0.54598  0.11473  1.0000
  H   H1680     1.0  0.48784  0.90864  0.11738  1.0000
  C   C941      1.0  0.51501  0.71623  0.04931  1.0000
  H   H1681     1.0  0.61231  0.96889  0.24698  1.0000
  H   H1682     1.0  0.50635  0.73453  0.07714  1.0000
  H   H1683     1.0  0.49204  0.94273  0.25400  1.0000
  H   H1684     1.0  0.51201  0.62835  0.99485  1.0000
  C   C942      1.0  0.70154  0.56317  0.21922  1.0000
  C   C943      1.0  0.69065  0.52916  0.20066  1.0000
  C   C944      1.0  0.66899  0.54938  0.16657  1.0000
  C   C945      1.0  0.67560  0.52369  0.22743  1.0000
  H   H1685     1.0  0.49209  0.91984  0.43781  1.0000
  C   C946      1.0  0.66102  0.55506  0.13660  1.0000
  H   H1686     1.0  0.50623  0.98338  0.34555  1.0000
  H   H1687     1.0  0.68730  0.55971  0.22865  1.0000
  H   H1688     1.0  0.51103  0.76781  0.05832  1.0000
  H   H1689     1.0  0.51071  0.89508  0.12752  1.0000
  H   H1690     1.0  0.66825  0.55802  0.18784  1.0000
  H   H1691     1.0  0.65952  0.53399  0.17009  1.0000
  H   H1692     1.0  0.68266  0.53063  0.25140  1.0000
  H   H1693     1.0  0.51935  0.97511  0.36994  1.0000
  C   C947      1.0  0.59421  0.96484  0.39500  1.0000
  C   C948      1.0  0.49394  0.57057  0.25731  1.0000
  C   C949      1.0  0.50214  0.91735  0.12945  1.0000
  H   H1694     1.0  0.64636  0.55299  0.14119  1.0000
  H   H1695     1.0  0.68385  0.51931  0.17886  1.0000
  H   H1696     1.0  0.52008  0.56468  0.42391  1.0000
  C   C950      1.0  0.55568  0.97713  0.44506  1.0000
  N   N53       1.0  0.58611  0.94779  0.33697  1.0000
  C   C951      1.0  0.56540  0.94355  0.33769  1.0000
  H   H1697     1.0  0.51607  0.71209  0.02359  1.0000
  H   H1698     1.0  0.56301  0.92463  0.11384  1.0000
  C   C952      1.0  0.58958  0.93128  0.34767  1.0000
  C   C953      1.0  0.57637  0.91831  0.37390  1.0000
  C   C954      1.0  0.55169  0.92765  0.31280  1.0000
  C   C955      1.0  0.49171  0.50584  0.39612  1.0000
  H   H1699     1.0  0.48781  0.54026  0.44215  1.0000
  C   C956      1.0  0.50813  0.73187  0.05093  1.0000
  C   C957      1.0  0.58374  0.90468  0.38685  1.0000
  C   C958      1.0  0.53088  0.92039  0.32162  1.0000
  H   H1700     1.0  0.50368  0.98331  0.42079  1.0000
  H   H1701     1.0  0.56394  0.95668  0.33229  1.0000
  H   H1702     1.0  0.55979  0.93985  0.36247  1.0000
  H   H1703     1.0  0.50854  0.63072  0.05472  1.0000
  H   H1704     1.0  0.56102  0.49935  0.19406  1.0000
  H   H1705     1.0  0.52541  0.50460  0.30395  1.0000
  H   H1706     1.0  0.58423  0.93901  0.28567  1.0000
  H   H1707     1.0  0.58802  0.92142  0.32638  1.0000
  C   C959      1.0  0.51754  0.90964  0.08105  1.0000
  H   H1708     1.0  0.56177  0.90940  0.36317  1.0000
  H   H1709     1.0  0.52244  0.87711  0.08691  1.0000
  H   H1710     1.0  0.55315  0.93359  0.28811  1.0000
  H   H1711     1.0  0.55496  0.91532  0.31116  1.0000
  C   C960      1.0  0.71018  0.59652  0.24276  1.0000
  H   H1712     1.0  0.50305  0.89890  0.07164  1.0000
  H   H1713     1.0  0.51168  0.91378  0.01841  1.0000
  H   H1714     1.0  0.50902  0.55881  0.36197  1.0000
  H   H1715     1.0  0.55563  0.87637  0.12524  1.0000
  H   H1716     1.0  0.57378  0.89524  0.40484  1.0000
  H   H1717     1.0  0.58472  0.89552  0.36652  1.0000
  H   H1718     1.0  0.59803  0.91287  0.39934  1.0000
  H   H1719     1.0  0.52142  0.91008  0.30208  1.0000
  C   C961      1.0  0.49724  0.84401  0.99712  1.0000
  H   H1720     1.0  0.51698  0.96141  0.41899  1.0000
  H   H1721     1.0  0.60936  0.94464  0.24795  1.0000
  H   H1722     1.0  0.50850  0.52171  0.47705  1.0000
  H   H1723     1.0  0.69514  0.59232  0.24885  1.0000
  C   C962      1.0  0.53583  0.89084  0.08719  1.0000
  H   H1724     1.0  0.51919  0.92369  0.07268  1.0000
  H   H1725     1.0  0.51520  0.75588  0.13525  1.0000
  H   H1726     1.0  0.50821  0.76608  0.01432  1.0000
  C   C963      1.0  0.49171  0.94466  0.33971  1.0000
  H   H1727     1.0  0.70342  0.58795  0.19209  1.0000
  H   H1728     1.0  0.56118  0.92021  0.04876  1.0000
  C   C964      1.0  0.56511  0.58421  0.43748  1.0000
  N   N54       1.0  0.53279  0.90516  0.06693  1.0000
  H   H1729     1.0  0.57621  0.60720  0.47462  1.0000
  H   H1730     1.0  0.67626  0.49696  0.23889  1.0000
  H   H1731     1.0  0.51065  0.53135  0.37225  1.0000
  H   H1732     1.0  0.60466  0.93672  0.35688  1.0000
  H   H1733     1.0  0.50955  0.57541  0.25669  1.0000
  S   S217      1.0  0.49801  0.71481  0.13757  1.0000
  N   N55       1.0  0.70005  0.54985  0.19067  1.0000
  C   C965      1.0  0.59210  0.95201  0.30204  1.0000
  C   C966      1.0  0.49911  0.49708  0.27669  1.0000
  C   C967      1.0  0.68957  0.55243  0.16132  1.0000
  C   C968      1.0  0.54887  0.55238  0.45788  1.0000
  H   H1734     1.0  0.52732  0.93253  0.32376  1.0000
  H   H1735     1.0  0.50208  0.77938  0.13312  1.0000
  C   C969      1.0  0.59790  0.96573  0.35791  1.0000
  H   H1736     1.0  0.49728  0.94127  0.46268  1.0000
  H   H1737     1.0  0.71388  0.52640  0.15832  1.0000
  C   C970      1.0  0.71132  0.49321  0.11968  1.0000
  C   C971      1.0  0.50261  0.93504  0.44315  1.0000
  H   H1738     1.0  0.50240  0.96553  0.30093  1.0000
  H   H1739     1.0  0.53598  0.89205  0.02135  1.0000
  C   C972      1.0  0.50567  0.97605  0.36861  1.0000
  H   H1740     1.0  0.72748  0.56956  0.17234  1.0000
  C   C973      1.0  0.52555  0.89586  0.03319  1.0000
  H   H1741     1.0  0.60203  0.98375  0.43852  1.0000
  C   C974      1.0  0.61714  0.95931  0.25942  1.0000
  H   H1742     1.0  0.58081  0.96020  0.07220  1.0000
  H   H1743     1.0  0.49165  0.56985  0.20506  1.0000
  H   H1744     1.0  0.57896  0.95995  0.39979  1.0000
  Fe  Fe107     1.0  0.63096  0.49513  0.12739  1.0000
  H   H1745     1.0  0.55349  0.94135  0.10678  1.0000
  C   C975      1.0  0.55108  0.92326  0.06348  1.0000
  H   H1746     1.0  0.51617  0.93542  0.45240  1.0000
  Fe  Fe108     1.0  0.49108  0.84995  0.14887  1.0000
  N   N56       1.0  0.49014  0.72772  0.03094  1.0000
  C   C976      1.0  0.61361  0.95915  0.29604  1.0000
  C   C977      1.0  0.72198  0.54180  0.15341  1.0000
  H   H1747     1.0  0.52794  0.58978  0.48716  1.0000
  H   H1748     1.0  0.54991  0.88004  0.05161  1.0000
  C   C978      1.0  0.71093  0.58490  0.21269  1.0000
  H   H1749     1.0  0.54026  0.85750  0.09605  1.0000
  C   C979      1.0  0.50613  0.94656  0.41227  1.0000
  H   H1750     1.0  0.70972  0.56110  0.24011  1.0000
  H   H1751     1.0  0.63263  0.96467  0.25571  1.0000
  H   H1752     1.0  0.59915  0.95513  0.40654  1.0000
  C   C980      1.0  0.50053  0.76420  0.03737  1.0000
  Fe  Fe109     1.0  0.49135  0.64618  0.13452  1.0000
  H   H1753     1.0  0.48681  0.55478  0.25963  1.0000
  Fe  Fe110     1.0  0.49315  0.83774  0.07836  1.0000
  C   C981      1.0  0.66569  0.50210  0.23188  1.0000
  C   C982      1.0  0.52101  0.90798  0.00820  1.0000
  C   C983      1.0  0.49243  0.77861  0.03923  1.0000
  H   H1754     1.0  0.50747  0.93258  0.12323  1.0000
  C   C984      1.0  0.49251  0.76422  0.13363  1.0000
  C   C985      1.0  0.49682  0.62914  0.03724  1.0000
  C   C986      1.0  0.51029  0.49547  0.30231  1.0000
  C   C987      1.0  0.49402  0.72663  0.99508  1.0000
  C   C988      1.0  0.48743  0.94632  0.39868  1.0000
  H   H1755     1.0  0.50449  0.56990  0.49010  1.0000
  H   H1756     1.0  0.57601  0.49850  0.22724  1.0000
  C   C989      1.0  0.49214  0.93735  0.27886  1.0000
  H   H1757     1.0  0.49752  0.60541  0.01145  1.0000
  C   C990      1.0  0.48707  0.57600  0.22582  1.0000
  H   H1758     1.0  0.72619  0.59030  0.20713  1.0000
  C   C991      1.0  0.72952  0.49876  0.10702  1.0000
  H   H1759     1.0  0.71658  0.54430  0.12957  1.0000
  H   H1760     1.0  0.61618  0.49241  0.24164  1.0000
  H   H1761     1.0  0.71713  0.61201  0.23764  1.0000
  C   C992      1.0  0.55220  0.56001  0.49044  1.0000
  H   H1762     1.0  0.53442  0.92013  0.00074  1.0000
  N   N57       1.0  0.48757  0.53670  0.38945  1.0000
  H   H1763     1.0  0.49000  0.56370  0.37222  1.0000
  H   H1764     1.0  0.49118  0.57761  0.27901  1.0000
  H   H1765     1.0  0.72873  0.55437  0.20297  1.0000
  H   H1766     1.0  0.48973  0.54148  0.31987  1.0000
  H   H1767     1.0  0.49017  0.51921  0.32785  1.0000
  H   H1768     1.0  0.73199  0.50322  0.08204  1.0000
  C   C993      1.0  0.48458  0.74334  0.03956  1.0000
  C   C994      1.0  0.56114  0.49210  0.21695  1.0000
  Fe  Fe111     1.0  0.48406  0.68195  0.13169  1.0000
  H   H1769     1.0  0.48487  0.77728  0.06237  1.0000
  H   H1770     1.0  0.54971  0.49087  0.26548  1.0000
  H   H1771     1.0  0.53420  0.49106  0.23205  1.0000
  H   H1772     1.0  0.62103  0.98964  0.41041  1.0000
  H   H1773     1.0  0.48448  0.49849  0.37255  1.0000
  C   C995      1.0  0.50589  0.98990  0.39664  1.0000
  S   S218      1.0  0.49868  0.68917  0.80379  1.0000
  H   H1774     1.0  0.53398  0.52544  0.76730  1.0000
  H   H1775     1.0  0.56146  0.61548  0.59310  1.0000
  C   C996      1.0  0.70747  0.60562  0.69695  1.0000
  H   H1776     1.0  0.49857  0.87864  0.69817  1.0000
  S   S219      1.0  0.50490  0.68788  0.90055  1.0000
  H   H1777     1.0  0.53473  0.72438  0.70046  1.0000
  H   H1778     1.0  0.53365  0.72725  0.79215  1.0000
  S   S220      1.0  0.53368  0.98229  0.58828  1.0000
  S   S221      1.0  0.49881  0.88803  0.76884  1.0000
  H   H1779     1.0  0.52872  0.49110  0.78492  1.0000
  H   H1780     1.0  0.48667  0.59422  0.57183  1.0000
  H   H1781     1.0  0.71244  0.62086  0.70490  1.0000
  Fe  Fe112     1.0  0.54384  0.97252  0.63321  1.0000
  S   S222      1.0  0.53031  0.94029  0.64389  1.0000
  Fe  Fe113     1.0  0.53424  0.57323  0.64638  1.0000
  S   S223      1.0  0.52502  0.56286  0.59385  1.0000
  S   S224      1.0  0.51682  0.58423  0.67753  1.0000
  Fe  Fe114     1.0  0.56349  0.55652  0.64778  1.0000
  S   S225      1.0  0.55689  0.54572  0.59491  1.0000
  S   S226      1.0  0.58314  0.55310  0.68724  1.0000
  Fe  Fe115     1.0  0.55607  0.57336  0.58418  1.0000
  S   S227      1.0  0.56675  0.59015  0.53763  1.0000
  Fe  Fe116     1.0  0.52631  0.53608  0.60707  1.0000
  S   S228      1.0  0.50388  0.50767  0.58651  1.0000
  S   S229      1.0  0.56558  0.58562  0.63631  1.0000
  S   S230      1.0  0.53272  0.54493  0.66031  1.0000
  C   C997      1.0  0.51220  0.59169  0.52925  1.0000
  C   C998      1.0  0.57863  0.93353  0.69352  1.0000
  H   H1782     1.0  0.48962  0.61432  0.59761  1.0000
  H   H1783     1.0  0.50189  0.58122  0.54557  1.0000
  S   S231      1.0  0.51009  0.65607  0.74512  1.0000
  H   H1784     1.0  0.53194  0.49864  0.61821  1.0000
  H   H1785     1.0  0.57300  0.98292  0.70208  1.0000
  S   S232      1.0  0.65136  0.50842  0.79873  1.0000
  H   H1786     1.0  0.66918  0.50411  0.67547  1.0000
  H   H1787     1.0  0.51489  0.65767  0.89440  1.0000
  H   H1788     1.0  0.63761  0.55533  0.73923  1.0000
  H   H1789     1.0  0.49363  0.56145  0.93297  1.0000
  H   H1790     1.0  0.54479  0.65516  0.53849  1.0000
  S   S233      1.0  0.69977  0.50613  0.78716  1.0000
  C   C999      1.0  0.66578  0.51103  0.69663  1.0000
  C   C1000     1.0  0.63523  0.49079  0.98236  1.0000
  C   C1001     1.0  0.48483  0.72640  0.93499  1.0000
  H   H1791     1.0  0.51922  0.88918  0.96633  1.0000
  C   C1002     1.0  0.50121  0.97248  0.72341  1.0000
  H   H1792     1.0  0.63531  0.56327  0.61809  1.0000
  H   H1793     1.0  0.49596  0.97672  0.70109  1.0000
  C   C1003     1.0  0.71643  0.49652  0.78970  1.0000
  S   S234      1.0  0.62568  0.49417  0.88520  1.0000
  H   H1794     1.0  0.51724  0.64102  0.57541  1.0000
  H   H1795     1.0  0.56386  0.94329  0.72639  1.0000
  C   C1004     1.0  0.63572  0.49157  0.92268  1.0000
  H   H1796     1.0  0.54725  0.55053  0.51062  1.0000
  C   C1005     1.0  0.58984  0.53477  0.69625  1.0000
  C   C1006     1.0  0.58768  0.52029  0.67331  1.0000
  C   C1007     1.0  0.59398  0.50660  0.68123  1.0000
  C   C1008     1.0  0.60273  0.50728  0.71203  1.0000
  C   C1009     1.0  0.60476  0.52163  0.73510  1.0000
  C   C1010     1.0  0.59841  0.53530  0.72718  1.0000
  H   H1797     1.0  0.58176  0.52004  0.64905  1.0000
  H   H1798     1.0  0.49276  0.52149  0.64383  1.0000
  H   H1799     1.0  0.61135  0.52231  0.75897  1.0000
  H   H1800     1.0  0.60022  0.54645  0.74513  1.0000
  H   H1801     1.0  0.51592  0.71650  0.74824  1.0000
  C   C1011     1.0  0.62741  0.49269  0.95215  1.0000
  C   C1012     1.0  0.51746  0.58016  0.50437  1.0000
  H   H1802     1.0  0.50640  0.64325  0.50128  1.0000
  H   H1803     1.0  0.48909  0.61925  0.89803  1.0000
  C   C1013     1.0  0.50702  0.90216  0.73345  1.0000
  C   C1014     1.0  0.50519  0.89406  0.70182  1.0000
  C   C1015     1.0  0.51219  0.90594  0.67485  1.0000
  C   C1016     1.0  0.52099  0.92608  0.67885  1.0000
  C   C1017     1.0  0.52261  0.93418  0.71040  1.0000
  C   C1018     1.0  0.51575  0.92232  0.73742  1.0000
  C   C1019     1.0  0.49248  0.60169  0.59586  1.0000
  H   H1804     1.0  0.51088  0.89943  0.65065  1.0000
  H   H1805     1.0  0.52923  0.94959  0.71394  1.0000
  H   H1806     1.0  0.51729  0.92881  0.76169  1.0000
  H   H1807     1.0  0.70662  0.60458  0.66975  1.0000
  H   H1808     1.0  0.72194  0.51214  0.91846  1.0000
  C   C1020     1.0  0.55687  0.50510  0.76452  1.0000
  C   C1021     1.0  0.52918  0.75242  0.78001  1.0000
  H   H1809     1.0  0.61278  0.97531  0.81068  1.0000
  C   C1022     1.0  0.51194  0.63577  0.72756  1.0000
  C   C1023     1.0  0.49799  0.61688  0.73103  1.0000
  C   C1024     1.0  0.49986  0.60141  0.71583  1.0000
  C   C1025     1.0  0.51575  0.60446  0.69715  1.0000
  C   C1026     1.0  0.52981  0.62334  0.69402  1.0000
  C   C1027     1.0  0.52783  0.63883  0.70887  1.0000
  H   H1810     1.0  0.68945  0.59558  0.73766  1.0000
  C   C1028     1.0  0.50162  0.57341  0.91673  1.0000
  H   H1811     1.0  0.54223  0.62604  0.68023  1.0000
  H   H1812     1.0  0.58127  0.51756  0.79888  1.0000
  H   H1813     1.0  0.54846  0.73127  0.73822  1.0000
  C   C1029     1.0  0.51409  0.53312  0.74343  1.0000
  H   H1814     1.0  0.53878  0.65332  0.70607  1.0000
  H   H1815     1.0  0.66471  0.57375  0.82164  1.0000
  H   H1816     1.0  0.51774  0.50147  0.67018  1.0000
  H   H1817     1.0  0.51644  0.97611  0.72060  1.0000
  H   H1818     1.0  0.55304  0.74124  0.84275  1.0000
  H   H1819     1.0  0.49617  0.94739  0.74942  1.0000
  H   H1820     1.0  0.49190  0.71193  0.98805  1.0000
  H   H1821     1.0  0.67820  0.56932  0.76969  1.0000
  H   H1822     1.0  0.50491  0.60176  0.95808  1.0000
  C   C1030     1.0  0.53789  0.75177  0.72202  1.0000
  C   C1031     1.0  0.52625  0.52245  0.74312  1.0000
  H   H1823     1.0  0.59035  0.95831  0.76388  1.0000
  C   C1032     1.0  0.56217  0.57983  0.49683  1.0000
  H   H1824     1.0  0.55020  0.76546  0.73095  1.0000
  H   H1825     1.0  0.57010  0.64737  0.64581  1.0000
  C   C1033     1.0  0.52245  0.64936  0.90203  1.0000
  H   H1826     1.0  0.52222  0.64002  0.88094  1.0000
  H   H1827     1.0  0.55677  0.96330  0.75177  1.0000
  H   H1828     1.0  0.50458  0.49596  0.75905  1.0000
  H   H1829     1.0  0.67804  0.59878  0.70175  1.0000
  H   H1830     1.0  0.50450  0.62217  0.54606  1.0000
  C   C1034     1.0  0.50825  0.72509  0.74348  1.0000
  H   H1831     1.0  0.50524  0.59899  0.51552  1.0000
  H   H1832     1.0  0.65219  0.50043  0.70648  1.0000
  C   C1035     1.0  0.51901  0.63130  0.55688  1.0000
  H   H1833     1.0  0.53371  0.75486  0.69747  1.0000
  Fe  Fe117     1.0  0.48989  0.65921  0.78217  1.0000
  H   H1834     1.0  0.50483  0.53427  0.51145  1.0000
  H   H1835     1.0  0.55332  0.97289  0.49733  1.0000
  H   H1836     1.0  0.52371  0.57186  0.51714  1.0000
  C   C1036     1.0  0.52569  0.49293  0.66929  1.0000
  H   H1837     1.0  0.61608  0.55644  0.64606  1.0000
  C   C1037     1.0  0.51084  0.89597  0.97718  1.0000
  H   H1838     1.0  0.53752  0.65958  0.90872  1.0000
  C   C1038     1.0  0.65320  0.56443  0.73752  1.0000
  H   H1839     1.0  0.61272  0.96900  0.68631  1.0000
  H   H1840     1.0  0.57773  0.97845  0.77659  1.0000
  H   H1841     1.0  0.51595  0.69141  0.96925  1.0000
  Fe  Fe118     1.0  0.48932  0.67512  0.85181  1.0000
  C   C1039     1.0  0.48904  0.98004  0.62914  1.0000
  C   C1040     1.0  0.50245  0.51998  0.50165  1.0000
  H   H1842     1.0  0.51803  0.84368  0.96410  1.0000
  H   H1843     1.0  0.50883  0.78558  0.69703  1.0000
  C   C1041     1.0  0.51306  0.63736  0.93128  1.0000
  C   C1042     1.0  0.57334  0.94940  0.70565  1.0000
  H   H1844     1.0  0.55848  0.51941  0.75845  1.0000
  H   H1845     1.0  0.48567  0.59559  0.64690  1.0000
  N   N58       1.0  0.52167  0.74629  0.74509  1.0000
  H   H1846     1.0  0.52080  0.62893  0.93665  1.0000
  H   H1847     1.0  0.49161  0.94357  0.70580  1.0000
  C   C1043     1.0  0.53077  0.64381  0.52895  1.0000
  C   C1044     1.0  0.48978  0.95099  0.72788  1.0000
  H   H1848     1.0  0.53315  0.63499  0.50970  1.0000
  H   H1849     1.0  0.55646  0.64105  0.57030  1.0000
  H   H1850     1.0  0.54147  0.61441  0.53259  1.0000
  H   H1851     1.0  0.49792  0.72155  0.76340  1.0000
  H   H1852     1.0  0.50019  0.98079  0.74503  1.0000
  H   H1853     1.0  0.65821  0.58452  0.66096  1.0000
  H   H1854     1.0  0.53559  0.59741  0.56265  1.0000
  H   H1855     1.0  0.51027  0.51467  0.51814  1.0000
  C   C1045     1.0  0.48927  0.49568  0.61818  1.0000
  C   C1046     1.0  0.66252  0.56371  0.77103  1.0000
  C   C1047     1.0  0.58163  0.98219  0.72358  1.0000
  H   H1856     1.0  0.56519  0.49288  0.80558  1.0000
  H   H1857     1.0  0.58559  0.92943  0.71364  1.0000
  H   H1858     1.0  0.53875  0.76809  0.78231  1.0000
  H   H1859     1.0  0.60689  0.95637  0.73763  1.0000
  H   H1860     1.0  0.58450  0.64867  0.61111  1.0000
  H   H1861     1.0  0.70446  0.50882  0.86444  1.0000
  H   H1862     1.0  0.58127  0.63184  0.64243  1.0000
  C   C1048     1.0  0.48697  0.50610  0.64445  1.0000
  H   H1863     1.0  0.50524  0.75352  0.70963  1.0000
  H   H1864     1.0  0.50000  0.59751  0.89626  1.0000
  H   H1865     1.0  0.66494  0.59058  0.79224  1.0000
  H   H1866     1.0  0.65468  0.57908  0.73505  1.0000
  H   H1867     1.0  0.49682  0.75120  0.74981  1.0000
  C   C1049     1.0  0.70365  0.49626  0.87758  1.0000
  H   H1868     1.0  0.56482  0.90406  0.67427  1.0000
  C   C1050     1.0  0.50097  0.68132  0.96642  1.0000
  H   H1869     1.0  0.48499  0.63468  0.92490  1.0000
  H   H1870     1.0  0.58834  0.93821  0.67282  1.0000
  C   C1051     1.0  0.48761  0.75851  0.81701  1.0000
  C   C1052     1.0  0.49164  0.58610  0.91316  1.0000
  H   H1871     1.0  0.48745  0.74786  0.97122  1.0000
  H   H1872     1.0  0.53669  0.52856  0.72379  1.0000
  C   C1053     1.0  0.51361  0.50063  0.73741  1.0000
  H   H1873     1.0  0.54931  0.51611  0.64666  1.0000
  H   H1874     1.0  0.62832  0.58077  0.63377  1.0000
  H   H1875     1.0  0.54855  0.49284  0.64021  1.0000
  H   H1876     1.0  0.54480  0.64392  0.60536  1.0000
  H   H1877     1.0  0.51644  0.58192  0.92695  1.0000
  H   H1878     1.0  0.53037  0.74156  0.84472  1.0000
  C   C1054     1.0  0.56599  0.50681  0.79866  1.0000
  H   H1879     1.0  0.62910  0.96898  0.78910  1.0000
  H   H1880     1.0  0.56126  0.75072  0.67271  1.0000
  C   C1055     1.0  0.54420  0.74767  0.83234  1.0000
  H   H1881     1.0  0.49651  0.88461  0.98284  1.0000
  H   H1882     1.0  0.51609  0.80352  0.73003  1.0000
  C   C1056     1.0  0.54543  0.73684  0.71541  1.0000
  N   N59       1.0  0.66036  0.55807  0.70802  1.0000
  C   C1057     1.0  0.64714  0.55541  0.67875  1.0000
  C   C1058     1.0  0.65917  0.53866  0.71462  1.0000
  C   C1059     1.0  0.68081  0.57174  0.70101  1.0000
  C   C1060     1.0  0.68792  0.59328  0.71063  1.0000
  C   C1061     1.0  0.66370  0.52846  0.68553  1.0000
  C   C1062     1.0  0.64455  0.57306  0.66897  1.0000
  H   H1883     1.0  0.56853  0.73436  0.69141  1.0000
  C   C1063     1.0  0.54089  0.74304  0.79547  1.0000
  H   H1884     1.0  0.67743  0.51521  0.71575  1.0000
  H   H1885     1.0  0.65218  0.55095  0.65649  1.0000
  H   H1886     1.0  0.63267  0.54358  0.68288  1.0000
  H   H1887     1.0  0.64469  0.52872  0.72270  1.0000
  H   H1888     1.0  0.66924  0.53985  0.73521  1.0000
  H   H1889     1.0  0.69093  0.56760  0.71403  1.0000
  H   H1890     1.0  0.68335  0.57060  0.67454  1.0000
  H   H1891     1.0  0.65652  0.54864  0.77865  1.0000
  H   H1892     1.0  0.67715  0.53825  0.67419  1.0000
  H   H1893     1.0  0.50629  0.53104  0.71945  1.0000
  H   H1894     1.0  0.71812  0.60104  0.70610  1.0000
  H   H1895     1.0  0.55175  0.76341  0.83750  1.0000
  H   H1896     1.0  0.50895  0.90518  0.95874  1.0000
  C   C1064     1.0  0.53618  0.49448  0.70269  1.0000
  H   H1897     1.0  0.50929  0.73614  0.99040  1.0000
  H   H1898     1.0  0.57528  0.75751  0.71101  1.0000
  C   C1065     1.0  0.56375  0.74547  0.69646  1.0000
  C   C1066     1.0  0.53980  0.50059  0.64203  1.0000
  H   H1899     1.0  0.54753  0.50949  0.70566  1.0000
  H   H1900     1.0  0.59393  0.97011  0.66305  1.0000
  H   H1901     1.0  0.64283  0.56966  0.80011  1.0000
  N   N60       1.0  0.58989  0.96862  0.71548  1.0000
  C   C1067     1.0  0.51011  0.75662  0.73588  1.0000
  C   C1068     1.0  0.65846  0.57516  0.79780  1.0000
  H   H1902     1.0  0.49965  0.76602  0.83408  1.0000
  H   H1903     1.0  0.50013  0.73332  0.92897  1.0000
  S   S235      1.0  0.49542  0.84593  0.82736  1.0000
  H   H1904     1.0  0.51712  0.74984  0.79603  1.0000
  S   S236      1.0  0.49135  0.79459  0.80479  1.0000
  C   C1069     1.0  0.62425  0.98016  0.79272  1.0000
  H   H1905     1.0  0.55382  0.91841  0.66020  1.0000
  N   N61       1.0  0.52703  0.61939  0.57357  1.0000
  H   H1906     1.0  0.48666  0.73075  0.82410  1.0000
  C   C1070     1.0  0.51426  0.60828  0.60064  1.0000
  C   C1071     1.0  0.54625  0.63301  0.58917  1.0000
  C   C1072     1.0  0.53002  0.60615  0.54958  1.0000
  H   H1907     1.0  0.55049  0.91001  0.70154  1.0000
  H   H1908     1.0  0.54711  0.61381  0.62755  1.0000
  C   C1073     1.0  0.55653  0.62368  0.60952  1.0000
  H   H1909     1.0  0.55875  0.51162  0.81705  1.0000
  C   C1074     1.0  0.49424  0.84434  0.93749  1.0000
  C   C1075     1.0  0.60047  0.96593  0.74455  1.0000
  C   C1076     1.0  0.49024  0.59481  0.94692  1.0000
  C   C1077     1.0  0.57417  0.63891  0.62831  1.0000
  H   H1910     1.0  0.56429  0.95118  0.68593  1.0000
  C   C1078     1.0  0.56081  0.91543  0.68171  1.0000
  H   H1911     1.0  0.51628  0.59543  0.60581  1.0000
  H   H1912     1.0  0.51841  0.61698  0.62418  1.0000
  H   H1913     1.0  0.63914  0.57858  0.68935  1.0000
  C   C1079     1.0  0.56918  0.97767  0.75409  1.0000
  H   H1914     1.0  0.53489  0.78506  0.73179  1.0000
  H   H1915     1.0  0.59248  0.49569  0.66302  1.0000
  C   C1080     1.0  0.52029  0.77874  0.74122  1.0000
  C   C1081     1.0  0.63021  0.56800  0.63996  1.0000
  H   H1916     1.0  0.55512  0.74880  0.78460  1.0000
  H   H1917     1.0  0.50507  0.72301  0.68940  1.0000
  C   C1082     1.0  0.50449  0.84400  0.96608  1.0000
  H   H1918     1.0  0.49936  0.97713  0.61650  1.0000
  C   C1083     1.0  0.49144  0.62467  0.92404  1.0000
  H   H1919     1.0  0.49851  0.69035  0.70827  1.0000
  H   H1920     1.0  0.52343  0.54872  0.74787  1.0000
  H   H1921     1.0  0.48564  0.61417  0.74515  1.0000
  H   H1922     1.0  0.61500  0.49524  0.95164  1.0000
  C   C1084     1.0  0.61711  0.98428  0.76021  1.0000
  H   H1923     1.0  0.51514  0.64738  0.95248  1.0000
  H   H1924     1.0  0.50362  0.52800  0.76305  1.0000
  H   H1925     1.0  0.49430  0.78171  0.73237  1.0000
  H   H1926     1.0  0.65187  0.52318  0.66659  1.0000
  C   C1085     1.0  0.60262  0.97536  0.68649  1.0000
  C   C1086     1.0  0.50916  0.78787  0.72400  1.0000
  C   C1087     1.0  0.52034  0.65390  0.51252  1.0000
  H   H1927     1.0  0.56515  0.50111  0.74697  1.0000
  H   H1928     1.0  0.50228  0.56723  0.89231  1.0000
  H   H1929     1.0  0.51791  0.66331  0.53061  1.0000
  H   H1930     1.0  0.52124  0.78271  0.76775  1.0000
  H   H1931     1.0  0.50334  0.49827  0.71669  1.0000
  H   H1932     1.0  0.49990  0.84436  0.91364  1.0000
  C   C1088     1.0  0.49627  0.71715  0.71094  1.0000
  C   C1089     1.0  0.72163  0.50175  0.89922  1.0000
  H   H1933     1.0  0.48884  0.58693  0.71849  1.0000
  C   C1090     1.0  0.49192  0.67702  0.93510  1.0000
  C   C1091     1.0  0.48731  0.69529  0.70812  1.0000
  H   H1934     1.0  0.48441  0.72117  0.71001  1.0000
  H   H1935     1.0  0.50297  0.98833  0.52135  1.0000
  H   H1936     1.0  0.69100  0.49105  0.89299  1.0000
  H   H1937     1.0  0.62931  0.98962  0.74378  1.0000
  H   H1938     1.0  0.55264  0.98878  0.78101  1.0000
  H   H1939     1.0  0.52911  0.66290  0.49288  1.0000
  Fe  Fe119     1.0  0.66730  0.49065  0.79214  1.0000
  Fe  Fe120     1.0  0.81986  0.31773  0.10224  1.0000
  S   S237      1.0  0.79789  0.32695  0.11580  1.0000
  S   S238      1.0  0.81726  0.30358  0.05211  1.0000
  Fe  Fe121     1.0  0.84055  0.32924  0.17069  1.0000
  S   S239      1.0  0.81901  0.33829  0.18956  1.0000
  S   S240      1.0  0.86838  0.33149  0.19470  1.0000
  Fe  Fe122     1.0  0.79636  0.31152  0.16227  1.0000
  S   S241      1.0  0.76562  0.29210  0.17659  1.0000
  Fe  Fe123     1.0  0.82196  0.35242  0.14129  1.0000
  S   S242      1.0  0.83173  0.38383  0.13276  1.0000
  S   S243      1.0  0.81761  0.30131  0.14751  1.0000
  S   S244      1.0  0.84424  0.34439  0.12360  1.0000
  S   S245      1.0  0.96466  0.41892  0.37373  1.0000
  Fe  Fe124     1.0  0.95983  0.40360  0.32399  1.0000
  S   S246      1.0  0.92853  0.39040  0.30361  1.0000
  H   H1940     1.0  0.88169  0.32990  0.02791  1.0000
  Fe  Fe125     1.0  0.79815  0.46143  0.12346  1.0000
  S   S247      1.0  0.78267  0.42946  0.13149  1.0000
  C   C1092     1.0  0.80447  0.40339  0.03214  1.0000
  C   C1093     1.0  0.81745  0.39581  0.13324  1.0000
  C   C1094     1.0  0.82631  0.41551  0.12813  1.0000
  C   C1095     1.0  0.81577  0.42586  0.12782  1.0000
  C   C1096     1.0  0.79615  0.41660  0.13227  1.0000
  C   C1097     1.0  0.78713  0.39677  0.13688  1.0000
  C   C1098     1.0  0.79777  0.38635  0.13741  1.0000
  H   H1941     1.0  0.84141  0.42280  0.12422  1.0000
  H   H1942     1.0  0.82286  0.44101  0.12405  1.0000
  H   H1943     1.0  0.77192  0.38949  0.14032  1.0000
  H   H1944     1.0  0.79079  0.37112  0.14118  1.0000
  C   C1099     1.0  0.88510  0.34834  0.22457  1.0000
  C   C1100     1.0  0.88189  0.36257  0.24060  1.0000
  C   C1101     1.0  0.89536  0.37525  0.26447  1.0000
  C   C1102     1.0  0.91249  0.37431  0.27223  1.0000
  C   C1103     1.0  0.91585  0.36031  0.25578  1.0000
  C   C1104     1.0  0.90214  0.34729  0.23255  1.0000
  H   H1945     1.0  0.86885  0.36354  0.23510  1.0000
  H   H1946     1.0  0.89240  0.38577  0.27723  1.0000
  H   H1947     1.0  0.92876  0.35916  0.26162  1.0000
  H   H1948     1.0  0.90475  0.33624  0.22078  1.0000
  H   H1949     1.0  0.78362  0.33245  0.04002  1.0000
  C   C1105     1.0  0.88112  0.42527  0.16392  1.0000
  C   C1106     1.0  0.75167  0.26693  0.16872  1.0000
  H   H1950     1.0  0.90860  0.47964  0.20690  1.0000
  C   C1107     1.0  0.78970  0.36192  0.05251  1.0000
  H   H1951     1.0  0.77515  0.25999  0.17126  1.0000
  H   H1952     1.0  0.90967  0.36446  0.09824  1.0000
  H   H1953     1.0  0.89321  0.42906  0.14743  1.0000
  H   H1954     1.0  0.96011  0.39423  0.46029  1.0000
  C   C1108     1.0  0.82716  0.33777  0.02232  1.0000
  C   C1109     1.0  0.82037  0.31797  0.01810  1.0000
  C   C1110     1.0  0.74813  0.23439  0.16370  1.0000
  H   H1955     1.0  0.83026  0.34440  0.04672  1.0000
  H   H1956     1.0  0.73619  0.22103  0.08074  1.0000
  H   H1957     1.0  0.86750  0.41835  0.14918  1.0000
  C   C1111     1.0  0.88655  0.33807  0.05185  1.0000
  H   H1958     1.0  0.76264  0.46304  0.21015  1.0000
  H   H1959     1.0  0.88135  0.41472  0.18134  1.0000
  H   H1960     1.0  0.74671  0.39500  0.09449  1.0000
  H   H1961     1.0  0.87201  0.35359  0.00401  1.0000
  C   C1112     1.0  0.76459  0.25805  0.08119  1.0000
  C   C1113     1.0  0.94645  0.44312  0.23591  1.0000
  C   C1114     1.0  0.74374  0.40100  0.07195  1.0000
  C   C1115     1.0  0.87473  0.34924  0.05599  1.0000
  C   C1116     1.0  0.77656  0.24804  0.06951  1.0000
  C   C1117     1.0  0.73885  0.29759  0.09916  1.0000
  H   H1962     1.0  0.87909  0.35840  0.07880  1.0000
  H   H1963     1.0  0.81701  0.45179  0.04620  1.0000
  C   C1118     1.0  0.74779  0.45148  0.16320  1.0000
  C   C1119     1.0  0.78743  0.24498  0.09839  1.0000
  H   H1964     1.0  0.87849  0.41833  0.05604  1.0000
  S   S248      1.0  0.98308  0.39461  0.33479  1.0000
  C   C1120     1.0  0.86372  0.40858  0.06281  1.0000
  H   H1965     1.0  0.94657  0.43084  0.22193  1.0000
  H   H1966     1.0  0.75653  0.25057  0.10257  1.0000
  H   H1967     1.0  0.77515  0.27249  0.09105  1.0000
  C   C1121     1.0  0.85052  0.46146  0.19581  1.0000
  H   H1968     1.0  0.94622  0.48829  0.31215  1.0000
  C   C1122     1.0  0.77597  0.34056  0.04864  1.0000
  H   H1969     1.0  0.89266  0.46031  0.14057  1.0000
  H   H1970     1.0  0.76216  0.29083  0.10458  1.0000
  H   H1971     1.0  0.96144  0.45353  0.24263  1.0000
  H   H1972     1.0  0.78728  0.25708  0.05212  1.0000
  H   H1973     1.0  0.76751  0.23384  0.05736  1.0000
  H   H1974     1.0  0.74109  0.44086  0.21236  1.0000
  C   C1123     1.0  0.93452  0.45257  0.28736  1.0000
  H   H1975     1.0  0.77004  0.26419  0.01561  1.0000
  H   H1976     1.0  0.86058  0.41454  0.08548  1.0000
  H   H1977     1.0  0.75975  0.29928  0.06515  1.0000
  C   C1124     1.0  0.80685  0.43640  0.04225  1.0000
  H   H1978     1.0  0.82937  0.37819  0.04365  1.0000
  C   C1125     1.0  0.92930  0.46326  0.34136  1.0000
  H   H1979     1.0  0.75461  0.22482  0.16379  1.0000
  C   C1126     1.0  0.75204  0.27704  0.00223  1.0000
  H   H1980     1.0  0.74445  0.23436  0.02467  1.0000
  H   H1981     1.0  0.79680  0.23887  0.08935  1.0000
  H   H1982     1.0  0.79647  0.25878  0.11195  1.0000
  H   H1983     1.0  0.77731  0.23484  0.11543  1.0000
  H   H1984     1.0  0.92078  0.42453  0.25905  1.0000
  N   N62       1.0  0.88506  0.32473  0.07872  1.0000
  C   C1127     1.0  0.89004  0.33503  0.11197  1.0000
  C   C1128     1.0  0.86471  0.30908  0.07884  1.0000
  C   C1129     1.0  0.89899  0.31681  0.07241  1.0000
  H   H1985     1.0  0.80244  0.36061  0.00656  1.0000
  H   H1986     1.0  0.79912  0.43137  0.06512  1.0000
  C   C1130     1.0  0.90934  0.35358  0.11533  1.0000
  C   C1131     1.0  0.89489  0.30377  0.04075  1.0000
  C   C1132     1.0  0.86135  0.29154  0.09935  1.0000
  C   C1133     1.0  0.84065  0.27607  0.09517  1.0000
  H   H1987     1.0  0.84344  0.45134  0.24524  1.0000
  C   C1134     1.0  0.91268  0.36261  0.14992  1.0000
  C   C1135     1.0  0.90925  0.31340  0.01433  1.0000
  H   H1988     1.0  0.89043  0.32531  0.13107  1.0000
  H   H1989     1.0  0.87866  0.33879  0.11964  1.0000
  H   H1990     1.0  0.85522  0.31485  0.08873  1.0000
  H   H1991     1.0  0.85870  0.30386  0.05354  1.0000
  H   H1992     1.0  0.90003  0.30866  0.09363  1.0000
  H   H1993     1.0  0.91373  0.32863  0.07146  1.0000
  H   H1994     1.0  0.73978  0.46302  0.20605  1.0000
  N   N63       1.0  0.81287  0.39070  0.01963  1.0000
  C   C1136     1.0  0.74562  0.24844  0.25754  1.0000
  C   C1137     1.0  0.83066  0.34912  0.99487  1.0000
  H   H1995     1.0  0.92151  0.35054  0.11047  1.0000
  S   S249      1.0  0.98001  0.43023  0.29969  1.0000
  H   H1996     1.0  0.88038  0.29890  0.02973  1.0000
  H   H1997     1.0  0.89591  0.29056  0.04720  1.0000
  H   H1998     1.0  0.87036  0.28477  0.09164  1.0000
  H   H1999     1.0  0.86450  0.29591  0.12575  1.0000
  H   H2000     1.0  0.83734  0.27033  0.06941  1.0000
  H   H2001     1.0  0.83828  0.26411  0.11140  1.0000
  H   H2002     1.0  0.83073  0.28196  0.10167  1.0000
  H   H2003     1.0  0.78466  0.36864  0.00399  1.0000
  H   H2004     1.0  0.82439  0.43026  0.00974  1.0000
  C   C1138     1.0  0.87226  0.47381  0.20353  1.0000
  H   H2005     1.0  0.92621  0.37617  0.15158  1.0000
  H   H2006     1.0  0.90080  0.36585  0.15654  1.0000
  H   H2007     1.0  0.91382  0.35274  0.16779  1.0000
  H   H2008     1.0  0.90886  0.32670  0.00668  1.0000
  H   H2009     1.0  0.92394  0.31692  0.02347  1.0000
  H   H2010     1.0  0.91528  0.48819  0.16738  1.0000
  N   N64       1.0  0.92103  0.44721  0.31535  1.0000
  C   C1139     1.0  0.91973  0.42935  0.33062  1.0000
  C   C1140     1.0  0.82896  0.39218  0.04261  1.0000
  H   H2011     1.0  0.90323  0.45813  0.29186  1.0000
  C   C1141     1.0  0.90171  0.44506  0.30408  1.0000
  C   C1142     1.0  0.88987  0.42824  0.27937  1.0000
  C   C1143     1.0  0.90737  0.42263  0.36107  1.0000
  H   H2012     1.0  0.90170  0.34859  0.04868  1.0000
  C   C1144     1.0  0.93512  0.43593  0.26666  1.0000
  H   H2013     1.0  0.82637  0.39536  0.06809  1.0000
  C   C1145     1.0  0.86983  0.42638  0.27326  1.0000
  C   C1146     1.0  0.90560  0.40336  0.37175  1.0000
  H   H2014     1.0  0.77000  0.33524  0.07271  1.0000
  H   H2015     1.0  0.93434  0.43140  0.33788  1.0000
  H   H2016     1.0  0.91400  0.41704  0.31269  1.0000
  S   S250      1.0  0.82915  0.47820  0.11388  1.0000
  C   C1147     1.0  0.76305  0.27174  0.02880  1.0000
  H   H2017     1.0  0.94250  0.46376  0.35314  1.0000
  C   C1148     1.0  0.83917  0.45888  0.22662  1.0000
  H   H2018     1.0  0.89284  0.44394  0.32546  1.0000
  C   C1149     1.0  0.88185  0.45789  0.15926  1.0000
  H   H2019     1.0  0.88813  0.41436  0.28830  1.0000
  H   H2020     1.0  0.86188  0.41467  0.25458  1.0000
  H   H2021     1.0  0.91397  0.43304  0.38210  1.0000
  H   H2022     1.0  0.89273  0.42079  0.35582  1.0000
  H   H2023     1.0  0.76397  0.33794  0.03103  1.0000
  H   H2024     1.0  0.91914  0.46066  0.36128  1.0000
  H   H2025     1.0  0.94234  0.42922  0.28135  1.0000
  C   C1150     1.0  0.74012  0.26872  0.07202  1.0000
  H   H2026     1.0  0.94947  0.46113  0.29699  1.0000
  H   H2027     1.0  0.84716  0.44700  0.18558  1.0000
  C   C1151     1.0  0.88274  0.44304  0.18283  1.0000
  H   H2028     1.0  0.86182  0.42282  0.29614  1.0000
  H   H2029     1.0  0.87055  0.43990  0.26413  1.0000
  H   H2030     1.0  0.78174  0.36913  0.06342  1.0000
  H   H2031     1.0  0.89837  0.39209  0.35207  1.0000
  H   H2032     1.0  0.91993  0.40440  0.37752  1.0000
  H   H2033     1.0  0.89708  0.39898  0.39398  1.0000
  S   S251      1.0  0.78863  0.47314  0.08131  1.0000
  H   H2034     1.0  0.83684  0.36448  0.99816  1.0000
  N   N65       1.0  0.75127  0.25971  0.05576  1.0000
  H   H2035     1.0  0.85086  0.42127  0.03109  1.0000
  H   H2036     1.0  0.89637  0.44904  0.19751  1.0000
  H   H2037     1.0  0.74226  0.25136  0.23242  1.0000
  H   H2038     1.0  0.82922  0.42877  0.05281  1.0000
  C   C1152     1.0  0.75984  0.25436  0.16791  1.0000
  H   H2039     1.0  0.75571  0.46566  0.15251  1.0000
  H   H2040     1.0  0.75591  0.44324  0.15913  1.0000
  H   H2041     1.0  0.77512  0.28520  0.03919  1.0000
  H   H2042     1.0  0.93176  0.46208  0.27058  1.0000
  H   H2043     1.0  0.86285  0.39435  0.06783  1.0000
  H   H2044     1.0  0.75727  0.24416  0.25668  1.0000
  H   H2045     1.0  0.89672  0.43088  0.25542  1.0000
  H   H2046     1.0  0.74256  0.44489  0.04811  1.0000
  H   H2047     1.0  0.74768  0.31222  0.11015  1.0000
  H   H2048     1.0  0.82370  0.45021  0.22027  1.0000
  H   H2049     1.0  0.87086  0.43822  0.19989  1.0000
  H   H2050     1.0  0.86568  0.47882  0.13852  1.0000
  H   H2051     1.0  0.93988  0.44998  0.22001  1.0000
  H   H2052     1.0  0.87666  0.46751  0.22415  1.0000
  C   C1153     1.0  0.84961  0.40683  0.03494  1.0000
  C   C1154     1.0  0.74773  0.45477  0.20020  1.0000
  H   H2053     1.0  0.73814  0.38953  0.05230  1.0000
  H   H2054     1.0  0.89458  0.48334  0.10749  1.0000
  C   C1155     1.0  0.75182  0.28980  0.08483  1.0000
  H   H2055     1.0  0.84516  0.46850  0.17797  1.0000
  H   H2056     1.0  0.80130  0.36358  0.07027  1.0000
  H   H2057     1.0  0.89255  0.37269  0.02550  1.0000
  C   C1156     1.0  0.97029  0.39887  0.48091  1.0000
  C   C1157     1.0  0.73880  0.46966  0.03888  1.0000
  H   H2058     1.0  0.86788  0.45093  0.14536  1.0000
  H   H2059     1.0  0.75151  0.43398  0.10268  1.0000
  C   C1158     1.0  0.90555  0.48746  0.18719  1.0000
  C   C1159     1.0  0.81782  0.42518  0.03348  1.0000
  H   H2060     1.0  0.75734  0.41278  0.06414  1.0000
  H   H2061     1.0  0.79989  0.39994  0.05769  1.0000
  N   N66       1.0  0.88496  0.47677  0.17502  1.0000
  C   C1160     1.0  0.79736  0.37023  0.01882  1.0000
  H   H2062     1.0  0.84144  0.47303  0.23709  1.0000
  H   H2063     1.0  0.74470  0.28488  0.01306  1.0000
  S   S252      1.0  0.79795  0.48323  0.16000  1.0000
  H   H2064     1.0  0.87393  0.48785  0.21354  1.0000
  H   H2065     1.0  0.75072  0.26189  0.27283  1.0000
  C   C1161     1.0  0.73626  0.42397  0.10650  1.0000
  C   C1162     1.0  0.73726  0.24027  0.04132  1.0000
  C   C1163     1.0  0.87730  0.36224  0.02739  1.0000
  H   H2066     1.0  0.85935  0.33916  0.05678  1.0000
  C   C1164     1.0  0.93461  0.48375  0.32973  1.0000
  H   H2067     1.0  0.73867  0.46745  0.01193  1.0000
  H   H2068     1.0  0.74849  0.46230  0.10021  1.0000
  H   H2069     1.0  0.85409  0.40197  0.01243  1.0000
  H   H2070     1.0  0.75353  0.48000  0.04748  1.0000
  H   H2071     1.0  0.92226  0.48457  0.31768  1.0000
  H   H2072     1.0  0.79647  0.43494  0.02212  1.0000
  H   H2073     1.0  0.86898  0.37033  0.03126  1.0000
  H   H2074     1.0  0.73642  0.41608  0.12875  1.0000
  H   H2075     1.0  0.79118  0.40052  0.01780  1.0000
  C   C1165     1.0  0.88013  0.48784  0.14992  1.0000
  H   H2076     1.0  0.97920  0.44617  0.44361  1.0000
  H   H2077     1.0  0.90570  0.30347  0.99249  1.0000
  Fe  Fe126     1.0  0.95921  0.41046  0.69922  1.0000
  S   S253      1.0  0.96225  0.42474  0.65096  1.0000
  S   S254      1.0  0.93338  0.40435  0.73140  1.0000
  N   N67       1.0  0.88958  0.48720  0.78300  1.0000
  H   H2078     1.0  0.76159  0.24331  0.88017  1.0000
  H   H2079     1.0  0.98008  0.36609  0.55012  1.0000
  Fe  Fe127     1.0  0.83448  0.33240  0.81245  1.0000
  S   S255      1.0  0.80506  0.32317  0.78880  1.0000
  S   S256      1.0  0.85844  0.33269  0.78076  1.0000
  Fe  Fe128     1.0  0.82249  0.34274  0.87777  1.0000
  S   S257      1.0  0.79321  0.33581  0.85780  1.0000
  S   S258      1.0  0.83071  0.35579  0.92959  1.0000
  Fe  Fe129     1.0  0.79268  0.30885  0.83578  1.0000
  S   S259      1.0  0.76455  0.28290  0.84895  1.0000
  Fe  Fe130     1.0  0.80768  0.35036  0.81289  1.0000
  S   S260      1.0  0.80065  0.37045  0.78309  1.0000
  S   S261      1.0  0.82192  0.31550  0.85775  1.0000
  S   S262      1.0  0.83716  0.35997  0.83459  1.0000
  Fe  Fe131     1.0  0.82461  0.47653  0.82390  1.0000
  S   S263      1.0  0.83334  0.45490  0.84365  1.0000
  H   H2080     1.0  0.78783  0.43083  0.74335  1.0000
  H   H2081     1.0  0.76640  0.37520  0.88465  1.0000
  H   H2082     1.0  0.96803  0.45108  0.59071  1.0000
  C   C1166     1.0  0.81016  0.39402  0.79951  1.0000
  C   C1167     1.0  0.81905  0.39874  0.83072  1.0000
  C   C1168     1.0  0.82637  0.41758  0.84370  1.0000
  C   C1169     1.0  0.82444  0.43167  0.82591  1.0000
  C   C1170     1.0  0.81559  0.42701  0.79465  1.0000
  C   C1171     1.0  0.80857  0.40821  0.78135  1.0000
  H   H2083     1.0  0.82024  0.38786  0.84494  1.0000
  H   H2084     1.0  0.83343  0.42123  0.86772  1.0000
  H   H2085     1.0  0.81425  0.43791  0.78079  1.0000
  H   H2086     1.0  0.80171  0.40458  0.75714  1.0000
  C   C1172     1.0  0.82652  0.34078  0.96307  1.0000
  H   H2087     1.0  0.85305  0.46564  0.69949  1.0000
  C   C1173     1.0  0.81926  0.32090  0.95882  1.0000
  H   H2088     1.0  0.96450  0.46062  0.66151  1.0000
  H   H2089     1.0  0.81608  0.31430  0.93439  1.0000
  H   H2090     1.0  0.75066  0.40118  0.77996  1.0000
  H   H2091     1.0  0.96527  0.44655  0.49867  1.0000
  C   C1174     1.0  0.74667  0.26109  0.82998  1.0000
  H   H2092     1.0  0.91774  0.41540  0.57023  1.0000
  H   H2093     1.0  0.83395  0.44622  0.71908  1.0000
  C   C1175     1.0  0.80448  0.39353  0.95857  1.0000
  H   H2094     1.0  0.76202  0.26124  0.78714  1.0000
  C   C1176     1.0  0.83095  0.33979  0.71062  1.0000
  H   H2095     1.0  0.75018  0.35822  0.85363  1.0000
  H   H2096     1.0  0.96602  0.47704  0.56494  1.0000
  C   C1177     1.0  0.81964  0.39516  0.98515  1.0000
  H   H2097     1.0  0.78844  0.43204  0.83648  1.0000
  C   C1178     1.0  0.91328  0.38379  0.74563  1.0000
  C   C1179     1.0  0.90612  0.36555  0.73020  1.0000
  C   C1180     1.0  0.88950  0.35009  0.74140  1.0000
  C   C1181     1.0  0.87979  0.35253  0.76825  1.0000
  C   C1182     1.0  0.88725  0.37063  0.78416  1.0000
  C   C1183     1.0  0.90365  0.38616  0.77265  1.0000
  H   H2098     1.0  0.91324  0.36338  0.70939  1.0000
  H   H2099     1.0  0.88406  0.33614  0.72902  1.0000
  H   H2100     1.0  0.88038  0.37263  0.80546  1.0000
  H   H2101     1.0  0.90907  0.40008  0.78508  1.0000
  N   N68       1.0  0.85802  0.39519  0.72943  1.0000
  C   C1184     1.0  0.85391  0.37515  0.71808  1.0000
  C   C1185     1.0  0.87760  0.40953  0.71893  1.0000
  C   C1186     1.0  0.85824  0.39586  0.76638  1.0000
  C   C1187     1.0  0.84280  0.40046  0.71750  1.0000
  C   C1188     1.0  0.83861  0.39868  0.68011  1.0000
  C   C1189     1.0  0.83495  0.35864  0.72875  1.0000
  C   C1190     1.0  0.86353  0.41574  0.78318  1.0000
  C   C1191     1.0  0.88505  0.40474  0.68686  1.0000
  C   C1192     1.0  0.90347  0.42170  0.67701  1.0000
  C   C1193     1.0  0.82205  0.40314  0.67164  1.0000
  C   C1194     1.0  0.96670  0.44557  0.56485  1.0000
  C   C1195     1.0  0.86873  0.41616  0.81955  1.0000
  H   H2102     1.0  0.86561  0.37198  0.72711  1.0000
  H   H2103     1.0  0.85392  0.37380  0.69105  1.0000
  H   H2104     1.0  0.87823  0.42392  0.71663  1.0000
  H   H2105     1.0  0.88880  0.41144  0.73803  1.0000
  H   H2106     1.0  0.86828  0.39071  0.77613  1.0000
  H   H2107     1.0  0.84403  0.38596  0.77545  1.0000
  H   H2108     1.0  0.82914  0.39185  0.72959  1.0000
  H   H2109     1.0  0.84668  0.41555  0.72509  1.0000
  H   H2110     1.0  0.83455  0.38399  0.67020  1.0000
  H   H2111     1.0  0.85126  0.40910  0.66761  1.0000
  H   H2112     1.0  0.83586  0.35651  0.75534  1.0000
  H   H2113     1.0  0.82260  0.36148  0.72358  1.0000
  H   H2114     1.0  0.85124  0.41903  0.78097  1.0000
  H   H2115     1.0  0.87589  0.42737  0.77210  1.0000
  H   H2116     1.0  0.88837  0.39253  0.69058  1.0000
  H   H2117     1.0  0.87449  0.40078  0.66610  1.0000
  H   H2118     1.0  0.91465  0.42602  0.69698  1.0000
  H   H2119     1.0  0.90890  0.41753  0.65494  1.0000
  H   H2120     1.0  0.94865  0.38921  0.51709  1.0000
  H   H2121     1.0  0.80885  0.39293  0.68328  1.0000
  H   H2122     1.0  0.85013  0.45712  0.77267  1.0000
  C   C1196     1.0  0.96990  0.47414  0.64984  1.0000
  H   H2123     1.0  0.76217  0.46568  0.92980  1.0000
  H   H2124     1.0  0.90382  0.47642  0.84094  1.0000
  H   H2125     1.0  0.87102  0.42998  0.83144  1.0000
  H   H2126     1.0  0.85711  0.40435  0.83197  1.0000
  H   H2127     1.0  0.88203  0.41463  0.82278  1.0000
  C   C1197     1.0  0.84521  0.46126  0.72246  1.0000
  H   H2128     1.0  0.74784  0.48465  0.89550  1.0000
  C   C1198     1.0  0.74077  0.41794  0.83067  1.0000
  C   C1199     1.0  0.76461  0.37039  0.85844  1.0000
  H   H2129     1.0  0.89167  0.46068  0.77686  1.0000
  H   H2130     1.0  0.78326  0.41577  0.88715  1.0000
  C   C1200     1.0  0.77302  0.47969  0.94054  1.0000
  H   H2131     1.0  0.76426  0.42102  0.89797  1.0000
  H   H2132     1.0  0.83523  0.48252  0.95723  1.0000
  H   H2133     1.0  0.82023  0.39045  0.91749  1.0000
  C   C1201     1.0  0.97981  0.45254  0.51049  1.0000
  H   H2134     1.0  0.78682  0.45586  0.90236  1.0000
  H   H2135     1.0  0.90085  0.43410  0.67122  1.0000
  C   C1202     1.0  0.91834  0.46749  0.73050  1.0000
  H   H2136     1.0  0.91332  0.48063  0.78902  1.0000
  C   C1203     1.0  0.76614  0.43177  0.77467  1.0000
  C   C1204     1.0  0.77769  0.42641  0.88481  1.0000
  C   C1205     1.0  0.76512  0.24359  0.90675  1.0000
  H   H2137     1.0  0.76656  0.38152  0.81063  1.0000
  H   H2138     1.0  0.76367  0.41849  0.72606  1.0000
  H   H2139     1.0  0.81927  0.40176  0.64469  1.0000
  C   C1206     1.0  0.77490  0.42959  0.84800  1.0000
  C   C1207     1.0  0.95716  0.48066  0.63793  1.0000
  H   H2140     1.0  0.87104  0.48636  0.82190  1.0000
  H   H2141     1.0  0.82551  0.41799  0.68000  1.0000
  C   C1208     1.0  0.75249  0.39425  0.84156  1.0000
  H   H2142     1.0  0.94274  0.42788  0.53035  1.0000
  H   H2143     1.0  0.76407  0.25584  0.91911  1.0000
  H   H2144     1.0  0.89446  0.47275  0.71932  1.0000
  H   H2145     1.0  0.75662  0.22502  0.94730  1.0000
  H   H2146     1.0  0.78227  0.39845  0.84129  1.0000
  H   H2147     1.0  0.79387  0.44202  0.92892  1.0000
  H   H2148     1.0  0.87166  0.46449  0.81388  1.0000
  C   C1209     1.0  0.87372  0.48407  0.75841  1.0000
  H   H2149     1.0  0.79784  0.40290  0.96511  1.0000
  N   N69       1.0  0.75782  0.41397  0.82930  1.0000
  H   H2150     1.0  0.73894  0.38352  0.82900  1.0000
  C   C1210     1.0  0.81352  0.39958  0.92548  1.0000
  H   H2151     1.0  0.76858  0.48240  0.96490  1.0000
  H   H2152     1.0  0.75266  0.43280  0.77028  1.0000
  C   C1211     1.0  0.97673  0.40138  0.54060  1.0000
  H   H2153     1.0  0.81770  0.32800  0.71940  1.0000
  C   C1212     1.0  0.90027  0.47621  0.77293  1.0000
  H   H2154     1.0  0.82566  0.38543  0.97685  1.0000
  H   H2155     1.0  0.73413  0.19047  0.94348  1.0000
  H   H2156     1.0  0.75747  0.29321  0.95798  1.0000
  C   C1213     1.0  0.88089  0.48026  0.81549  1.0000
  C   C1214     1.0  0.96382  0.39603  0.51327  1.0000
  H   H2157     1.0  0.87484  0.46146  0.87415  1.0000
  C   C1215     1.0  0.79199  0.44486  0.90294  1.0000
  C   C1216     1.0  0.77394  0.43122  0.74100  1.0000
  H   H2158     1.0  0.77443  0.44352  0.84623  1.0000
  S   S264      1.0  0.76058  0.47267  0.79445  1.0000
  C   C1217     1.0  0.76564  0.28995  0.97725  1.0000
  H   H2159     1.0  0.84289  0.33616  0.71516  1.0000
  H   H2160     1.0  0.96196  0.47237  0.52198  1.0000
  H   H2161     1.0  0.93142  0.47315  0.74677  1.0000
  Fe  Fe132     1.0  0.79338  0.48751  0.79918  1.0000
  H   H2162     1.0  0.74418  0.43215  0.82065  1.0000
  H   H2163     1.0  0.93414  0.43005  0.60281  1.0000
  H   H2164     1.0  0.97047  0.43355  0.56553  1.0000
  S   S265      1.0  0.81286  0.47756  0.77411  1.0000
  C   C1218     1.0  0.81647  0.30957  0.98629  1.0000
  H   H2165     1.0  0.86559  0.45364  0.74464  1.0000
  C   C1219     1.0  0.74905  0.25351  0.80008  1.0000
  H   H2166     1.0  0.77535  0.41151  0.79132  1.0000
  H   H2167     1.0  0.74403  0.43121  0.87973  1.0000
  S   S266      1.0  0.96765  0.39511  0.58062  1.0000
  C   C1220     1.0  0.85883  0.46290  0.75101  1.0000
  H   H2168     1.0  0.93740  0.41090  0.58273  1.0000
  H   H2169     1.0  0.82450  0.41482  0.92698  1.0000
  H   H2170     1.0  0.80241  0.39795  0.90664  1.0000
  H   H2171     1.0  0.83820  0.47053  0.72734  1.0000
  C   C1221     1.0  0.93293  0.42231  0.57904  1.0000
  C   C1222     1.0  0.75167  0.22465  0.92146  1.0000
  C   C1223     1.0  0.97314  0.47638  0.54199  1.0000
  H   H2172     1.0  0.82898  0.34079  0.68387  1.0000
  H   H2173     1.0  0.83156  0.40982  0.98410  1.0000
  H   H2174     1.0  0.79319  0.37853  0.95499  1.0000
  H   H2175     1.0  0.87591  0.48475  0.88193  1.0000
  H   H2176     1.0  0.77336  0.28279  0.96525  1.0000
  C   C1224     1.0  0.90683  0.47845  0.73712  1.0000
  H   H2177     1.0  0.77541  0.36533  0.85322  1.0000
  H   H2178     1.0  0.93992  0.44702  0.55081  1.0000
  C   C1225     1.0  0.76758  0.38687  0.83642  1.0000
  C   C1226     1.0  0.76240  0.41362  0.79364  1.0000
  H   H2179     1.0  0.78009  0.24590  0.90956  1.0000
  H   H2180     1.0  0.80611  0.45056  0.89175  1.0000
  H   H2181     1.0  0.94194  0.47191  0.63969  1.0000
  H   H2182     1.0  0.77654  0.44484  0.78855  1.0000
  H   H2183     1.0  0.74928  0.39343  0.86785  1.0000
  S   S267      1.0  0.97253  0.39213  0.68045  1.0000
  H   H2184     1.0  0.75324  0.21305  0.90809  1.0000
  H   H2185     1.0  0.77617  0.44431  0.72803  1.0000
  C   C1227     1.0  0.94521  0.43622  0.55386  1.0000
  H   H2186     1.0  0.90968  0.45200  0.73461  1.0000
  H   H2187     1.0  0.74125  0.26397  0.98879  1.0000
  C   C1228     1.0  0.73481  0.23565  0.78720  1.0000
  S   S268      1.0  0.80348  0.48353  0.84878  1.0000
  H   H2188     1.0  0.78680  0.47911  0.94421  1.0000
  H   H2189     1.0  0.81125  0.29426  0.98281  1.0000
  C   C1229     1.0  0.74402  0.48242  0.79298  1.0000
  H   H2190     1.0  0.98275  0.43998  0.51253  1.0000
  Fe  Fe133     1.0  0.97730  0.40805  0.63305  1.0000
  H   H2191     1.0  0.77623  0.30369  0.98933  1.0000
  C   C1230     1.0  0.88452  0.47711  0.87643  1.0000
  H   H2192     1.0  0.89490  0.47989  0.89724  1.0000
  H   H2193     1.0  0.92272  0.46912  0.70467  1.0000
  H   H2194     1.0  0.73697  0.22985  0.76426  1.0000
  N   N70       1.0  0.98015  0.46131  0.54396  1.0000
  C   C1231     1.0  0.89515  0.48412  0.84490  1.0000
  H   H2195     1.0  0.75272  0.49369  0.17431  1.0000
  C   C1232     1.0  0.94144  0.49837  0.35866  1.0000
  C   C1233     1.0  0.96972  0.56280  0.48549  1.0000
  H   H2196     1.0  0.93913  0.58053  0.13923  1.0000
  Fe  Fe134     1.0  0.97413  0.56712  0.33160  1.0000
  H   H2197     1.0  0.74844  0.54219  0.17175  1.0000
  C   C1234     1.0  0.74282  0.54619  0.14959  1.0000
  C   C1235     1.0  0.96830  0.55599  0.45266  1.0000
  S   S269      1.0  0.82179  0.51604  0.10746  1.0000
  C   C1236     1.0  0.96981  0.56774  0.42625  1.0000
  H   H2198     1.0  0.90842  0.50565  0.13030  1.0000
  H   H2199     1.0  0.82245  0.52224  0.01270  1.0000
  Fe  Fe135     1.0  0.79067  0.49642  0.11699  1.0000
  H   H2200     1.0  0.90492  0.50727  0.22531  1.0000
  Fe  Fe136     1.0  0.95794  0.57001  0.26295  1.0000
  S   S270      1.0  0.93680  0.57219  0.22571  1.0000
  S   S271      1.0  0.95424  0.54517  0.29336  1.0000
  C   C1237     1.0  0.87414  0.52768  0.20119  1.0000
  C   C1238     1.0  0.88299  0.52786  0.23165  1.0000
  C   C1239     1.0  0.90217  0.54117  0.23935  1.0000
  C   C1240     1.0  0.91271  0.55473  0.21681  1.0000
  C   C1241     1.0  0.90374  0.55475  0.18655  1.0000
  C   C1242     1.0  0.88468  0.54118  0.17857  1.0000
  H   H2201     1.0  0.87496  0.51759  0.24947  1.0000
  H   H2202     1.0  0.90872  0.54109  0.26289  1.0000
  H   H2203     1.0  0.91152  0.56537  0.16915  1.0000
  H   H2204     1.0  0.87806  0.54135  0.15515  1.0000
  H   H2205     1.0  0.93781  0.51032  0.22723  1.0000
  H   H2206     1.0  0.94142  0.51980  0.18662  1.0000
  H   H2207     1.0  0.94981  0.56525  0.15039  1.0000
  H   H2208     1.0  0.90847  0.51690  0.18510  1.0000
  S   S272      1.0  0.98347  0.52290  0.24927  1.0000
  C   C1243     1.0  0.74450  0.49857  0.12631  1.0000
  H   H2209     1.0  0.94682  0.56936  0.10786  1.0000
  C   C1244     1.0  0.96985  0.59349  0.13438  1.0000
  S   S273      1.0  0.76716  0.50581  0.10891  1.0000
  H   H2210     1.0  0.96610  0.54150  0.44770  1.0000
  S   S274      1.0  0.85013  0.50998  0.19267  1.0000
  H   H2211     1.0  0.92952  0.49573  0.37506  1.0000
  Fe  Fe137     1.0  0.81971  0.49172  0.07408  1.0000
  Fe  Fe138     1.0  0.82896  0.50096  0.14817  1.0000
  C   C1245     1.0  0.97399  0.59325  0.46610  1.0000
  H   H2212     1.0  0.88617  0.51811  0.10995  1.0000
  S   S275      1.0  0.83150  0.49039  0.02442  1.0000
  C   C1246     1.0  0.97268  0.58647  0.43325  1.0000
  H   H2213     1.0  0.75178  0.56162  0.14534  1.0000
  C   C1247     1.0  0.74117  0.49325  0.15883  1.0000
  H   H2214     1.0  0.97958  0.63665  0.16021  1.0000
  C   C1248     1.0  0.93352  0.51825  0.20937  1.0000
  Fe  Fe139     1.0  0.98106  0.54815  0.27104  1.0000
  C   C1249     1.0  0.95021  0.57607  0.13298  1.0000
  H   H2215     1.0  0.94676  0.51309  0.34959  1.0000
  H   H2216     1.0  0.98078  0.64061  0.21421  1.0000
  H   H2217     1.0  0.93764  0.53281  0.22015  1.0000
  S   S276      1.0  0.96893  0.55847  0.38538  1.0000
  H   H2218     1.0  0.87256  0.49589  0.08641  1.0000
  C   C1250     1.0  0.91197  0.50798  0.20190  1.0000
  H   H2219     1.0  0.96365  0.60563  0.17761  1.0000
  H   H2220     1.0  0.96923  0.60393  0.11722  1.0000
  H   H2221     1.0  0.97613  0.60772  0.47111  1.0000
  S   S277      1.0  0.98365  0.57130  0.23811  1.0000
  H   H2222     1.0  0.74394  0.53775  0.12826  1.0000
  H   H2223     1.0  0.95321  0.49762  0.37305  1.0000
  C   C1251     1.0  0.89382  0.49533  0.12129  1.0000
  H   H2224     1.0  0.97381  0.59569  0.41334  1.0000
  C   C1252     1.0  0.88692  0.50575  0.09731  1.0000
  H   H2225     1.0  0.97066  0.61729  0.23114  1.0000
  H   H2226     1.0  0.98023  0.58868  0.12545  1.0000
  H   H2227     1.0  0.87909  0.50026  0.16174  1.0000
  H   H2228     1.0  0.98124  0.64215  0.27493  1.0000
  S   S278      1.0  0.97598  0.59211  0.30257  1.0000
  C   C1253     1.0  0.97539  0.60244  0.16971  1.0000
  H   H2229     1.0  0.89699  0.51121  0.07716  1.0000
  H   H2230     1.0  0.97476  0.59114  0.18622  1.0000
  C   C1254     1.0  0.73984  0.51071  0.87888  1.0000
  H   H2231     1.0  0.73993  0.52368  0.86836  1.0000
  S   S279      1.0  0.81470  0.51863  0.79750  1.0000
  C   C1255     1.0  0.97878  0.51025  0.53034  1.0000
  H   H2232     1.0  0.82158  0.53829  0.96131  1.0000
  H   H2233     1.0  0.79703  0.56228  0.82360  1.0000
  Fe  Fe140     1.0  0.82525  0.51399  0.84684  1.0000
  S   S280      1.0  0.82710  0.53088  0.89371  1.0000
  H   H2234     1.0  0.91706  0.54712  0.77713  1.0000
  H   H2235     1.0  0.89370  0.59452  0.63166  1.0000
  Fe  Fe141     1.0  0.96260  0.53928  0.61714  1.0000
  S   S281      1.0  0.94534  0.55406  0.60212  1.0000
  H   H2236     1.0  0.89408  0.56828  0.58995  1.0000
  H   H2237     1.0  0.90815  0.58779  0.65787  1.0000
  H   H2238     1.0  0.93393  0.56141  0.51794  1.0000
  Fe  Fe142     1.0  0.95552  0.56977  0.65091  1.0000
  S   S282      1.0  0.93580  0.57525  0.68532  1.0000
  S   S283      1.0  0.97123  0.55348  0.66722  1.0000
  H   H2239     1.0  0.96207  0.64101  0.64627  1.0000
  H   H2240     1.0  0.79168  0.53787  0.81351  1.0000
  S   S284      1.0  0.85325  0.51487  0.73036  1.0000
  C   C1256     1.0  0.82753  0.51923  0.93005  1.0000
  H   H2241     1.0  0.93844  0.59827  0.54662  1.0000
  H   H2242     1.0  0.97039  0.50569  0.50670  1.0000
  C   C1257     1.0  0.82429  0.52594  0.96033  1.0000
  C   C1258     1.0  0.87705  0.53135  0.72082  1.0000
  C   C1259     1.0  0.88632  0.52593  0.69664  1.0000
  C   C1260     1.0  0.90459  0.53889  0.68647  1.0000
  C   C1261     1.0  0.91366  0.55770  0.69973  1.0000
  C   C1262     1.0  0.90447  0.56307  0.72410  1.0000
  C   C1263     1.0  0.88640  0.54996  0.73485  1.0000
  C   C1264     1.0  0.91403  0.57017  0.53973  1.0000
  H   H2243     1.0  0.91135  0.53453  0.66754  1.0000
  H   H2244     1.0  0.91128  0.57757  0.73452  1.0000
  H   H2245     1.0  0.87944  0.55446  0.75321  1.0000
  H   H2246     1.0  0.87959  0.49086  0.73498  1.0000
  H   H2247     1.0  0.76485  0.53953  0.84021  1.0000
  H   H2248     1.0  0.86542  0.49143  0.76726  1.0000
  H   H2249     1.0  0.78041  0.55328  0.87447  1.0000
  H   H2250     1.0  0.93834  0.58158  0.57386  1.0000
  H   H2251     1.0  0.90771  0.55673  0.55333  1.0000
  H   H2252     1.0  0.90493  0.49962  0.84883  1.0000
  C   C1265     1.0  0.90635  0.57781  0.60655  1.0000
  H   H2253     1.0  0.79329  0.54398  0.92706  1.0000
  H   H2254     1.0  0.88269  0.55318  0.65075  1.0000
  H   H2255     1.0  0.87504  0.56909  0.67066  1.0000
  H   H2256     1.0  0.94775  0.63507  0.59030  1.0000
  C   C1266     1.0  0.91153  0.54257  0.80180  1.0000
  C   C1267     1.0  0.77738  0.54158  0.85594  1.0000
  H   H2257     1.0  0.75061  0.52452  0.94241  1.0000
  H   H2258     1.0  0.91308  0.56880  0.61525  1.0000
  H   H2259     1.0  0.78798  0.52532  0.88354  1.0000
  H   H2260     1.0  0.93055  0.61267  0.63268  1.0000
  C   C1268     1.0  0.83108  0.50330  0.92909  1.0000
  H   H2261     1.0  0.95126  0.50913  0.72927  1.0000
  Fe  Fe143     1.0  0.97282  0.57602  0.58212  1.0000
  C   C1269     1.0  0.87976  0.56559  0.64716  1.0000
  H   H2262     1.0  0.86800  0.56149  0.62834  1.0000
  H   H2263     1.0  0.89128  0.51804  0.82547  1.0000
  H   H2264     1.0  0.76468  0.51155  0.78639  1.0000
  H   H2265     1.0  0.94243  0.59847  0.62480  1.0000
  H   H2266     1.0  0.96317  0.51562  0.69125  1.0000
  H   H2267     1.0  0.80759  0.55057  0.84824  1.0000
  H   H2268     1.0  0.75945  0.54248  0.91354  1.0000
  C   C1270     1.0  0.77399  0.52274  0.87246  1.0000
  H   H2269     1.0  0.90553  0.55210  0.81093  1.0000
  C   C1271     1.0  0.92330  0.56628  0.50997  1.0000
  H   H2270     1.0  0.91049  0.61607  0.59260  1.0000
  H   H2271     1.0  0.87917  0.51169  0.68522  1.0000
  S   S285      1.0  0.94826  0.50729  0.61185  1.0000
  H   H2272     1.0  0.91353  0.63536  0.51004  1.0000
  C   C1272     1.0  0.91033  0.60530  0.57411  1.0000
  H   H2273     1.0  0.90813  0.51349  0.76024  1.0000
  H   H2274     1.0  0.95998  0.62101  0.57939  1.0000
  C   C1273     1.0  0.78102  0.53912  0.94325  1.0000
  H   H2275     1.0  0.91416  0.60509  0.52093  1.0000
  H   H2276     1.0  0.88378  0.52119  0.78519  1.0000
  C   C1274     1.0  0.77576  0.49581  0.91779  1.0000
  H   H2277     1.0  0.83371  0.49805  0.90602  1.0000
  C   C1275     1.0  0.76161  0.53055  0.92374  1.0000
  H   H2278     1.0  0.74066  0.52396  0.78386  1.0000
  H   H2279     1.0  0.97401  0.62663  0.63671  1.0000
  H   H2280     1.0  0.96918  0.50970  0.55018  1.0000
  C   C1276     1.0  0.96413  0.49881  0.62500  1.0000
  C   C1277     1.0  0.79449  0.54843  0.83404  1.0000
  N   N71       1.0  0.92049  0.59457  0.58825  1.0000
  C   C1278     1.0  0.92879  0.58683  0.56231  1.0000
  C   C1279     1.0  0.93625  0.60713  0.61267  1.0000
  Fe  Fe144     1.0  0.83533  0.50860  0.77633  1.0000
  H   H2281     1.0  0.91226  0.55477  0.49382  1.0000
  C   C1280     1.0  0.89597  0.52180  0.80019  1.0000
  H   H2282     1.0  0.89491  0.59542  0.56886  1.0000
  C   C1281     1.0  0.89767  0.58294  0.63674  1.0000
  C   C1282     1.0  0.95295  0.62499  0.59928  1.0000
  H   H2283     1.0  0.77087  0.51147  0.85277  1.0000
  C   C1283     1.0  0.83193  0.49450  0.95819  1.0000
  H   H2284     1.0  0.91220  0.64004  0.55304  1.0000
  S   S286      1.0  0.84752  0.50689  0.82582  1.0000
  H   H2285     1.0  0.92352  0.54429  0.81871  1.0000
  H   H2286     1.0  0.90228  0.57326  0.53109  1.0000
  N   N72       1.0  0.75854  0.51557  0.89716  1.0000
  C   C1284     1.0  0.98203  0.52074  0.73448  1.0000
  H   H2287     1.0  0.78738  0.50911  0.92869  1.0000
  H   H2288     1.0  0.93334  0.62466  0.54265  1.0000
  H   H2289     1.0  0.89261  0.62001  0.53139  1.0000
  S   S287      1.0  0.97434  0.59087  0.53357  1.0000
  C   C1285     1.0  0.90839  0.62854  0.53368  1.0000
  C   C1286     1.0  0.91770  0.61568  0.54173  1.0000
  C   C1287     1.0  0.82884  0.50124  0.98850  1.0000
  H   H2290     1.0  0.91678  0.51084  0.79914  1.0000
  C   C1288     1.0  0.90346  0.50827  0.78511  1.0000
  C   C1289     1.0  0.74974  0.50192  0.78896  1.0000
  H   H2291     1.0  0.96853  0.55354  0.50537  1.0000
  H   H2292     1.0  0.73775  0.50064  0.85762  1.0000
  H   H2293     1.0  0.91595  0.49371  0.73211  1.0000
  C   C1290     1.0  0.75696  0.49738  0.91180  1.0000
  C   C1291     1.0  0.96816  0.63590  0.62629  1.0000
  H   H2294     1.0  0.98319  0.53511  0.74085  1.0000
  C   C1292     1.0  0.73605  0.50889  0.78735  1.0000
  H   H2295     1.0  0.78148  0.52835  0.95984  1.0000
  C   C1293     1.0  0.96315  0.50922  0.71515  1.0000
  H   H2296     1.0  0.93048  0.57934  0.49563  1.0000
  H   H2297     1.0  0.96066  0.49421  0.71055  1.0000
  H   H2298     1.0  0.78402  0.56809  0.94976  1.0000
  H   H2299     1.0  0.98135  0.51332  0.75745  1.0000
  C   C1294     1.0  0.78366  0.55639  0.96495  1.0000
  H   H2300     1.0  0.79741  0.56186  0.97938  1.0000
  C   C1295     1.0  0.97258  0.58151  0.49250  1.0000
  C   C1296     1.0  0.82470  0.51683  0.98945  1.0000
  S   S288      1.0  0.98197  0.59346  0.63023  1.0000
  H   H2301     1.0  0.74959  0.49499  0.93540  1.0000
  H   H2302     1.0  0.78064  0.49278  0.89410  1.0000
  H   H2303     1.0  0.77193  0.55229  0.98231  1.0000
  H   H2304     1.0  0.98008  0.64851  0.61604  1.0000
