data_image0
_chemical_formula_structural       H2FeHSC2NHSFeS2FeS2FeS2H2SH2FeSCH4SHC6H4C6H4CHC5H4CHCHCHCH4FeH5CH2CH3CH3CH4CH3CH4CSHCH7C3H3CH3CH3CH2C2HFeHC4HNH2CH2CHCHCHC2SH5CH2C2H2C2H2SH3C2H2CH4CH3CH2CNCH2CHSCHNHSH2CHFeHCHFeS2FeS2FeSFeS3HSFeSCSCS2CHSC6H4C6H4C6H5FeCH4CH3CFeSCHCNCH2C3H14C2HC2HSH3C2H4SHC2HNC12H30CH2C2HSH2FeHFeH3CH3CNC9H17CH2C6H4SFeH2CHCHSH4CHCSH3FeCSHCH2C2HSH2CH4CHCH3CH6NCH2C2H3CHCH3C2H2CHC2H3CHCH5SCH5CHFeHC2HC2H3SHSCHCSHCSFeSHCFeSHCHFeS2FeS2FeSFeS3C6H4C3HCH3C6H4C5H5CHC6H4C6H3C2HCH5C2H3FeHCH2C2HC2HCH3CH3SHCH12C3HNHCNC9HC2H16C2HNH12SHNH5C3H2CH2C2H5CH4CFeH2CH2SH3SHCH5CHCHCH2NH4CH2SHCH4C3HC4NH3CH2C3H3C2H5CHC3H5C2HSCH4CH4CHFeH15CH3SC2SHCSH2CSHCH3CHFeS2FeS2FeSFeS3FeS2FeS2FeSFeS4FeS2FeS2FeSFeS3CHFeSHCHC6H4C6H5CH3C5H3C6H4C6H4C3H2C3H9CHC3H2CHCH3NC12H19CH12CH2CH2C3HCHCH3NH4C4SHCH2C2H3CNH4C3H2CHCH5SCHCH7SH2CH2C2H5CH5CHCHCH3CHCH3CH4C2HSCH2C2HCHCHNH3CHSHCHCH3C2HC2H4CHC2HCH13C3H7CNH4CH4CH2CHCH2CH2C3H4C2HCHNH2CH4CH4CH4C2HCH2CH2C2NH4CHCHCHC2NHCHCH3SHCFeC3H3CHCH8NH4C2HC2H6CH8C2HNH2CHC2HFeS2FeS2FeHFeS3FeS2FeS2FeSFeCS2FeS2FeS2FeSFeS4C2H2C6H4C4H3C6H4C6H3C6H5CHC6H4C2H5CH2C2H7CH6CHC2H3CH3CH4C3H4C3NH2CH7CHCHCH2CH3CH5CH3CH3CHCHCH2CH2CHC2HC2H2CHNC6HCHCH3CH14CH8CH2CH4CH2CHNH2NH3C2HCH2CH4C2HCH7CH3C2H6C3H2C2H2CH4CH3CHCH10C3SCNS2FeS2FeS2FeSFeS3FeCSFeSFeCS2CSC2H2FeSHFeCSFeSH2S4FeHSHCHSH7CH2C2H7C4H5C8H2C6H4C6H5FeNHCSH2C3H2C6H4C2SH2FeHCSH2CH5SHCH2CSCH2NC12H22FeCH4C7H16CHCHCH5CHSNH2SCH2SH2CH11CHSHCNC12H27CH3C7SH3CH3CH4FeCH2CSH4CHC2FeSCH4CH2NHC2HC2HCHCHCH3C2Fe2HFeHCH11CHCHC3HC3HCNC2HC2HCH4C5HCH3NH3C2H8C2HSH3NH5CH2FeH3C2H5FeH2CFeSCHC6H4NC2HC2H2CHC2H5SH5CH3CH2C2H5CH2CHCH6C2HNH3CH3CH3CHFeS2NC2HFeS2FeSFeSFeS3H2SCSHFeSFeSHC2FeHSCHSH3C4H2C2NFeH4C2HC6H4C6H6CH3C6H5NC12H29C2H3C2H2CHC2NC5SC3HCH22FeH3CHCH2CHCHNSFeH2SCHCH5CHCSHCHCHCHCH2SC3H2C2H2CH4C2HCH3SH5FeH2CH5CH8CH3SCH2SC2H2NHC3HSHFeH2C4HC2H2CHCHSH3FeCH9SH2CHCH7CH2CHSC2HSNHSCHCSH5CH2SH2FeH4CH2CH2C6H3C5HSH5C2HCNH7CH2CH3C2H2C2HC3HCH4CHCH6C3H2C3HCH5CHSHFeH2FeH2FeHNCHFeH12CH
_chemical_formula_sum              "H1536 Fe96 S192 C864 N48"
_cell_length_a       73.1017
_cell_length_b       73.1934
_cell_length_c       31.5626
_cell_angle_alpha    91.1172
_cell_angle_beta     91.1944
_cell_angle_gamma    117.832

_space_group_name_H-M_alt    "P 1"
_space_group_IT_number       1

loop_
  _space_group_symop_operation_xyz
  'x, y, z'

loop_
  _atom_site_type_symbol
  _atom_site_label
  _atom_site_symmetry_multiplicity
  _atom_site_fract_x
  _atom_site_fract_y
  _atom_site_fract_z
  _atom_site_occupancy
  H   H1        1.0  0.02606  0.46409  0.17027  1.0000
  H   H2        1.0  0.14689  0.35852  0.24627  1.0000
  Fe  Fe1       1.0  0.28604  0.45336  0.07281  1.0000
  H   H3        1.0  0.12859  0.44782  0.27515  1.0000
  S   S1        1.0  0.25363  0.44887  0.05136  1.0000
  C   C1        1.0  0.99856  0.45525  0.57406  1.0000
  C   C2        1.0  0.06170  0.47063  0.91957  1.0000
  N   N1        1.0  0.99498  0.44758  0.65458  1.0000
  H   H4        1.0  0.15541  0.42516  0.20998  1.0000
  S   S2        1.0  0.29400  0.42922  0.09904  1.0000
  Fe  Fe2       1.0  0.14590  0.45746  0.09385  1.0000
  S   S3        1.0  0.14020  0.47339  0.03816  1.0000
  S   S4        1.0  0.17648  0.45923  0.12031  1.0000
  Fe  Fe3       1.0  0.10068  0.43908  0.12111  1.0000
  S   S5        1.0  0.09205  0.45363  0.06811  1.0000
  S   S6        1.0  0.07295  0.41637  0.15701  1.0000
  Fe  Fe4       1.0  0.11034  0.44385  0.02663  1.0000
  S   S7        1.0  0.09781  0.43070  0.96016  1.0000
  S   S8        1.0  0.11739  0.42716  0.07841  1.0000
  H   H5        1.0  0.99213  0.33963  0.48800  1.0000
  H   H6        1.0  0.07725  0.48529  0.02324  1.0000
  S   S9        1.0  0.00299  0.39997  0.90718  1.0000
  H   H7        1.0  0.03051  0.44731  0.75940  1.0000
  H   H8        1.0  0.09896  0.47113  0.91890  1.0000
  Fe  Fe5       1.0  0.00733  0.40261  0.35648  1.0000
  S   S10       1.0  0.04169  0.41551  0.34428  1.0000
  C   C3        1.0  0.10816  0.39085  0.16509  1.0000
  H   H9        1.0  0.05124  0.46653  0.07715  1.0000
  H   H10       1.0  0.14706  0.39154  0.22998  1.0000
  H   H11       1.0  0.00931  0.43986  0.52848  1.0000
  H   H12       1.0  0.00598  0.46088  0.50762  1.0000
  S   S11       1.0  0.99790  0.41950  0.40486  1.0000
  H   H13       1.0  0.16854  0.39584  0.17774  1.0000
  C   C4        1.0  0.06469  0.41730  0.20899  1.0000
  C   C5        1.0  0.04412  0.40368  0.21842  1.0000
  C   C6        1.0  0.03683  0.40331  0.25947  1.0000
  C   C7        1.0  0.05026  0.41604  0.29198  1.0000
  C   C8        1.0  0.07100  0.42938  0.28280  1.0000
  C   C9        1.0  0.07806  0.43043  0.24121  1.0000
  H   H14       1.0  0.03370  0.39338  0.19376  1.0000
  H   H15       1.0  0.02091  0.39282  0.26618  1.0000
  H   H16       1.0  0.08152  0.43922  0.30785  1.0000
  H   H17       1.0  0.09389  0.44104  0.23431  1.0000
  C   C10       1.0  0.07136  0.42184  0.94556  1.0000
  C   C11       1.0  0.05679  0.41953  0.97580  1.0000
  C   C12       1.0  0.03600  0.41291  0.96330  1.0000
  C   C13       1.0  0.02943  0.40824  0.92049  1.0000
  C   C14       1.0  0.04391  0.41036  0.89015  1.0000
  C   C15       1.0  0.06480  0.41715  0.90268  1.0000
  H   H18       1.0  0.06149  0.42263  0.00893  1.0000
  H   H19       1.0  0.02491  0.41123  0.98703  1.0000
  H   H20       1.0  0.03903  0.40676  0.85710  1.0000
  H   H21       1.0  0.07592  0.41878  0.87905  1.0000
  C   C16       1.0  0.19764  0.45608  0.10020  1.0000
  H   H22       1.0  0.00667  0.42567  0.16184  1.0000
  C   C17       1.0  0.23081  0.45583  0.11444  1.0000
  C   C18       1.0  0.23194  0.45097  0.07179  1.0000
  C   C19       1.0  0.21564  0.44848  0.04362  1.0000
  C   C20       1.0  0.19868  0.45106  0.05758  1.0000
  C   C21       1.0  0.13751  0.44576  0.24905  1.0000
  H   H23       1.0  0.31497  0.42766  0.94105  1.0000
  H   H24       1.0  0.21622  0.44468  0.01053  1.0000
  H   H25       1.0  0.18638  0.44910  0.03534  1.0000
  H   H26       1.0  0.00902  0.45714  0.37077  1.0000
  C   C22       1.0  0.00806  0.46973  0.35581  1.0000
  H   H27       1.0  0.13446  0.36079  0.17372  1.0000
  C   C23       1.0  0.00453  0.37014  0.05063  1.0000
  H   H28       1.0  0.01030  0.36158  0.07097  1.0000
  C   C24       1.0  0.31204  0.35410  0.70990  1.0000
  H   H29       1.0  0.03411  0.45370  0.98542  1.0000
  C   C25       1.0  0.02718  0.44660  0.69054  1.0000
  H   H30       1.0  0.99295  0.42664  0.20843  1.0000
  H   H31       1.0  0.01688  0.47491  0.83104  1.0000
  H   H32       1.0  0.05827  0.45788  0.27337  1.0000
  H   H33       1.0  0.30353  0.36292  0.71695  1.0000
  Fe  Fe6       1.0  0.31863  0.43893  0.05003  1.0000
  H   H34       1.0  0.02435  0.48477  0.70462  1.0000
  H   H35       1.0  0.06007  0.46771  0.80877  1.0000
  H   H36       1.0  0.07184  0.46567  0.34716  1.0000
  H   H37       1.0  0.13688  0.38281  0.12566  1.0000
  H   H38       1.0  0.03897  0.49209  0.37641  1.0000
  C   C26       1.0  0.03421  0.44045  0.73127  1.0000
  H   H39       1.0  0.01545  0.46478  0.22029  1.0000
  H   H40       1.0  0.27002  0.48881  0.99742  1.0000
  C   C27       1.0  0.12723  0.42309  0.23395  1.0000
  H   H41       1.0  0.09762  0.38466  0.19211  1.0000
  H   H42       1.0  0.00016  0.44501  0.72169  1.0000
  H   H43       1.0  0.32073  0.39805  0.64941  1.0000
  C   C28       1.0  0.99570  0.46799  0.66647  1.0000
  H   H44       1.0  0.14039  0.43033  0.17173  1.0000
  H   H45       1.0  0.01296  0.39367  0.60420  1.0000
  H   H46       1.0  0.03952  0.44043  0.20458  1.0000
  C   C29       1.0  0.30521  0.35385  0.63247  1.0000
  H   H47       1.0  0.06218  0.49067  0.86797  1.0000
  H   H48       1.0  0.07108  0.46197  0.99520  1.0000
  H   H49       1.0  0.31787  0.34877  0.09045  1.0000
  H   H50       1.0  0.21324  0.46211  0.16155  1.0000
  C   C30       1.0  0.00655  0.42530  0.19700  1.0000
  H   H51       1.0  0.02648  0.42334  0.73337  1.0000
  H   H52       1.0  0.12071  0.38313  0.23965  1.0000
  H   H53       1.0  0.17064  0.38535  0.10444  1.0000
  C   C31       1.0  0.98971  0.46656  0.33487  1.0000
  H   H54       1.0  0.04463  0.46423  0.92131  1.0000
  H   H55       1.0  0.15359  0.45076  0.26104  1.0000
  H   H56       1.0  0.00505  0.41015  0.20661  1.0000
  H   H57       1.0  0.27550  0.49160  0.09084  1.0000
  C   C32       1.0  0.13008  0.35077  0.23758  1.0000
  S   S12       1.0  0.30897  0.46078  0.02035  1.0000
  H   H58       1.0  0.08073  0.48247  0.27905  1.0000
  C   C33       1.0  0.04130  0.45523  0.05193  1.0000
  H   H59       1.0  0.29839  0.33716  0.62277  1.0000
  H   H60       1.0  0.17462  0.41008  0.08574  1.0000
  H   H61       1.0  0.06446  0.45698  0.92259  1.0000
  H   H62       1.0  0.06837  0.48851  0.34887  1.0000
  H   H63       1.0  0.00511  0.43311  0.60688  1.0000
  H   H64       1.0  0.13784  0.45577  0.22281  1.0000
  H   H65       1.0  0.30015  0.33751  0.70983  1.0000
  C   C34       1.0  0.02658  0.44273  0.21647  1.0000
  C   C35       1.0  0.13141  0.38427  0.21411  1.0000
  C   C36       1.0  0.00617  0.44857  0.61426  1.0000
  H   H66       1.0  0.10880  0.35292  0.19320  1.0000
  H   H67       1.0  0.28219  0.36737  0.58094  1.0000
  H   H68       1.0  0.99933  0.48664  0.45050  1.0000
  C   C37       1.0  0.06719  0.47878  0.87417  1.0000
  H   H69       1.0  0.10226  0.48937  0.15657  1.0000
  H   H70       1.0  0.25927  0.35664  0.61185  1.0000
  H   H71       1.0  0.30354  0.33667  0.78987  1.0000
  C   C38       1.0  0.02513  0.48951  0.35865  1.0000
  H   H72       1.0  0.02579  0.44096  0.25135  1.0000
  H   H73       1.0  0.12538  0.33448  0.22778  1.0000
  H   H74       1.0  0.02487  0.44890  0.06070  1.0000
  C   C39       1.0  0.04440  0.46564  0.00924  1.0000
  H   H75       1.0  0.14261  0.40873  0.11796  1.0000
  H   H76       1.0  0.02795  0.46640  0.54216  1.0000
  C   C40       1.0  0.05187  0.48432  0.26652  1.0000
  C   C41       1.0  0.17698  0.40203  0.11312  1.0000
  H   H77       1.0  0.11107  0.41869  0.22368  1.0000
  Fe  Fe7       1.0  0.12185  0.48229  0.08292  1.0000
  H   H78       1.0  0.02295  0.45933  0.61814  1.0000
  C   C42       1.0  0.21385  0.45840  0.12844  1.0000
  C   C43       1.0  0.09913  0.37493  0.12723  1.0000
  C   C44       1.0  0.07594  0.36746  0.12023  1.0000
  C   C45       1.0  0.00369  0.44019  0.69046  1.0000
  H   H79       1.0  0.17485  0.42157  0.16194  1.0000
  N   N2        1.0  0.13042  0.39772  0.17943  1.0000
  H   H80       1.0  0.24294  0.45748  0.13672  1.0000
  H   H81       1.0  0.12686  0.41394  0.26180  1.0000
  C   C46       1.0  0.13931  0.41961  0.19738  1.0000
  H   H82       1.0  0.10620  0.40432  0.15488  1.0000
  H   H83       1.0  0.10320  0.47278  0.97558  1.0000
  C   C47       1.0  0.14327  0.39814  0.14219  1.0000
  H   H84       1.0  0.13553  0.48328  0.93846  1.0000
  C   C48       1.0  0.02877  0.46414  0.20519  1.0000
  H   H85       1.0  0.27540  0.48271  0.16784  1.0000
  C   C49       1.0  0.10559  0.48193  0.94675  1.0000
  H   H86       1.0  0.24917  0.49014  0.04504  1.0000
  C   C50       1.0  0.98870  0.48307  0.31547  1.0000
  C   C51       1.0  0.16649  0.40496  0.15220  1.0000
  S   S13       1.0  0.12924  0.46849  0.13991  1.0000
  H   H87       1.0  0.10672  0.38220  0.09753  1.0000
  H   H88       1.0  0.10146  0.36123  0.13185  1.0000
  H   H89       1.0  0.07302  0.38060  0.11213  1.0000
  H   H90       1.0  0.06988  0.35590  0.09346  1.0000
  H   H91       1.0  0.06740  0.36017  0.14907  1.0000
  C   C52       1.0  0.01127  0.45561  0.53587  1.0000
  H   H92       1.0  0.05119  0.44608  0.73135  1.0000
  H   H93       1.0  0.19390  0.40859  0.11985  1.0000
  C   C53       1.0  0.28614  0.35692  0.64312  1.0000
  C   C54       1.0  0.01741  0.48663  0.67442  1.0000
  H   H94       1.0  0.22124  0.48413  0.99167  1.0000
  H   H95       1.0  0.12123  0.35076  0.26581  1.0000
  C   C55       1.0  0.12561  0.36169  0.20106  1.0000
  C   C56       1.0  0.27310  0.35501  0.60317  1.0000
  H   H96       1.0  0.04617  0.46296  0.34293  1.0000
  H   H97       1.0  0.06237  0.47824  0.16149  1.0000
  S   S14       1.0  0.30903  0.47896  0.11635  1.0000
  H   H98       1.0  0.30796  0.36317  0.79480  1.0000
  H   H99       1.0  0.03045  0.43855  0.66381  1.0000
  H   H100      1.0  0.99598  0.42298  0.69016  1.0000
  C   C57       1.0  0.99033  0.38887  0.55416  1.0000
  C   C58       1.0  0.00248  0.47279  0.81640  1.0000
  H   H101      1.0  0.10708  0.48704  0.21214  1.0000
  H   H102      1.0  0.06163  0.44946  0.84421  1.0000
  C   C59       1.0  0.06248  0.47277  0.33422  1.0000
  H   H103      1.0  0.01416  0.37502  0.02213  1.0000
  H   H104      1.0  0.03923  0.45389  0.84403  1.0000
  H   H105      1.0  0.26777  0.33967  0.58698  1.0000
  H   H106      1.0  0.27609  0.34479  0.66492  1.0000
  C   C60       1.0  0.06637  0.48170  0.19603  1.0000
  H   H107      1.0  0.06874  0.46858  0.20676  1.0000
  H   H108      1.0  0.04517  0.44226  0.05001  1.0000
  H   H109      1.0  0.29046  0.37209  0.65877  1.0000
  C   C61       1.0  0.06408  0.47379  0.28610  1.0000
  H   H110      1.0  0.00147  0.39368  0.52935  1.0000
  H   H111      1.0  0.03682  0.46343  0.68734  1.0000
  C   C62       1.0  0.31545  0.35316  0.78990  1.0000
  N   N3        1.0  0.04889  0.48279  0.21867  1.0000
  C   C63       1.0  0.05630  0.46132  0.84089  1.0000
  H   H112      1.0  0.03656  0.47779  0.28166  1.0000
  H   H113      1.0  0.00638  0.38409  0.06880  1.0000
  C   C64       1.0  0.99680  0.38884  0.59673  1.0000
  H   H114      1.0  0.08405  0.48559  0.86919  1.0000
  S   S15       1.0  0.98895  0.40947  0.78619  1.0000
  C   C65       1.0  0.00118  0.48962  0.79917  1.0000
  H   H115      1.0  0.29750  0.48665  0.95790  1.0000
  N   N4        1.0  0.07257  0.48621  0.95541  1.0000
  H   H116      1.0  0.00015  0.47099  0.57886  1.0000
  S   S16       1.0  0.99157  0.38231  0.68270  1.0000
  H   H117      1.0  0.31220  0.36254  0.60343  1.0000
  H   H118      1.0  0.03929  0.47767  0.01223  1.0000
  C   C66       1.0  0.06734  0.47503  0.99658  1.0000
  H   H119      1.0  0.29060  0.49044  0.03244  1.0000
  Fe  Fe8       1.0  0.31846  0.45534  0.13911  1.0000
  H   H120      1.0  0.02788  0.48842  0.64817  1.0000
  C   C67       1.0  0.12892  0.49417  0.94124  1.0000
  H   H121      1.0  0.01484  0.49380  0.19811  1.0000
  Fe  Fe9       1.0  0.14118  0.65276  0.12984  1.0000
  S   S17       1.0  0.15162  0.66986  0.06876  1.0000
  S   S18       1.0  0.12627  0.66370  0.17972  1.0000
  Fe  Fe10      1.0  0.16247  0.62646  0.11241  1.0000
  S   S19       1.0  0.17477  0.64181  0.05125  1.0000
  S   S20       1.0  0.17010  0.60242  0.14015  1.0000
  Fe  Fe11      1.0  0.18300  0.67238  0.08480  1.0000
  S   S21       1.0  0.21618  0.70009  0.08166  1.0000
  Fe  Fe12      1.0  0.14259  0.63811  0.04022  1.0000
  S   S22       1.0  0.12840  0.62314  0.97574  1.0000
  S   S23       1.0  0.17285  0.65686  0.14723  1.0000
  S   S24       1.0  0.12995  0.62109  0.10014  1.0000
  H   H122      1.0  0.03511  0.53131  0.18191  1.0000
  S   S25       1.0  0.11524  0.50943  0.07441  1.0000
  Fe  Fe13      1.0  0.02833  0.58349  0.82484  1.0000
  S   S26       1.0  0.04652  0.60943  0.87387  1.0000
  C   C68       1.0  0.19656  0.72751  0.16945  1.0000
  S   S27       1.0  0.04022  0.57103  0.77263  1.0000
  C   C69       1.0  0.17293  0.71318  0.16800  1.0000
  S   S28       1.0  0.05535  0.62548  0.31486  1.0000
  S   S29       1.0  0.03979  0.57981  0.39207  1.0000
  C   C70       1.0  0.02395  0.50608  0.34003  1.0000
  H   H123      1.0  0.06174  0.51604  0.21546  1.0000
  S   S30       1.0  0.00501  0.58628  0.78101  1.0000
  C   C71       1.0  0.10634  0.65109  0.21624  1.0000
  C   C72       1.0  0.10499  0.66339  0.24922  1.0000
  C   C73       1.0  0.08945  0.65501  0.27886  1.0000
  C   C74       1.0  0.07484  0.63409  0.27644  1.0000
  C   C75       1.0  0.07602  0.62146  0.24349  1.0000
  C   C76       1.0  0.09177  0.63000  0.21325  1.0000
  H   H124      1.0  0.11595  0.67967  0.25171  1.0000
  H   H125      1.0  0.08862  0.66494  0.30378  1.0000
  H   H126      1.0  0.06462  0.60533  0.24091  1.0000
  H   H127      1.0  0.09235  0.62051  0.18719  1.0000
  C   C77       1.0  0.10452  0.61809  0.95043  1.0000
  C   C78       1.0  0.09253  0.62713  0.96477  1.0000
  C   C79       1.0  0.07472  0.62420  0.94117  1.0000
  C   C80       1.0  0.06836  0.61172  0.90378  1.0000
  C   C81       1.0  0.08002  0.60220  0.89018  1.0000
  C   C82       1.0  0.09811  0.60556  0.91317  1.0000
  H   H128      1.0  0.09717  0.63668  0.99352  1.0000
  H   H129      1.0  0.06577  0.63161  0.95192  1.0000
  H   H130      1.0  0.07537  0.59266  0.86137  1.0000
  H   H131      1.0  0.10729  0.59852  0.90178  1.0000
  C   C83       1.0  0.15572  0.57678  0.11974  1.0000
  C   C84       1.0  0.13885  0.57136  0.09157  1.0000
  C   C85       1.0  0.12671  0.55065  0.07796  1.0000
  C   C86       1.0  0.13152  0.53523  0.09170  1.0000
  C   C87       1.0  0.14857  0.54063  0.11942  1.0000
  C   C88       1.0  0.16059  0.56137  0.13352  1.0000
  H   H132      1.0  0.13505  0.58309  0.08045  1.0000
  H   H133      1.0  0.11359  0.54662  0.05645  1.0000
  H   H134      1.0  0.15239  0.52884  0.13018  1.0000
  H   H135      1.0  0.17368  0.56549  0.15520  1.0000
  H   H136      1.0  0.14984  0.70396  0.88902  1.0000
  Fe  Fe14      1.0  0.00608  0.56740  0.40607  1.0000
  C   C89       1.0  0.23396  0.72727  0.07880  1.0000
  H   H137      1.0  0.29969  0.58319  0.09321  1.0000
  H   H138      1.0  0.16922  0.69669  0.16737  1.0000
  H   H139      1.0  0.18820  0.73971  0.86543  1.0000
  H   H140      1.0  0.06998  0.54267  0.95776  1.0000
  C   C90       1.0  0.00578  0.50281  0.31807  1.0000
  H   H141      1.0  0.99388  0.55496  0.16174  1.0000
  H   H142      1.0  0.01777  0.52679  0.22480  1.0000
  H   H143      1.0  0.16980  0.71418  0.09920  1.0000
  C   C91       1.0  0.20665  0.70328  0.20243  1.0000
  Fe  Fe15      1.0  0.01554  0.53999  0.79124  1.0000
  S   S31       1.0  0.02536  0.58362  0.66289  1.0000
  C   C92       1.0  0.25314  0.50645  0.05266  1.0000
  H   H144      1.0  0.00192  0.55559  0.07871  1.0000
  C   C93       1.0  0.22164  0.69920  0.23155  1.0000
  N   N5        1.0  0.27592  0.51886  0.06399  1.0000
  C   C94       1.0  0.00197  0.58352  0.19476  1.0000
  H   H145      1.0  0.16573  0.71662  0.19551  1.0000
  H   H146      1.0  0.25374  0.51681  0.98714  1.0000
  C   C95       1.0  0.21467  0.67608  0.23448  1.0000
  C   C96       1.0  0.17756  0.71973  0.30782  1.0000
  C   C97       1.0  0.00119  0.56506  0.52358  1.0000
  H   H147      1.0  0.03030  0.62892  0.66394  1.0000
  H   H148      1.0  0.00074  0.63000  0.60327  1.0000
  H   H149      1.0  0.27175  0.49861  0.20750  1.0000
  H   H150      1.0  0.28679  0.52797  0.00032  1.0000
  H   H151      1.0  0.01018  0.51019  0.64904  1.0000
  H   H152      1.0  0.29804  0.51518  0.10489  1.0000
  H   H153      1.0  0.19062  0.69158  0.20882  1.0000
  H   H154      1.0  0.19107  0.70141  0.28375  1.0000
  H   H155      1.0  0.13648  0.50476  0.96917  1.0000
  H   H156      1.0  0.01204  0.58018  0.01914  1.0000
  H   H157      1.0  0.21109  0.73746  0.06739  1.0000
  H   H158      1.0  0.01860  0.61423  0.70974  1.0000
  H   H159      1.0  0.22587  0.67367  0.25488  1.0000
  H   H160      1.0  0.02534  0.49947  0.25146  1.0000
  C   C98       1.0  0.18529  0.71181  0.27073  1.0000
  C   C99       1.0  0.28863  0.57738  0.06549  1.0000
  H   H161      1.0  0.12138  0.70095  0.03070  1.0000
  C   C100      1.0  0.02867  0.58534  0.57594  1.0000
  C   C101      1.0  0.28113  0.54048  0.07975  1.0000
  H   H162      1.0  0.06842  0.51112  0.02264  1.0000
  S   S32       1.0  0.02533  0.56583  0.29036  1.0000
  H   H163      1.0  0.19827  0.74241  0.24414  1.0000
  H   H164      1.0  0.19918  0.66807  0.24848  1.0000
  H   H165      1.0  0.21400  0.66911  0.20249  1.0000
  C   C102      1.0  0.00346  0.63223  0.68583  1.0000
  C   C103      1.0  0.28767  0.55758  0.04640  1.0000
  H   H166      1.0  0.99301  0.55986  0.98455  1.0000
  H   H167      1.0  0.11402  0.63895  0.80865  1.0000
  H   H168      1.0  0.30337  0.56148  0.03527  1.0000
  H   H169      1.0  0.17494  0.72405  0.95509  1.0000
  S   S33       1.0  0.99040  0.55979  0.47067  1.0000
  H   H170      1.0  0.19457  0.72187  0.92631  1.0000
  C   C104      1.0  0.25541  0.73411  0.08442  1.0000
  C   C105      1.0  0.02275  0.62897  0.69404  1.0000
  H   H171      1.0  0.01835  0.53411  0.45537  1.0000
  N   N6        1.0  0.11672  0.58930  0.24285  1.0000
  C   C106      1.0  0.13274  0.60819  0.22170  1.0000
  C   C107      1.0  0.09860  0.57763  0.21208  1.0000
  C   C108      1.0  0.10892  0.59685  0.27975  1.0000
  C   C109      1.0  0.12516  0.57533  0.25927  1.0000
  C   C110      1.0  0.14277  0.57442  0.23420  1.0000
  C   C111      1.0  0.15172  0.62319  0.25023  1.0000
  C   C112      1.0  0.09081  0.58001  0.30394  1.0000
  C   C113      1.0  0.10297  0.56850  0.17113  1.0000
  C   C114      1.0  0.08409  0.55936  0.14065  1.0000
  C   C115      1.0  0.14688  0.55687  0.24894  1.0000
  C   C116      1.0  0.15109  0.64321  0.26278  1.0000
  C   C117      1.0  0.08762  0.58882  0.34576  1.0000
  H   H172      1.0  0.12537  0.61706  0.20728  1.0000
  H   H173      1.0  0.13915  0.60382  0.19416  1.0000
  H   H174      1.0  0.08609  0.56418  0.22738  1.0000
  H   H175      1.0  0.09171  0.58776  0.20268  1.0000
  H   H176      1.0  0.10382  0.60820  0.26916  1.0000
  H   H177      1.0  0.12164  0.60538  0.30368  1.0000
  H   H178      1.0  0.13142  0.57994  0.29245  1.0000
  H   H179      1.0  0.11238  0.55925  0.26129  1.0000
  H   H180      1.0  0.15740  0.58907  0.23895  1.0000
  H   H181      1.0  0.13912  0.57205  0.19986  1.0000
  H   H182      1.0  0.15358  0.61579  0.27916  1.0000
  H   H183      1.0  0.16606  0.62762  0.23226  1.0000
  H   H184      1.0  0.09370  0.56681  0.31128  1.0000
  H   H185      1.0  0.07606  0.57410  0.28496  1.0000
  H   H186      1.0  0.11590  0.58036  0.15373  1.0000
  H   H187      1.0  0.10651  0.55575  0.17894  1.0000
  H   H188      1.0  0.07068  0.54674  0.15569  1.0000
  H   H189      1.0  0.07998  0.57152  0.13085  1.0000
  H   H190      1.0  0.08771  0.55289  0.11177  1.0000
  H   H191      1.0  0.15123  0.55888  0.28329  1.0000
  H   H192      1.0  0.13296  0.54170  0.24289  1.0000
  H   H193      1.0  0.15983  0.55690  0.23109  1.0000
  H   H194      1.0  0.15228  0.65227  0.23425  1.0000
  H   H195      1.0  0.13659  0.64008  0.27876  1.0000
  H   H196      1.0  0.16436  0.65277  0.28475  1.0000
  H   H197      1.0  0.07531  0.57622  0.36320  1.0000
  H   H198      1.0  0.10196  0.59546  0.36615  1.0000
  H   H199      1.0  0.08285  0.60094  0.33979  1.0000
  H   H200      1.0  0.20249  0.72526  0.13871  1.0000
  H   H201      1.0  0.04835  0.49538  0.95158  1.0000
  C   C118      1.0  0.24465  0.51436  0.01605  1.0000
  H   H202      1.0  0.27698  0.55278  0.01832  1.0000
  H   H203      1.0  0.00577  0.50598  0.70507  1.0000
  C   C119      1.0  0.07331  0.51864  0.99181  1.0000
  C   C120      1.0  0.06483  0.53409  0.98754  1.0000
  H   H204      1.0  0.03235  0.64639  0.75439  1.0000
  S   S34       1.0  0.99689  0.53841  0.36686  1.0000
  H   H205      1.0  0.19043  0.72888  0.33104  1.0000
  H   H206      1.0  0.29392  0.58950  0.04138  1.0000
  Fe  Fe16      1.0  0.02987  0.55183  0.34913  1.0000
  H   H207      1.0  0.12702  0.62873  0.84223  1.0000
  Fe  Fe17      1.0  0.01518  0.57121  0.72967  1.0000
  H   H208      1.0  0.09064  0.50880  0.23206  1.0000
  H   H209      1.0  0.27526  0.52414  0.15450  1.0000
  H   H210      1.0  0.07073  0.54549  0.01464  1.0000
  C   C121      1.0  0.16283  0.71670  0.12823  1.0000
  H   H211      1.0  0.23736  0.70639  0.21829  1.0000
  H   H212      1.0  0.10569  0.68503  0.98633  1.0000
  H   H213      1.0  0.01917  0.51802  0.49749  1.0000
  C   C122      1.0  0.20285  0.72996  0.24769  1.0000
  N   N7        1.0  0.15534  0.68197  0.92468  1.0000
  C   C123      1.0  0.17142  0.68189  0.95542  1.0000
  C   C124      1.0  0.13642  0.67839  0.94895  1.0000
  C   C125      1.0  0.14922  0.66385  0.89369  1.0000
  C   C126      1.0  0.19041  0.68160  0.93490  1.0000
  C   C127      1.0  0.13023  0.65864  0.86358  1.0000
  C   C128      1.0  0.13886  0.69542  0.98178  1.0000
  C   C129      1.0  0.00340  0.56318  0.01307  1.0000
  C   C130      1.0  0.20837  0.68776  0.96712  1.0000
  C   C131      1.0  0.12825  0.64310  0.82841  1.0000
  H   H214      1.0  0.16434  0.66798  0.97534  1.0000
  H   H215      1.0  0.17714  0.69515  0.97850  1.0000
  H   H216      1.0  0.12359  0.67680  0.92716  1.0000
  H   H217      1.0  0.13060  0.66353  0.96557  1.0000
  H   H218      1.0  0.14587  0.64955  0.91082  1.0000
  H   H219      1.0  0.16236  0.66644  0.87316  1.0000
  H   H220      1.0  0.18608  0.66571  0.92260  1.0000
  H   H221      1.0  0.19591  0.69214  0.90798  1.0000
  H   H222      1.0  0.11570  0.65133  0.88134  1.0000
  H   H223      1.0  0.15202  0.69939  0.00447  1.0000
  H   H224      1.0  0.24369  0.50563  0.08039  1.0000
  H   H225      1.0  0.00535  0.60939  0.61787  1.0000
  H   H226      1.0  0.11627  0.67444  0.02528  1.0000
  H   H227      1.0  0.21634  0.73660  0.27065  1.0000
  H   H228      1.0  0.21378  0.70381  0.97971  1.0000
  H   H229      1.0  0.20357  0.67708  0.99394  1.0000
  H   H230      1.0  0.22152  0.68697  0.95179  1.0000
  C   C132      1.0  0.02869  0.50400  0.21826  1.0000
  H   H231      1.0  0.24141  0.73926  0.22562  1.0000
  H   H232      1.0  0.00634  0.57774  0.13013  1.0000
  C   C133      1.0  0.27920  0.49884  0.17706  1.0000
  C   C134      1.0  0.29999  0.50191  0.97070  1.0000
  C   C135      1.0  0.17944  0.72189  0.92291  1.0000
  C   C136      1.0  0.16313  0.70158  0.90004  1.0000
  C   C137      1.0  0.03197  0.52613  0.21501  1.0000
  C   C138      1.0  0.06554  0.50257  0.95415  1.0000
  H   H233      1.0  0.24472  0.52899  0.02622  1.0000
  H   H234      1.0  0.13139  0.67273  0.84866  1.0000
  H   H235      1.0  0.22288  0.70586  0.26400  1.0000
  H   H236      1.0  0.16843  0.74217  0.89506  1.0000
  S   S35       1.0  0.99930  0.58281  0.35034  1.0000
  Fe  Fe18      1.0  0.03273  0.59307  0.33362  1.0000
  H   H237      1.0  0.03150  0.58846  0.50787  1.0000
  H   H238      1.0  0.17044  0.70018  0.87035  1.0000
  C   C139      1.0  0.11934  0.68848  0.00749  1.0000
  H   H239      1.0  0.26792  0.54020  0.09730  1.0000
  C   C140      1.0  0.03885  0.64622  0.72296  1.0000
  H   H240      1.0  0.14110  0.70952  0.96521  1.0000
  S   S36       1.0  0.00559  0.55223  0.84694  1.0000
  H   H241      1.0  0.10060  0.50728  0.92455  1.0000
  H   H242      1.0  0.20919  0.69954  0.16942  1.0000
  H   H243      1.0  0.08754  0.51314  0.17714  1.0000
  H   H244      1.0  0.09044  0.52763  0.99276  1.0000
  C   C141      1.0  0.28924  0.51979  0.02725  1.0000
  H   H245      1.0  0.00319  0.59901  0.18946  1.0000
  C   C142      1.0  0.01589  0.57510  0.60965  1.0000
  S   S37       1.0  0.04463  0.53105  0.34619  1.0000
  H   H246      1.0  0.14181  0.64979  0.80774  1.0000
  H   H247      1.0  0.04423  0.59750  0.58290  1.0000
  H   H248      1.0  0.10355  0.50659  0.98005  1.0000
  Fe  Fe19      1.0  0.99254  0.55426  0.31053  1.0000
  C   C143      1.0  0.02151  0.58019  0.53324  1.0000
  S   S38       1.0  0.02312  0.51389  0.80081  1.0000
  H   H249      1.0  0.16541  0.70642  0.32417  1.0000
  C   C144      1.0  0.08752  0.50163  0.19966  1.0000
  H   H250      1.0  0.31658  0.51116  0.98051  1.0000
  H   H251      1.0  0.04765  0.52604  0.98752  1.0000
  C   C145      1.0  0.09577  0.49658  0.95144  1.0000
  C   C146      1.0  0.01812  0.51919  0.46258  1.0000
  H   H252      1.0  0.06006  0.50076  0.27827  1.0000
  S   S39       1.0  0.99120  0.53926  0.74546  1.0000
  H   H253      1.0  0.14601  0.70566  0.12696  1.0000
  H   H254      1.0  0.99855  0.50265  0.40906  1.0000
  C   C147      1.0  0.99454  0.56996  0.15415  1.0000
  H   H255      1.0  0.17066  0.72949  0.29626  1.0000
  H   H256      1.0  0.05246  0.64348  0.72796  1.0000
  H   H257      1.0  0.00930  0.64718  0.66967  1.0000
  H   H258      1.0  0.17179  0.70219  0.24954  1.0000
  C   C148      1.0  0.01608  0.50682  0.67902  1.0000
  H   H259      1.0  0.03189  0.51915  0.44840  1.0000
  C   C149      1.0  0.27132  0.50829  0.14303  1.0000
  H   H260      1.0  0.27307  0.57453  0.07562  1.0000
  H   H261      1.0  0.30592  0.52903  0.03705  1.0000
  H   H262      1.0  0.01749  0.58564  0.20501  1.0000
  C   C150      1.0  0.18292  0.74080  0.89770  1.0000
  H   H263      1.0  0.07095  0.51164  0.92496  1.0000
  H   H264      1.0  0.04498  0.53680  0.23655  1.0000
  H   H265      1.0  0.00492  0.51547  0.30269  1.0000
  H   H266      1.0  0.26085  0.72284  0.08923  1.0000
  H   H267      1.0  0.23704  0.73497  0.16984  1.0000
  H   H268      1.0  0.04413  0.66148  0.70840  1.0000
  N   N8        1.0  0.20903  0.72488  0.20536  1.0000
  C   C151      1.0  0.28093  0.50818  0.09952  1.0000
  H   H269      1.0  0.29448  0.54644  0.10309  1.0000
  H   H270      1.0  0.16473  0.73268  0.12876  1.0000
  C   C152      1.0  0.04775  0.50179  0.20389  1.0000
  C   C153      1.0  0.99094  0.55244  0.05159  1.0000
  H   H271      1.0  0.13231  0.50327  0.91205  1.0000
  H   H272      1.0  0.03170  0.51982  0.68685  1.0000
  H   H273      1.0  0.04779  0.50224  0.16859  1.0000
  C   C154      1.0  0.23157  0.73974  0.19873  1.0000
  H   H274      1.0  0.29624  0.50809  0.18206  1.0000
  C   C155      1.0  0.99845  0.50103  0.44376  1.0000
  H   H275      1.0  0.11997  0.51182  0.18769  1.0000
  H   H276      1.0  0.25423  0.49909  0.14085  1.0000
  H   H277      1.0  0.01475  0.55750  0.00634  1.0000
  C   C156      1.0  0.99580  0.55944  0.59995  1.0000
  C   C157      1.0  0.10528  0.49715  0.18839  1.0000
  H   H278      1.0  0.99115  0.57611  0.22074  1.0000
  H   H279      1.0  0.00012  0.60373  0.53747  1.0000
  C   C158      1.0  0.22221  0.49887  0.00413  1.0000
  H   H280      1.0  0.21613  0.50523  0.97908  1.0000
  C   C159      1.0  0.98845  0.55464  0.55727  1.0000
  C   C160      1.0  0.28626  0.49877  0.00860  1.0000
  H   H281      1.0  0.19838  0.74346  0.16997  1.0000
  H   H282      1.0  0.99083  0.50234  0.87625  1.0000
  H   H283      1.0  0.99809  0.63462  0.71731  1.0000
  C   C161      1.0  0.22739  0.74224  0.07243  1.0000
  H   H284      1.0  0.29611  0.50984  0.94509  1.0000
  C   C162      1.0  0.99305  0.61429  0.61655  1.0000
  H   H285      1.0  0.21228  0.49567  0.03208  1.0000
  H   H286      1.0  0.98967  0.58824  0.67313  1.0000
  H   H287      1.0  0.99776  0.49482  0.92552  1.0000
  H   H288      1.0  0.29570  0.87743  0.01972  1.0000
  H   H289      1.0  0.28631  0.76026  0.08901  1.0000
  S   S40       1.0  0.28078  0.79778  0.08055  1.0000
  C   C163      1.0  0.26335  0.77040  0.07876  1.0000
  H   H290      1.0  0.26399  0.79292  0.19041  1.0000
  H   H291      1.0  0.26820  0.77178  0.17237  1.0000
  H   H292      1.0  0.30635  0.88637  0.07258  1.0000
  H   H293      1.0  0.23001  0.76803  0.21919  1.0000
  H   H294      1.0  0.29456  0.89949  0.04340  1.0000
  C   C164      1.0  0.23705  0.76279  0.19406  1.0000
  H   H295      1.0  0.23649  0.77484  0.06829  1.0000
  Fe  Fe20      1.0  0.31584  0.82162  0.08136  1.0000
  H   H296      1.0  0.26692  0.77636  0.22857  1.0000
  C   C165      1.0  0.26047  0.77674  0.19662  1.0000
  C   C166      1.0  0.24191  0.76353  0.07277  1.0000
  H   H297      1.0  0.23147  0.76509  0.16261  1.0000
  C   C167      1.0  0.26997  0.75542  0.08432  1.0000
  C   C168      1.0  0.30414  0.89142  0.04073  1.0000
  H   H298      1.0  0.19501  0.75501  0.91418  1.0000
  H   H299      1.0  0.54257  0.04232  0.19300  1.0000
  H   H300      1.0  0.54453  0.10975  0.26299  1.0000
  S   S41       1.0  0.57353  0.01798  0.83361  1.0000
  H   H301      1.0  0.64275  0.06873  0.16785  1.0000
  S   S42       1.0  0.40412  0.03255  0.87237  1.0000
  C   C169      1.0  0.59786  0.00969  0.13198  1.0000
  H   H302      1.0  0.54394  0.11029  0.17997  1.0000
  C   C170      1.0  0.53429  0.22084  0.11244  1.0000
  S   S43       1.0  0.62005  0.01390  0.27223  1.0000
  H   H303      1.0  0.65229  0.11883  0.22081  1.0000
  C   C171      1.0  0.46025  0.02992  0.96459  1.0000
  S   S44       1.0  0.44731  0.03407  0.31188  1.0000
  Fe  Fe21      1.0  0.63153  0.10371  0.11826  1.0000
  S   S45       1.0  0.61108  0.09277  0.05972  1.0000
  H   H304      1.0  0.46602  0.00180  0.58225  1.0000
  C   C172      1.0  0.52538  0.19976  0.13271  1.0000
  Fe  Fe22      1.0  0.62317  0.12636  0.04700  1.0000
  S   S46       1.0  0.59904  0.13498  0.02166  1.0000
  H   H305      1.0  0.64568  0.06242  0.75767  1.0000
  C   C173      1.0  0.54760  0.07567  0.15448  1.0000
  H   H306      1.0  0.46307  0.04242  0.98835  1.0000
  Fe  Fe23      1.0  0.47614  0.12025  0.04210  1.0000
  S   S47       1.0  0.45087  0.12417  0.07314  1.0000
  S   S48       1.0  0.47625  0.10855  0.97469  1.0000
  Fe  Fe24      1.0  0.50623  0.14187  0.11627  1.0000
  S   S49       1.0  0.48315  0.14782  0.15296  1.0000
  S   S50       1.0  0.53869  0.15102  0.14153  1.0000
  Fe  Fe25      1.0  0.46112  0.11474  0.13318  1.0000
  S   S51       1.0  0.43608  0.09114  0.17397  1.0000
  Fe  Fe26      1.0  0.47474  0.15707  0.09025  1.0000
  S   S52       1.0  0.46713  0.18292  0.06785  1.0000
  S   S53       1.0  0.48472  0.10846  0.10051  1.0000
  S   S54       1.0  0.49960  0.15344  0.05574  1.0000
  C   C174      1.0  0.58235  0.13906  0.05594  1.0000
  C   C175      1.0  0.58802  0.14552  0.09839  1.0000
  C   C176      1.0  0.57459  0.14930  0.12430  1.0000
  C   C177      1.0  0.55525  0.14623  0.10824  1.0000
  C   C178      1.0  0.54950  0.13955  0.06598  1.0000
  C   C179      1.0  0.56310  0.13621  0.03985  1.0000
  H   H307      1.0  0.60288  0.14796  0.11100  1.0000
  H   H308      1.0  0.57923  0.15472  0.15680  1.0000
  H   H309      1.0  0.53471  0.13727  0.05322  1.0000
  H   H310      1.0  0.55867  0.13136  0.00699  1.0000
  C   C180      1.0  0.47133  0.20827  0.08459  1.0000
  C   C181      1.0  0.48132  0.21785  0.12323  1.0000
  C   C182      1.0  0.62810  0.08648  0.63299  1.0000
  H   H311      1.0  0.61435  0.01304  0.12994  1.0000
  C   C183      1.0  0.46495  0.21943  0.05727  1.0000
  H   H312      1.0  0.48624  0.20962  0.14489  1.0000
  H   H313      1.0  0.61013  0.05377  0.62234  1.0000
  H   H314      1.0  0.45722  0.21233  0.02728  1.0000
  C   C184      1.0  0.43941  0.07458  0.21032  1.0000
  C   C185      1.0  0.45899  0.07698  0.22197  1.0000
  C   C186      1.0  0.46102  0.06412  0.25239  1.0000
  C   C187      1.0  0.44353  0.04861  0.27129  1.0000
  C   C188      1.0  0.42390  0.04583  0.25880  1.0000
  C   C189      1.0  0.42189  0.05890  0.22883  1.0000
  H   H315      1.0  0.47255  0.08895  0.20798  1.0000
  H   H316      1.0  0.47627  0.06635  0.26171  1.0000
  H   H317      1.0  0.41029  0.03378  0.27248  1.0000
  H   H318      1.0  0.40667  0.05685  0.21985  1.0000
  C   C190      1.0  0.61706  0.06717  0.20259  1.0000
  C   C191      1.0  0.63182  0.06088  0.19207  1.0000
  C   C192      1.0  0.63268  0.04458  0.21368  1.0000
  C   C193      1.0  0.61848  0.03413  0.24516  1.0000
  C   C194      1.0  0.60342  0.04011  0.25477  1.0000
  H   H319      1.0  0.39633  0.11258  0.97524  1.0000
  H   H320      1.0  0.40042  0.13246  0.08651  1.0000
  H   H321      1.0  0.52903  0.23048  0.13093  1.0000
  H   H322      1.0  0.62144  0.08988  0.60409  1.0000
  H   H323      1.0  0.42140  0.11392  0.47597  1.0000
  C   C195      1.0  0.56690  0.09358  0.22134  1.0000
  H   H324      1.0  0.59914  0.00712  0.89034  1.0000
  C   C196      1.0  0.42469  0.05236  0.90257  1.0000
  C   C197      1.0  0.42131  0.05775  0.94361  1.0000
  C   C198      1.0  0.43711  0.07460  0.96679  1.0000
  C   C199      1.0  0.45617  0.08654  0.94844  1.0000
  C   C200      1.0  0.45941  0.08129  0.90726  1.0000
  C   C201      1.0  0.44383  0.06418  0.88460  1.0000
  H   H325      1.0  0.40639  0.04889  0.95741  1.0000
  H   H326      1.0  0.43440  0.07858  0.99842  1.0000
  H   H327      1.0  0.47403  0.09059  0.89267  1.0000
  H   H328      1.0  0.44631  0.06051  0.85258  1.0000
  C   C202      1.0  0.59007  0.03067  0.87854  1.0000
  C   C203      1.0  0.59279  0.05026  0.89186  1.0000
  C   C204      1.0  0.60637  0.06132  0.92625  1.0000
  C   C205      1.0  0.61775  0.05308  0.94724  1.0000
  C   C206      1.0  0.61491  0.03339  0.93415  1.0000
  C   C207      1.0  0.60098  0.02213  0.90031  1.0000
  H   H329      1.0  0.58461  0.05712  0.87506  1.0000
  H   H330      1.0  0.60849  0.07649  0.93575  1.0000
  H   H331      1.0  0.53110  0.18978  0.11698  1.0000
  C   C208      1.0  0.58259  0.11455  0.20375  1.0000
  C   C209      1.0  0.55055  0.09069  0.11819  1.0000
  H   H332      1.0  0.64463  0.11621  0.32130  1.0000
  C   C210      1.0  0.60161  0.12553  0.23357  1.0000
  H   H333      1.0  0.57592  0.12524  0.19989  1.0000
  H   H334      1.0  0.58813  0.11197  0.17284  1.0000
  H   H335      1.0  0.53656  0.09281  0.11365  1.0000
  H   H336      1.0  0.56387  0.10601  0.12494  1.0000
  H   H337      1.0  0.60387  0.02247  0.76426  1.0000
  C   C211      1.0  0.41280  0.12108  0.98622  1.0000
  C   C212      1.0  0.41278  0.13502  0.02372  1.0000
  H   H338      1.0  0.60898  0.11551  0.23935  1.0000
  H   H339      1.0  0.61310  0.13990  0.21897  1.0000
  H   H340      1.0  0.59723  0.12973  0.26434  1.0000
  Fe  Fe27      1.0  0.42487  0.00700  0.35043  1.0000
  H   H341      1.0  0.48807  0.02786  0.98280  1.0000
  C   C213      1.0  0.63639  0.04917  0.81860  1.0000
  H   H342      1.0  0.60334  0.01855  0.62208  1.0000
  H   H343      1.0  0.62763  0.09878  0.27964  1.0000
  C   C214      1.0  0.49938  0.22133  0.93889  1.0000
  C   C215      1.0  0.61303  0.06515  0.64846  1.0000
  H   H344      1.0  0.62765  0.04779  0.09983  1.0000
  C   C216      1.0  0.39976  0.12206  0.05973  1.0000
  C   C217      1.0  0.42341  0.11539  0.91646  1.0000
  H   H345      1.0  0.40575  0.11161  0.07157  1.0000
  C   C218      1.0  0.43209  0.16984  0.94997  1.0000
  H   H346      1.0  0.53633  0.01745  0.88063  1.0000
  H   H347      1.0  0.62373  0.02694  0.95000  1.0000
  H   H348      1.0  0.59155  0.06151  0.24262  1.0000
  C   C219      1.0  0.57503  0.03778  0.71642  1.0000
  H   H349      1.0  0.57198  0.03248  0.74946  1.0000
  H   H350      1.0  0.54685  0.04505  0.87925  1.0000
  H   H351      1.0  0.38071  0.02500  0.32395  1.0000
  S   S55       1.0  0.63639  0.06716  0.98831  1.0000
  H   H352      1.0  0.45197  0.00675  0.01306  1.0000
  C   C220      1.0  0.40082  0.10128  0.90019  1.0000
  H   H353      1.0  0.48845  0.00691  0.78929  1.0000
  H   H354      1.0  0.63718  0.08898  0.32175  1.0000
  H   H355      1.0  0.61400  0.03049  0.05538  1.0000
  H   H356      1.0  0.43057  0.19871  0.94773  1.0000
  H   H357      1.0  0.50146  0.07231  0.78925  1.0000
  H   H358      1.0  0.40569  0.14475  0.01330  1.0000
  H   H359      1.0  0.50609  0.01446  0.91867  1.0000
  H   H360      1.0  0.37769  0.04757  0.31291  1.0000
  H   H361      1.0  0.49250  0.08679  0.02585  1.0000
  H   H362      1.0  0.42958  0.10504  0.92842  1.0000
  H   H363      1.0  0.42186  0.18317  0.89926  1.0000
  H   H364      1.0  0.39279  0.11049  0.89233  1.0000
  C   C221      1.0  0.42080  0.14734  0.93082  1.0000
  C   C222      1.0  0.61907  0.02499  0.68562  1.0000
  C   C223      1.0  0.55406  0.03115  0.69391  1.0000
  H   H365      1.0  0.58408  0.02718  0.65960  1.0000
  N   N9        1.0  0.61025  0.03822  0.70461  1.0000
  H   H366      1.0  0.38392  0.07803  0.85063  1.0000
  C   C224      1.0  0.46503  0.14997  0.93000  1.0000
  N   N10       1.0  0.43016  0.07097  0.39694  1.0000
  C   C225      1.0  0.43030  0.05558  0.42797  1.0000
  C   C226      1.0  0.41396  0.05943  0.36239  1.0000
  C   C227      1.0  0.45101  0.08077  0.37649  1.0000
  C   C228      1.0  0.42662  0.08781  0.41766  1.0000
  C   C229      1.0  0.41304  0.08202  0.45744  1.0000
  C   C230      1.0  0.44862  0.06432  0.46115  1.0000
  C   C231      1.0  0.45348  0.09538  0.33951  1.0000
  C   C232      1.0  0.39117  0.04830  0.37574  1.0000
  C   C233      1.0  0.37669  0.03666  0.33784  1.0000
  H   H367      1.0  0.55648  0.09341  0.05090  1.0000
  C   C234      1.0  0.44408  0.05065  0.49957  1.0000
  C   C235      1.0  0.47610  0.10744  0.32730  1.0000
  H   H368      1.0  0.43101  0.04255  0.41053  1.0000
  H   H369      1.0  0.41560  0.04805  0.44502  1.0000
  H   H370      1.0  0.41427  0.07005  0.33742  1.0000
  H   H371      1.0  0.41742  0.04773  0.34648  1.0000
  H   H372      1.0  0.45483  0.06864  0.36419  1.0000
  H   H373      1.0  0.46349  0.09005  0.40044  1.0000
  H   H374      1.0  0.44161  0.10125  0.42810  1.0000
  H   H375      1.0  0.41976  0.09417  0.39397  1.0000
  H   H376      1.0  0.42160  0.08014  0.48502  1.0000
  H   H377      1.0  0.39853  0.06736  0.45280  1.0000
  H   H378      1.0  0.46265  0.06512  0.44641  1.0000
  H   H379      1.0  0.45237  0.08015  0.47255  1.0000
  H   H380      1.0  0.44790  0.10666  0.34809  1.0000
  H   H381      1.0  0.44467  0.08635  0.31074  1.0000
  H   H382      1.0  0.38878  0.03695  0.40056  1.0000
  H   H383      1.0  0.38635  0.05974  0.38734  1.0000
  C   C236      1.0  0.47971  0.99916  0.57885  1.0000
  C   C237      1.0  0.61269  0.04008  0.08157  1.0000
  H   H384      1.0  0.39810  0.09469  0.49876  1.0000
  N   N11       1.0  0.53607  0.23813  0.04051  1.0000
  H   H385      1.0  0.53167  0.06793  0.25715  1.0000
  H   H386      1.0  0.44103  0.03482  0.48968  1.0000
  H   H387      1.0  0.48563  0.11808  0.35376  1.0000
  H   H388      1.0  0.48239  0.09668  0.31910  1.0000
  H   H389      1.0  0.47718  0.11673  0.29912  1.0000
  H   H390      1.0  0.51802  0.12226  0.26773  1.0000
  H   H391      1.0  0.57470  0.08368  0.21998  1.0000
  H   H392      1.0  0.55427  0.05245  0.24458  1.0000
  H   H393      1.0  0.51997  0.08767  0.18018  1.0000
  H   H394      1.0  0.51811  0.08952  0.25714  1.0000
  H   H395      1.0  0.53021  0.20169  0.16679  1.0000
  H   H396      1.0  0.54049  0.06728  0.06695  1.0000
  S   S56       1.0  0.43579  0.01112  0.79735  1.0000
  H   H397      1.0  0.56051  0.07159  0.15334  1.0000
  N   N12       1.0  0.54588  0.08274  0.19900  1.0000
  H   H398      1.0  0.56531  0.09579  0.25577  1.0000
  H   H399      1.0  0.53329  0.06125  0.14483  1.0000
  H   H400      1.0  0.47354  0.05106  0.88841  1.0000
  H   H401      1.0  0.54482  0.03268  0.92933  1.0000
  H   H402      1.0  0.48037  0.03214  0.87127  1.0000
  C   C238      1.0  0.53513  0.09607  0.19796  1.0000
  C   C239      1.0  0.50175  0.06344  0.85442  1.0000
  C   C240      1.0  0.53057  0.10292  0.24163  1.0000
  H   H403      1.0  0.50993  0.11375  0.21338  1.0000
  H   H404      1.0  0.43043  0.04972  0.51620  1.0000
  C   C241      1.0  0.64122  0.10234  0.30103  1.0000
  H   H405      1.0  0.64303  0.08696  0.62486  1.0000
  H   H406      1.0  0.59461  0.03792  0.13564  1.0000
  C   C242      1.0  0.52313  0.11915  0.23676  1.0000
  C   C243      1.0  0.52842  0.23258  0.99490  1.0000
  H   H407      1.0  0.59815  0.06525  0.65403  1.0000
  H   H408      1.0  0.62747  0.03375  0.83239  1.0000
  H   H409      1.0  0.49007  0.00782  0.64334  1.0000
  H   H410      1.0  0.55619  0.03710  0.66131  1.0000
  H   H411      1.0  0.53593  0.13384  0.22607  1.0000
  C   C244      1.0  0.53254  0.06374  0.22343  1.0000
  H   H412      1.0  0.51631  0.05638  0.21017  1.0000
  H   H413      1.0  0.41684  0.10923  0.99891  1.0000
  H   H414      1.0  0.46094  0.15871  0.90669  1.0000
  H   H415      1.0  0.49723  0.01130  0.33509  1.0000
  C   C245      1.0  0.49045  0.06165  0.81202  1.0000
  Fe  Fe28      1.0  0.63875  0.09520  0.02626  1.0000
  H   H416      1.0  0.52527  0.07441  0.99849  1.0000
  H   H417      1.0  0.44144  0.99639  0.96031  1.0000
  C   C246      1.0  0.53977  0.04686  0.22497  1.0000
  H   H418      1.0  0.45762  0.05722  0.52218  1.0000
  H   H419      1.0  0.63006  0.03826  0.62381  1.0000
  S   S57       1.0  0.64185  0.13756  0.10826  1.0000
  H   H420      1.0  0.64149  0.01166  0.63358  1.0000
  H   H421      1.0  0.36047  0.02853  0.34826  1.0000
  H   H422      1.0  0.62150  0.07121  0.71465  1.0000
  S   S58       1.0  0.39545  0.00410  0.49842  1.0000
  H   H423      1.0  0.53106  0.21962  0.98294  1.0000
  C   C247      1.0  0.63550  0.04700  0.77025  1.0000
  H   H424      1.0  0.52919  0.20622  0.04940  1.0000
  H   H425      1.0  0.47783  0.06586  0.81615  1.0000
  H   H426      1.0  0.56806  0.08006  0.07889  1.0000
  H   H427      1.0  0.49533  0.21140  0.00300  1.0000
  H   H428      1.0  0.60977  0.05223  0.06726  1.0000
  C   C248      1.0  0.62151  0.06016  0.68984  1.0000
  H   H429      1.0  0.58009  0.02138  0.09243  1.0000
  C   C249      1.0  0.52354  0.02733  0.24499  1.0000
  H   H430      1.0  0.50874  0.02057  0.22606  1.0000
  C   C250      1.0  0.52680  0.21862  0.06534  1.0000
  H   H431      1.0  0.50977  0.21221  0.06577  1.0000
  H   H432      1.0  0.54497  0.01402  0.69210  1.0000
  N   N13       1.0  0.42652  0.13180  0.94988  1.0000
  H   H433      1.0  0.49246  0.15480  0.96660  1.0000
  H   H434      1.0  0.52070  0.03087  0.27785  1.0000
  H   H435      1.0  0.52919  0.01566  0.24646  1.0000
  H   H436      1.0  0.61085  0.00904  0.69787  1.0000
  C   C251      1.0  0.61886  0.02324  0.63659  1.0000
  H   H437      1.0  0.49749  0.17123  0.92224  1.0000
  H   H438      1.0  0.38741  0.01402  0.58302  1.0000
  S   S59       1.0  0.43632  0.00560  0.41677  1.0000
  H   H439      1.0  0.48376  0.04563  0.79846  1.0000
  C   C252      1.0  0.44521  0.00941  0.98344  1.0000
  H   H440      1.0  0.50794  0.07961  0.86658  1.0000
  H   H441      1.0  0.57086  0.99843  0.56652  1.0000
  H   H442      1.0  0.51497  0.06042  0.84792  1.0000
  H   H443      1.0  0.56375  0.22690  0.99720  1.0000
  C   C253      1.0  0.50893  0.07144  0.99878  1.0000
  C   C254      1.0  0.48695  0.04793  0.88624  1.0000
  C   C255      1.0  0.50871  0.09000  0.02109  1.0000
  H   H444      1.0  0.51116  0.08197  0.93546  1.0000
  C   C256      1.0  0.39659  0.00602  0.58638  1.0000
  C   C257      1.0  0.58730  0.02802  0.69425  1.0000
  C   C258      1.0  0.60290  0.05669  0.23397  1.0000
  C   C259      1.0  0.49995  0.06839  0.95269  1.0000
  N   N14       1.0  0.49605  0.04852  0.92995  1.0000
  H   H445      1.0  0.52845  0.06229  0.91475  1.0000
  H   H446      1.0  0.48561  0.07007  0.95284  1.0000
  H   H447      1.0  0.45237  0.03207  0.93618  1.0000
  C   C260      1.0  0.46848  0.23972  0.06823  1.0000
  H   H448      1.0  0.50002  0.05780  0.01811  1.0000
  H   H449      1.0  0.58370  0.05489  0.71795  1.0000
  C   C261      1.0  0.48676  0.16403  0.94837  1.0000
  C   C262      1.0  0.48086  0.02999  0.95321  1.0000
  C   C263      1.0  0.61294  0.03836  0.75231  1.0000
  H   H450      1.0  0.45185  0.12975  0.98194  1.0000
  H   H451      1.0  0.59246  0.03226  0.27905  1.0000
  H   H452      1.0  0.47658  0.01564  0.93391  1.0000
  C   C264      1.0  0.51625  0.04773  0.92766  1.0000
  C   C265      1.0  0.55407  0.08226  0.07621  1.0000
  H   H453      1.0  0.50867  0.02746  0.86975  1.0000
  H   H454      1.0  0.62996  0.05949  0.82938  1.0000
  H   H455      1.0  0.63816  0.06461  0.68573  1.0000
  H   H456      1.0  0.52213  0.04698  0.96003  1.0000
  H   H457      1.0  0.43060  0.00978  0.99095  1.0000
  C   C266      1.0  0.51548  0.02902  0.90216  1.0000
  H   H458      1.0  0.42387  0.14873  0.89629  1.0000
  C   C267      1.0  0.49794  0.99898  0.72949  1.0000
  C   C268      1.0  0.40024  0.08861  0.86058  1.0000
  C   C269      1.0  0.44886  0.14139  0.96524  1.0000
  H   H459      1.0  0.42858  0.14511  0.03690  1.0000
  H   H460      1.0  0.39772  0.10076  0.44381  1.0000
  H   H461      1.0  0.50323  0.20931  0.92639  1.0000
  H   H462      1.0  0.40569  0.17601  0.94513  1.0000
  H   H463      1.0  0.43241  0.17050  0.98501  1.0000
  C   C270      1.0  0.40726  0.09894  0.46960  1.0000
  C   C271      1.0  0.49685  0.01465  0.76068  1.0000
  H   H464      1.0  0.44843  0.17776  0.94040  1.0000
  S   S60       1.0  0.61614  0.08850  0.17899  1.0000
  C   C272      1.0  0.59501  0.02725  0.11058  1.0000
  H   H465      1.0  0.51666  0.10410  0.00224  1.0000
  H   H466      1.0  0.39205  0.09001  0.92456  1.0000
  H   H467      1.0  0.50821  0.19200  0.13025  1.0000
  H   H468      1.0  0.54522  0.03745  0.71182  1.0000
  C   C273      1.0  0.53720  0.03125  0.89773  1.0000
  H   H469      1.0  0.43242  0.12263  0.88802  1.0000
  H   H470      1.0  0.58006  0.01162  0.70371  1.0000
  H   H471      1.0  0.46573  0.13698  0.91252  1.0000
  H   H472      1.0  0.48876  0.02255  0.74541  1.0000
  C   C274      1.0  0.42186  0.18264  0.93442  1.0000
  H   H473      1.0  0.40790  0.09888  0.83401  1.0000
  Fe  Fe29      1.0  0.40893  0.00812  0.83579  1.0000
  H   H474      1.0  0.64435  0.04001  0.20599  1.0000
  H   H475      1.0  0.38334  0.11266  0.04886  1.0000
  H   H476      1.0  0.45249  0.15384  0.98956  1.0000
  H   H477      1.0  0.40809  0.07907  0.86725  1.0000
  H   H478      1.0  0.48686  0.17641  0.96941  1.0000
  H   H479      1.0  0.51274  0.02644  0.77079  1.0000
  H   H480      1.0  0.63560  0.03106  0.69533  1.0000
  H   H481      1.0  0.60651  0.04779  0.76795  1.0000
  H   H482      1.0  0.40381  0.14168  0.93256  1.0000
  H   H483      1.0  0.51672  0.09299  0.05262  1.0000
  H   H484      1.0  0.48248  0.21572  0.93387  1.0000
  H   H485      1.0  0.50621  0.00746  0.70159  1.0000
  H   H486      1.0  0.63098  0.09863  0.65772  1.0000
  H   H487      1.0  0.58337  0.99779  0.05102  1.0000
  H   H488      1.0  0.50089  0.23783  0.99642  1.0000
  C   C275      1.0  0.50508  0.22572  0.98619  1.0000
  H   H489      1.0  0.56416  0.22065  0.05195  1.0000
  H   H490      1.0  0.64192  0.03634  0.76234  1.0000
  H   H491      1.0  0.39562  0.00593  0.65512  1.0000
  S   S61       1.0  0.53263  0.00438  0.33626  1.0000
  C   C276      1.0  0.40118  0.00140  0.62739  1.0000
  C   C277      1.0  0.40325  0.99984  0.54974  1.0000
  S   S62       1.0  0.39214  0.99690  0.37061  1.0000
  H   H492      1.0  0.55137  0.22790  0.11584  1.0000
  C   C278      1.0  0.56879  0.23355  0.02982  1.0000
  S   S63       1.0  0.58151  0.99894  0.37234  1.0000
  H   H493      1.0  0.65268  0.05581  0.83067  1.0000
  H   H494      1.0  0.49250  0.01338  0.56641  1.0000
  C   C279      1.0  0.48480  0.23812  0.13422  1.0000
  S   S64       1.0  0.64990  0.12839  0.00859  1.0000
  H   H495      1.0  0.59626  0.01138  0.16646  1.0000
  C   C280      1.0  0.62547  0.00721  0.62199  1.0000
  H   H496      1.0  0.62490  0.00607  0.58678  1.0000
  H   H497      1.0  0.59875  0.23464  0.02283  1.0000
  H   H498      1.0  0.50776  0.23566  0.92092  1.0000
  C   C281      1.0  0.49393  0.99814  0.35437  1.0000
  H   H499      1.0  0.55863  0.00752  0.15277  1.0000
  Fe  Fe30      1.0  0.41972  0.42689  0.79997  1.0000
  S   S65       1.0  0.39239  0.41684  0.75533  1.0000
  S   S66       1.0  0.44343  0.46027  0.80466  1.0000
  Fe  Fe31      1.0  0.40356  0.38486  0.84078  1.0000
  S   S67       1.0  0.37471  0.37123  0.79827  1.0000
  S   S68       1.0  0.40936  0.37300  0.90325  1.0000
  Fe  Fe32      1.0  0.39593  0.38836  0.74518  1.0000
  S   S69       1.0  0.39611  0.37552  0.67852  1.0000
  Fe  Fe33      1.0  0.37362  0.40109  0.81149  1.0000
  S   S70       1.0  0.34594  0.40597  0.82611  1.0000
  S   S71       1.0  0.42485  0.39944  0.78708  1.0000
  S   S72       1.0  0.40084  0.41357  0.85648  1.0000
  Fe  Fe34      1.0  0.39313  0.40159  0.42791  1.0000
  S   S73       1.0  0.39174  0.42512  0.38405  1.0000
  S   S74       1.0  0.38229  0.40379  0.49499  1.0000
  Fe  Fe35      1.0  0.41431  0.38757  0.36032  1.0000
  S   S75       1.0  0.41536  0.41069  0.31405  1.0000
  S   S76       1.0  0.42802  0.36619  0.34338  1.0000
  Fe  Fe36      1.0  0.42425  0.43264  0.36986  1.0000
  S   S77       1.0  0.44697  0.46599  0.36226  1.0000
  Fe  Fe37      1.0  0.38263  0.40111  0.33155  1.0000
  S   S78       1.0  0.36283  0.39550  0.27144  1.0000
  S   S79       1.0  0.42643  0.41067  0.41577  1.0000
  S   S80       1.0  0.38085  0.37646  0.37580  1.0000
  S   S81       1.0  0.34345  0.46350  0.09219  1.0000
  Fe  Fe38      1.0  0.46901  0.32544  0.02903  1.0000
  S   S82       1.0  0.47766  0.35349  0.07038  1.0000
  S   S83       1.0  0.45947  0.32533  0.95967  1.0000
  Fe  Fe39      1.0  0.47927  0.30272  0.09889  1.0000
  S   S84       1.0  0.48844  0.32990  0.14583  1.0000
  S   S85       1.0  0.48373  0.27511  0.12270  1.0000
  Fe  Fe40      1.0  0.46027  0.33184  0.12150  1.0000
  S   S86       1.0  0.43962  0.34377  0.15274  1.0000
  Fe  Fe41      1.0  0.50521  0.35008  0.09197  1.0000
  S   S87       1.0  0.53363  0.38115  0.10604  1.0000
  S   S88       1.0  0.44961  0.30335  0.07830  1.0000
  S   S89       1.0  0.49812  0.32329  0.04669  1.0000
  C   C282      1.0  0.46814  0.38965  0.83661  1.0000
  H   H500      1.0  0.44204  0.45158  0.71117  1.0000
  Fe  Fe42      1.0  0.64465  0.45674  0.04650  1.0000
  S   S90       1.0  0.62107  0.42499  0.02071  1.0000
  H   H501      1.0  0.55352  0.28327  0.03897  1.0000
  C   C283      1.0  0.33121  0.39803  0.67530  1.0000
  H   H502      1.0  0.57060  0.46677  0.98674  1.0000
  C   C284      1.0  0.55680  0.39284  0.07817  1.0000
  C   C285      1.0  0.56940  0.41419  0.08434  1.0000
  C   C286      1.0  0.58895  0.42416  0.06644  1.0000
  C   C287      1.0  0.59612  0.41287  0.04198  1.0000
  C   C288      1.0  0.58322  0.39158  0.03445  1.0000
  C   C289      1.0  0.56361  0.38154  0.05261  1.0000
  H   H503      1.0  0.56409  0.42300  0.10371  1.0000
  H   H504      1.0  0.59854  0.44056  0.07196  1.0000
  H   H505      1.0  0.58858  0.38275  0.01525  1.0000
  H   H506      1.0  0.55399  0.36505  0.04765  1.0000
  C   C290      1.0  0.43176  0.36042  0.29031  1.0000
  C   C291      1.0  0.42725  0.36960  0.25599  1.0000
  C   C292      1.0  0.43063  0.36493  0.21432  1.0000
  C   C293      1.0  0.43822  0.35079  0.20624  1.0000
  C   C294      1.0  0.44327  0.34199  0.24057  1.0000
  C   C295      1.0  0.44007  0.34683  0.28241  1.0000
  H   H507      1.0  0.42108  0.38023  0.26153  1.0000
  H   H508      1.0  0.42709  0.37211  0.18800  1.0000
  H   H509      1.0  0.44908  0.33104  0.23484  1.0000
  H   H510      1.0  0.44373  0.33972  0.30875  1.0000
  H   H511      1.0  0.33473  0.34818  0.74614  1.0000
  C   C296      1.0  0.35216  0.41584  0.21148  1.0000
  H   H512      1.0  0.35829  0.40903  0.18891  1.0000
  H   H513      1.0  0.35831  0.42312  0.64798  1.0000
  H   H514      1.0  0.42102  0.41365  0.18332  1.0000
  C   C297      1.0  0.36560  0.34550  0.24891  1.0000
  C   C298      1.0  0.48653  0.40998  0.85439  1.0000
  C   C299      1.0  0.47256  0.47031  0.36583  1.0000
  C   C300      1.0  0.47710  0.45470  0.37891  1.0000
  C   C301      1.0  0.49758  0.45803  0.38010  1.0000
  H   H515      1.0  0.45383  0.45323  0.52029  1.0000
  H   H516      1.0  0.46484  0.43995  0.38746  1.0000
  H   H517      1.0  0.50112  0.44597  0.39020  1.0000
  C   C302      1.0  0.38822  0.39713  0.54573  1.0000
  C   C303      1.0  0.38458  0.40604  0.58250  1.0000
  C   C304      1.0  0.38796  0.40044  0.62341  1.0000
  C   C305      1.0  0.39423  0.38520  0.62807  1.0000
  C   C306      1.0  0.39823  0.37657  0.59139  1.0000
  C   C307      1.0  0.39548  0.38264  0.55052  1.0000
  H   H518      1.0  0.37903  0.41732  0.57924  1.0000
  H   H519      1.0  0.38509  0.40744  0.65123  1.0000
  H   H520      1.0  0.40311  0.36478  0.59453  1.0000
  H   H521      1.0  0.39824  0.37554  0.52268  1.0000
  C   C308      1.0  0.42211  0.35841  0.91755  1.0000
  C   C309      1.0  0.42574  0.35672  0.96085  1.0000
  C   C310      1.0  0.43683  0.34635  0.97412  1.0000
  C   C311      1.0  0.44444  0.33752  0.94416  1.0000
  C   C312      1.0  0.44048  0.33886  0.90081  1.0000
  C   C313      1.0  0.42931  0.34922  0.88750  1.0000
  H   H522      1.0  0.42009  0.36364  0.98436  1.0000
  H   H523      1.0  0.43958  0.34527  0.00758  1.0000
  H   H524      1.0  0.44617  0.33193  0.87742  1.0000
  H   H525      1.0  0.42639  0.35018  0.85411  1.0000
  C   C314      1.0  0.34214  0.41008  0.88009  1.0000
  C   C315      1.0  0.35167  0.40459  0.91274  1.0000
  C   C316      1.0  0.34773  0.40711  0.95534  1.0000
  H   H526      1.0  0.36155  0.39776  0.90520  1.0000
  H   H527      1.0  0.35476  0.40228  0.98025  1.0000
  C   C317      1.0  0.46887  0.46481  0.79830  1.0000
  C   C318      1.0  0.47303  0.44946  0.78109  1.0000
  C   C319      1.0  0.49350  0.45356  0.77505  1.0000
  H   H528      1.0  0.46343  0.24795  0.04679  1.0000
  H   H529      1.0  0.46054  0.43463  0.77139  1.0000
  H   H530      1.0  0.49671  0.44176  0.76126  1.0000
  H   H531      1.0  0.34785  0.35778  0.21629  1.0000
  H   H532      1.0  0.51782  0.46533  0.46256  1.0000
  H   H533      1.0  0.42695  0.43439  0.51854  1.0000
  H   H534      1.0  0.43087  0.42154  0.93103  1.0000
  H   H535      1.0  0.36032  0.42103  0.70485  1.0000
  H   H536      1.0  0.57185  0.43295  0.89680  1.0000
  C   C320      1.0  0.47091  0.38571  0.79006  1.0000
  H   H537      1.0  0.47672  0.47730  0.70918  1.0000
  C   C321      1.0  0.36570  0.31942  0.15421  1.0000
  C   C322      1.0  0.49877  0.45246  0.51745  1.0000
  C   C323      1.0  0.58698  0.46150  0.17741  1.0000
  H   H538      1.0  0.34406  0.34800  0.29251  1.0000
  H   H539      1.0  0.40859  0.45798  0.86117  1.0000
  C   C324      1.0  0.50405  0.43557  0.91244  1.0000
  H   H540      1.0  0.50051  0.44761  0.54974  1.0000
  C   C325      1.0  0.54927  0.41030  0.96234  1.0000
  H   H541      1.0  0.41765  0.49009  0.10793  1.0000
  H   H542      1.0  0.54734  0.39956  0.98825  1.0000
  H   H543      1.0  0.53499  0.48665  0.88308  1.0000
  N   N15       1.0  0.49100  0.41658  0.27067  1.0000
  C   C326      1.0  0.48941  0.39810  0.24554  1.0000
  C   C327      1.0  0.48284  0.40966  0.31420  1.0000
  C   C328      1.0  0.47688  0.42368  0.24899  1.0000
  C   C329      1.0  0.51275  0.43442  0.27357  1.0000
  C   C330      1.0  0.53092  0.42897  0.27326  1.0000
  C   C331      1.0  0.49296  0.40119  0.19738  1.0000
  C   C332      1.0  0.47432  0.44113  0.27260  1.0000
  C   C333      1.0  0.49550  0.40257  0.34316  1.0000
  C   C334      1.0  0.48442  0.39402  0.38433  1.0000
  C   C335      1.0  0.55150  0.44784  0.28548  1.0000
  C   C336      1.0  0.49719  0.38448  0.17727  1.0000
  C   C337      1.0  0.46521  0.45144  0.24341  1.0000
  H   H544      1.0  0.47377  0.38473  0.24849  1.0000
  H   H545      1.0  0.50003  0.39255  0.25866  1.0000
  H   H546      1.0  0.48196  0.42223  0.33250  1.0000
  H   H547      1.0  0.46665  0.39700  0.31139  1.0000
  H   H548      1.0  0.46108  0.41042  0.24346  1.0000
  H   H549      1.0  0.48259  0.42947  0.21707  1.0000
  H   H550      1.0  0.51547  0.44502  0.24682  1.0000
  H   H551      1.0  0.51476  0.44420  0.30260  1.0000
  H   H552      1.0  0.53236  0.42345  0.24111  1.0000
  H   H553      1.0  0.52877  0.41668  0.29546  1.0000
  H   H554      1.0  0.47882  0.40013  0.18118  1.0000
  H   H555      1.0  0.50611  0.41651  0.19108  1.0000
  H   H556      1.0  0.48933  0.45335  0.28589  1.0000
  H   H557      1.0  0.46348  0.43454  0.29884  1.0000
  H   H558      1.0  0.49794  0.39022  0.32759  1.0000
  H   H559      1.0  0.51067  0.41596  0.35214  1.0000
  H   H560      1.0  0.46982  0.37954  0.37761  1.0000
  H   H561      1.0  0.49444  0.39041  0.40580  1.0000
  H   H562      1.0  0.48079  0.40544  0.40081  1.0000
  C   C338      1.0  0.33451  0.41543  0.96588  1.0000
  H   H563      1.0  0.56416  0.44353  0.28497  1.0000
  H   H564      1.0  0.55494  0.46045  0.26300  1.0000
  H   H565      1.0  0.48441  0.36886  0.18324  1.0000
  H   H566      1.0  0.49838  0.38640  0.14248  1.0000
  H   H567      1.0  0.51197  0.38568  0.19013  1.0000
  H   H568      1.0  0.47577  0.45909  0.21723  1.0000
  H   H569      1.0  0.44989  0.43982  0.23004  1.0000
  H   H570      1.0  0.46316  0.46339  0.26194  1.0000
  H   H571      1.0  0.50345  0.37302  0.97263  1.0000
  H   H572      1.0  0.42169  0.41987  0.12811  1.0000
  H   H573      1.0  0.38865  0.31475  0.11878  1.0000
  H   H574      1.0  0.42072  0.48445  0.16192  1.0000
  C   C339      1.0  0.59243  0.48249  0.81488  1.0000
  H   H575      1.0  0.53846  0.41682  0.96735  1.0000
  H   H576      1.0  0.38971  0.31149  0.17524  1.0000
  C   C340      1.0  0.39017  0.46685  0.93024  1.0000
  H   H577      1.0  0.57641  0.46685  0.19127  1.0000
  H   H578      1.0  0.39773  0.44867  0.00113  1.0000
  C   C341      1.0  0.36596  0.46171  0.41432  1.0000
  C   C342      1.0  0.46592  0.44093  0.66274  1.0000
  C   C343      1.0  0.58651  0.44374  0.20293  1.0000
  H   H579      1.0  0.48101  0.43690  0.45963  1.0000
  C   C344      1.0  0.44007  0.45327  0.67655  1.0000
  H   H580      1.0  0.40203  0.46170  0.93689  1.0000
  C   C345      1.0  0.40719  0.46839  0.24992  1.0000
  H   H581      1.0  0.60482  0.46363  0.99268  1.0000
  H   H582      1.0  0.39105  0.34578  0.18617  1.0000
  H   H583      1.0  0.34548  0.46523  0.96917  1.0000
  N   N16       1.0  0.36803  0.35540  0.16981  1.0000
  H   H584      1.0  0.36356  0.33696  0.63392  1.0000
  H   H585      1.0  0.40825  0.38250  0.13441  1.0000
  H   H586      1.0  0.37219  0.33473  0.24404  1.0000
  H   H587      1.0  0.59538  0.42552  0.27039  1.0000
  C   C346      1.0  0.41135  0.41199  0.15445  1.0000
  C   C347      1.0  0.39466  0.47644  0.88577  1.0000
  C   C348      1.0  0.33223  0.34580  0.65965  1.0000
  C   C349      1.0  0.35464  0.34744  0.20780  1.0000
  S   S91       1.0  0.32938  0.41721  0.02001  1.0000
  H   H588      1.0  0.39968  0.44766  0.68021  1.0000
  C   C350      1.0  0.34151  0.48613  0.92798  1.0000
  H   H589      1.0  0.52500  0.47612  0.58071  1.0000
  H   H590      1.0  0.52752  0.45388  0.49912  1.0000
  C   C351      1.0  0.35435  0.35354  0.13173  1.0000
  C   C352      1.0  0.43899  0.44806  0.53655  1.0000
  H   H591      1.0  0.34105  0.33215  0.20016  1.0000
  H   H592      1.0  0.32693  0.33958  0.59011  1.0000
  H   H593      1.0  0.54826  0.48891  0.64901  1.0000
  C   C353      1.0  0.33810  0.38144  0.66531  1.0000
  N   N17       1.0  0.60270  0.41889  0.20751  1.0000
  H   H594      1.0  0.35160  0.38444  0.68671  1.0000
  H   H595      1.0  0.35639  0.38469  0.13298  1.0000
  H   H596      1.0  0.35862  0.33586  0.31369  1.0000
  H   H597      1.0  0.42100  0.48327  0.24432  1.0000
  C   C354      1.0  0.51346  0.47688  0.36781  1.0000
  C   C355      1.0  0.38203  0.46803  0.00487  1.0000
  C   C356      1.0  0.34973  0.41967  0.67789  1.0000
  H   H598      1.0  0.49245  0.24520  0.16429  1.0000
  H   H599      1.0  0.63434  0.49212  0.27201  1.0000
  C   C357      1.0  0.44484  0.43692  0.93140  1.0000
  H   H600      1.0  0.45325  0.39005  0.83865  1.0000
  C   C358      1.0  0.32535  0.42142  0.93333  1.0000
  H   H601      1.0  0.38095  0.44683  0.85078  1.0000
  H   H602      1.0  0.46361  0.42617  0.96481  1.0000
  H   H603      1.0  0.34610  0.35084  0.68128  1.0000
  H   H604      1.0  0.48874  0.42202  0.83121  1.0000
  H   H605      1.0  0.56586  0.26111  0.02004  1.0000
  S   S92       1.0  0.63507  0.47999  0.06929  1.0000
  C   C359      1.0  0.34459  0.42082  0.28368  1.0000
  H   H606      1.0  0.52981  0.28905  0.08897  1.0000
  C   C360      1.0  0.63050  0.44878  0.31358  1.0000
  H   H607      1.0  0.34441  0.41747  0.31693  1.0000
  H   H608      1.0  0.45763  0.37095  0.77840  1.0000
  H   H609      1.0  0.44477  0.44496  0.90190  1.0000
  H   H610      1.0  0.50334  0.39554  0.99677  1.0000
  H   H611      1.0  0.50886  0.39962  0.91939  1.0000
  H   H612      1.0  0.64515  0.46316  0.32082  1.0000
  H   H613      1.0  0.33752  0.32173  0.27598  1.0000
  S   S93       1.0  0.53880  0.48053  0.36817  1.0000
  H   H614      1.0  0.34450  0.38477  0.63311  1.0000
  H   H615      1.0  0.42949  0.47154  0.63783  1.0000
  C   C361      1.0  0.44818  0.41862  0.66749  1.0000
  H   H616      1.0  0.36800  0.44902  0.35425  1.0000
  H   H617      1.0  0.34132  0.33755  0.12833  1.0000
  C   C362      1.0  0.57498  0.44255  0.92647  1.0000
  C   C363      1.0  0.54656  0.37310  0.22283  1.0000
  H   H618      1.0  0.54537  0.40137  0.93170  1.0000
  H   H619      1.0  0.57485  0.39862  0.16996  1.0000
  H   H620      1.0  0.57249  0.38951  0.26555  1.0000
  H   H621      1.0  0.37826  0.36073  0.26001  1.0000
  H   H622      1.0  0.62800  0.45755  0.25052  1.0000
  C   C364      1.0  0.47840  0.24928  0.10697  1.0000
  H   H623      1.0  0.53527  0.36901  0.24849  1.0000
  H   H624      1.0  0.53934  0.37548  0.19366  1.0000
  H   H625      1.0  0.54988  0.35994  0.21697  1.0000
  H   H626      1.0  0.35630  0.31255  0.18226  1.0000
  H   H627      1.0  0.50073  0.48659  0.62568  1.0000
  C   C365      1.0  0.37934  0.34309  0.16061  1.0000
  H   H628      1.0  0.47138  0.39836  0.77052  1.0000
  C   C366      1.0  0.41170  0.46274  0.69376  1.0000
  H   H629      1.0  0.58350  0.47982  0.89820  1.0000
  C   C367      1.0  0.34348  0.42827  0.19701  1.0000
  H   H630      1.0  0.56212  0.40514  0.24248  1.0000
  H   H631      1.0  0.34189  0.48642  0.27847  1.0000
  H   H632      1.0  0.37887  0.47694  0.03010  1.0000
  C   C368      1.0  0.57149  0.42769  0.96335  1.0000
  H   H633      1.0  0.51259  0.24573  0.06331  1.0000
  C   C369      1.0  0.58271  0.39878  0.20076  1.0000
  H   H634      1.0  0.46818  0.40705  0.69533  1.0000
  H   H635      1.0  0.57655  0.45278  0.84193  1.0000
  H   H636      1.0  0.44332  0.48463  0.68646  1.0000
  C   C370      1.0  0.61996  0.41590  0.18845  1.0000
  H   H637      1.0  0.63053  0.38886  0.14208  1.0000
  H   H638      1.0  0.60162  0.39745  0.13157  1.0000
  H   H639      1.0  0.58598  0.38537  0.19789  1.0000
  H   H640      1.0  0.33899  0.37455  0.75078  1.0000
  C   C371      1.0  0.37917  0.30879  0.14724  1.0000
  C   C372      1.0  0.39781  0.38916  0.14228  1.0000
  H   H641      1.0  0.61696  0.48697  0.96627  1.0000
  S   S94       1.0  0.53522  0.47795  0.77842  1.0000
  C   C373      1.0  0.45827  0.46054  0.60765  1.0000
  H   H642      1.0  0.59100  0.44956  0.23617  1.0000
  H   H643      1.0  0.38233  0.48021  0.87484  1.0000
  C   C374      1.0  0.56636  0.39274  0.23568  1.0000
  C   C375      1.0  0.55939  0.24800  0.04196  1.0000
  H   H644      1.0  0.36631  0.47120  0.28342  1.0000
  C   C376      1.0  0.34443  0.36826  0.13218  1.0000
  H   H645      1.0  0.35514  0.31580  0.12598  1.0000
  C   C377      1.0  0.53933  0.48275  0.56226  1.0000
  H   H646      1.0  0.38865  0.38837  0.11324  1.0000
  N   N18       1.0  0.45987  0.45777  0.65462  1.0000
  H   H647      1.0  0.43651  0.41380  0.64119  1.0000
  H   H648      1.0  0.41381  0.46144  0.72835  1.0000
  H   H649      1.0  0.39450  0.37855  0.20583  1.0000
  C   C378      1.0  0.63412  0.47070  0.90896  1.0000
  H   H650      1.0  0.59631  0.43149  0.15137  1.0000
  S   S95       1.0  0.32482  0.45327  0.20923  1.0000
  H   H651      1.0  0.48540  0.38452  0.78626  1.0000
  C   C379      1.0  0.48452  0.43289  0.49145  1.0000
  H   H652      1.0  0.49174  0.42257  0.48778  1.0000
  C   C380      1.0  0.46442  0.43442  0.93526  1.0000
  H   H653      1.0  0.50310  0.44040  0.94563  1.0000
  H   H654      1.0  0.47776  0.45017  0.93829  1.0000
  H   H655      1.0  0.48635  0.37578  0.90829  1.0000
  C   C381      1.0  0.59197  0.46653  0.84591  1.0000
  C   C382      1.0  0.50979  0.47303  0.78627  1.0000
  H   H656      1.0  0.64204  0.44296  0.25601  1.0000
  C   C383      1.0  0.60195  0.47276  0.96803  1.0000
  C   C384      1.0  0.49495  0.38223  0.97414  1.0000
  H   H657      1.0  0.38832  0.34845  0.13131  1.0000
  H   H658      1.0  0.61747  0.45116  0.32502  1.0000
  H   H659      1.0  0.34426  0.43133  0.68325  1.0000
  H   H660      1.0  0.53290  0.30150  0.03895  1.0000
  C   C385      1.0  0.35043  0.33724  0.28484  1.0000
  H   H661      1.0  0.44412  0.44619  0.95895  1.0000
  C   C386      1.0  0.51145  0.45462  0.88407  1.0000
  C   C387      1.0  0.49309  0.38960  0.93005  1.0000
  H   H662      1.0  0.60395  0.46213  0.83650  1.0000
  C   C388      1.0  0.44079  0.44223  0.58215  1.0000
  H   H663      1.0  0.53195  0.27079  0.00173  1.0000
  H   H664      1.0  0.47937  0.40661  0.96229  1.0000
  H   H665      1.0  0.44016  0.41760  0.69757  1.0000
  H   H666      1.0  0.37137  0.43332  0.05531  1.0000
  H   H667      1.0  0.59769  0.48846  0.47223  1.0000
  H   H668      1.0  0.61308  0.44470  0.94371  1.0000
  H   H669      1.0  0.43436  0.46051  0.53601  1.0000
  H   H670      1.0  0.37614  0.38665  0.19105  1.0000
  H   H671      1.0  0.51662  0.45121  0.85350  1.0000
  H   H672      1.0  0.40151  0.41956  0.16050  1.0000
  H   H673      1.0  0.63497  0.43031  0.19178  1.0000
  H   H674      1.0  0.47623  0.44053  0.63763  1.0000
  H   H675      1.0  0.49902  0.45890  0.87738  1.0000
  C   C389      1.0  0.35287  0.41217  0.25486  1.0000
  C   C390      1.0  0.45648  0.40296  0.66901  1.0000
  C   C391      1.0  0.46641  0.42243  0.89606  1.0000
  H   H676      1.0  0.44417  0.42896  0.58040  1.0000
  H   H677      1.0  0.51695  0.43159  0.91369  1.0000
  H   H678      1.0  0.41147  0.47183  0.03380  1.0000
  H   H679      1.0  0.36675  0.45446  0.99733  1.0000
  H   H680      1.0  0.53617  0.25790  0.09262  1.0000
  H   H681      1.0  0.41842  0.45259  0.20708  1.0000
  H   H682      1.0  0.45132  0.40814  0.89202  1.0000
  C   C392      1.0  0.47904  0.40034  0.92973  1.0000
  N   N19       1.0  0.48403  0.41707  0.89806  1.0000
  H   H683      1.0  0.46287  0.38789  0.92469  1.0000
  H   H684      1.0  0.47938  0.37226  0.98626  1.0000
  H   H685      1.0  0.46726  0.43150  0.86754  1.0000
  H   H686      1.0  0.42557  0.43733  0.59637  1.0000
  C   C393      1.0  0.61178  0.45365  0.91672  1.0000
  H   H687      1.0  0.49083  0.46211  0.51983  1.0000
  H   H688      1.0  0.60654  0.44255  0.88902  1.0000
  H   H689      1.0  0.44352  0.38735  0.67441  1.0000
  H   H690      1.0  0.35612  0.33226  0.57850  1.0000
  C   C394      1.0  0.33523  0.43697  0.22585  1.0000
  H   H691      1.0  0.63103  0.43592  0.33078  1.0000
  H   H692      1.0  0.57424  0.43581  0.99462  1.0000
  C   C395      1.0  0.61729  0.41008  0.14030  1.0000
  H   H693      1.0  0.46352  0.40237  0.63852  1.0000
  C   C396      1.0  0.39573  0.46144  0.85282  1.0000
  H   H694      1.0  0.36921  0.29187  0.14239  1.0000
  H   H695      1.0  0.50079  0.40815  0.85322  1.0000
  C   C397      1.0  0.64829  0.46116  0.89916  1.0000
  H   H696      1.0  0.54301  0.47020  0.91093  1.0000
  H   H697      1.0  0.50960  0.27811  0.04797  1.0000
  C   C398      1.0  0.33574  0.43310  0.26919  1.0000
  C   C399      1.0  0.38381  0.37758  0.17931  1.0000
  C   C400      1.0  0.56903  0.48554  0.49722  1.0000
  H   H698      1.0  0.32910  0.43951  0.29160  1.0000
  H   H699      1.0  0.59248  0.47819  0.05227  1.0000
  H   H700      1.0  0.57610  0.48895  0.52975  1.0000
  H   H701      1.0  0.37523  0.45227  0.92776  1.0000
  C   C401      1.0  0.52024  0.46422  0.49717  1.0000
  C   C402      1.0  0.47674  0.47785  0.67386  1.0000
  H   H702      1.0  0.58069  0.48754  0.82271  1.0000
  C   C403      1.0  0.52964  0.25321  0.05971  1.0000
  H   H703      1.0  0.56267  0.44743  0.92669  1.0000
  N   N20       1.0  0.59613  0.46109  0.92583  1.0000
  H   H704      1.0  0.46689  0.37626  0.85430  1.0000
  H   H705      1.0  0.39893  0.43576  0.24212  1.0000
  C   C404      1.0  0.39591  0.45928  0.02424  1.0000
  H   H706      1.0  0.56102  0.46856  0.49149  1.0000
  H   H707      1.0  0.36295  0.35588  0.10191  1.0000
  H   H708      1.0  0.38530  0.45259  0.29711  1.0000
  H   H709      1.0  0.38388  0.45677  0.08789  1.0000
  C   C405      1.0  0.59583  0.47534  0.89223  1.0000
  H   H710      1.0  0.57038  0.43110  0.20102  1.0000
  H   H711      1.0  0.58188  0.42052  0.96104  1.0000
  H   H712      1.0  0.60923  0.41105  0.26964  1.0000
  H   H713      1.0  0.58572  0.49160  0.96412  1.0000
  C   C406      1.0  0.41273  0.45111  0.23979  1.0000
  H   H714      1.0  0.64908  0.41555  0.13353  1.0000
  H   H715      1.0  0.58894  0.47568  0.78211  1.0000
  H   H716      1.0  0.42711  0.43822  0.66545  1.0000
  H   H717      1.0  0.47524  0.44434  0.69291  1.0000
  C   C407      1.0  0.38641  0.44702  0.06372  1.0000
  C   C408      1.0  0.40003  0.46721  0.29612  1.0000
  H   H718      1.0  0.42504  0.45202  0.26228  1.0000
  C   C409      1.0  0.60137  0.43619  0.18484  1.0000
  H   H719      1.0  0.39692  0.44150  0.07775  1.0000
  H   H720      1.0  0.54537  0.47134  0.56438  1.0000
  C   C410      1.0  0.58640  0.47987  0.98493  1.0000
  H   H721      1.0  0.47282  0.46327  0.59229  1.0000
  H   H722      1.0  0.55109  0.45359  0.31808  1.0000
  C   C411      1.0  0.36963  0.46394  0.36677  1.0000
  C   C412      1.0  0.48854  0.48936  0.35443  1.0000
  N   N21       1.0  0.39008  0.48078  0.96609  1.0000
  H   H723      1.0  0.46965  0.42435  0.50765  1.0000
  H   H724      1.0  0.61049  0.49014  0.89373  1.0000
  H   H725      1.0  0.60282  0.47475  0.17817  1.0000
  H   H726      1.0  0.61693  0.44972  0.18290  1.0000
  C   C413      1.0  0.48520  0.48424  0.80972  1.0000
  H   H727      1.0  0.58197  0.45644  0.14388  1.0000
  C   C414      1.0  0.33988  0.34555  0.61408  1.0000
  H   H728      1.0  0.39861  0.46843  0.82114  1.0000
  C   C415      1.0  0.62814  0.44415  0.26578  1.0000
  H   H729      1.0  0.41097  0.46481  0.31747  1.0000
  C   C416      1.0  0.59293  0.48975  0.02945  1.0000
  C   C417      1.0  0.49919  0.48417  0.66024  1.0000
  N   N22       1.0  0.53452  0.48527  0.51673  1.0000
  H   H730      1.0  0.40623  0.47443  0.68931  1.0000
  C   C418      1.0  0.35024  0.33166  0.61089  1.0000
  H   H731      1.0  0.63127  0.40005  0.09135  1.0000
  C   C419      1.0  0.43218  0.46949  0.67171  1.0000
  H   H732      1.0  0.39457  0.46653  0.22719  1.0000
  H   H733      1.0  0.35032  0.44876  0.41952  1.0000
  H   H734      1.0  0.61994  0.42382  0.12190  1.0000
  S   S96       1.0  0.65126  0.48881  0.19254  1.0000
  H   H735      1.0  0.64080  0.48104  0.93743  1.0000
  C   C420      1.0  0.60796  0.42401  0.25422  1.0000
  Fe  Fe43      1.0  0.33222  0.48477  0.06590  1.0000
  C   C421      1.0  0.35354  0.47483  0.94208  1.0000
  C   C422      1.0  0.32704  0.35810  0.74845  1.0000
  C   C423      1.0  0.53647  0.27364  0.03589  1.0000
  H   H736      1.0  0.35268  0.46441  0.91534  1.0000
  H   H737      1.0  0.50100  0.48554  0.46365  1.0000
  H   H738      1.0  0.35718  0.46658  0.35209  1.0000
  C   C424      1.0  0.52661  0.28630  0.05421  1.0000
  H   H739      1.0  0.62211  0.40386  0.20577  1.0000
  C   C425      1.0  0.52984  0.47348  0.90476  1.0000
  H   H740      1.0  0.35131  0.36123  0.60503  1.0000
  H   H741      1.0  0.59808  0.25807  0.00869  1.0000
  H   H742      1.0  0.33902  0.31539  0.61714  1.0000
  H   H743      1.0  0.34304  0.43101  0.16352  1.0000
  H   H744      1.0  0.52532  0.47807  0.93495  1.0000
  H   H745      1.0  0.45670  0.47470  0.60187  1.0000
  H   H746      1.0  0.63459  0.48024  0.88173  1.0000
  H   H747      1.0  0.50400  0.47233  0.66849  1.0000
  N   N23       1.0  0.39715  0.48522  0.31221  1.0000
  H   H748      1.0  0.56577  0.25512  0.07394  1.0000
  H   H749      1.0  0.59833  0.25184  0.06395  1.0000
  H   H750      1.0  0.57088  0.49008  0.62406  1.0000
  H   H751      1.0  0.33464  0.36570  0.16010  1.0000
  C   C426      1.0  0.63305  0.40322  0.12619  1.0000
  C   C427      1.0  0.50568  0.48830  0.80404  1.0000
  H   H752      1.0  0.43704  0.48236  0.12164  1.0000
  C   C428      1.0  0.32905  0.41861  0.89058  1.0000
  C   C429      1.0  0.50901  0.49263  0.35528  1.0000
  H   H753      1.0  0.58052  0.49060  0.43316  1.0000
  H   H754      1.0  0.37756  0.45820  0.43045  1.0000
  H   H755      1.0  0.47384  0.49102  0.66586  1.0000
  H   H756      1.0  0.40968  0.49074  0.88594  1.0000
  H   H757      1.0  0.42300  0.49154  0.97640  1.0000
  H   H758      1.0  0.32522  0.47468  0.91975  1.0000
  C   C430      1.0  0.37624  0.49030  0.95530  1.0000
  H   H759      1.0  0.64298  0.45154  0.86938  1.0000
  H   H760      1.0  0.64854  0.45143  0.92556  1.0000
  H   H761      1.0  0.40265  0.47848  0.37631  1.0000
  H   H762      1.0  0.32343  0.39554  0.70600  1.0000
  H   H763      1.0  0.32405  0.37567  0.09337  1.0000
  H   H764      1.0  0.34002  0.36782  0.06342  1.0000
  H   H765      1.0  0.32655  0.35617  0.81701  1.0000
  H   H766      1.0  0.38524  0.48964  0.25201  1.0000
  C   C431      1.0  0.38044  0.48639  0.28541  1.0000
  C   C432      1.0  0.39141  0.48186  0.35817  1.0000
  H   H767      1.0  0.36685  0.47609  0.42867  1.0000
  N   N24       1.0  0.32175  0.35915  0.66707  1.0000
  H   H768      1.0  0.53752  0.24562  0.97400  1.0000
  H   H769      1.0  0.32155  0.42285  0.86556  1.0000
  C   C433      1.0  0.59243  0.24534  0.03146  1.0000
  H   H770      1.0  0.32161  0.32945  0.66727  1.0000
  C   C434      1.0  0.33078  0.36482  0.09239  1.0000
  C   C435      1.0  0.42917  0.49130  0.13277  1.0000
  H   H771      1.0  0.54992  0.49360  0.45692  1.0000
  Fe  Fe44      1.0  0.57650  0.54961  0.72778  1.0000
  S   S97       1.0  0.54825  0.53715  0.76829  1.0000
  S   S98       1.0  0.56899  0.55657  0.66053  1.0000
  Fe  Fe45      1.0  0.60198  0.54169  0.79788  1.0000
  S   S99       1.0  0.57536  0.52810  0.84091  1.0000
  S   S100      1.0  0.63207  0.54135  0.81623  1.0000
  Fe  Fe46      1.0  0.55666  0.51206  0.78237  1.0000
  H   H772      1.0  0.56298  0.51179  0.49837  1.0000
  Fe  Fe47      1.0  0.56961  0.55477  0.82358  1.0000
  S   S101      1.0  0.56569  0.57028  0.88398  1.0000
  S   S102      1.0  0.58356  0.52340  0.73993  1.0000
  S   S103      1.0  0.59760  0.56947  0.78262  1.0000
  Fe  Fe48      1.0  0.59102  0.55103  0.41096  1.0000
  S   S104      1.0  0.55688  0.53798  0.39943  1.0000
  S   S105      1.0  0.60621  0.55850  0.47773  1.0000
  Fe  Fe49      1.0  0.59800  0.54503  0.31593  1.0000
  S   S106      1.0  0.56403  0.53078  0.29873  1.0000
  S   S107      1.0  0.61960  0.55101  0.26123  1.0000
  Fe  Fe50      1.0  0.56431  0.55628  0.33969  1.0000
  S   S108      1.0  0.54643  0.57366  0.32221  1.0000
  Fe  Fe51      1.0  0.56006  0.51409  0.35933  1.0000
  C   C436      1.0  0.63986  0.59371  0.89090  1.0000
  S   S109      1.0  0.59860  0.57167  0.35434  1.0000
  S   S110      1.0  0.59388  0.52604  0.37335  1.0000
  Fe  Fe52      1.0  0.50141  0.61045  0.01545  1.0000
  S   S111      1.0  0.52722  0.63543  0.05484  1.0000
  S   S112      1.0  0.50421  0.60428  0.94537  1.0000
  Fe  Fe53      1.0  0.47239  0.59679  0.08981  1.0000
  S   S113      1.0  0.49633  0.62116  0.13437  1.0000
  S   S114      1.0  0.44403  0.57121  0.11917  1.0000
  Fe  Fe54      1.0  0.50274  0.64308  0.08002  1.0000
  S   S115      1.0  0.51142  0.67767  0.09165  1.0000
  Fe  Fe55      1.0  0.51868  0.61180  0.10554  1.0000
  S   S116      1.0  0.54263  0.60355  0.13492  1.0000
  S   S117      1.0  0.47711  0.61909  0.03770  1.0000
  S   S118      1.0  0.49450  0.58645  0.06395  1.0000
  S   S119      1.0  0.35339  0.51602  0.03942  1.0000
  C   C437      1.0  0.63619  0.57987  0.05212  1.0000
  C   C438      1.0  0.41678  0.50540  0.30952  1.0000
  H   H773      1.0  0.48999  0.52046  0.11929  1.0000
  H   H774      1.0  0.61066  0.53559  0.89556  1.0000
  C   C439      1.0  0.41919  0.55589  0.09534  1.0000
  C   C440      1.0  0.40518  0.53822  0.11612  1.0000
  C   C441      1.0  0.38513  0.52567  0.09886  1.0000
  C   C442      1.0  0.37875  0.53096  0.06108  1.0000
  C   C443      1.0  0.39274  0.54863  0.04023  1.0000
  C   C444      1.0  0.41299  0.56094  0.05703  1.0000
  H   H775      1.0  0.40974  0.53436  0.14603  1.0000
  H   H776      1.0  0.37444  0.51219  0.11532  1.0000
  H   H777      1.0  0.38790  0.55281  0.01097  1.0000
  H   H778      1.0  0.42364  0.57454  0.04083  1.0000
  C   C445      1.0  0.59376  0.58883  0.04635  1.0000
  C   C446      1.0  0.51833  0.71835  0.09533  1.0000
  C   C447      1.0  0.50691  0.69870  0.07515  1.0000
  C   C448      1.0  0.49254  0.69655  0.04278  1.0000
  H   H779      1.0  0.52947  0.72034  0.12044  1.0000
  H   H780      1.0  0.48345  0.68163  0.02704  1.0000
  H   H781      1.0  0.60582  0.59275  0.07183  1.0000
  C   C449      1.0  0.54600  0.58231  0.27017  1.0000
  C   C450      1.0  0.53524  0.59360  0.26193  1.0000
  C   C451      1.0  0.53404  0.60021  0.22074  1.0000
  C   C452      1.0  0.54356  0.59553  0.18730  1.0000
  C   C453      1.0  0.55452  0.58444  0.19564  1.0000
  C   C454      1.0  0.55574  0.57784  0.23680  1.0000
  H   H782      1.0  0.52786  0.59735  0.28758  1.0000
  H   H783      1.0  0.52604  0.60922  0.21500  1.0000
  H   H784      1.0  0.56219  0.58097  0.17011  1.0000
  H   H785      1.0  0.56425  0.56933  0.24270  1.0000
  C   C455      1.0  0.62682  0.53256  0.24166  1.0000
  C   C456      1.0  0.62654  0.51700  0.26709  1.0000
  C   C457      1.0  0.64488  0.61472  0.44313  1.0000
  C   C458      1.0  0.44883  0.72814  0.13184  1.0000
  C   C459      1.0  0.50687  0.66718  0.95780  1.0000
  C   C460      1.0  0.63405  0.53424  0.20026  1.0000
  H   H786      1.0  0.62118  0.51571  0.29912  1.0000
  H   H787      1.0  0.57325  0.53720  0.02928  1.0000
  H   H788      1.0  0.43576  0.52213  0.14965  1.0000
  C   C461      1.0  0.57903  0.55552  0.61004  1.0000
  C   C462      1.0  0.56746  0.55467  0.57305  1.0000
  C   C463      1.0  0.57511  0.55465  0.53232  1.0000
  C   C464      1.0  0.59476  0.55611  0.52803  1.0000
  C   C465      1.0  0.60628  0.55687  0.56493  1.0000
  C   C466      1.0  0.59839  0.55631  0.60565  1.0000
  H   H789      1.0  0.55251  0.55417  0.57603  1.0000
  H   H790      1.0  0.56603  0.55403  0.50433  1.0000
  H   H791      1.0  0.62153  0.55807  0.56209  1.0000
  H   H792      1.0  0.60754  0.55708  0.63366  1.0000
  H   H793      1.0  0.63567  0.59665  0.85863  1.0000
  C   C467      1.0  0.62546  0.57865  0.96201  1.0000
  H   H794      1.0  0.55782  0.72661  0.05188  1.0000
  C   C468      1.0  0.54720  0.57818  0.89981  1.0000
  C   C469      1.0  0.53467  0.58187  0.87075  1.0000
  C   C470      1.0  0.52138  0.58963  0.88513  1.0000
  C   C471      1.0  0.52036  0.59360  0.92861  1.0000
  C   C472      1.0  0.53258  0.58951  0.95766  1.0000
  C   C473      1.0  0.54593  0.58191  0.94326  1.0000
  H   H795      1.0  0.53552  0.57915  0.83721  1.0000
  H   H796      1.0  0.51196  0.59271  0.86242  1.0000
  H   H797      1.0  0.53194  0.59246  0.99119  1.0000
  H   H798      1.0  0.55535  0.57890  0.96595  1.0000
  C   C474      1.0  0.63654  0.53435  0.86737  1.0000
  C   C475      1.0  0.62384  0.53296  0.90097  1.0000
  H   H799      1.0  0.52129  0.50725  0.34579  1.0000
  H   H800      1.0  0.46731  0.50615  0.16759  1.0000
  H   H801      1.0  0.56283  0.55208  0.00206  1.0000
  H   H802      1.0  0.57344  0.60158  0.02568  1.0000
  H   H803      1.0  0.36156  0.70417  0.03307  1.0000
  C   C476      1.0  0.61501  0.56404  0.03173  1.0000
  H   H804      1.0  0.59449  0.54089  0.96165  1.0000
  H   H805      1.0  0.46913  0.52707  0.34151  1.0000
  C   C477      1.0  0.48173  0.57340  0.21688  1.0000
  C   C478      1.0  0.46935  0.58373  0.23425  1.0000
  H   H806      1.0  0.53536  0.69342  0.80251  1.0000
  H   H807      1.0  0.49079  0.58279  0.19039  1.0000
  H   H808      1.0  0.49250  0.57399  0.24267  1.0000
  H   H809      1.0  0.45853  0.58405  0.20937  1.0000
  H   H810      1.0  0.46045  0.57543  0.26195  1.0000
  H   H811      1.0  0.48013  0.59994  0.24448  1.0000
  H   H812      1.0  0.59524  0.51183  0.47070  1.0000
  C   C479      1.0  0.46081  0.51658  0.17676  1.0000
  H   H813      1.0  0.64754  0.68730  0.44245  1.0000
  H   H814      1.0  0.50994  0.68191  0.94328  1.0000
  H   H815      1.0  0.63649  0.64898  0.42929  1.0000
  H   H816      1.0  0.59175  0.58851  0.97733  1.0000
  H   H817      1.0  0.45211  0.51001  0.20597  1.0000
  H   H818      1.0  0.55914  0.71806  0.97630  1.0000
  C   C480      1.0  0.41540  0.51250  0.01301  1.0000
  H   H819      1.0  0.45201  0.73874  0.15982  1.0000
  C   C481      1.0  0.60611  0.61433  0.58632  1.0000
  C   C482      1.0  0.55986  0.65038  0.95995  1.0000
  H   H820      1.0  0.64032  0.58630  0.41036  1.0000
  H   H821      1.0  0.51819  0.53867  0.07042  1.0000
  H   H822      1.0  0.53970  0.51485  0.99289  1.0000
  C   C483      1.0  0.49533  0.51928  0.22664  1.0000
  H   H823      1.0  0.54478  0.63788  0.96928  1.0000
  H   H824      1.0  0.53971  0.70071  0.91938  1.0000
  H   H825      1.0  0.61225  0.65806  0.49794  1.0000
  C   C484      1.0  0.56163  0.49835  0.62923  1.0000
  H   H826      1.0  0.61636  0.54981  0.02394  1.0000
  H   H827      1.0  0.41020  0.50390  0.04258  1.0000
  H   H828      1.0  0.47362  0.65601  0.95758  1.0000
  H   H829      1.0  0.35904  0.50231  0.23857  1.0000
  C   C485      1.0  0.53869  0.68263  0.86434  1.0000
  C   C486      1.0  0.44478  0.51403  0.14099  1.0000
  C   C487      1.0  0.62881  0.52915  0.94205  1.0000
  H   H830      1.0  0.60061  0.62135  0.61122  1.0000
  H   H831      1.0  0.45755  0.53449  0.29871  1.0000
  H   H832      1.0  0.45247  0.52011  0.11077  1.0000
  H   H833      1.0  0.56004  0.51099  0.96967  1.0000
  C   C488      1.0  0.62040  0.58359  0.91692  1.0000
  C   C489      1.0  0.52256  0.65942  0.94583  1.0000
  C   C490      1.0  0.63848  0.68335  0.47176  1.0000
  N   N25       1.0  0.60801  0.57109  0.99283  1.0000
  H   H834      1.0  0.62761  0.57317  0.11809  1.0000
  H   H835      1.0  0.53626  0.51541  0.52511  1.0000
  C   C491      1.0  0.51456  0.50445  0.68265  1.0000
  H   H836      1.0  0.54926  0.65463  0.89890  1.0000
  H   H837      1.0  0.41693  0.50814  0.94624  1.0000
  H   H838      1.0  0.44049  0.53816  0.04787  1.0000
  H   H839      1.0  0.60956  0.56924  0.89899  1.0000
  H   H840      1.0  0.48105  0.73445  0.13143  1.0000
  H   H841      1.0  0.59917  0.62076  0.04325  1.0000
  H   H842      1.0  0.52116  0.64826  0.97039  1.0000
  C   C492      1.0  0.55406  0.68618  0.98488  1.0000
  H   H843      1.0  0.46299  0.70991  0.10637  1.0000
  C   C493      1.0  0.58668  0.49472  0.46638  1.0000
  H   H844      1.0  0.50732  0.66934  0.99283  1.0000
  C   C494      1.0  0.48481  0.65144  0.94384  1.0000
  H   H845      1.0  0.39792  0.72416  0.01516  1.0000
  H   H846      1.0  0.41468  0.71140  0.06470  1.0000
  C   C495      1.0  0.58630  0.60516  0.04907  1.0000
  H   H847      1.0  0.64702  0.58330  0.88757  1.0000
  H   H848      1.0  0.60883  0.50295  0.02980  1.0000
  H   H849      1.0  0.64359  0.65020  0.48373  1.0000
  C   C496      1.0  0.50998  0.54669  0.08452  1.0000
  H   H850      1.0  0.58063  0.57379  0.05379  1.0000
  H   H851      1.0  0.51824  0.50318  0.81380  1.0000
  H   H852      1.0  0.48111  0.63578  0.95456  1.0000
  H   H853      1.0  0.53295  0.70820  0.84635  1.0000
  H   H854      1.0  0.35226  0.51409  0.28203  1.0000
  C   C497      1.0  0.46540  0.72098  0.13314  1.0000
  H   H855      1.0  0.54689  0.67458  0.85040  1.0000
  H   H856      1.0  0.51247  0.49500  0.53959  1.0000
  H   H857      1.0  0.50760  0.55244  0.22020  1.0000
  C   C498      1.0  0.55691  0.66463  0.92761  1.0000
  H   H858      1.0  0.41962  0.51037  0.27613  1.0000
  H   H859      1.0  0.41509  0.51797  0.32654  1.0000
  H   H860      1.0  0.52130  0.56327  0.08967  1.0000
  C   C499      1.0  0.50842  0.51738  0.47235  1.0000
  H   H861      1.0  0.61335  0.59412  0.91858  1.0000
  C   C500      1.0  0.45485  0.52755  0.33031  1.0000
  H   H862      1.0  0.49940  0.51452  0.19627  1.0000
  C   C501      1.0  0.50113  0.73335  0.05129  1.0000
  H   H863      1.0  0.64658  0.60875  0.47423  1.0000
  H   H864      1.0  0.38295  0.50168  0.92987  1.0000
  C   C502      1.0  0.39410  0.72381  0.04906  1.0000
  H   H865      1.0  0.48638  0.54061  0.25365  1.0000
  H   H866      1.0  0.51369  0.50867  0.26374  1.0000
  C   C503      1.0  0.64101  0.52055  0.18439  1.0000
  H   H867      1.0  0.51694  0.64967  0.91614  1.0000
  C   C504      1.0  0.55439  0.50294  0.58689  1.0000
  C   C505      1.0  0.50076  0.53698  0.12645  1.0000
  H   H868      1.0  0.51375  0.53831  0.14739  1.0000
  C   C506      1.0  0.49209  0.53868  0.22228  1.0000
  C   C507      1.0  0.48981  0.54824  0.14785  1.0000
  H   H869      1.0  0.48298  0.65078  0.90874  1.0000
  H   H870      1.0  0.36860  0.70355  0.08786  1.0000
  C   C508      1.0  0.43833  0.52798  0.01963  1.0000
  H   H871      1.0  0.59514  0.59758  0.58353  1.0000
  N   N26       1.0  0.61515  0.62277  0.46482  1.0000
  C   C509      1.0  0.59356  0.61803  0.44980  1.0000
  C   C510      1.0  0.62997  0.64561  0.46157  1.0000
  C   C511      1.0  0.62234  0.61107  0.43539  1.0000
  C   C512      1.0  0.61557  0.61570  0.50926  1.0000
  C   C513      1.0  0.60709  0.62457  0.54409  1.0000
  C   C514      1.0  0.57668  0.59512  0.45156  1.0000
  H   H872      1.0  0.62161  0.61637  0.59650  1.0000
  C   C515      1.0  0.62117  0.66104  0.46873  1.0000
  H   H873      1.0  0.57775  0.71919  0.04272  1.0000
  C   C516      1.0  0.55546  0.59262  0.43770  1.0000
  H   H874      1.0  0.59386  0.62288  0.41641  1.0000
  H   H875      1.0  0.58769  0.62708  0.46839  1.0000
  H   H876      1.0  0.37004  0.50186  0.33314  1.0000
  C   C517      1.0  0.64632  0.52643  0.94997  1.0000
  H   H877      1.0  0.62070  0.61468  0.40177  1.0000
  H   H878      1.0  0.61247  0.59420  0.43770  1.0000
  H   H879      1.0  0.60721  0.59854  0.51002  1.0000
  H   H880      1.0  0.63168  0.61993  0.51994  1.0000
  H   H881      1.0  0.59126  0.62205  0.53583  1.0000
  H   H882      1.0  0.43054  0.72950  0.00032  1.0000
  H   H883      1.0  0.58001  0.58499  0.43001  1.0000
  H   H884      1.0  0.57540  0.58947  0.48422  1.0000
  H   H885      1.0  0.65128  0.60867  0.90601  1.0000
  H   H886      1.0  0.48507  0.50149  0.34441  1.0000
  H   H887      1.0  0.61070  0.65980  0.44150  1.0000
  H   H888      1.0  0.40556  0.71894  0.10975  1.0000
  H   H889      1.0  0.48093  0.50614  0.23763  1.0000
  H   H890      1.0  0.47848  0.71169  0.00611  1.0000
  C   C518      1.0  0.58977  0.55267  0.97196  1.0000
  H   H891      1.0  0.55588  0.59830  0.40515  1.0000
  H   H892      1.0  0.54386  0.57600  0.43742  1.0000
  H   H893      1.0  0.55046  0.60126  0.45989  1.0000
  H   H894      1.0  0.56852  0.65916  0.98907  1.0000
  H   H895      1.0  0.37551  0.69023  0.04723  1.0000
  H   H896      1.0  0.64660  0.52206  0.15250  1.0000
  H   H897      1.0  0.49760  0.54531  0.06165  1.0000
  H   H898      1.0  0.57383  0.63001  0.96462  1.0000
  C   C519      1.0  0.60274  0.58843  0.00227  1.0000
  H   H899      1.0  0.47982  0.55057  0.12375  1.0000
  H   H900      1.0  0.46471  0.71313  0.16327  1.0000
  C   C520      1.0  0.48972  0.71371  0.03101  1.0000
  H   H901      1.0  0.43356  0.71438  0.13512  1.0000
  H   H902      1.0  0.63749  0.59558  0.05466  1.0000
  H   H903      1.0  0.44406  0.53790  0.99171  1.0000
  H   H904      1.0  0.52768  0.53510  0.24822  1.0000
  C   C521      1.0  0.44951  0.73939  0.09021  1.0000
  H   H905      1.0  0.34845  0.49531  0.89964  1.0000
  H   H906      1.0  0.58760  0.65192  0.93189  1.0000
  C   C522      1.0  0.57002  0.54179  0.99791  1.0000
  H   H907      1.0  0.53466  0.70140  0.99870  1.0000
  N   N27       1.0  0.47771  0.53835  0.18653  1.0000
  H   H908      1.0  0.57267  0.67614  0.91813  1.0000
  H   H909      1.0  0.63439  0.54630  0.18050  1.0000
  N   N28       1.0  0.54484  0.67555  0.94233  1.0000
  H   H910      1.0  0.51108  0.51722  0.67442  1.0000
  H   H911      1.0  0.55817  0.71126  0.83275  1.0000
  H   H912      1.0  0.45172  0.53748  0.35297  1.0000
  C   C523      1.0  0.57199  0.64011  0.94092  1.0000
  C   C524      1.0  0.54151  0.70001  0.83482  1.0000
  H   H913      1.0  0.60334  0.55936  0.05663  1.0000
  C   C525      1.0  0.41178  0.72405  0.07775  1.0000
  H   H914      1.0  0.50229  0.56411  0.15601  1.0000
  H   H915      1.0  0.45764  0.55216  0.17506  1.0000
  C   C526      1.0  0.63949  0.57348  0.09631  1.0000
  H   H916      1.0  0.54976  0.52606  0.94281  1.0000
  H   H917      1.0  0.61938  0.52882  0.96812  1.0000
  H   H918      1.0  0.39139  0.73723  0.05551  1.0000
  H   H919      1.0  0.55384  0.70137  0.06618  1.0000
  C   C527      1.0  0.54729  0.69132  0.90976  1.0000
  C   C528      1.0  0.55117  0.70520  0.99821  1.0000
  H   H920      1.0  0.52189  0.67170  0.86449  1.0000
  C   C529      1.0  0.46726  0.55085  0.20112  1.0000
  H   H921      1.0  0.38735  0.51885  0.29510  1.0000
  H   H922      1.0  0.54796  0.67490  0.01066  1.0000
  H   H923      1.0  0.57115  0.69203  0.98578  1.0000
  H   H924      1.0  0.58451  0.55716  0.94274  1.0000
  H   H925      1.0  0.57159  0.51315  0.64679  1.0000
  H   H926      1.0  0.50137  0.51751  0.44089  1.0000
  H   H927      1.0  0.34145  0.49657  0.95389  1.0000
  C   C530      1.0  0.52462  0.49932  0.51559  1.0000
  H   H928      1.0  0.61669  0.60377  0.00019  1.0000
  H   H929      1.0  0.56354  0.63033  0.91253  1.0000
  H   H930      1.0  0.44770  0.51984  0.02492  1.0000
  C   C531      1.0  0.56076  0.71354  0.04243  1.0000
  C   C532      1.0  0.43674  0.50566  0.32802  1.0000
  H   H931      1.0  0.40685  0.52147  0.00830  1.0000
  H   H932      1.0  0.56399  0.70266  0.90757  1.0000
  H   H933      1.0  0.56837  0.51243  0.56887  1.0000
  H   H934      1.0  0.58050  0.60544  0.08124  1.0000
  H   H935      1.0  0.45643  0.54286  0.22679  1.0000
  H   H936      1.0  0.45050  0.72956  0.06392  1.0000
  C   C533      1.0  0.37432  0.50318  0.29945  1.0000
  C   C534      1.0  0.51258  0.52314  0.25928  1.0000
  C   C535      1.0  0.51552  0.73550  0.08356  1.0000
  H   H937      1.0  0.61759  0.64133  0.54939  1.0000
  H   H938      1.0  0.50951  0.52838  0.29037  1.0000
  C   C536      1.0  0.55394  0.52221  0.97428  1.0000
  C   C537      1.0  0.64136  0.50543  0.21030  1.0000
  H   H939      1.0  0.54641  0.51233  0.59373  1.0000
  H   H940      1.0  0.53056  0.50879  0.67305  1.0000
  C   C538      1.0  0.37373  0.70420  0.05478  1.0000
  H   H941      1.0  0.43455  0.49976  0.36057  1.0000
  H   H942      1.0  0.49683  0.51461  0.49692  1.0000
  H   H943      1.0  0.52208  0.53275  0.47853  1.0000
  H   H944      1.0  0.37531  0.49942  0.98304  1.0000
  C   C539      1.0  0.51495  0.50037  0.47202  1.0000
  H   H945      1.0  0.63134  0.56720  0.95809  1.0000
  H   H946      1.0  0.63891  0.59304  0.97481  1.0000
  H   H947      1.0  0.58216  0.49560  0.03997  1.0000
  C   C540      1.0  0.35578  0.50136  0.27293  1.0000
  H   H948      1.0  0.52609  0.50360  0.44649  1.0000
  C   C541      1.0  0.41188  0.49793  0.97387  1.0000
  H   H949      1.0  0.48203  0.49616  0.82313  1.0000
  H   H950      1.0  0.64947  0.60859  0.37718  1.0000
  H   H951      1.0  0.51399  0.50275  0.71752  1.0000
  H   H952      1.0  0.39260  0.49620  0.37362  1.0000
  H   H953      1.0  0.63873  0.55795  0.09467  1.0000
  H   H954      1.0  0.63170  0.69405  0.47568  1.0000
  H   H955      1.0  0.64902  0.68567  0.49955  1.0000
  H   H956      1.0  0.64896  0.58068  0.03240  1.0000
  H   H957      1.0  0.60799  0.49616  0.81562  1.0000
  H   H958      1.0  0.44130  0.49597  0.30782  1.0000
  C   C542      1.0  0.65066  0.60323  0.40933  1.0000
  C   C543      1.0  0.63403  0.50366  0.25162  1.0000
  C   C544      1.0  0.55395  0.49484  0.49139  1.0000
  S   S120      1.0  0.65413  0.52607  0.00327  1.0000
  C   C545      1.0  0.65363  0.53080  0.87495  1.0000
  N   N29       1.0  0.43173  0.74413  0.08182  1.0000
  S   S121      1.0  0.38757  0.83020  0.13380  1.0000
  S   S122      1.0  0.37206  0.86573  0.07866  1.0000
  Fe  Fe56      1.0  0.47966  0.81391  0.04247  1.0000
  S   S123      1.0  0.49006  0.80078  0.09621  1.0000
  S   S124      1.0  0.44699  0.80789  0.02500  1.0000
  Fe  Fe57      1.0  0.52105  0.83077  0.99894  1.0000
  S   S125      1.0  0.53443  0.81830  0.04869  1.0000
  S   S126      1.0  0.53959  0.84652  0.94136  1.0000
  Fe  Fe58      1.0  0.50410  0.78878  0.04652  1.0000
  S   S127      1.0  0.49628  0.75429  0.03568  1.0000
  Fe  Fe59      1.0  0.51960  0.83116  0.09455  1.0000
  S   S128      1.0  0.53944  0.85078  0.15105  1.0000
  S   S129      1.0  0.49198  0.80055  0.99288  1.0000
  S   S130      1.0  0.50802  0.84503  0.04456  1.0000
  Fe  Fe60      1.0  0.56640  0.94547  0.79568  1.0000
  C   C546      1.0  0.37175  0.93215  0.02635  1.0000
  S   S131      1.0  0.57938  0.92647  0.82878  1.0000
  Fe  Fe61      1.0  0.52716  0.94656  0.77284  1.0000
  S   S132      1.0  0.49242  0.92882  0.77333  1.0000
  Fe  Fe62      1.0  0.56345  0.96646  0.71320  1.0000
  C   C547      1.0  0.36016  0.97547  0.93687  1.0000
  S   S133      1.0  0.54535  0.93420  0.73707  1.0000
  S   S134      1.0  0.54692  0.95577  0.83266  1.0000
  C   C548      1.0  0.41530  0.98975  0.55478  1.0000
  S   S135      1.0  0.41213  0.96000  0.79067  1.0000
  C   C549      1.0  0.50459  0.97465  0.38616  1.0000
  C   C550      1.0  0.41647  0.94078  0.51600  1.0000
  H   H959      1.0  0.35989  0.92612  0.45789  1.0000
  H   H960      1.0  0.42922  0.94883  0.66546  1.0000
  Fe  Fe63      1.0  0.38729  0.96102  0.82955  1.0000
  S   S136      1.0  0.35894  0.93388  0.85459  1.0000
  H   H961      1.0  0.34354  0.97143  0.93361  1.0000
  Fe  Fe64      1.0  0.55368  0.95036  0.29346  1.0000
  C   C551      1.0  0.55500  0.90174  0.06375  1.0000
  S   S137      1.0  0.53535  0.92843  0.23748  1.0000
  Fe  Fe65      1.0  0.57095  0.96536  0.38599  1.0000
  S   S138      1.0  0.57371  0.95271  0.45109  1.0000
  H   H962      1.0  0.48267  0.93308  0.64996  1.0000
  H   H963      1.0  0.59818  0.84647  0.11590  1.0000
  S   S139      1.0  0.53931  0.95342  0.35398  1.0000
  S   S140      1.0  0.58473  0.95974  0.32593  1.0000
  S   S141      1.0  0.35927  0.89969  0.14040  1.0000
  S   S142      1.0  0.34075  0.81872  0.04454  1.0000
  Fe  Fe66      1.0  0.38713  0.96443  0.35563  1.0000
  H   H964      1.0  0.40979  0.93213  0.04023  1.0000
  S   S143      1.0  0.35959  0.93630  0.32541  1.0000
  H   H965      1.0  0.50728  0.97953  0.67240  1.0000
  C   C552      1.0  0.36647  0.90149  0.59831  1.0000
  H   H966      1.0  0.38783  0.93708  0.18452  1.0000
  S   S144      1.0  0.39526  0.96019  0.42251  1.0000
  H   H967      1.0  0.37366  0.92462  0.05525  1.0000
  H   H968      1.0  0.34416  0.88268  0.64460  1.0000
  H   H969      1.0  0.39872  0.82277  0.97071  1.0000
  H   H970      1.0  0.51457  0.96796  0.81786  1.0000
  H   H971      1.0  0.35541  0.96529  0.07175  1.0000
  H   H972      1.0  0.40403  0.86284  0.93204  1.0000
  H   H973      1.0  0.54906  0.88891  0.08609  1.0000
  C   C553      1.0  0.34603  0.96956  0.56826  1.0000
  H   H974      1.0  0.61330  0.94668  0.11957  1.0000
  H   H975      1.0  0.38342  0.94771  0.10864  1.0000
  C   C554      1.0  0.61696  0.93434  0.13010  1.0000
  C   C555      1.0  0.51461  0.95109  0.63638  1.0000
  H   H976      1.0  0.38798  0.92266  0.48116  1.0000
  H   H977      1.0  0.56276  0.86176  0.04837  1.0000
  H   H978      1.0  0.45704  0.88620  0.97047  1.0000
  H   H979      1.0  0.41517  0.77289  0.08779  1.0000
  H   H980      1.0  0.57118  0.83915  0.10714  1.0000
  H   H981      1.0  0.42093  0.98533  0.52707  1.0000
  H   H982      1.0  0.42876  0.97686  0.59873  1.0000
  C   C556      1.0  0.56944  0.95197  0.58068  1.0000
  C   C557      1.0  0.57055  0.94674  0.53769  1.0000
  C   C558      1.0  0.57158  0.95993  0.50477  1.0000
  C   C559      1.0  0.40705  0.93645  0.00805  1.0000
  H   H983      1.0  0.58729  0.86140  0.14083  1.0000
  H   H984      1.0  0.56880  0.94164  0.60532  1.0000
  H   H985      1.0  0.57069  0.93235  0.52982  1.0000
  H   H986      1.0  0.42386  0.76047  0.03387  1.0000
  H   H987      1.0  0.58031  0.95726  0.12325  1.0000
  C   C560      1.0  0.48379  0.94394  0.80157  1.0000
  C   C561      1.0  0.49820  0.96285  0.82008  1.0000
  C   C562      1.0  0.48519  0.96401  0.40420  1.0000
  C   C563      1.0  0.47042  0.96958  0.84278  1.0000
  C   C564      1.0  0.45589  0.95044  0.82505  1.0000
  C   C565      1.0  0.46260  0.93748  0.80485  1.0000
  C   C566      1.0  0.57067  0.98390  0.55874  1.0000
  C   C567      1.0  0.56965  0.97070  0.59160  1.0000
  H   H988      1.0  0.43954  0.94555  0.82727  1.0000
  H   H989      1.0  0.45141  0.92269  0.79110  1.0000
  C   C568      1.0  0.53843  0.87265  0.17404  1.0000
  C   C569      1.0  0.52400  0.87889  0.15995  1.0000
  C   C570      1.0  0.52348  0.89612  0.17951  1.0000
  C   C571      1.0  0.53726  0.90725  0.21348  1.0000
  C   C572      1.0  0.55194  0.90124  0.22707  1.0000
  C   C573      1.0  0.55251  0.88405  0.20737  1.0000
  H   H990      1.0  0.51304  0.87026  0.13447  1.0000
  H   H991      1.0  0.51206  0.90062  0.16884  1.0000
  H   H992      1.0  0.56262  0.90964  0.25316  1.0000
  H   H993      1.0  0.56371  0.87933  0.21856  1.0000
  C   C574      1.0  0.54848  0.86889  0.91026  1.0000
  C   C575      1.0  0.54385  0.88531  0.91753  1.0000
  C   C576      1.0  0.55260  0.90298  0.89197  1.0000
  C   C577      1.0  0.56588  0.90417  0.85921  1.0000
  C   C578      1.0  0.57019  0.88768  0.85231  1.0000
  C   C579      1.0  0.56143  0.87020  0.87719  1.0000
  H   H994      1.0  0.53384  0.88449  0.94294  1.0000
  H   H995      1.0  0.54965  0.91592  0.89830  1.0000
  H   H996      1.0  0.58059  0.88848  0.82764  1.0000
  H   H997      1.0  0.56515  0.85771  0.87122  1.0000
  H   H998      1.0  0.34708  0.94715  0.60924  1.0000
  Fe  Fe67      1.0  0.36134  0.83404  0.10240  1.0000
  N   N30       1.0  0.35887  0.92410  0.54517  1.0000
  H   H999      1.0  0.41585  0.89726  0.04718  1.0000
  C   C580      1.0  0.34566  0.90534  0.26334  1.0000
  S   S145      1.0  0.33626  0.83530  0.14100  1.0000
  H   H1000     1.0  0.52556  0.96680  0.62608  1.0000
  H   H1001     1.0  0.52910  0.98693  0.19661  1.0000
  C   C581      1.0  0.36161  0.91578  0.88699  1.0000
  C   C582      1.0  0.34499  0.90272  0.91156  1.0000
  C   C583      1.0  0.34623  0.88740  0.93596  1.0000
  H   H1002     1.0  0.33360  0.89657  0.28500  1.0000
  H   H1003     1.0  0.33331  0.88154  0.21342  1.0000
  C   C584      1.0  0.40416  0.82419  0.10335  1.0000
  C   C585      1.0  0.39761  0.81385  0.06392  1.0000
  C   C586      1.0  0.41086  0.80861  0.04099  1.0000
  C   C587      1.0  0.43094  0.81417  0.05652  1.0000
  C   C588      1.0  0.43762  0.82460  0.09588  1.0000
  C   C589      1.0  0.42416  0.82942  0.11940  1.0000
  H   H1004     1.0  0.38215  0.80951  0.05156  1.0000
  H   H1005     1.0  0.40548  0.80007  0.01106  1.0000
  H   H1006     1.0  0.45304  0.82886  0.10829  1.0000
  H   H1007     1.0  0.42927  0.83729  0.15007  1.0000
  C   C590      1.0  0.34552  0.91271  0.46764  1.0000
  C   C591      1.0  0.41741  0.77939  0.15454  1.0000
  S   S146      1.0  0.54353  0.97794  0.74606  1.0000
  H   H1008     1.0  0.51631  0.96997  0.39250  1.0000
  H   H1009     1.0  0.33208  0.89579  0.52374  1.0000
  Fe  Fe68      1.0  0.56540  0.98646  0.80288  1.0000
  H   H1010     1.0  0.38073  0.97218  0.05542  1.0000
  C   C592      1.0  0.35399  0.95418  0.57888  1.0000
  S   S147      1.0  0.44578  0.95690  0.41867  1.0000
  H   H1011     1.0  0.35066  0.94522  0.51269  1.0000
  H   H1012     1.0  0.58317  0.95581  0.05462  1.0000
  C   C593      1.0  0.58688  0.85249  0.11158  1.0000
  H   H1013     1.0  0.33587  0.94637  0.99357  1.0000
  H   H1014     1.0  0.39029  0.91225  0.53034  1.0000
  H   H1015     1.0  0.33975  0.90706  0.59647  1.0000
  H   H1016     1.0  0.39019  0.94547  0.56599  1.0000
  H   H1017     1.0  0.42264  0.94518  0.54915  1.0000
  S   S148      1.0  0.56221  0.98277  0.27564  1.0000
  H   H1018     1.0  0.40147  0.96103  0.03083  1.0000
  C   C594      1.0  0.39332  0.94699  0.01004  1.0000
  H   H1019     1.0  0.35011  0.98110  0.59486  1.0000
  H   H1020     1.0  0.61019  0.96260  0.20076  1.0000
  C   C595      1.0  0.49152  0.97550  0.84110  1.0000
  S   S149      1.0  0.41846  0.98349  0.68269  1.0000
  C   C596      1.0  0.36393  0.88472  0.93512  1.0000
  H   H1021     1.0  0.55189  0.96458  0.12216  1.0000
  H   H1022     1.0  0.49668  0.95910  0.70781  1.0000
  N   N31       1.0  0.43092  0.92042  0.28628  1.0000
  C   C597      1.0  0.43807  0.93799  0.25602  1.0000
  C   C598      1.0  0.41945  0.90026  0.26127  1.0000
  C   C599      1.0  0.41713  0.92323  0.31797  1.0000
  C   C600      1.0  0.44901  0.92041  0.31022  1.0000
  C   C601      1.0  0.46560  0.91886  0.28261  1.0000
  C   C602      1.0  0.45429  0.95944  0.27467  1.0000
  C   C603      1.0  0.40502  0.90472  0.34681  1.0000
  C   C604      1.0  0.39947  0.89714  0.23686  1.0000
  C   C605      1.0  0.38737  0.87513  0.21811  1.0000
  C   C606      1.0  0.48502  0.92336  0.30929  1.0000
  C   C607      1.0  0.45772  0.97673  0.24449  1.0000
  C   C608      1.0  0.39227  0.90971  0.37831  1.0000
  H   H1023     1.0  0.42457  0.93972  0.24371  1.0000
  H   H1024     1.0  0.44466  0.93456  0.22732  1.0000
  H   H1025     1.0  0.42955  0.89883  0.23696  1.0000
  H   H1026     1.0  0.41562  0.88694  0.28211  1.0000
  H   H1027     1.0  0.40570  0.92708  0.30195  1.0000
  H   H1028     1.0  0.42642  0.93679  0.33948  1.0000
  H   H1029     1.0  0.45674  0.93433  0.33189  1.0000
  H   H1030     1.0  0.44361  0.90714  0.33161  1.0000
  H   H1031     1.0  0.47043  0.92988  0.25652  1.0000
  H   H1032     1.0  0.45946  0.90300  0.26842  1.0000
  H   H1033     1.0  0.44928  0.96307  0.30503  1.0000
  H   H1034     1.0  0.46948  0.95983  0.28078  1.0000
  H   H1035     1.0  0.41570  0.90087  0.36547  1.0000
  H   H1036     1.0  0.39409  0.89080  0.32787  1.0000
  H   H1037     1.0  0.38889  0.89986  0.25762  1.0000
  H   H1038     1.0  0.40350  0.90796  0.21032  1.0000
  H   H1039     1.0  0.39703  0.87128  0.19675  1.0000
  H   H1040     1.0  0.38181  0.86379  0.24373  1.0000
  H   H1041     1.0  0.37367  0.87365  0.19938  1.0000
  H   H1042     1.0  0.48122  0.91251  0.33574  1.0000
  H   H1043     1.0  0.49642  0.92155  0.28921  1.0000
  H   H1044     1.0  0.49235  0.93948  0.32252  1.0000
  Fe  Fe69      1.0  0.42731  0.97270  0.39936  1.0000
  C   C609      1.0  0.36114  0.89252  0.64241  1.0000
  H   H1045     1.0  0.33343  0.89634  0.01853  1.0000
  H   H1046     1.0  0.40250  0.92318  0.39921  1.0000
  H   H1047     1.0  0.38082  0.91314  0.36131  1.0000
  H   H1048     1.0  0.38381  0.89624  0.39845  1.0000
  C   C610      1.0  0.43017  0.89541  0.04753  1.0000
  C   C611      1.0  0.45190  0.88493  0.00373  1.0000
  C   C612      1.0  0.45219  0.86522  0.02031  1.0000
  C   C613      1.0  0.44770  0.92233  0.97343  1.0000
  C   C614      1.0  0.43034  0.88392  0.08804  1.0000
  C   C615      1.0  0.42733  0.89449  0.12758  1.0000
  C   C616      1.0  0.47423  0.86907  0.03059  1.0000
  H   H1049     1.0  0.44336  0.91118  0.05243  1.0000
  H   H1050     1.0  0.46437  0.89863  0.02112  1.0000
  H   H1051     1.0  0.36887  0.88286  0.64872  1.0000
  H   H1052     1.0  0.44337  0.85960  0.04933  1.0000
  H   H1053     1.0  0.46335  0.92370  0.97847  1.0000
  H   H1054     1.0  0.44482  0.93083  0.99975  1.0000
  H   H1055     1.0  0.41782  0.86774  0.08661  1.0000
  H   H1056     1.0  0.44553  0.88415  0.09262  1.0000
  H   H1057     1.0  0.42806  0.88611  0.15599  1.0000
  H   H1058     1.0  0.43970  0.91076  0.13111  1.0000
  H   H1059     1.0  0.41199  0.89419  0.12606  1.0000
  H   H1060     1.0  0.47371  0.85445  0.04086  1.0000
  H   H1061     1.0  0.48395  0.87438  0.00240  1.0000
  H   H1062     1.0  0.48135  0.88075  0.05699  1.0000
  H   H1063     1.0  0.45174  0.92616  0.90518  1.0000
  H   H1064     1.0  0.35854  0.94303  0.12761  1.0000
  C   C617      1.0  0.37244  0.95416  0.11115  1.0000
  H   H1065     1.0  0.38954  0.82614  0.91974  1.0000
  C   C618      1.0  0.38279  0.97374  0.13959  1.0000
  H   H1066     1.0  0.38359  0.91065  0.59809  1.0000
  C   C619      1.0  0.38149  0.93751  0.53615  1.0000
  H   H1067     1.0  0.32492  0.88161  0.44254  1.0000
  H   H1068     1.0  0.39173  0.95149  0.97731  1.0000
  H   H1069     1.0  0.42094  0.75210  0.95719  1.0000
  H   H1070     1.0  0.61691  0.91402  0.05515  1.0000
  H   H1071     1.0  0.48188  0.95087  0.42361  1.0000
  C   C620      1.0  0.45638  0.94586  0.68799  1.0000
  H   H1072     1.0  0.48796  0.95238  0.61066  1.0000
  S   S150      1.0  0.38495  0.98501  0.78917  1.0000
  N   N32       1.0  0.35746  0.94139  0.03426  1.0000
  H   H1073     1.0  0.46453  0.75390  0.09086  1.0000
  H   H1074     1.0  0.33314  0.87705  0.95382  1.0000
  S   S151      1.0  0.46277  0.98664  0.86635  1.0000
  C   C621      1.0  0.36552  0.97136  0.98154  1.0000
  H   H1075     1.0  0.43293  0.79314  0.15451  1.0000
  H   H1076     1.0  0.54171  0.91756  0.02591  1.0000
  S   S152      1.0  0.41892  0.97481  0.33174  1.0000
  H   H1077     1.0  0.55469  0.88402  0.00773  1.0000
  H   H1078     1.0  0.42215  0.94724  0.99492  1.0000
  C   C622      1.0  0.35649  0.91562  0.58915  1.0000
  H   H1079     1.0  0.44675  0.77137  0.12304  1.0000
  H   H1080     1.0  0.33293  0.91718  0.46615  1.0000
  H   H1081     1.0  0.46340  0.96221  0.61425  1.0000
  H   H1082     1.0  0.46027  0.93907  0.71591  1.0000
  H   H1083     1.0  0.46951  0.99175  0.25885  1.0000
  H   H1084     1.0  0.60470  0.90155  0.12534  1.0000
  H   H1085     1.0  0.35577  0.89655  0.51138  1.0000
  H   H1086     1.0  0.52841  0.90676  0.07397  1.0000
  H   H1087     1.0  0.36656  0.90510  0.66722  1.0000
  H   H1088     1.0  0.39234  0.92330  0.86791  1.0000
  H   H1089     1.0  0.58524  0.94062  0.18648  1.0000
  C   C623      1.0  0.34786  0.93721  0.54340  1.0000
  H   H1090     1.0  0.45034  0.77177  0.04795  1.0000
  S   S153      1.0  0.36533  0.86429  0.96150  1.0000
  H   H1091     1.0  0.36112  0.88834  0.57505  1.0000
  C   C624      1.0  0.60093  0.91329  0.11172  1.0000
  N   N33       1.0  0.48804  0.87621  0.83521  1.0000
  C   C625      1.0  0.46604  0.87154  0.82420  1.0000
  C   C626      1.0  0.49990  0.89766  0.85571  1.0000
  C   C627      1.0  0.49817  0.87582  0.79412  1.0000
  C   C628      1.0  0.48896  0.86017  0.86331  1.0000
  C   C629      1.0  0.47825  0.85705  0.90620  1.0000
  C   C630      1.0  0.45212  0.85035  0.80155  1.0000
  C   C631      1.0  0.52186  0.88325  0.79703  1.0000
  C   C632      1.0  0.48751  0.90573  0.88300  1.0000
  C   C633      1.0  0.50182  0.92600  0.90677  1.0000
  C   C634      1.0  0.47883  0.83924  0.92966  1.0000
  C   C635      1.0  0.42996  0.84702  0.79511  1.0000
  C   C636      1.0  0.52987  0.88039  0.75437  1.0000
  H   H1092     1.0  0.46615  0.88379  0.80347  1.0000
  H   H1093     1.0  0.45779  0.87214  0.85282  1.0000
  H   H1094     1.0  0.51319  0.89879  0.87537  1.0000
  H   H1095     1.0  0.50700  0.90947  0.83119  1.0000
  H   H1096     1.0  0.49557  0.88560  0.77046  1.0000
  H   H1097     1.0  0.49108  0.85988  0.77986  1.0000
  H   H1098     1.0  0.48272  0.84494  0.84608  1.0000
  H   H1099     1.0  0.50526  0.86420  0.87159  1.0000
  H   H1100     1.0  0.46181  0.85347  0.90214  1.0000
  H   H1101     1.0  0.48670  0.87112  0.92679  1.0000
  H   H1102     1.0  0.45786  0.84948  0.76970  1.0000
  H   H1103     1.0  0.45141  0.83744  0.82046  1.0000
  H   H1104     1.0  0.52585  0.87437  0.82010  1.0000
  H   H1105     1.0  0.53045  0.89989  0.80652  1.0000
  H   H1106     1.0  0.47685  0.90881  0.86224  1.0000
  H   H1107     1.0  0.47812  0.89450  0.90658  1.0000
  H   H1108     1.0  0.51018  0.93827  0.88393  1.0000
  H   H1109     1.0  0.49253  0.93108  0.92654  1.0000
  H   H1110     1.0  0.49505  0.84221  0.93548  1.0000
  H   H1111     1.0  0.47151  0.83761  0.96077  1.0000
  H   H1112     1.0  0.47018  0.82443  0.91121  1.0000
  H   H1113     1.0  0.42298  0.84688  0.82613  1.0000
  H   H1114     1.0  0.42972  0.85942  0.77570  1.0000
  H   H1115     1.0  0.42036  0.83191  0.77828  1.0000
  H   H1116     1.0  0.52335  0.86371  0.74559  1.0000
  H   H1117     1.0  0.52567  0.88820  0.72900  1.0000
  H   H1118     1.0  0.54702  0.88723  0.75668  1.0000
  C   C637      1.0  0.49345  0.96450  0.67710  1.0000
  H   H1119     1.0  0.60291  0.88762  0.91562  1.0000
  H   H1120     1.0  0.36275  0.98171  0.00377  1.0000
  H   H1121     1.0  0.52537  0.89000  0.02887  1.0000
  C   C638      1.0  0.56092  0.98173  0.12062  1.0000
  C   C639      1.0  0.55542  0.99147  0.15938  1.0000
  C   C640      1.0  0.33993  0.89499  0.43519  1.0000
  C   C641      1.0  0.34797  0.90637  0.51328  1.0000
  C   C642      1.0  0.58571  0.97068  0.18514  1.0000
  C   C643      1.0  0.59316  0.95599  0.20318  1.0000
  C   C644      1.0  0.53256  0.97920  0.16960  1.0000
  S   S154      1.0  0.56954  0.97892  0.64550  1.0000
  H   H1122     1.0  0.39402  0.89539  0.90851  1.0000
  H   H1123     1.0  0.44313  0.97770  0.23900  1.0000
  H   H1124     1.0  0.37100  0.96275  0.58379  1.0000
  C   C645      1.0  0.39310  0.92671  0.51493  1.0000
  H   H1125     1.0  0.38352  0.95031  0.51504  1.0000
  H   H1126     1.0  0.61551  0.91489  0.90599  1.0000
  H   H1127     1.0  0.39747  0.98523  0.12598  1.0000
  C   C646      1.0  0.44059  0.74647  0.00237  1.0000
  H   H1128     1.0  0.50064  0.99288  0.61651  1.0000
  H   H1129     1.0  0.56454  0.99227  0.18826  1.0000
  H   H1130     1.0  0.52443  0.75035  0.09972  1.0000
  H   H1131     1.0  0.38225  0.97596  0.98310  1.0000
  Fe  Fe70      1.0  0.43400  0.98494  0.83587  1.0000
  C   C647      1.0  0.58943  0.97317  0.13707  1.0000
  H   H1132     1.0  0.59404  0.98561  0.20303  1.0000
  H   H1133     1.0  0.56892  0.96383  0.19097  1.0000
  C   C648      1.0  0.50888  0.99154  0.36077  1.0000
  S   S155      1.0  0.40936  0.98398  0.87760  1.0000
  H   H1134     1.0  0.47085  0.97231  0.74694  1.0000
  H   H1135     1.0  0.52895  0.96334  0.17912  1.0000
  H   H1136     1.0  0.41563  0.77151  0.18505  1.0000
  H   H1137     1.0  0.58940  0.95369  0.23712  1.0000
  C   C649      1.0  0.43638  0.75654  0.04222  1.0000
  H   H1138     1.0  0.46538  0.98807  0.71268  1.0000
  C   C650      1.0  0.36097  0.92538  0.27557  1.0000
  C   C651      1.0  0.47603  0.98120  0.71744  1.0000
  Fe  Fe71      1.0  0.41198  0.98607  0.75339  1.0000
  S   S156      1.0  0.58657  0.97700  0.76892  1.0000
  C   C652      1.0  0.41296  0.86481  0.99953  1.0000
  H   H1139     1.0  0.36476  0.91941  0.00193  1.0000
  H   H1140     1.0  0.36375  0.92842  0.61347  1.0000
  H   H1141     1.0  0.43228  0.89321  0.93952  1.0000
  H   H1142     1.0  0.52256  0.97826  0.14182  1.0000
  C   C653      1.0  0.37608  0.92811  0.20652  1.0000
  H   H1143     1.0  0.45931  0.94980  0.93550  1.0000
  H   H1144     1.0  0.41540  0.89907  0.97019  1.0000
  N   N34       1.0  0.43168  0.88580  0.00580  1.0000
  H   H1145     1.0  0.44518  0.85245  0.99597  1.0000
  C   C654      1.0  0.38052  0.89773  0.91038  1.0000
  C   C655      1.0  0.44768  0.93321  0.93251  1.0000
  H   H1146     1.0  0.43616  0.95625  0.72047  1.0000
  C   C656      1.0  0.37646  0.93655  0.24723  1.0000
  C   C657      1.0  0.37956  0.91349  0.88714  1.0000
  H   H1147     1.0  0.60172  0.92691  0.05066  1.0000
  C   C658      1.0  0.36044  0.90832  0.19383  1.0000
  H   H1148     1.0  0.43224  0.93223  0.92590  1.0000
  C   C659      1.0  0.43080  0.89935  0.97106  1.0000
  H   H1149     1.0  0.44180  0.74912  0.93400  1.0000
  C   C660      1.0  0.41460  0.76462  0.11712  1.0000
  H   H1150     1.0  0.41301  0.85358  0.02247  1.0000
  H   H1151     1.0  0.51318  0.92408  0.92764  1.0000
  H   H1152     1.0  0.38829  0.95200  0.25609  1.0000
  C   C661      1.0  0.36654  0.95905  0.06681  1.0000
  C   C662      1.0  0.46900  0.97455  0.63966  1.0000
  Fe  Fe72      1.0  0.55067  0.98664  0.33806  1.0000
  Fe  Fe73      1.0  0.34613  0.86659  0.11333  1.0000
  H   H1153     1.0  0.39870  0.86591  0.00682  1.0000
  Fe  Fe74      1.0  0.34991  0.85118  0.02370  1.0000
  H   H1154     1.0  0.58088  0.87507  0.98247  1.0000
  C   C663      1.0  0.39309  0.83216  0.95308  1.0000
  H   H1155     1.0  0.37859  0.83048  0.96713  1.0000
  H   H1156     1.0  0.41687  0.91187  0.68266  1.0000
  H   H1157     1.0  0.60832  0.87901  0.07854  1.0000
  H   H1158     1.0  0.62689  0.90468  0.94394  1.0000
  H   H1159     1.0  0.56546  0.91641  0.08102  1.0000
  H   H1160     1.0  0.57143  0.91114  0.00667  1.0000
  H   H1161     1.0  0.59245  0.85684  0.04505  1.0000
  H   H1162     1.0  0.61686  0.93412  0.16529  1.0000
  H   H1163     1.0  0.35193  0.93848  0.96583  1.0000
  H   H1164     1.0  0.42362  0.91949  0.73815  1.0000
  H   H1165     1.0  0.58624  0.90715  0.94995  1.0000
  C   C664      1.0  0.57607  0.96574  0.04550  1.0000
  H   H1166     1.0  0.42417  0.85572  0.94235  1.0000
  C   C665      1.0  0.41894  0.92365  0.70762  1.0000
  H   H1167     1.0  0.40387  0.92363  0.71177  1.0000
  C   C666      1.0  0.57659  0.87451  0.06476  1.0000
  C   C667      1.0  0.59238  0.86623  0.07313  1.0000
  C   C668      1.0  0.47463  0.98765  0.37274  1.0000
  H   H1168     1.0  0.36365  0.96630  0.91304  1.0000
  C   C669      1.0  0.40960  0.85478  0.95430  1.0000
  C   C670      1.0  0.56638  0.89753  0.02705  1.0000
  C   C671      1.0  0.59271  0.88964  0.99869  1.0000
  H   H1169     1.0  0.57087  0.87674  0.09565  1.0000
  C   C672      1.0  0.53651  0.90417  0.04691  1.0000
  N   N35       1.0  0.58442  0.89380  0.03927  1.0000
  C   C673      1.0  0.47020  0.97048  0.39733  1.0000
  C   C674      1.0  0.61205  0.90324  0.93078  1.0000
  H   H1170     1.0  0.60629  0.88706  0.00573  1.0000
  C   C675      1.0  0.59983  0.90691  0.96567  1.0000
  C   C676      1.0  0.43510  0.94513  0.69504  1.0000
  H   H1171     1.0  0.60976  0.92238  0.98069  1.0000
  C   C677      1.0  0.34549  0.89675  0.22281  1.0000
  H   H1172     1.0  0.45379  0.93496  0.66076  1.0000
  H   H1173     1.0  0.58562  0.91020  0.12340  1.0000
  H   H1174     1.0  0.39967  0.92234  0.98710  1.0000
  H   H1175     1.0  0.40552  0.78479  0.15205  1.0000
  C   C678      1.0  0.60142  0.91253  0.06244  1.0000
  C   C679      1.0  0.48644  0.99439  0.62165  1.0000
  C   C680      1.0  0.43138  0.75736  0.11883  1.0000
  C   C681      1.0  0.49312  0.94929  0.64174  1.0000
  C   C682      1.0  0.57147  0.97852  0.51571  1.0000
  H   H1176     1.0  0.33094  0.90420  0.91104  1.0000
  C   C683      1.0  0.57748  0.96767  0.99735  1.0000
  H   H1177     1.0  0.33077  0.92730  0.54449  1.0000
  H   H1178     1.0  0.56972  0.95206  0.98162  1.0000
  H   H1179     1.0  0.39902  0.75121  0.11955  1.0000
  N   N36       1.0  0.47411  0.96695  0.68011  1.0000
  H   H1180     1.0  0.32743  0.93144  0.06119  1.0000
  H   H1181     1.0  0.51391  0.93972  0.61174  1.0000
  H   H1182     1.0  0.46336  0.97409  0.21375  1.0000
  C   C684      1.0  0.43741  0.75571  0.96159  1.0000
  C   C685      1.0  0.35196  0.94841  0.99313  1.0000
  H   H1183     1.0  0.52056  0.94796  0.66657  1.0000
  H   H1184     1.0  0.42029  0.95495  0.49811  1.0000
  H   H1185     1.0  0.42428  0.93261  0.50076  1.0000
  H   H1186     1.0  0.36962  0.99209  0.93007  1.0000
  H   H1187     1.0  0.35216  0.89006  0.43490  1.0000
  H   H1188     1.0  0.47587  0.98626  0.55536  1.0000
  H   H1189     1.0  0.44722  0.77276  0.96263  1.0000
  H   H1190     1.0  0.35326  0.97794  0.53923  1.0000
  C   C686      1.0  0.33775  0.92477  0.05180  1.0000
  C   C687      1.0  0.41986  0.98511  0.59563  1.0000
  H   H1191     1.0  0.45581  0.97791  0.64444  1.0000
  S   S157      1.0  0.32412  0.85355  0.05643  1.0000
  H   H1192     1.0  0.32893  0.96148  0.56335  1.0000
  H   H1193     1.0  0.37230  0.98075  0.14351  1.0000
  H   H1194     1.0  0.57231  0.98890  0.49101  1.0000
  N   N37       1.0  0.58360  0.98801  0.11531  1.0000
  H   H1195     1.0  0.55426  0.98566  0.09228  1.0000
  H   H1196     1.0  0.33855  0.90025  0.40301  1.0000
  H   H1197     1.0  0.55946  0.95778  0.05323  1.0000
  H   H1198     1.0  0.42875  0.74893  0.14883  1.0000
  H   H1199     1.0  0.34109  0.91849  0.08109  1.0000
  C   C688      1.0  0.41270  0.99069  0.63227  1.0000
  H   H1200     1.0  0.38641  0.96988  0.17148  1.0000
  H   H1201     1.0  0.60604  0.97768  0.13208  1.0000
  Fe  Fe75      1.0  0.59232  0.99248  0.31009  1.0000
  H   H1202     1.0  0.50278  0.99022  0.85478  1.0000
  H   H1203     1.0  0.45689  0.74930  0.00378  1.0000
  H   H1204     1.0  0.56975  0.97667  0.98576  1.0000
  C   C689      1.0  0.58765  0.98725  0.06867  1.0000
  C   C690      1.0  0.32504  0.90556  0.02211  1.0000
  H   H1205     1.0  0.63274  0.93789  0.12012  1.0000
  H   H1206     1.0  0.61481  0.99170  0.63373  1.0000
  H   H1207     1.0  0.50740  0.99253  0.74492  1.0000
  H   H1208     1.0  0.59392  0.97549  0.98809  1.0000
  H   H1209     1.0  0.32205  0.90987  0.99021  1.0000
  Fe  Fe76      1.0  0.40341  0.99330  0.43600  1.0000
  H   H1210     1.0  0.46316  0.99281  0.36742  1.0000
  H   H1211     1.0  0.60453  0.99309  0.06390  1.0000
  C   C691      1.0  0.72908  0.16752  0.97490  1.0000
  Fe  Fe77      1.0  0.66819  0.13777  0.07117  1.0000
  S   S158      1.0  0.70335  0.16042  0.08178  1.0000
  C   C692      1.0  0.76187  0.20188  0.97157  1.0000
  H   H1212     1.0  0.79220  0.24068  0.90487  1.0000
  C   C693      1.0  0.75791  0.21499  0.08809  1.0000
  C   C694      1.0  0.74280  0.19392  0.08938  1.0000
  C   C695      1.0  0.72164  0.18751  0.08019  1.0000
  C   C696      1.0  0.71589  0.20272  0.06997  1.0000
  C   C697      1.0  0.73100  0.22379  0.06879  1.0000
  C   C698      1.0  0.68317  0.16411  0.20579  1.0000
  H   H1213     1.0  0.74758  0.18245  0.09739  1.0000
  H   H1214     1.0  0.69979  0.19826  0.06283  1.0000
  H   H1215     1.0  0.70763  0.18826  0.17053  1.0000
  H   H1216     1.0  0.78676  0.23711  0.01880  1.0000
  N   N38       1.0  0.68554  0.13065  0.22127  1.0000
  C   C699      1.0  0.68653  0.14589  0.18871  1.0000
  C   C700      1.0  0.68453  0.11179  0.19870  1.0000
  H   H1217     1.0  0.68777  0.19444  0.18789  1.0000
  C   C701      1.0  0.70342  0.13976  0.25351  1.0000
  C   C702      1.0  0.72439  0.15708  0.23849  1.0000
  H   H1218     1.0  0.77403  0.21945  0.09504  1.0000
  H   H1219     1.0  0.66638  0.15871  0.21001  1.0000
  C   C703      1.0  0.70265  0.11526  0.16981  1.0000
  H   H1220     1.0  0.71191  0.15994  0.97190  1.0000
  C   C704      1.0  0.74181  0.16197  0.27143  1.0000
  C   C705      1.0  0.78125  0.22451  0.91288  1.0000
  H   H1221     1.0  0.73324  0.19107  0.93102  1.0000
  H   H1222     1.0  0.79899  0.20972  0.99944  1.0000
  H   H1223     1.0  0.70139  0.15243  0.17220  1.0000
  H   H1224     1.0  0.68398  0.10031  0.22188  1.0000
  H   H1225     1.0  0.66992  0.10394  0.17900  1.0000
  S   S159      1.0  0.65884  0.10438  0.08613  1.0000
  H   H1226     1.0  0.76247  0.21090  0.80808  1.0000
  H   H1227     1.0  0.79056  0.21609  0.91148  1.0000
  H   H1228     1.0  0.70626  0.12728  0.26682  1.0000
  H   H1229     1.0  0.72335  0.17155  0.23375  1.0000
  H   H1230     1.0  0.72906  0.15300  0.20814  1.0000
  C   C706      1.0  0.69073  0.18187  0.17507  1.0000
  H   H1231     1.0  0.71208  0.09786  0.12700  1.0000
  H   H1232     1.0  0.69132  0.17023  0.23692  1.0000
  H   H1233     1.0  0.70445  0.12625  0.14455  1.0000
  C   C707      1.0  0.76462  0.21489  0.87667  1.0000
  H   H1234     1.0  0.71725  0.12095  0.18894  1.0000
  H   H1235     1.0  0.68450  0.08806  0.12845  1.0000
  C   C708      1.0  0.75218  0.23020  0.07769  1.0000
  C   C709      1.0  0.69908  0.09493  0.14808  1.0000
  H   H1236     1.0  0.73816  0.16688  0.30227  1.0000
  H   H1237     1.0  0.74424  0.14823  0.27595  1.0000
  H   H1238     1.0  0.75644  0.17476  0.26038  1.0000
  H   H1239     1.0  0.69827  0.08365  0.17198  1.0000
  H   H1240     1.0  0.72623  0.23526  0.06056  1.0000
  C   C710      1.0  0.66550  0.12372  0.24414  1.0000
  H   H1241     1.0  0.69947  0.14667  0.28138  1.0000
  H   H1242     1.0  0.75406  0.22189  0.87583  1.0000
  C   C711      1.0  0.73798  0.19030  0.96417  1.0000
  H   H1243     1.0  0.76415  0.20140  0.00650  1.0000
  C   C712      1.0  0.80710  0.22627  0.99151  1.0000
  H   H1244     1.0  0.83446  0.23136  0.02889  1.0000
  H   H1245     1.0  0.76835  0.19220  0.95723  1.0000
  H   H1246     1.0  0.67463  0.13784  0.16293  1.0000
  H   H1247     1.0  0.66572  0.13683  0.26303  1.0000
  H   H1248     1.0  0.73478  0.15940  0.95296  1.0000
  H   H1249     1.0  0.68242  0.17647  0.14382  1.0000
  C   C713      1.0  0.77466  0.21820  0.83354  1.0000
  C   C714      1.0  0.82334  0.23771  0.02681  1.0000
  H   H1250     1.0  0.81547  0.22778  0.96178  1.0000
  N   N39       1.0  0.77340  0.22393  0.95688  1.0000
  H   H1251     1.0  0.73343  0.16594  0.00806  1.0000
  H   H1252     1.0  0.75554  0.19797  0.88036  1.0000
  H   H1253     1.0  0.78515  0.21110  0.83208  1.0000
  C   C715      1.0  0.75988  0.23441  0.95965  1.0000
  H   H1254     1.0  0.73066  0.19722  0.98515  1.0000
  H   H1255     1.0  0.78361  0.23498  0.82754  1.0000
  H   H1256     1.0  0.67314  0.10914  0.29760  1.0000
  C   C716      1.0  0.79197  0.23561  0.98663  1.0000
  H   H1257     1.0  0.74555  0.22619  0.93965  1.0000
  H   H1258     1.0  0.81589  0.23593  0.05786  1.0000
  H   H1259     1.0  0.75445  0.23362  0.99249  1.0000
  C   C717      1.0  0.65997  0.10583  0.27522  1.0000
  H   H1260     1.0  0.65581  0.09108  0.25760  1.0000
  Fe  Fe78      1.0  0.85089  0.46659  0.08467  1.0000
  S   S160      1.0  0.84834  0.47510  0.01771  1.0000
  S   S161      1.0  0.83802  0.43476  0.11211  1.0000
  N   N40       1.0  0.92318  0.31409  0.43173  1.0000
  C   C718      1.0  0.94737  0.36972  0.96310  1.0000
  C   C719      1.0  0.94314  0.33126  0.45071  1.0000
  H   H1261     1.0  0.73901  0.49064  0.00055  1.0000
  Fe  Fe79      1.0  0.84408  0.31400  0.12907  1.0000
  S   S162      1.0  0.86101  0.33117  0.07240  1.0000
  S   S163      1.0  0.85684  0.32699  0.19584  1.0000
  Fe  Fe80      1.0  0.80534  0.28244  0.07576  1.0000
  S   S164      1.0  0.82007  0.29779  0.01508  1.0000
  Fe  Fe81      1.0  0.84969  0.29981  0.04145  1.0000
  S   S165      1.0  0.87095  0.29166  0.00284  1.0000
  Fe  Fe82      1.0  0.83041  0.32830  0.04999  1.0000
  S   S166      1.0  0.83041  0.35490  0.01415  1.0000
  S   S167      1.0  0.83463  0.28224  0.10017  1.0000
  S   S168      1.0  0.81390  0.31335  0.10874  1.0000
  H   H1262     1.0  0.90791  0.26720  0.54405  1.0000
  H   H1263     1.0  0.92209  0.47802  0.39247  1.0000
  S   S169      1.0  0.95298  0.38480  0.85414  1.0000
  C   C720      1.0  0.96173  0.37611  0.61928  1.0000
  S   S170      1.0  0.94254  0.37332  0.75209  1.0000
  H   H1264     1.0  0.92520  0.31102  0.33727  1.0000
  Fe  Fe83      1.0  0.95586  0.40169  0.79480  1.0000
  S   S171      1.0  0.94525  0.42580  0.79092  1.0000
  Fe  Fe84      1.0  0.94266  0.35684  0.81184  1.0000
  S   S172      1.0  0.91633  0.32587  0.82945  1.0000
  H   H1265     1.0  0.91798  0.46553  0.79835  1.0000
  C   C721      1.0  0.90216  0.48375  0.79401  1.0000
  C   C722      1.0  0.96639  0.34489  0.92497  1.0000
  Fe  Fe85      1.0  0.96257  0.37258  0.33006  1.0000
  H   H1266     1.0  0.93357  0.36063  0.94180  1.0000
  S   S173      1.0  0.94405  0.34633  0.28208  1.0000
  C   C723      1.0  0.90141  0.42723  0.87358  1.0000
  H   H1267     1.0  0.92018  0.34455  0.00924  1.0000
  S   S174      1.0  0.94983  0.38721  0.37558  1.0000
  H   H1268     1.0  0.94394  0.32374  0.04988  1.0000
  H   H1269     1.0  0.94809  0.42336  0.44770  1.0000
  H   H1270     1.0  0.98747  0.46673  0.69637  1.0000
  C   C724      1.0  0.91162  0.32354  0.40798  1.0000
  C   C725      1.0  0.76196  0.49077  0.09532  1.0000
  C   C726      1.0  0.96443  0.32610  0.89932  1.0000
  C   C727      1.0  0.93661  0.40934  0.67371  1.0000
  H   H1271     1.0  0.94404  0.47966  0.50280  1.0000
  H   H1272     1.0  0.78286  0.26717  0.96954  1.0000
  C   C728      1.0  0.95524  0.37610  0.57676  1.0000
  C   C729      1.0  0.94363  0.38640  0.98705  1.0000
  N   N41       1.0  0.92606  0.46638  0.88776  1.0000
  Fe  Fe86      1.0  0.69129  0.48553  0.06676  1.0000
  H   H1273     1.0  0.95054  0.37088  0.64400  1.0000
  H   H1274     1.0  0.93903  0.37096  0.56930  1.0000
  H   H1275     1.0  0.92455  0.33129  0.10556  1.0000
  H   H1276     1.0  0.96281  0.42729  0.49657  1.0000
  C   C730      1.0  0.96511  0.46728  0.77920  1.0000
  C   C731      1.0  0.78674  0.43835  0.12786  1.0000
  H   H1277     1.0  0.95076  0.46514  0.76427  1.0000
  C   C732      1.0  0.88145  0.33264  0.21835  1.0000
  C   C733      1.0  0.88798  0.34403  0.25707  1.0000
  C   C734      1.0  0.90732  0.34880  0.27635  1.0000
  C   C735      1.0  0.92016  0.34179  0.25759  1.0000
  C   C736      1.0  0.91362  0.33036  0.21891  1.0000
  C   C737      1.0  0.89449  0.32604  0.19905  1.0000
  H   H1278     1.0  0.87797  0.34911  0.27238  1.0000
  H   H1279     1.0  0.91214  0.35759  0.30604  1.0000
  H   H1280     1.0  0.92342  0.32481  0.20422  1.0000
  H   H1281     1.0  0.88964  0.31721  0.16935  1.0000
  C   C738      1.0  0.90511  0.31851  0.87976  1.0000
  C   C739      1.0  0.89776  0.33005  0.90357  1.0000
  C   C740      1.0  0.88703  0.32217  0.94143  1.0000
  C   C741      1.0  0.88388  0.30286  0.95570  1.0000
  C   C742      1.0  0.89166  0.29176  0.93219  1.0000
  C   C743      1.0  0.90180  0.29931  0.89432  1.0000
  H   H1282     1.0  0.89973  0.34466  0.89207  1.0000
  H   H1283     1.0  0.88106  0.33089  0.95924  1.0000
  H   H1284     1.0  0.88939  0.27690  0.94282  1.0000
  H   H1285     1.0  0.90705  0.29010  0.87599  1.0000
  H   H1286     1.0  0.95741  0.39686  0.00692  1.0000
  H   H1287     1.0  0.91215  0.40425  0.86275  1.0000
  C   C744      1.0  0.90942  0.30118  0.46613  1.0000
  H   H1288     1.0  0.93600  0.41111  0.97367  1.0000
  H   H1289     1.0  0.89628  0.44010  0.00003  1.0000
  H   H1290     1.0  0.78159  0.45049  0.18714  1.0000
  C   C745      1.0  0.83582  0.41280  0.08385  1.0000
  C   C746      1.0  0.82937  0.39431  0.10532  1.0000
  C   C747      1.0  0.82774  0.37646  0.08437  1.0000
  C   C748      1.0  0.83217  0.37693  0.04144  1.0000
  C   C749      1.0  0.83816  0.39532  0.01963  1.0000
  C   C750      1.0  0.84013  0.41328  0.04084  1.0000
  H   H1291     1.0  0.82569  0.39384  0.13841  1.0000
  H   H1292     1.0  0.82290  0.36231  0.10128  1.0000
  H   H1293     1.0  0.84147  0.39570  0.98632  1.0000
  H   H1294     1.0  0.84477  0.42738  0.02391  1.0000
  H   H1295     1.0  0.93076  0.48056  0.95091  1.0000
  N   N42       1.0  0.89167  0.39655  0.16298  1.0000
  C   C751      1.0  0.86903  0.38158  0.16723  1.0000
  C   C752      1.0  0.89805  0.39600  0.11771  1.0000
  C   C753      1.0  0.90391  0.38940  0.19117  1.0000
  C   C754      1.0  0.89681  0.41828  0.17734  1.0000
  C   C755      1.0  0.88389  0.42773  0.15669  1.0000
  C   C756      1.0  0.86039  0.37951  0.21236  1.0000
  C   C757      1.0  0.92787  0.40202  0.18943  1.0000
  C   C758      1.0  0.88163  0.39173  0.08161  1.0000
  C   C759      1.0  0.89101  0.39417  0.03794  1.0000
  C   C760      1.0  0.88963  0.44900  0.17678  1.0000
  C   C761      1.0  0.83691  0.36596  0.21136  1.0000
  C   C762      1.0  0.93848  0.39218  0.21585  1.0000
  H   H1296     1.0  0.86591  0.36583  0.15587  1.0000
  H   H1297     1.0  0.85923  0.38567  0.14644  1.0000
  H   H1298     1.0  0.91208  0.41066  0.11091  1.0000
  H   H1299     1.0  0.90256  0.38349  0.11312  1.0000
  H   H1300     1.0  0.89941  0.37287  0.18338  1.0000
  H   H1301     1.0  0.90029  0.38999  0.22506  1.0000
  H   H1302     1.0  0.89568  0.41921  0.21237  1.0000
  H   H1303     1.0  0.91322  0.42913  0.17103  1.0000
  H   H1304     1.0  0.86708  0.41792  0.16069  1.0000
  H   H1305     1.0  0.88709  0.43007  0.12255  1.0000
  H   H1306     1.0  0.86705  0.37203  0.23344  1.0000
  H   H1307     1.0  0.86380  0.39479  0.22655  1.0000
  H   H1308     1.0  0.93333  0.41795  0.20261  1.0000
  H   H1309     1.0  0.93322  0.40295  0.15655  1.0000
  H   H1310     1.0  0.86901  0.37559  0.08280  1.0000
  H   H1311     1.0  0.87455  0.40212  0.08403  1.0000
  H   H1312     1.0  0.87876  0.39067  0.01301  1.0000
  H   H1313     1.0  0.90341  0.41024  0.03427  1.0000
  H   H1314     1.0  0.89739  0.38319  0.03323  1.0000
  H   H1315     1.0  0.90626  0.45985  0.17273  1.0000
  H   H1316     1.0  0.88029  0.45551  0.16118  1.0000
  H   H1317     1.0  0.88630  0.44776  0.21108  1.0000
  H   H1318     1.0  0.82911  0.37334  0.19322  1.0000
  H   H1319     1.0  0.83257  0.35051  0.19659  1.0000
  H   H1320     1.0  0.83127  0.36376  0.24420  1.0000
  H   H1321     1.0  0.93433  0.37646  0.20292  1.0000
  H   H1322     1.0  0.95553  0.40170  0.21506  1.0000
  H   H1323     1.0  0.93396  0.39118  0.24947  1.0000
  H   H1324     1.0  0.92702  0.40535  0.70226  1.0000
  C   C763      1.0  0.75419  0.26573  0.95016  1.0000
  C   C764      1.0  0.96653  0.45042  0.79580  1.0000
  H   H1325     1.0  0.92950  0.41514  0.64957  1.0000
  H   H1326     1.0  0.76120  0.36870  0.07186  1.0000
  H   H1327     1.0  0.94205  0.45290  0.42157  1.0000
  C   C765      1.0  0.77455  0.37783  0.05179  1.0000
  C   C766      1.0  0.69282  0.47399  0.22304  1.0000
  H   H1328     1.0  0.91759  0.34909  0.45370  1.0000
  H   H1329     1.0  0.89403  0.28985  0.45204  1.0000
  C   C767      1.0  0.93487  0.49040  0.33284  1.0000
  H   H1330     1.0  0.93126  0.30037  0.51369  1.0000
  C   C768      1.0  0.91622  0.32032  0.07861  1.0000
  C   C769      1.0  0.91803  0.47876  0.81605  1.0000
  N   N43       1.0  0.77206  0.43028  0.05005  1.0000
  C   C770      1.0  0.79023  0.44312  0.07990  1.0000
  C   C771      1.0  0.77748  0.43800  0.00569  1.0000
  C   C772      1.0  0.75440  0.43420  0.06324  1.0000
  C   C773      1.0  0.76533  0.40736  0.05125  1.0000
  C   C774      1.0  0.78255  0.40098  0.06028  1.0000
  S   S175      1.0  0.72239  0.48642  0.08654  1.0000
  C   C775      1.0  0.73454  0.42442  0.03423  1.0000
  C   C776      1.0  0.79484  0.43494  0.98468  1.0000
  C   C777      1.0  0.80131  0.44674  0.94363  1.0000
  H   H1331     1.0  0.79805  0.47002  0.15214  1.0000
  C   C778      1.0  0.71669  0.42607  0.05531  1.0000
  H   H1332     1.0  0.79545  0.45991  0.07565  1.0000
  H   H1333     1.0  0.80403  0.44140  0.07182  1.0000
  H   H1334     1.0  0.76395  0.42998  0.98340  1.0000
  H   H1335     1.0  0.78164  0.45470  0.00517  1.0000
  H   H1336     1.0  0.75954  0.45112  0.06530  1.0000
  H   H1337     1.0  0.74952  0.42842  0.09552  1.0000
  H   H1338     1.0  0.75369  0.39998  0.07599  1.0000
  H   H1339     1.0  0.75710  0.39957  0.02087  1.0000
  H   H1340     1.0  0.78800  0.40440  0.09398  1.0000
  H   H1341     1.0  0.79622  0.40925  0.04077  1.0000
  H   H1342     1.0  0.98221  0.44430  0.56556  1.0000
  H   H1343     1.0  0.93443  0.48031  0.07273  1.0000
  H   H1344     1.0  0.72959  0.40787  0.02677  1.0000
  H   H1345     1.0  0.73720  0.43280  0.00415  1.0000
  H   H1346     1.0  0.80883  0.44042  0.00547  1.0000
  H   H1347     1.0  0.78921  0.41830  0.97648  1.0000
  H   H1348     1.0  0.81356  0.44408  0.92891  1.0000
  H   H1349     1.0  0.78792  0.44144  0.92077  1.0000
  H   H1350     1.0  0.80764  0.46363  0.95031  1.0000
  H   H1351     1.0  0.76983  0.37368  0.01783  1.0000
  H   H1352     1.0  0.88759  0.26341  0.50607  1.0000
  H   H1353     1.0  0.94886  0.34519  0.43100  1.0000
  Fe  Fe87      1.0  0.98545  0.39025  0.84308  1.0000
  H   H1354     1.0  0.70286  0.41959  0.03344  1.0000
  H   H1355     1.0  0.71256  0.41731  0.08497  1.0000
  H   H1356     1.0  0.72098  0.44252  0.06280  1.0000
  C   C779      1.0  0.93527  0.34664  0.02295  1.0000
  H   H1357     1.0  0.69666  0.46142  0.23082  1.0000
  C   C780      1.0  0.78397  0.45484  0.15343  1.0000
  H   H1358     1.0  0.76175  0.28229  0.94193  1.0000
  H   H1359     1.0  0.89223  0.32713  0.45686  1.0000
  C   C781      1.0  0.94846  0.48212  0.88314  1.0000
  H   H1360     1.0  0.89769  0.31125  0.39074  1.0000
  C   C782      1.0  0.76981  0.25740  0.94743  1.0000
  H   H1361     1.0  0.92767  0.44713  0.83669  1.0000
  N   N44       1.0  0.95185  0.35538  0.99028  1.0000
  S   S176      1.0  0.97495  0.36101  0.80296  1.0000
  Fe  Fe88      1.0  0.97564  0.37998  0.74609  1.0000
  H   H1362     1.0  0.75905  0.48962  0.12886  1.0000
  H   H1363     1.0  0.88704  0.44558  0.92740  1.0000
  S   S177      1.0  0.83961  0.48748  0.11459  1.0000
  C   C783      1.0  0.89509  0.45432  0.99297  1.0000
  H   H1364     1.0  0.96462  0.41940  0.71093  1.0000
  C   C784      1.0  0.95865  0.42580  0.68582  1.0000
  H   H1365     1.0  0.96844  0.32645  0.42547  1.0000
  H   H1366     1.0  0.94593  0.44957  0.49707  1.0000
  H   H1367     1.0  0.92138  0.31290  0.01539  1.0000
  H   H1368     1.0  0.68166  0.46869  0.19551  1.0000
  H   H1369     1.0  0.93393  0.44131  0.88694  1.0000
  C   C785      1.0  0.94565  0.49316  0.09381  1.0000
  H   H1370     1.0  0.90185  0.32129  0.07032  1.0000
  C   C786      1.0  0.97254  0.43184  0.64663  1.0000
  S   S178      1.0  0.77070  0.25708  0.07294  1.0000
  H   H1371     1.0  0.91170  0.30438  0.08883  1.0000
  C   C787      1.0  0.92129  0.46521  0.93443  1.0000
  H   H1372     1.0  0.93506  0.32943  0.94690  1.0000
  C   C788      1.0  0.90441  0.33682  0.43494  1.0000
  H   H1373     1.0  0.95759  0.43933  0.69945  1.0000
  C   C789      1.0  0.94119  0.48336  0.47007  1.0000
  H   H1374     1.0  0.83212  0.25440  0.02017  1.0000
  C   C790      1.0  0.89488  0.34715  0.40678  1.0000
  H   H1375     1.0  0.96063  0.47539  0.94279  1.0000
  H   H1376     1.0  0.97592  0.43878  0.44891  1.0000
  S   S179      1.0  0.96760  0.44238  0.33445  1.0000
  C   C791      1.0  0.95723  0.46417  0.43626  1.0000
  C   C792      1.0  0.89994  0.40798  0.85061  1.0000
  C   C793      1.0  0.93001  0.32508  0.04029  1.0000
  H   H1377     1.0  0.96043  0.37831  0.94191  1.0000
  H   H1378     1.0  0.95284  0.40835  0.93606  1.0000
  C   C794      1.0  0.93923  0.39974  0.95592  1.0000
  C   C795      1.0  0.93696  0.31026  0.35905  1.0000
  H   H1379     1.0  0.78703  0.37369  0.05940  1.0000
  H   H1380     1.0  0.80057  0.43780  0.14179  1.0000
  C   C796      1.0  0.75064  0.49136  0.02325  1.0000
  H   H1381     1.0  0.88460  0.39456  0.85571  1.0000
  H   H1382     1.0  0.95241  0.30529  0.30568  1.0000
  H   H1383     1.0  0.95850  0.29745  0.35552  1.0000
  H   H1384     1.0  0.93918  0.35776  0.05042  1.0000
  C   C797      1.0  0.91299  0.47390  0.86338  1.0000
  C   C798      1.0  0.96174  0.32663  0.45661  1.0000
  H   H1385     1.0  0.92230  0.27936  0.47436  1.0000
  C   C799      1.0  0.95092  0.33822  0.96148  1.0000
  H   H1386     1.0  0.97359  0.46488  0.49670  1.0000
  H   H1387     1.0  0.68539  0.47707  0.25071  1.0000
  H   H1388     1.0  0.74081  0.25704  0.92776  1.0000
  S   S180      1.0  0.95996  0.38122  0.49060  1.0000
  H   H1389     1.0  0.98261  0.35352  0.93745  1.0000
  H   H1390     1.0  0.92616  0.47013  0.45925  1.0000
  H   H1391     1.0  0.97151  0.41731  0.63245  1.0000
  H   H1392     1.0  0.93591  0.29338  0.41530  1.0000
  H   H1393     1.0  0.94956  0.32623  0.36512  1.0000
  Fe  Fe89      1.0  0.97361  0.38832  0.42403  1.0000
  H   H1394     1.0  0.91154  0.28649  0.39125  1.0000
  H   H1395     1.0  0.93660  0.39507  0.66109  1.0000
  C   C800      1.0  0.91778  0.28929  0.49376  1.0000
  H   H1396     1.0  0.88115  0.33533  0.38849  1.0000
  H   H1397     1.0  0.98589  0.44060  0.83051  1.0000
  H   H1398     1.0  0.95339  0.32667  0.97944  1.0000
  H   H1399     1.0  0.77047  0.45647  0.14149  1.0000
  H   H1400     1.0  0.95304  0.48268  0.84965  1.0000
  C   C801      1.0  0.95630  0.49276  0.39892  1.0000
  H   H1401     1.0  0.89668  0.28447  0.54531  1.0000
  H   H1402     1.0  0.90644  0.31106  0.48924  1.0000
  H   H1403     1.0  0.92553  0.38998  0.93498  1.0000
  H   H1404     1.0  0.97462  0.48069  0.29886  1.0000
  H   H1405     1.0  0.91995  0.48099  0.31518  1.0000
  H   H1406     1.0  0.77345  0.42298  0.13301  1.0000
  H   H1407     1.0  0.90629  0.35748  0.38428  1.0000
  H   H1408     1.0  0.92579  0.45433  0.95008  1.0000
  C   C802      1.0  0.96173  0.43472  0.46694  1.0000
  H   H1409     1.0  0.93013  0.37926  0.00768  1.0000
  H   H1410     1.0  0.74857  0.26454  0.98298  1.0000
  H   H1411     1.0  0.88923  0.43039  0.85938  1.0000
  S   S181      1.0  0.98600  0.40268  0.30468  1.0000
  C   C803      1.0  0.93551  0.47989  0.37385  1.0000
  H   H1412     1.0  0.88994  0.35660  0.42680  1.0000
  H   H1413     1.0  0.96492  0.43747  0.62324  1.0000
  S   S182      1.0  0.66533  0.46160  0.10360  1.0000
  C   C804      1.0  0.96481  0.47873  0.90926  1.0000
  C   C805      1.0  0.98180  0.35618  0.03772  1.0000
  H   H1414     1.0  0.89526  0.47221  0.93972  1.0000
  H   H1415     1.0  0.97311  0.38014  0.03272  1.0000
  N   N45       1.0  0.95834  0.48516  0.44197  1.0000
  H   H1416     1.0  0.92146  0.33389  0.38314  1.0000
  C   C806      1.0  0.92660  0.30010  0.40068  1.0000
  C   C807      1.0  0.95973  0.45417  0.47740  1.0000
  C   C808      1.0  0.94589  0.29783  0.33597  1.0000
  H   H1417     1.0  0.80162  0.25166  0.97623  1.0000
  S   S183      1.0  0.67084  0.47875  0.00715  1.0000
  H   H1418     1.0  0.95730  0.31152  0.47082  1.0000
  Fe  Fe90      1.0  0.65793  0.48698  0.12314  1.0000
  H   H1419     1.0  0.97580  0.33129  0.87371  1.0000
  H   H1420     1.0  0.94867  0.31743  0.88441  1.0000
  C   C809      1.0  0.90142  0.27526  0.52406  1.0000
  C   C810      1.0  0.92321  0.44586  0.87027  1.0000
  C   C811      1.0  0.97892  0.34311  0.48507  1.0000
  C   C812      1.0  0.74649  0.48978  0.06649  1.0000
  H   H1421     1.0  0.89815  0.42331  0.90732  1.0000
  C   C813      1.0  0.89861  0.45916  0.94602  1.0000
  C   C814      1.0  0.71255  0.49343  0.21241  1.0000
  H   H1422     1.0  0.96885  0.46479  0.41335  1.0000
  H   H1423     1.0  0.97316  0.35114  0.06737  1.0000
  C   C815      1.0  0.96943  0.38235  0.54382  1.0000
  H   H1424     1.0  0.87940  0.45184  0.00100  1.0000
  C   C816      1.0  0.98258  0.38246  0.62963  1.0000
  H   H1425     1.0  0.94025  0.33657  0.48202  1.0000
  S   S184      1.0  0.88424  0.48992  0.09250  1.0000
  H   H1426     1.0  0.89631  0.46274  0.86433  1.0000
  H   H1427     1.0  0.93359  0.46436  0.36475  1.0000
  H   H1428     1.0  0.90655  0.46742  0.01322  1.0000
  Fe  Fe91      1.0  0.97496  0.41717  0.35400  1.0000
  C   C817      1.0  0.97305  0.36799  0.01100  1.0000
  H   H1429     1.0  0.77542  0.25938  0.91461  1.0000
  H   H1430     1.0  0.96660  0.46567  0.89505  1.0000
  H   H1431     1.0  0.66431  0.47365  0.89518  1.0000
  H   H1432     1.0  0.91459  0.48838  0.87897  1.0000
  H   H1433     1.0  0.90162  0.41041  0.81598  1.0000
  H   H1434     1.0  0.96334  0.35470  0.90257  1.0000
  H   H1435     1.0  0.93360  0.28180  0.32861  1.0000
  H   H1436     1.0  0.71947  0.48917  0.18545  1.0000
  H   H1437     1.0  0.98462  0.35862  0.47146  1.0000
  S   S185      1.0  0.98474  0.37114  0.37941  1.0000
  H   H1438     1.0  0.96760  0.31567  0.91982  1.0000
  H   H1439     1.0  0.94763  0.49201  0.31220  1.0000
  C   C818      1.0  0.76993  0.49388  0.00920  1.0000
  H   H1440     1.0  0.97322  0.34344  0.51730  1.0000
  C   C819      1.0  0.98505  0.45330  0.81544  1.0000
  H   H1441     1.0  0.96851  0.49319  0.37804  1.0000
  H   H1442     1.0  0.98455  0.37667  0.98678  1.0000
  H   H1443     1.0  0.88647  0.47025  0.79407  1.0000
  H   H1444     1.0  0.93338  0.49255  0.81326  1.0000
  H   H1445     1.0  0.98103  0.34259  0.02008  1.0000
  H   H1446     1.0  0.90639  0.48675  0.49499  1.0000
  H   H1447     1.0  0.90646  0.48770  0.76062  1.0000
  C   C820      1.0  0.98237  0.48690  0.78131  1.0000
  H   H1448     1.0  0.94150  0.48908  0.12725  1.0000
  H   H1449     1.0  0.98712  0.47213  0.64223  1.0000
  C   C821      1.0  0.78133  0.49352  0.08129  1.0000
  H   H1450     1.0  0.91958  0.51411  0.50781  1.0000
  S   S186      1.0  0.87087  0.52345  0.05251  1.0000
  C   C822      1.0  0.94300  0.52720  0.93963  1.0000
  C   C823      1.0  0.97330  0.56749  0.13810  1.0000
  H   H1451     1.0  0.74861  0.53002  0.23594  1.0000
  S   S187      1.0  0.68452  0.51127  0.08934  1.0000
  N   N46       1.0  0.72598  0.53201  0.19354  1.0000
  H   H1452     1.0  0.98067  0.51653  0.46017  1.0000
  S   S188      1.0  0.80939  0.49788  0.01801  1.0000
  C   C824      1.0  0.91136  0.53332  0.19882  1.0000
  H   H1453     1.0  0.93359  0.50200  0.21371  1.0000
  C   C825      1.0  0.65846  0.52674  0.91606  1.0000
  S   S189      1.0  0.94930  0.54411  0.81607  1.0000
  H   H1454     1.0  0.90186  0.49724  0.81005  1.0000
  H   H1455     1.0  0.71600  0.54713  0.14644  1.0000
  H   H1456     1.0  0.69396  0.56558  0.15623  1.0000
  H   H1457     1.0  0.98578  0.55135  0.62532  1.0000
  H   H1458     1.0  0.95269  0.51655  0.48588  1.0000
  C   C826      1.0  0.69498  0.56391  0.19100  1.0000
  H   H1459     1.0  0.93343  0.50670  0.44342  1.0000
  H   H1460     1.0  0.94721  0.64388  0.66989  1.0000
  S   S190      1.0  0.96773  0.53210  0.26321  1.0000
  H   H1461     1.0  0.97927  0.49822  0.49712  1.0000
  H   H1462     1.0  0.96291  0.56312  0.16564  1.0000
  Fe  Fe92      1.0  0.87311  0.51165  0.11681  1.0000
  H   H1463     1.0  0.75135  0.56110  0.13268  1.0000
  H   H1464     1.0  0.76125  0.56231  0.30506  1.0000
  H   H1465     1.0  0.66683  0.60613  0.41534  1.0000
  H   H1466     1.0  0.95298  0.58137  0.06400  1.0000
  C   C827      1.0  0.95398  0.55778  0.69620  1.0000
  H   H1467     1.0  0.98659  0.61863  0.52834  1.0000
  H   H1468     1.0  0.68512  0.53146  0.18566  1.0000
  C   C828      1.0  0.94469  0.51302  0.08364  1.0000
  H   H1469     1.0  0.93155  0.54387  0.12170  1.0000
  H   H1470     1.0  0.72681  0.55387  0.27282  1.0000
  C   C829      1.0  0.94155  0.55119  0.09442  1.0000
  C   C830      1.0  0.94255  0.55023  0.24493  1.0000
  C   C831      1.0  0.94569  0.53284  0.24095  1.0000
  C   C832      1.0  0.93136  0.51557  0.21668  1.0000
  C   C833      1.0  0.91437  0.51584  0.19552  1.0000
  C   C834      1.0  0.97448  0.55963  0.06105  1.0000
  H   H1471     1.0  0.95346  0.56360  0.26362  1.0000
  H   H1472     1.0  0.69806  0.54349  0.23509  1.0000
  H   H1473     1.0  0.92849  0.50993  0.08767  1.0000
  C   C835      1.0  0.92198  0.52088  0.94651  1.0000
  C   C836      1.0  0.90975  0.52272  0.91388  1.0000
  C   C837      1.0  0.91844  0.53033  0.87441  1.0000
  C   C838      1.0  0.93938  0.53621  0.86723  1.0000
  C   C839      1.0  0.95169  0.53497  0.90040  1.0000
  H   H1474     1.0  0.75239  0.53515  0.31428  1.0000
  S   S191      1.0  0.89050  0.53441  0.17137  1.0000
  H   H1475     1.0  0.90882  0.53143  0.84913  1.0000
  H   H1476     1.0  0.96783  0.53960  0.89557  1.0000
  H   H1477     1.0  0.70774  0.57831  0.20541  1.0000
  H   H1478     1.0  0.95057  0.49782  0.89147  1.0000
  H   H1479     1.0  0.77820  0.55900  0.09096  1.0000
  C   C840      1.0  0.93820  0.50297  0.47430  1.0000
  C   C841      1.0  0.92144  0.49990  0.50568  1.0000
  H   H1480     1.0  0.71796  0.52673  0.28194  1.0000
  C   C842      1.0  0.92541  0.55043  0.22397  1.0000
  N   N47       1.0  0.96263  0.55236  0.10134  1.0000
  H   H1481     1.0  0.72652  0.52215  0.12893  1.0000
  H   H1482     1.0  0.95261  0.52587  0.96465  1.0000
  H   H1483     1.0  0.90835  0.56020  0.09487  1.0000
  H   H1484     1.0  0.94848  0.51653  0.04995  1.0000
  H   H1485     1.0  0.75339  0.53759  0.07590  1.0000
  H   H1486     1.0  0.67218  0.52498  0.92182  1.0000
  H   H1487     1.0  0.77143  0.53363  0.10970  1.0000
  C   C843      1.0  0.95936  0.53126  0.11366  1.0000
  H   H1488     1.0  0.96221  0.60069  0.58327  1.0000
  H   H1489     1.0  0.93744  0.54599  0.69360  1.0000
  C   C844      1.0  0.92026  0.56881  0.07147  1.0000
  H   H1490     1.0  0.95283  0.52778  0.14576  1.0000
  H   H1491     1.0  0.95903  0.50903  0.40156  1.0000
  H   H1492     1.0  0.92315  0.56399  0.22684  1.0000
  C   C845      1.0  0.97879  0.50060  0.46248  1.0000
  C   C846      1.0  0.74076  0.53976  0.23154  1.0000
  H   H1493     1.0  0.94645  0.58268  0.69421  1.0000
  H   H1494     1.0  0.69782  0.51223  0.22601  1.0000
  C   C847      1.0  0.75604  0.54923  0.14128  1.0000
  C   C848      1.0  0.73745  0.52929  0.15665  1.0000
  H   H1495     1.0  0.98115  0.49980  0.76845  1.0000
  C   C849      1.0  0.74746  0.54729  0.31064  1.0000
  C   C850      1.0  0.95679  0.57794  0.67719  1.0000
  C   C851      1.0  0.76526  0.54452  0.10208  1.0000
  H   H1496     1.0  0.93972  0.63051  0.61854  1.0000
  C   C852      1.0  0.98487  0.60353  0.53879  1.0000
  H   H1497     1.0  0.93333  0.54106  0.06620  1.0000
  H   H1498     1.0  0.91591  0.56009  0.04053  1.0000
  H   H1499     1.0  0.89356  0.51794  0.91874  1.0000
  H   H1500     1.0  0.74374  0.51848  0.16419  1.0000
  C   C853      1.0  0.70764  0.51121  0.20073  1.0000
  H   H1501     1.0  0.75351  0.55550  0.22614  1.0000
  C   C854      1.0  0.94147  0.57210  0.08749  1.0000
  H   H1502     1.0  0.96367  0.55442  0.03270  1.0000
  H   H1503     1.0  0.74056  0.54880  0.34070  1.0000
  H   H1504     1.0  0.94507  0.58119  0.11791  1.0000
  H   H1505     1.0  0.76856  0.55594  0.16614  1.0000
  H   H1506     1.0  0.92064  0.58400  0.06710  1.0000
  H   H1507     1.0  0.96326  0.55170  0.67925  1.0000
  C   C855      1.0  0.71883  0.54768  0.18144  1.0000
  C   C856      1.0  0.97959  0.59510  0.68271  1.0000
  C   C857      1.0  0.98597  0.49796  0.90920  1.0000
  H   H1508     1.0  0.97659  0.64071  0.60513  1.0000
  H   H1509     1.0  0.95151  0.57467  0.64353  1.0000
  C   C858      1.0  0.97193  0.64072  0.63834  1.0000
  C   C859      1.0  0.69842  0.54531  0.20037  1.0000
  C   C860      1.0  0.73147  0.54149  0.27410  1.0000
  H   H1510     1.0  0.68021  0.56164  0.20470  1.0000
  C   C861      1.0  0.97665  0.59932  0.58363  1.0000
  H   H1511     1.0  0.95889  0.56032  0.73026  1.0000
  H   H1512     1.0  0.73123  0.56369  0.18908  1.0000
  H   H1513     1.0  0.96140  0.49502  0.08865  1.0000
  H   H1514     1.0  0.96342  0.62138  0.69322  1.0000
  H   H1515     1.0  0.97392  0.59118  0.51634  1.0000
  C   C862      1.0  0.95239  0.64340  0.63723  1.0000
  H   H1516     1.0  0.90351  0.50244  0.17699  1.0000
  S   S192      1.0  0.91176  0.50958  0.99540  1.0000
  H   H1517     1.0  0.98414  0.65442  0.65587  1.0000
  Fe  Fe93      1.0  0.83806  0.49706  0.04807  1.0000
  H   H1518     1.0  0.95388  0.60795  0.64413  1.0000
  H   H1519     1.0  0.98542  0.51120  0.92589  1.0000
  Fe  Fe94      1.0  0.98298  0.55402  0.80043  1.0000
  H   H1520     1.0  0.97268  0.54297  0.55033  1.0000
  H   H1521     1.0  0.65624  0.63134  0.44232  1.0000
  Fe  Fe95      1.0  0.88114  0.50079  0.02774  1.0000
  H   H1522     1.0  0.95568  0.65814  0.62204  1.0000
  N   N48       1.0  0.98566  0.61519  0.66047  1.0000
  C   C863      1.0  0.96796  0.62042  0.66005  1.0000
  H   H1523     1.0  0.65499  0.58475  0.10957  1.0000
  Fe  Fe96      1.0  0.66207  0.50251  0.03313  1.0000
  H   H1524     1.0  0.97297  0.58318  0.59053  1.0000
  H   H1525     1.0  0.66356  0.53184  0.84914  1.0000
  H   H1526     1.0  0.69733  0.50590  0.17182  1.0000
  H   H1527     1.0  0.97622  0.58331  0.12994  1.0000
  H   H1528     1.0  0.98220  0.59802  0.71766  1.0000
  H   H1529     1.0  0.93637  0.50600  0.33976  1.0000
  H   H1530     1.0  0.92585  0.49695  0.53776  1.0000
  H   H1531     1.0  0.72330  0.49778  0.24045  1.0000
  H   H1532     1.0  0.97422  0.53073  0.11674  1.0000
  H   H1533     1.0  0.98230  0.57683  0.06058  1.0000
  H   H1534     1.0  0.98339  0.53557  0.04419  1.0000
  H   H1535     1.0  0.77289  0.49508  0.97566  1.0000
  C   C864      1.0  0.78544  0.49499  0.03801  1.0000
  H   H1536     1.0  0.79312  0.49459  0.10395  1.0000
