data_image0
_chemical_formula_structural       NHSCFeS2FeS2FeSFeS3H2CHCH2CH4CHSH2C5H3C2HC6H11C5HSCH3C2SH6C2HCHCH2CH3NSHCH4CH3CHCNC5FeC3H14CH7C2H3CHCH6CHCFeNC2HCH4CH2CHCHCHCH8FeCH6CHC2HCH3CH6SH2CHC2H4C2H2FeS2FeS2FeS3FeHCFeS2FeSCHS2H2FeCSH4FeSH2SHFeSCSHFeS2FeS2FeSFeS3FeS2FeS2FeSFeS3FeS2FeS2FeSFeS2H2C3H3C6H4C6H4C6H5C6H4C6H5CHCH2C6H4C6H4CH3C7H5C4H4C7H3NC12H16SC2H6SHCHC4H3CH2CH4FeH2SHCH2FeCH3SHCH9C2HCHCHNC12H28NC10H22NC12H17CH6CH4NC7H17C2H4FeC2H3CH4C2HCHC2HCH2C2H5CH2NH5C2H2C2H2C3H5CH10CH3CH2CH3CHCHCH2CH2C3HNCH3CH3CHC2H5CH2CHC2HNHNH4CH4CHC2H2NH2CH2C4H4NCH2C2H4CH2CSH4CH3CH2CH3S2H3FeHSH6NH6SH5CHCHC4H3C3HCH3CHCHCH9SHFeC2HCH2SHCHCH6C2FeH2SCH3CHNHSHCHC2HCH3CH2CH2CH3CHCH3SHFeH2CH3C2H4FeS2FeS2FeHFeS3H4CH4CHC2H2C6H4CH2C4HCH2SNHCSH3CH2CHCH2CH18CHCHC7HCHCHCHCSHCH10CH2CH2SHCH3CHFeH2CHSHC2HFeS2FeS2FeSFeS3FeS2FeS2FeSFeS3FeS2FeS2Fe2S3FeSH2CFeS2FeS2FeS2Fe2S5FeSFeSC2HCH2C6H4CH3C6SHCHC6H4C6H4C6H4C6H4C6H4C6H4C6H5CH3CHCH5C2H2C6H4NC2HC7H21CHCHC2H2C4H5FeH5CHCHCH3C2H3C2H3NC12H28NC12H28NC12H28NC4HCH4C3H5CSH2CH3C2H2C2H2C2H2SH6NC9H9SCFeH2CHC3HCH4CHCH3CH2CH2C2H3NH3C2HFeHCH5CHC3H3CHCHCHCHCH7C2H3C2HCHNH2CHCHCH4CHCNCH3CSH2CH3CH2CH2CH3CHSHCH3CH2CH6C2HCH5CH3C2H2NH5SCHCH2C3H3NH2CH8CHCH5CHCSH5C2H2SCSHCNHCHCHCH5SH3C2H5CH2SC2H4SCFeH4C2H3C3HSHCH2CHCH2CHCH6C2H11CSHCHC3HSH5CH2CNSH2CH7C3HNCHCH2CH3C2FeH3CHCHCSH2FeCH9C2HNH4CHCFeH6CH2CH2C4HSH2CH2FeHSHCHSCSFeS2FeS2FeSFeS3FeS2FeS2FeSFeS3FeS2FeS2FeSFeS3FeS2FeS2FeSFeS3FeHSFeS2FeHCHS2C2HC5H2C6H4C6H4C6H4C5H2C6H4C6H5CH3CH2NCHC4H5C4H3C6H4C6H4C6H4NC11H24CHCHNC6H2C2H15C2H5NC12H29CFeC4H7C2SH3CH2C2H5CHC3H2NC3HC6H6CH12C2H4SH2C2H5C4H4CH5CH2SH4C2FeHCH4CH3CH4CH6SCFeH2CHCH2CNC5HCH2CHCSCH5CHCHSH2CNCH3C2H4CH5CH2NCH4CH4CH2CH3SC2H2CH2CH4CHCH2CH2CH14CHCHC2H3SHCH4CHCH2CHCH7NH5CHNH3C2H2CHC2HFeC2SCHNCH2C2H3NCHCH3CH4C2H10CH2CHCH3CH4CHCFeH3CH3C2H2CH3SCH2SHCHFeS2FeSFeSFeS3FeS2FeS2FeSFeS3FeS2FeS2FeSFeS3FeS2FeS2FeSFeS3FeS2FeS2FeCFeS3FeS2FeS2FeSFeS3H2CHFeHS3C3HCH3C2H2C2H4C6H7C3FeH3C6H4C6H4C6H4C6H4C6H5C3H3C6H4C6H4C6H4C6H4C6H4CHC3HCSHC3H4CH5NC12H29C4H3CH5NC2H4CH3C3H11CH3CH2C2H3CHCH4CHCH3CH3CH5CH4NCNCH4CH2C5H5CH2NH4CH5CHC2FeHCHCH2CHNCHNHCH2CH2CH3C2HC2H2CH2CHCNH2CHCHC3H3NCH3CH3C2H8CH2CHCHC2H4CHCSH2CFeCH2CH2CHCHCHCH10CSH4CH2CH4C3HCH5CHC2H13CHC6H6CH2CHC2H2CHC2H7SH2CH2NH3CH2C2H11C4H2CHSNH9C3HC2H6CH2CH12CHCHSH3CH2CH4SCHCHNHCH6CHSHC2FeH4CH2CHC2H4CH4CH3SH4C3HCH4C2HC2H3CHCHC2H3FeSHFeS2FeSFeS3FeS2FeS2FeSFeS3FeS2FeS2FeSFeS3FeS2FeS2FeSFeS3FeS2FeS2FeSFeS3FeS2FeS2FeSFeS4FeSHFeS2FeSFeHSC6H4C6H4C3H2C6H4C6H4C6H3C7H4C3H2CH2C7H4C6H4C6H4C6H4C6H4C6H4CH2C2HCHCH4NC6H17CH3CH2CHCH4C3HC2H3CH2FeH3C2H7NC12H28C2H7C3H9C3H6CNH2CH2CH4CH3CHCHCH2CH2CH4CH4CHCH5C2HCH3C2H5CNH3C5H2NH3C2HC2HCH6CH5C2HCHC2HNH4C2SH9CNH3CH3CHCH2FeH2C5H2C2H5CH2CHNCH3NCH2CH4CHNC2HC2H5CH5C3HCHCHCH2C2HCH2CHCH6C2HCHCH4FeH3CH4CH8SH5CHCH2C2HC2HCH4C2H4C2HCH3C2HCH8C4HNCNC2H4NCH3C2HCH4CH4C2H8C2H3NH3CH2CHC3H7CHCSH2CHCH2CH3CHC2H2CH3CH2CH4CH8CH2CH7CHCH5SH6CHCHCHNH2C2HC2HCH4CH6CH3SCH2FeH6SH4CHCH2CHC2H2CHCH2NH3C2HCHC2H4C2SC2HSH4C3H4C2H8C2H2CH2C2H11CSNH2CNHCH4CH2C2NCH6CHC2HCSH2SHFeSCHSH4C2FeC3HCH2C3H2CH5NH3SHC2HCH2C2HCH4CH2FeCH3CH10CHC2FeSHFeS2FeSFeS2C2HCH6C2HC6H2CHC3H4CH4C3HC3HC3HCH17SHNH2CH5C3H3CH2C2H6SHC4H8CH2CHCH2CH5C2H3CH3NC2HCNHCHCH2CHC2H4NH6SH4CHCHCH2FeS2FeS2Fe2S4CSHFeSFeSFeS2FeS2FeSFeS3FeS2FeS2FeSFeS3FeS2FeS2FeSFeS3FeS2FeS2FeSFeS3H2CSC2HFeSC2FeS2FeS2FeS3C6H4C7H3C6H4C6HCH2C6H4C6H4C6H4C6H4C6H4C6H3C6H4C6H4C6H5C6H4C2H4SCFeSH9CHCHCSHCH3CHSHNC12H28NC12H28NC12H28NC12H28NC12H31CHNC12H30C4HFeH2CH2FeH2CSCH7CH6C2H6C3H2C2H2CH3CH2C2HNH9CH5CHC2HCH3NHCH2CHC2HCH6NH3C2H6CHCHCH2C2HCH3C2HCHCH3CHCH5CH5CFeH2C2H7CSHSHSHCHC2H2NCHC2H5C2H5CH4CH3C2H3NH5CHCH2NH2CHC2HCH4C3HCH4C2HCH2CH2NCH3C2H7CHFeHCSCH5NH12C2H6C2H5CHSH3CHNCH2C2HC2H2CH3CH7C2H2CH4CH4FeHCH4SCH3
_chemical_formula_sum              "N96 H3072 S384 C1728 Fe192"
_cell_length_a       117.669
_cell_length_b       116.176
_cell_length_c       31.3641
_cell_angle_alpha    76.9455
_cell_angle_beta     77.0773
_cell_angle_gamma    102.105

_space_group_name_H-M_alt    "P 1"
_space_group_IT_number       1

loop_
  _space_group_symop_operation_xyz
  'x, y, z'

loop_
  _atom_site_type_symbol
  _atom_site_label
  _atom_site_symmetry_multiplicity
  _atom_site_fract_x
  _atom_site_fract_y
  _atom_site_fract_z
  _atom_site_occupancy
  N   N1        1.0  0.01490  0.49126  0.05533  1.0000
  H   H1        1.0  0.18083  0.50061  0.11184  1.0000
  S   S1        1.0  0.09894  0.49244  0.23216  1.0000
  C   C1        1.0  0.06765  0.42021  0.08317  1.0000
  Fe  Fe1       1.0  0.06486  0.46431  0.05893  1.0000
  S   S2        1.0  0.07472  0.47867  0.99268  1.0000
  S   S3        1.0  0.07575  0.46150  0.11132  1.0000
  Fe  Fe2       1.0  0.04314  0.45467  0.01990  1.0000
  S   S4        1.0  0.05213  0.46864  0.95130  1.0000
  S   S5        1.0  0.02364  0.44177  0.04065  1.0000
  Fe  Fe3       1.0  0.06947  0.46423  0.95890  1.0000
  S   S6        1.0  0.08460  0.46177  0.90606  1.0000
  Fe  Fe4       1.0  0.05666  0.48174  0.99175  1.0000
  S   S7        1.0  0.05384  0.50056  0.97627  1.0000
  S   S8        1.0  0.06036  0.44934  0.02506  1.0000
  S   S9        1.0  0.04678  0.46825  0.06054  1.0000
  H   H2        1.0  0.04657  0.42716  0.10521  1.0000
  H   H3        1.0  0.13342  0.47066  0.54963  1.0000
  C   C2        1.0  0.01343  0.43558  0.01113  1.0000
  H   H4        1.0  0.01267  0.46881  0.86989  1.0000
  C   C3        1.0  0.04691  0.43876  0.16974  1.0000
  H   H5        1.0  0.02811  0.49437  0.99061  1.0000
  H   H6        1.0  0.01453  0.47498  0.03227  1.0000
  C   C4        1.0  0.01726  0.43576  0.96525  1.0000
  H   H7        1.0  0.08004  0.50456  0.94643  1.0000
  H   H8        1.0  0.06434  0.41004  0.09254  1.0000
  H   H9        1.0  0.01202  0.43099  0.90824  1.0000
  H   H10       1.0  0.02673  0.43970  0.94640  1.0000
  C   C5        1.0  0.04431  0.40473  0.22800  1.0000
  H   H11       1.0  0.05017  0.40269  0.19925  1.0000
  S   S10       1.0  0.12633  0.50008  0.40341  1.0000
  H   H12       1.0  0.01854  0.47488  0.94768  1.0000
  H   H13       1.0  0.21042  0.50893  0.19217  1.0000
  C   C6        1.0  0.08829  0.48540  0.85394  1.0000
  C   C7        1.0  0.09274  0.47510  0.86089  1.0000
  C   C8        1.0  0.10377  0.47539  0.83130  1.0000
  C   C9        1.0  0.11028  0.48592  0.79466  1.0000
  C   C10       1.0  0.13895  0.48221  0.61281  1.0000
  H   H14       1.0  0.07981  0.48526  0.87658  1.0000
  H   H15       1.0  0.10725  0.46744  0.83682  1.0000
  H   H16       1.0  0.09092  0.50358  0.81071  1.0000
  C   C11       1.0  0.02513  0.49245  0.07724  1.0000
  C   C12       1.0  0.12409  0.46536  0.57081  1.0000
  H   H17       1.0  0.13559  0.45762  0.69362  1.0000
  C   C13       1.0  0.09337  0.48466  0.19456  1.0000
  C   C14       1.0  0.09943  0.47735  0.17347  1.0000
  C   C15       1.0  0.09408  0.47062  0.14714  1.0000
  C   C16       1.0  0.08279  0.47137  0.14015  1.0000
  C   C17       1.0  0.07694  0.47901  0.15995  1.0000
  C   C18       1.0  0.08213  0.48546  0.18732  1.0000
  H   H18       1.0  0.10802  0.47652  0.17888  1.0000
  H   H19       1.0  0.09865  0.46463  0.13268  1.0000
  H   H20       1.0  0.06826  0.47971  0.15532  1.0000
  H   H21       1.0  0.07728  0.49095  0.20378  1.0000
  H   H22       1.0  0.14117  0.49038  0.62521  1.0000
  H   H23       1.0  0.12816  0.44847  0.77686  1.0000
  H   H24       1.0  0.00672  0.47996  0.89123  1.0000
  H   H25       1.0  0.04696  0.44387  0.13503  1.0000
  H   H26       1.0  0.05654  0.44139  0.16999  1.0000
  H   H27       1.0  0.18691  0.50289  0.24299  1.0000
  H   H28       1.0  0.16386  0.49287  0.59587  1.0000
  C   C19       1.0  0.00939  0.49009  0.74892  1.0000
  C   C20       1.0  0.00810  0.47957  0.79059  1.0000
  C   C21       1.0  0.01847  0.50309  0.92428  1.0000
  C   C22       1.0  0.11758  0.48192  0.62831  1.0000
  C   C23       1.0  0.13489  0.50452  0.44070  1.0000
  H   H29       1.0  0.02432  0.42205  0.21961  1.0000
  S   S11       1.0  0.12797  0.48781  0.28743  1.0000
  C   C24       1.0  0.16148  0.48441  0.58514  1.0000
  H   H30       1.0  0.11874  0.48609  0.77189  1.0000
  H   H31       1.0  0.12199  0.45511  0.52188  1.0000
  H   H32       1.0  0.11487  0.46997  0.70815  1.0000
  C   C25       1.0  0.12124  0.45322  0.55891  1.0000
  C   C26       1.0  0.01461  0.46492  0.95344  1.0000
  S   S12       1.0  0.16045  0.49746  0.18892  1.0000
  H   H33       1.0  0.04194  0.40087  0.30137  1.0000
  H   H34       1.0  0.06578  0.42064  0.15217  1.0000
  H   H35       1.0  0.15630  0.49073  0.95028  1.0000
  H   H36       1.0  0.06678  0.43499  0.11310  1.0000
  H   H37       1.0  0.13004  0.50355  0.96771  1.0000
  H   H38       1.0  0.11702  0.49082  0.68425  1.0000
  C   C27       1.0  0.12662  0.45740  0.76145  1.0000
  C   C28       1.0  0.10555  0.49604  0.78683  1.0000
  H   H39       1.0  0.12775  0.44793  0.56646  1.0000
  C   C29       1.0  0.12515  0.50908  0.88528  1.0000
  H   H40       1.0  0.05544  0.42314  0.21728  1.0000
  C   C30       1.0  0.12679  0.45858  0.71175  1.0000
  H   H41       1.0  0.16111  0.49642  0.28318  1.0000
  H   H42       1.0  0.11185  0.44760  0.57843  1.0000
  C   C31       1.0  0.17990  0.50962  0.11282  1.0000
  H   H43       1.0  0.05503  0.45837  0.20446  1.0000
  H   H44       1.0  0.03049  0.44355  0.20118  1.0000
  H   H45       1.0  0.15002  0.47398  0.65148  1.0000
  N   N2        1.0  0.12620  0.47440  0.63830  1.0000
  S   S13       1.0  0.14652  0.50451  0.68600  1.0000
  H   H46       1.0  0.14742  0.49281  0.00137  1.0000
  C   C32       1.0  0.02905  0.42079  0.18674  1.0000
  H   H47       1.0  0.16129  0.48702  0.54900  1.0000
  H   H48       1.0  0.03477  0.39973  0.23302  1.0000
  H   H49       1.0  0.08985  0.49745  0.08436  1.0000
  H   H50       1.0  0.03235  0.48885  0.05970  1.0000
  C   C33       1.0  0.12443  0.47089  0.68943  1.0000
  H   H51       1.0  0.15260  0.50825  0.39441  1.0000
  H   H52       1.0  0.11345  0.45764  0.64178  1.0000
  H   H53       1.0  0.00797  0.47118  0.77921  1.0000
  C   C34       1.0  0.14923  0.47596  0.61616  1.0000
  H   H54       1.0  0.11764  0.47039  0.56066  1.0000
  C   C35       1.0  0.13491  0.50735  0.51630  1.0000
  N   N3        1.0  0.11547  0.49052  0.95795  1.0000
  C   C36       1.0  0.11823  0.49526  0.90670  1.0000
  C   C37       1.0  0.10922  0.47687  0.97443  1.0000
  C   C38       1.0  0.10673  0.49700  0.97852  1.0000
  C   C39       1.0  0.12663  0.49345  0.97394  1.0000
  C   C40       1.0  0.13732  0.48867  0.95353  1.0000
  Fe  Fe5       1.0  0.11706  0.49806  0.24951  1.0000
  C   C41       1.0  0.10111  0.49229  0.03110  1.0000
  C   C42       1.0  0.11336  0.46885  0.94390  1.0000
  C   C43       1.0  0.10766  0.45518  0.96850  1.0000
  H   H55       1.0  0.10909  0.50188  0.60078  1.0000
  H   H56       1.0  0.04662  0.38945  0.27660  1.0000
  H   H57       1.0  0.13389  0.46491  0.76356  1.0000
  H   H58       1.0  0.10965  0.49351  0.89663  1.0000
  H   H59       1.0  0.12378  0.49022  0.88882  1.0000
  H   H60       1.0  0.10987  0.47285  0.00932  1.0000
  H   H61       1.0  0.09933  0.47522  0.97791  1.0000
  H   H62       1.0  0.09908  0.49650  0.96284  1.0000
  H   H63       1.0  0.12862  0.45685  0.63062  1.0000
  H   H64       1.0  0.00714  0.48712  0.97802  1.0000
  H   H65       1.0  0.12437  0.48953  0.01157  1.0000
  H   H66       1.0  0.07373  0.50589  0.14203  1.0000
  H   H67       1.0  0.13518  0.47862  0.96928  1.0000
  H   H68       1.0  0.05744  0.40392  0.26719  1.0000
  C   C44       1.0  0.03973  0.44405  0.20484  1.0000
  H   H69       1.0  0.18118  0.50807  0.32098  1.0000
  H   H70       1.0  0.09586  0.48249  0.04233  1.0000
  H   H71       1.0  0.11036  0.47090  0.91263  1.0000
  H   H72       1.0  0.12330  0.47050  0.93311  1.0000
  H   H73       1.0  0.11030  0.44968  0.94515  1.0000
  H   H74       1.0  0.11081  0.45244  0.99916  1.0000
  H   H75       1.0  0.09760  0.45307  0.97902  1.0000
  C   C45       1.0  0.00919  0.47792  0.05987  1.0000
  C   C46       1.0  0.09250  0.49965  0.04671  1.0000
  H   H76       1.0  0.00935  0.50737  0.06385  1.0000
  H   H77       1.0  0.01788  0.49135  0.72213  1.0000
  H   H78       1.0  0.11912  0.48551  0.59089  1.0000
  C   C47       1.0  0.00885  0.43079  0.94361  1.0000
  H   H79       1.0  0.00698  0.42705  0.19416  1.0000
  C   C48       1.0  0.12295  0.46309  0.62256  1.0000
  H   H80       1.0  0.09698  0.50964  0.03223  1.0000
  H   H81       1.0  0.14769  0.46738  0.60588  1.0000
  H   H82       1.0  0.11954  0.45073  0.71164  1.0000
  H   H83       1.0  0.04736  0.46307  0.16231  1.0000
  H   H84       1.0  0.13976  0.48614  0.57611  1.0000
  H   H85       1.0  0.16866  0.47962  0.58741  1.0000
  C   C49       1.0  0.00817  0.46816  0.10445  1.0000
  H   H86       1.0  0.11770  0.45776  0.78154  1.0000
  C   C50       1.0  0.02038  0.49783  0.00494  1.0000
  Fe  Fe6       1.0  0.12996  0.50235  0.32558  1.0000
  N   N4        1.0  0.04261  0.42506  0.17771  1.0000
  C   C51       1.0  0.04590  0.41876  0.21906  1.0000
  C   C52       1.0  0.04863  0.42196  0.13564  1.0000
  H   H87       1.0  0.04050  0.46127  0.22178  1.0000
  C   C53       1.0  0.09460  0.49577  0.81665  1.0000
  H   H88       1.0  0.09935  0.49329  0.65757  1.0000
  H   H89       1.0  0.04034  0.42000  0.25050  1.0000
  H   H90       1.0  0.03830  0.49995  0.13555  1.0000
  H   H91       1.0  0.08415  0.49739  0.03594  1.0000
  C   C54       1.0  0.06266  0.42491  0.12324  1.0000
  H   H92       1.0  0.04478  0.41213  0.13835  1.0000
  H   H93       1.0  0.03888  0.43896  0.24035  1.0000
  C   C55       1.0  0.12863  0.50426  0.48506  1.0000
  H   H94       1.0  0.07771  0.42288  0.07383  1.0000
  C   C56       1.0  0.01166  0.49679  0.97464  1.0000
  H   H95       1.0  0.02647  0.42351  0.11835  1.0000
  C   C57       1.0  0.11830  0.49330  0.64689  1.0000
  H   H96       1.0  0.01730  0.46700  0.10471  1.0000
  C   C58       1.0  0.04780  0.39947  0.27095  1.0000
  H   H97       1.0  0.13008  0.47837  0.69876  1.0000
  H   H98       1.0  0.02217  0.48671  0.11319  1.0000
  H   H99       1.0  0.15994  0.49513  0.34236  1.0000
  H   H100      1.0  0.10821  0.49332  0.04906  1.0000
  H   H101      1.0  0.06488  0.42426  0.05283  1.0000
  H   H102      1.0  0.10803  0.47602  0.64231  1.0000
  H   H103      1.0  0.01628  0.48196  0.80230  1.0000
  H   H104      1.0  0.12719  0.50021  0.63001  1.0000
  Fe  Fe7       1.0  0.14433  0.50123  0.23256  1.0000
  C   C59       1.0  0.14888  0.49461  0.96394  1.0000
  H   H105      1.0  0.02131  0.46146  0.93261  1.0000
  H   H106      1.0  0.00980  0.49882  0.75827  1.0000
  H   H107      1.0  0.00666  0.42777  0.13653  1.0000
  H   H108      1.0  0.11882  0.50169  0.49521  1.0000
  H   H109      1.0  0.01203  0.50242  0.90334  1.0000
  H   H110      1.0  0.19820  0.50694  0.16676  1.0000
  C   C60       1.0  0.02391  0.42685  0.14870  1.0000
  H   H111      1.0  0.02608  0.41075  0.19122  1.0000
  C   C61       1.0  0.01007  0.42352  0.16475  1.0000
  C   C62       1.0  0.16635  0.49652  0.30852  1.0000
  H   H112      1.0  0.12994  0.50733  0.54964  1.0000
  C   C63       1.0  0.10849  0.49947  0.63768  1.0000
  H   H113      1.0  0.01299  0.46014  0.98996  1.0000
  H   H114      1.0  0.00615  0.41341  0.17461  1.0000
  H   H115      1.0  0.17051  0.48874  0.31065  1.0000
  C   C64       1.0  0.04605  0.45752  0.19776  1.0000
  H   H116      1.0  0.12179  0.50320  0.12808  1.0000
  H   H117      1.0  0.02733  0.43700  0.13777  1.0000
  H   H118      1.0  0.02560  0.49866  0.91248  1.0000
  H   H119      1.0  0.13941  0.49063  0.91596  1.0000
  H   H120      1.0  0.11122  0.50693  0.97109  1.0000
  H   H121      1.0  0.00626  0.49177  0.14574  1.0000
  S   S14       1.0  0.11263  0.50898  0.73910  1.0000
  H   H122      1.0  0.02421  0.50783  0.99906  1.0000
  H   H123      1.0  0.04861  0.50229  0.08000  1.0000
  C   C65       1.0  0.03112  0.50562  0.07814  1.0000
  H   H124      1.0  0.12452  0.50711  0.06725  1.0000
  C   C66       1.0  0.14759  0.50796  0.42824  1.0000
  C   C67       1.0  0.00548  0.49723  0.07414  1.0000
  H   H125      1.0  0.20417  0.50856  0.26503  1.0000
  H   H126      1.0  0.15180  0.50470  0.94745  1.0000
  H   H127      1.0  0.10970  0.50802  0.64837  1.0000
  H   H128      1.0  0.13095  0.50737  0.81636  1.0000
  C   C68       1.0  0.17611  0.50872  0.29516  1.0000
  C   C69       1.0  0.04161  0.50573  0.09948  1.0000
  H   H129      1.0  0.02449  0.50923  0.09858  1.0000
  H   H130      1.0  0.10508  0.50983  0.10925  1.0000
  Fe  Fe8       1.0  0.21216  0.55056  0.98411  1.0000
  S   S15       1.0  0.22275  0.54159  0.93798  1.0000
  S   S16       1.0  0.20010  0.54510  0.05694  1.0000
  Fe  Fe9       1.0  0.22169  0.57567  0.91536  1.0000
  S   S17       1.0  0.23279  0.56866  0.86452  1.0000
  S   S18       1.0  0.21947  0.59498  0.89990  1.0000
  Fe  Fe10      1.0  0.21638  0.55244  0.88215  1.0000
  S   S19       1.0  0.21070  0.54934  0.81840  1.0000
  S   S20       1.0  0.20506  0.56027  0.92969  1.0000
  S   S21       1.0  0.22816  0.56669  0.97266  1.0000
  Fe  Fe11      1.0  0.24168  0.65327  0.96737  1.0000
  H   H131      1.0  0.10994  0.51635  0.17099  1.0000
  C   C70       1.0  0.19309  0.53345  0.24128  1.0000
  Fe  Fe12      1.0  0.22362  0.66665  0.00040  1.0000
  S   S22       1.0  0.23277  0.68343  0.94096  1.0000
  S   S23       1.0  0.20555  0.66587  0.04608  1.0000
  Fe  Fe13      1.0  0.23363  0.67009  0.89873  1.0000
  S   S24       1.0  0.22636  0.67199  0.83598  1.0000
  C   C71       1.0  0.18854  0.52020  0.08168  1.0000
  H   H132      1.0  0.03953  0.56112  0.91491  1.0000
  S   S25       1.0  0.22351  0.65366  0.95779  1.0000
  S   S26       1.0  0.24092  0.66480  0.01657  1.0000
  H   H133      1.0  0.06448  0.58331  0.92498  1.0000
  H   H134      1.0  0.19022  0.66263  0.99070  1.0000
  Fe  Fe14      1.0  0.13472  0.52288  0.23806  1.0000
  C   C72       1.0  0.03277  0.54237  0.03999  1.0000
  S   S27       1.0  0.13773  0.54305  0.20674  1.0000
  H   H135      1.0  0.15058  0.59638  0.90363  1.0000
  H   H136      1.0  0.23224  0.59289  0.96949  1.0000
  H   H137      1.0  0.11513  0.52366  0.06651  1.0000
  H   H138      1.0  0.04905  0.59328  0.85460  1.0000
  Fe  Fe15      1.0  0.15925  0.51929  0.70365  1.0000
  S   S28       1.0  0.14463  0.52829  0.72352  1.0000
  H   H139      1.0  0.10217  0.52570  0.61507  1.0000
  H   H140      1.0  0.22488  0.70821  0.24431  1.0000
  S   S29       1.0  0.13747  0.52689  0.62937  1.0000
  H   H141      1.0  0.16883  0.65222  0.93296  1.0000
  Fe  Fe16      1.0  0.15089  0.53942  0.65057  1.0000
  S   S30       1.0  0.15306  0.55968  0.63010  1.0000
  C   C73       1.0  0.08725  0.52348  0.10691  1.0000
  S   S31       1.0  0.16607  0.53115  0.63030  1.0000
  H   H142      1.0  0.24179  0.63600  0.82360  1.0000
  Fe  Fe17      1.0  0.16526  0.61639  0.27497  1.0000
  S   S32       1.0  0.14848  0.62252  0.29767  1.0000
  S   S33       1.0  0.18503  0.62624  0.23875  1.0000
  Fe  Fe18      1.0  0.15205  0.58989  0.32403  1.0000
  S   S34       1.0  0.13439  0.59382  0.35013  1.0000
  S   S35       1.0  0.15499  0.57120  0.34056  1.0000
  Fe  Fe19      1.0  0.13865  0.60612  0.27819  1.0000
  S   S36       1.0  0.12542  0.60690  0.23289  1.0000
  Fe  Fe20      1.0  0.14578  0.60951  0.36785  1.0000
  S   S37       1.0  0.14072  0.61112  0.44226  1.0000
  S   S38       1.0  0.15581  0.60114  0.25184  1.0000
  S   S39       1.0  0.16299  0.60450  0.34521  1.0000
  Fe  Fe21      1.0  0.17777  0.62781  0.74263  1.0000
  S   S40       1.0  0.16088  0.61699  0.79920  1.0000
  S   S41       1.0  0.19478  0.63158  0.76845  1.0000
  Fe  Fe22      1.0  0.16442  0.62394  0.66694  1.0000
  S   S42       1.0  0.14676  0.61327  0.72037  1.0000
  S   S43       1.0  0.16792  0.62626  0.58867  1.0000
  Fe  Fe23      1.0  0.15101  0.62715  0.75798  1.0000
  S   S44       1.0  0.13677  0.63413  0.79734  1.0000
  Fe  Fe24      1.0  0.15816  0.60404  0.75741  1.0000
  S   S45       1.0  0.15327  0.58375  0.79128  1.0000
  S   S46       1.0  0.16799  0.63898  0.70234  1.0000
  S   S47       1.0  0.17566  0.61379  0.70305  1.0000
  Fe  Fe25      1.0  0.08823  0.55579  0.00926  1.0000
  S   S48       1.0  0.07653  0.55064  0.08139  1.0000
  S   S49       1.0  0.09700  0.54253  0.98157  1.0000
  Fe  Fe26      1.0  0.08435  0.58106  0.98803  1.0000
  S   S50       1.0  0.07226  0.57743  0.05917  1.0000
  S   S51       1.0  0.08703  0.59899  0.93580  1.0000
  Fe  Fe27      1.0  0.08666  0.56945  0.08245  1.0000
  S   S52       1.0  0.09769  0.57085  0.13518  1.0000
  Fe  Fe28      1.0  0.06352  0.55900  0.05013  1.0000
  S   S53       1.0  0.09886  0.57395  0.01099  1.0000
  S   S54       1.0  0.07502  0.56339  0.97814  1.0000
  H   H143      1.0  0.23071  0.58444  0.76750  1.0000
  H   H144      1.0  0.06703  0.58913  0.84000  1.0000
  C   C74       1.0  0.08772  0.52121  0.96172  1.0000
  C   C75       1.0  0.08523  0.53070  0.97977  1.0000
  C   C76       1.0  0.07323  0.53092  0.99558  1.0000
  H   H145      1.0  0.05760  0.56784  0.93020  1.0000
  H   H146      1.0  0.09700  0.52112  0.94867  1.0000
  H   H147      1.0  0.07114  0.53803  0.01022  1.0000
  C   C77       1.0  0.12338  0.62377  0.83688  1.0000
  C   C78       1.0  0.12212  0.61115  0.85407  1.0000
  C   C79       1.0  0.11117  0.60338  0.88612  1.0000
  C   C80       1.0  0.10142  0.60820  0.89983  1.0000
  C   C81       1.0  0.10280  0.62077  0.88264  1.0000
  C   C82       1.0  0.11374  0.62851  0.85199  1.0000
  H   H148      1.0  0.12954  0.60742  0.84256  1.0000
  H   H149      1.0  0.11015  0.59365  0.89894  1.0000
  H   H150      1.0  0.09534  0.62457  0.89289  1.0000
  H   H151      1.0  0.11463  0.63821  0.83905  1.0000
  C   C83       1.0  0.14848  0.61568  0.48203  1.0000
  C   C84       1.0  0.16090  0.62171  0.46926  1.0000
  C   C85       1.0  0.16655  0.62499  0.50204  1.0000
  C   C86       1.0  0.16005  0.62209  0.54858  1.0000
  C   C87       1.0  0.14765  0.61601  0.56136  1.0000
  C   C88       1.0  0.14193  0.61303  0.52836  1.0000
  H   H152      1.0  0.16614  0.62401  0.43395  1.0000
  H   H153      1.0  0.17606  0.62990  0.49109  1.0000
  H   H154      1.0  0.14240  0.61375  0.59664  1.0000
  H   H155      1.0  0.13231  0.60853  0.53897  1.0000
  C   C89       1.0  0.11779  0.59662  0.20628  1.0000
  C   C90       1.0  0.11018  0.60059  0.18057  1.0000
  C   C91       1.0  0.10395  0.59289  0.15903  1.0000
  C   C92       1.0  0.10531  0.58106  0.16210  1.0000
  C   C93       1.0  0.11297  0.57709  0.18764  1.0000
  C   C94       1.0  0.11911  0.58476  0.20958  1.0000
  H   H156      1.0  0.10891  0.60966  0.17803  1.0000
  H   H157      1.0  0.09784  0.59603  0.14111  1.0000
  H   H158      1.0  0.11411  0.56796  0.19088  1.0000
  H   H159      1.0  0.12481  0.58148  0.22935  1.0000
  H   H160      1.0  0.12551  0.62003  0.93875  1.0000
  C   C95       1.0  0.15319  0.56618  0.67542  1.0000
  C   C96       1.0  0.15170  0.57797  0.67057  1.0000
  C   C97       1.0  0.15164  0.58327  0.70635  1.0000
  C   C98       1.0  0.15271  0.57671  0.74775  1.0000
  C   C99       1.0  0.15402  0.56483  0.75309  1.0000
  C   C100      1.0  0.15462  0.55973  0.71646  1.0000
  H   H161      1.0  0.15067  0.58312  0.63916  1.0000
  H   H162      1.0  0.15082  0.59248  0.70148  1.0000
  H   H163      1.0  0.15518  0.55982  0.78459  1.0000
  H   H164      1.0  0.15660  0.55100  0.71964  1.0000
  C   C101      1.0  0.14298  0.55122  0.24226  1.0000
  C   C102      1.0  0.13976  0.56199  0.24511  1.0000
  C   C103      1.0  0.14340  0.56818  0.27545  1.0000
  C   C104      1.0  0.15039  0.56366  0.30243  1.0000
  C   C105      1.0  0.15372  0.55299  0.29912  1.0000
  C   C106      1.0  0.15009  0.54683  0.26884  1.0000
  H   H165      1.0  0.13422  0.56535  0.22470  1.0000
  H   H166      1.0  0.14055  0.57628  0.27864  1.0000
  H   H167      1.0  0.15910  0.54947  0.32003  1.0000
  H   H168      1.0  0.15293  0.53880  0.26576  1.0000
  H   H169      1.0  0.02244  0.57796  0.90670  1.0000
  C   C107      1.0  0.02024  0.53786  0.06261  1.0000
  H   H170      1.0  0.14817  0.64538  0.09291  1.0000
  C   C108      1.0  0.15513  0.64065  0.08217  1.0000
  H   H171      1.0  0.04136  0.57275  0.86430  1.0000
  H   H172      1.0  0.16044  0.63990  0.10738  1.0000
  C   C109      1.0  0.21593  0.66044  0.82382  1.0000
  C   C110      1.0  0.21504  0.64794  0.84000  1.0000
  C   C111      1.0  0.20815  0.63924  0.82401  1.0000
  C   C112      1.0  0.20182  0.64279  0.79233  1.0000
  C   C113      1.0  0.20229  0.65524  0.77765  1.0000
  C   C114      1.0  0.20936  0.66399  0.79303  1.0000
  H   H173      1.0  0.22014  0.64503  0.86314  1.0000
  H   H174      1.0  0.20805  0.62972  0.83527  1.0000
  H   H175      1.0  0.19761  0.65821  0.75296  1.0000
  H   H176      1.0  0.21000  0.67363  0.77996  1.0000
  C   C115      1.0  0.19014  0.63611  0.18276  1.0000
  C   C116      1.0  0.18240  0.64154  0.16239  1.0000
  C   C117      1.0  0.18716  0.65046  0.11964  1.0000
  C   C118      1.0  0.19959  0.65376  0.09687  1.0000
  C   C119      1.0  0.20720  0.64790  0.11624  1.0000
  C   C120      1.0  0.20250  0.63919  0.15931  1.0000
  H   H177      1.0  0.17288  0.63927  0.18055  1.0000
  H   H178      1.0  0.18127  0.65509  0.10495  1.0000
  H   H179      1.0  0.21679  0.65040  0.09890  1.0000
  H   H180      1.0  0.20851  0.63500  0.17503  1.0000
  C   C121      1.0  0.25115  0.64194  0.80565  1.0000
  H   H181      1.0  0.04734  0.58351  0.06600  1.0000
  H   H182      1.0  0.08360  0.58390  0.87048  1.0000
  H   H183      1.0  0.07719  0.56782  0.87668  1.0000
  C   C122      1.0  0.16911  0.52236  0.14698  1.0000
  C   C123      1.0  0.18020  0.52576  0.77596  1.0000
  C   C124      1.0  0.18164  0.52195  0.82003  1.0000
  C   C125      1.0  0.19061  0.52914  0.83416  1.0000
  C   C126      1.0  0.19857  0.54015  0.80397  1.0000
  C   C127      1.0  0.19710  0.54398  0.75996  1.0000
  C   C128      1.0  0.18791  0.53698  0.74631  1.0000
  H   H184      1.0  0.07647  0.53183  0.88997  1.0000
  H   H185      1.0  0.19159  0.52595  0.86796  1.0000
  H   H186      1.0  0.20318  0.55242  0.73606  1.0000
  H   H187      1.0  0.18707  0.54005  0.71222  1.0000
  H   H188      1.0  0.16792  0.65099  0.85593  1.0000
  C   C129      1.0  0.05647  0.61533  0.86427  1.0000
  C   C130      1.0  0.17787  0.53289  0.11664  1.0000
  C   C131      1.0  0.18776  0.53187  0.08460  1.0000
  C   C132      1.0  0.06374  0.52186  0.99294  1.0000
  H   H189      1.0  0.17897  0.66567  0.96376  1.0000
  H   H190      1.0  0.23025  0.64055  0.77005  1.0000
  H   H191      1.0  0.17717  0.54187  0.11914  1.0000
  H   H192      1.0  0.06071  0.57314  0.84501  1.0000
  C   C133      1.0  0.17993  0.64369  0.89200  1.0000
  C   C134      1.0  0.22653  0.60576  0.92399  1.0000
  C   C135      1.0  0.22629  0.61800  0.90947  1.0000
  C   C136      1.0  0.23189  0.62686  0.92777  1.0000
  C   C137      1.0  0.23778  0.62353  0.96079  1.0000
  C   C138      1.0  0.23789  0.61123  0.97576  1.0000
  C   C139      1.0  0.23224  0.60235  0.95753  1.0000
  H   H193      1.0  0.22183  0.62068  0.88367  1.0000
  H   H194      1.0  0.23183  0.63630  0.91565  1.0000
  H   H195      1.0  0.22027  0.52344  0.31260  1.0000
  N   N5        1.0  0.12825  0.54222  0.46280  1.0000
  C   C140      1.0  0.13905  0.54221  0.48132  1.0000
  C   C141      1.0  0.11688  0.53355  0.49795  1.0000
  C   C142      1.0  0.13044  0.53764  0.42097  1.0000
  C   C143      1.0  0.12678  0.55498  0.44767  1.0000
  C   C144      1.0  0.12396  0.56138  0.48522  1.0000
  C   C145      1.0  0.15152  0.55032  0.44866  1.0000
  C   C146      1.0  0.11905  0.53319  0.40526  1.0000
  C   C147      1.0  0.11573  0.53267  0.54905  1.0000
  C   C148      1.0  0.10262  0.52682  0.57856  1.0000
  C   C149      1.0  0.12455  0.57482  0.46477  1.0000
  C   C150      1.0  0.16171  0.54859  0.47026  1.0000
  C   C151      1.0  0.20404  0.51828  0.26158  1.0000
  H   H196      1.0  0.13977  0.53265  0.49199  1.0000
  H   H197      1.0  0.13797  0.54525  0.51266  1.0000
  H   H198      1.0  0.10871  0.53580  0.48983  1.0000
  H   H199      1.0  0.11614  0.52394  0.49636  1.0000
  H   H200      1.0  0.13456  0.52981  0.42646  1.0000
  H   H201      1.0  0.13720  0.54492  0.39146  1.0000
  H   H202      1.0  0.13496  0.56111  0.42042  1.0000
  H   H203      1.0  0.11936  0.55491  0.43110  1.0000
  H   H204      1.0  0.13056  0.56119  0.50529  1.0000
  H   H205      1.0  0.11464  0.55680  0.50809  1.0000
  H   H206      1.0  0.15358  0.54793  0.41601  1.0000
  H   H207      1.0  0.15174  0.56018  0.44133  1.0000
  H   H208      1.0  0.11276  0.53902  0.40882  1.0000
  H   H209      1.0  0.18931  0.53210  0.27850  1.0000
  H   H210      1.0  0.12140  0.52687  0.56147  1.0000
  H   H211      1.0  0.11878  0.54167  0.55508  1.0000
  S   S55       1.0  0.25227  0.66932  0.90561  1.0000
  C   C152      1.0  0.22459  0.62812  0.70780  1.0000
  C   C153      1.0  0.01180  0.53277  0.04121  1.0000
  H   H212      1.0  0.12193  0.57910  0.49239  1.0000
  H   H213      1.0  0.13392  0.58006  0.44365  1.0000
  H   H214      1.0  0.11823  0.57555  0.44337  1.0000
  H   H215      1.0  0.17050  0.55480  0.44716  1.0000
  H   H216      1.0  0.16010  0.55073  0.50353  1.0000
  H   H217      1.0  0.16232  0.53898  0.47582  1.0000
  S   S56       1.0  0.04290  0.54933  0.06838  1.0000
  H   H218      1.0  0.06227  0.62305  0.87177  1.0000
  C   C154      1.0  0.24119  0.66442  0.72100  1.0000
  H   H219      1.0  0.20154  0.54109  0.23042  1.0000
  C   C155      1.0  0.11360  0.51723  0.10049  1.0000
  C   C156      1.0  0.23217  0.64124  0.69959  1.0000
  C   C157      1.0  0.18432  0.53839  0.21644  1.0000
  C   C158      1.0  0.23788  0.64222  0.73913  1.0000
  H   H220      1.0  0.09680  0.53278  0.56915  1.0000
  H   H221      1.0  0.23047  0.62181  0.70640  1.0000
  H   H222      1.0  0.04755  0.61716  0.86478  1.0000
  C   C159      1.0  0.21540  0.51837  0.12094  1.0000
  H   H223      1.0  0.24013  0.68754  0.67356  1.0000
  H   H224      1.0  0.24228  0.60857  0.00174  1.0000
  C   C160      1.0  0.18164  0.54960  0.22980  1.0000
  H   H225      1.0  0.20991  0.53289  0.17058  1.0000
  H   H226      1.0  0.23393  0.52814  0.26584  1.0000
  H   H227      1.0  0.17954  0.64279  0.04294  1.0000
  H   H228      1.0  0.16170  0.52331  0.17220  1.0000
  Fe  Fe29      1.0  0.13259  0.51477  0.70130  1.0000
  H   H229      1.0  0.19586  0.52676  0.16217  1.0000
  H   H230      1.0  0.24572  0.57203  0.03864  1.0000
  S   S57       1.0  0.16929  0.51577  0.75886  1.0000
  H   H231      1.0  0.19615  0.51930  0.05720  1.0000
  C   C161      1.0  0.20208  0.52452  0.18268  1.0000
  H   H232      1.0  0.21768  0.62491  0.74162  1.0000
  H   H233      1.0  0.18845  0.54139  0.17898  1.0000
  Fe  Fe30      1.0  0.15198  0.51747  0.61392  1.0000
  C   C162      1.0  0.19842  0.62239  0.95881  1.0000
  H   H234      1.0  0.01697  0.53845  0.09694  1.0000
  H   H235      1.0  0.14222  0.55436  0.86960  1.0000
  H   H236      1.0  0.11400  0.52363  0.42616  1.0000
  S   S58       1.0  0.24519  0.63453  0.98339  1.0000
  H   H237      1.0  0.22602  0.64728  0.69725  1.0000
  C   C163      1.0  0.21740  0.52633  0.24500  1.0000
  H   H238      1.0  0.19777  0.64456  0.98543  1.0000
  H   H239      1.0  0.20970  0.55473  0.13080  1.0000
  H   H240      1.0  0.08325  0.52649  0.84304  1.0000
  H   H241      1.0  0.17729  0.54716  0.26711  1.0000
  H   H242      1.0  0.19009  0.55716  0.22034  1.0000
  H   H243      1.0  0.17533  0.55292  0.21163  1.0000
  H   H244      1.0  0.24966  0.67750  0.75402  1.0000
  H   H245      1.0  0.21980  0.62783  0.68112  1.0000
  H   H246      1.0  0.12955  0.54505  0.91830  1.0000
  C   C164      1.0  0.01572  0.53209  0.99644  1.0000
  C   C165      1.0  0.12206  0.55074  0.08203  1.0000
  H   H247      1.0  0.12850  0.54517  0.07539  1.0000
  C   C166      1.0  0.12642  0.51313  0.83434  1.0000
  H   H248      1.0  0.16940  0.63208  0.02682  1.0000
  C   C167      1.0  0.21320  0.57459  0.11649  1.0000
  H   H249      1.0  0.12272  0.55758  0.01035  1.0000
  N   N6        1.0  0.17268  0.58746  0.50199  1.0000
  C   C168      1.0  0.18178  0.59924  0.49803  1.0000
  C   C169      1.0  0.17234  0.58629  0.45518  1.0000
  C   C170      1.0  0.16035  0.58817  0.52661  1.0000
  C   C171      1.0  0.17512  0.57633  0.52985  1.0000
  C   C172      1.0  0.18761  0.57410  0.51278  1.0000
  C   C173      1.0  0.18251  0.60199  0.54377  1.0000
  C   C174      1.0  0.14920  0.57817  0.52708  1.0000
  C   C175      1.0  0.18456  0.59098  0.41671  1.0000
  C   C176      1.0  0.18390  0.58526  0.37764  1.0000
  C   C177      1.0  0.18926  0.56345  0.54749  1.0000
  C   C178      1.0  0.19279  0.61344  0.53586  1.0000
  C   C179      1.0  0.13751  0.57917  0.55740  1.0000
  H   H250      1.0  0.17970  0.60719  0.47683  1.0000
  H   H251      1.0  0.19107  0.59952  0.47960  1.0000
  H   H252      1.0  0.16803  0.57658  0.45760  1.0000
  H   H253      1.0  0.16642  0.59166  0.44172  1.0000
  H   H254      1.0  0.15894  0.59720  0.51152  1.0000
  H   H255      1.0  0.15979  0.58766  0.56281  1.0000
  H   H256      1.0  0.17384  0.57656  0.56581  1.0000
  H   H257      1.0  0.16835  0.56782  0.53211  1.0000
  H   H258      1.0  0.19514  0.58230  0.50738  1.0000
  H   H259      1.0  0.18824  0.57147  0.48065  1.0000
  H   H260      1.0  0.17398  0.60368  0.56118  1.0000
  H   H261      1.0  0.18423  0.59429  0.56725  1.0000
  H   H262      1.0  0.14997  0.56878  0.54020  1.0000
  H   H263      1.0  0.14820  0.57925  0.49218  1.0000
  H   H264      1.0  0.18670  0.60113  0.40271  1.0000
  H   H265      1.0  0.19229  0.58901  0.42858  1.0000
  H   H266      1.0  0.18293  0.57525  0.38925  1.0000
  H   H267      1.0  0.17610  0.58664  0.36481  1.0000
  H   H268      1.0  0.19233  0.58961  0.34897  1.0000
  H   H269      1.0  0.18211  0.55487  0.55314  1.0000
  H   H270      1.0  0.19823  0.56191  0.53456  1.0000
  H   H271      1.0  0.18879  0.56553  0.58065  1.0000
  H   H272      1.0  0.19160  0.62152  0.51239  1.0000
  H   H273      1.0  0.19269  0.61546  0.56890  1.0000
  H   H274      1.0  0.20170  0.61198  0.52132  1.0000
  H   H275      1.0  0.12981  0.57127  0.56141  1.0000
  H   H276      1.0  0.13830  0.57908  0.59203  1.0000
  H   H277      1.0  0.13541  0.58774  0.54184  1.0000
  N   N7        1.0  0.19950  0.58554  0.07717  1.0000
  C   C180      1.0  0.19622  0.58765  0.03268  1.0000
  C   C181      1.0  0.20707  0.59756  0.07902  1.0000
  C   C182      1.0  0.20737  0.57680  0.07663  1.0000
  C   C183      1.0  0.18855  0.57998  0.11870  1.0000
  C   C184      1.0  0.17668  0.58355  0.11551  1.0000
  C   C185      1.0  0.19070  0.57587  0.02056  1.0000
  C   C186      1.0  0.20080  0.60800  0.08006  1.0000
  C   C187      1.0  0.20997  0.62024  0.07282  1.0000
  C   C188      1.0  0.16705  0.57867  0.16183  1.0000
  C   C189      1.0  0.18493  0.57882  0.98177  1.0000
  H   H278      1.0  0.20442  0.59300  0.00366  1.0000
  H   H279      1.0  0.18983  0.59341  0.03186  1.0000
  H   H280      1.0  0.21024  0.59626  0.11016  1.0000
  H   H281      1.0  0.21543  0.60106  0.04952  1.0000
  H   H282      1.0  0.18603  0.56974  0.12775  1.0000
  H   H283      1.0  0.19079  0.58222  0.14910  1.0000
  H   H284      1.0  0.17283  0.57949  0.09129  1.0000
  H   H285      1.0  0.17816  0.59360  0.10373  1.0000
  H   H286      1.0  0.18376  0.56900  0.05054  1.0000
  H   H287      1.0  0.22120  0.58246  0.11016  1.0000
  H   H288      1.0  0.19616  0.60940  0.05315  1.0000
  H   H289      1.0  0.19411  0.60585  0.11392  1.0000
  H   H290      1.0  0.21464  0.61960  0.10005  1.0000
  H   H291      1.0  0.21684  0.62302  0.03902  1.0000
  H   H292      1.0  0.20520  0.62752  0.07397  1.0000
  H   H293      1.0  0.16492  0.56851  0.17438  1.0000
  H   H294      1.0  0.17017  0.58276  0.18744  1.0000
  H   H295      1.0  0.15857  0.58108  0.15860  1.0000
  H   H296      1.0  0.19175  0.58552  0.95097  1.0000
  H   H297      1.0  0.18150  0.57028  0.97283  1.0000
  H   H298      1.0  0.17720  0.58264  0.99227  1.0000
  H   H299      1.0  0.23351  0.71423  0.01336  1.0000
  N   N8        1.0  0.11175  0.55671  0.82159  1.0000
  C   C190      1.0  0.10065  0.54622  0.84855  1.0000
  C   C191      1.0  0.12126  0.55661  0.84691  1.0000
  C   C192      1.0  0.10819  0.56853  0.82032  1.0000
  C   C193      1.0  0.11671  0.55639  0.77307  1.0000
  C   C194      1.0  0.11489  0.54356  0.76426  1.0000
  C   C195      1.0  0.08917  0.54634  0.83196  1.0000
  C   C196      1.0  0.11865  0.58061  0.79906  1.0000
  C   C197      1.0  0.12639  0.54531  0.85222  1.0000
  C   C198      1.0  0.13474  0.54570  0.88316  1.0000
  C   C199      1.0  0.12113  0.54477  0.71462  1.0000
  C   C200      1.0  0.07959  0.53395  0.85226  1.0000
  C   C201      1.0  0.11370  0.59171  0.78679  1.0000
  H   H300      1.0  0.09809  0.54621  0.88498  1.0000
  H   H301      1.0  0.10250  0.53720  0.84961  1.0000
  H   H302      1.0  0.12932  0.56463  0.82928  1.0000
  H   H303      1.0  0.11763  0.55756  0.88164  1.0000
  H   H304      1.0  0.10353  0.56854  0.85548  1.0000
  H   H305      1.0  0.10150  0.56927  0.80045  1.0000
  H   H306      1.0  0.11258  0.56173  0.74960  1.0000
  H   H307      1.0  0.12661  0.56117  0.76006  1.0000
  H   H308      1.0  0.10516  0.53900  0.77063  1.0000
  H   H309      1.0  0.11852  0.53731  0.78630  1.0000
  H   H310      1.0  0.08500  0.55329  0.84304  1.0000
  H   H311      1.0  0.09138  0.54874  0.79421  1.0000
  H   H312      1.0  0.12507  0.58038  0.76762  1.0000
  H   H313      1.0  0.12379  0.58212  0.82398  1.0000
  H   H314      1.0  0.11912  0.53657  0.86745  1.0000
  H   H315      1.0  0.13190  0.54536  0.81845  1.0000
  H   H316      1.0  0.13878  0.53784  0.88471  1.0000
  C   C202      1.0  0.24889  0.58081  0.04651  1.0000
  H   H317      1.0  0.06098  0.61498  0.82964  1.0000
  H   H318      1.0  0.11791  0.55108  0.69085  1.0000
  H   H319      1.0  0.13106  0.54826  0.70738  1.0000
  H   H320      1.0  0.11916  0.53565  0.70822  1.0000
  H   H321      1.0  0.10163  0.54579  0.17503  1.0000
  H   H322      1.0  0.24939  0.57864  0.08228  1.0000
  C   C203      1.0  0.13239  0.60326  0.06036  1.0000
  H   H323      1.0  0.10951  0.59128  0.75858  1.0000
  H   H324      1.0  0.10685  0.59207  0.81684  1.0000
  H   H325      1.0  0.12119  0.60031  0.77534  1.0000
  H   H326      1.0  0.15775  0.64839  0.01034  1.0000
  N   N9        1.0  0.19495  0.58565  0.79173  1.0000
  C   C204      1.0  0.20673  0.58437  0.80129  1.0000
  C   C205      1.0  0.18449  0.57575  0.82660  1.0000
  C   C206      1.0  0.19288  0.59788  0.79453  1.0000
  C   C207      1.0  0.19334  0.60103  0.84008  1.0000
  C   C208      1.0  0.18490  0.56242  0.82890  1.0000
  C   C209      1.0  0.17298  0.55317  0.85909  1.0000
  C   C210      1.0  0.18121  0.60214  0.86648  1.0000
  H   H327      1.0  0.20603  0.58247  0.83830  1.0000
  H   H328      1.0  0.18401  0.57660  0.86151  1.0000
  H   H329      1.0  0.17570  0.57689  0.82113  1.0000
  H   H330      1.0  0.19956  0.60553  0.76604  1.0000
  H   H331      1.0  0.18405  0.59853  0.78834  1.0000
  H   H332      1.0  0.20022  0.60994  0.83204  1.0000
  H   H333      1.0  0.19620  0.59433  0.86352  1.0000
  H   H334      1.0  0.21724  0.60347  0.78836  1.0000
  H   H335      1.0  0.18665  0.56092  0.79470  1.0000
  H   H336      1.0  0.19219  0.56042  0.84400  1.0000
  H   H337      1.0  0.17105  0.55402  0.89440  1.0000
  H   H338      1.0  0.16539  0.55464  0.84490  1.0000
  H   H339      1.0  0.17363  0.54370  0.86039  1.0000
  H   H340      1.0  0.17396  0.59348  0.87446  1.0000
  H   H341      1.0  0.18200  0.60410  0.89891  1.0000
  H   H342      1.0  0.17869  0.60982  0.84612  1.0000
  H   H343      1.0  0.23755  0.60062  0.75699  1.0000
  C   C211      1.0  0.13280  0.59416  0.94939  1.0000
  C   C212      1.0  0.14186  0.58916  0.92095  1.0000
  H   H344      1.0  0.12412  0.58681  0.96400  1.0000
  H   H345      1.0  0.13124  0.60189  0.92593  1.0000
  H   H346      1.0  0.12389  0.55502  0.10891  1.0000
  H   H347      1.0  0.13818  0.58625  0.89418  1.0000
  Fe  Fe31      1.0  0.23842  0.55858  0.92324  1.0000
  C   C213      1.0  0.21791  0.59554  0.77471  1.0000
  C   C214      1.0  0.22978  0.59270  0.77872  1.0000
  H   H348      1.0  0.21486  0.57996  0.04409  1.0000
  H   H349      1.0  0.20670  0.57356  0.14962  1.0000
  H   H350      1.0  0.20887  0.57608  0.79298  1.0000
  C   C215      1.0  0.02449  0.56901  0.91620  1.0000
  H   H351      1.0  0.17889  0.58954  0.73810  1.0000
  H   H352      1.0  0.19795  0.57158  0.00880  1.0000
  H   H353      1.0  0.11425  0.52900  0.34671  1.0000
  H   H354      1.0  0.17598  0.64177  0.82908  1.0000
  C   C216      1.0  0.17028  0.51067  0.14614  1.0000
  C   C217      1.0  0.02829  0.53642  0.97407  1.0000
  H   H355      1.0  0.22245  0.56208  0.14723  1.0000
  C   C218      1.0  0.19574  0.58476  0.74382  1.0000
  H   H356      1.0  0.17774  0.57340  0.75002  1.0000
  C   C219      1.0  0.11739  0.60182  0.01821  1.0000
  C   C220      1.0  0.04120  0.58138  0.04492  1.0000
  H   H357      1.0  0.14127  0.62106  0.91505  1.0000
  C   C221      1.0  0.18372  0.58271  0.73070  1.0000
  H   H358      1.0  0.21859  0.59836  0.73788  1.0000
  H   H359      1.0  0.23014  0.59117  0.81446  1.0000
  C   C222      1.0  0.12478  0.56120  0.03850  1.0000
  C   C223      1.0  0.17373  0.64206  0.01942  1.0000
  H   H360      1.0  0.20197  0.56762  0.07753  1.0000
  H   H361      1.0  0.20203  0.59327  0.71832  1.0000
  H   H362      1.0  0.19974  0.57720  0.73737  1.0000
  H   H363      1.0  0.24848  0.71181  0.00303  1.0000
  H   H364      1.0  0.21641  0.69351  0.20676  1.0000
  C   C224      1.0  0.23048  0.70258  0.23043  1.0000
  H   H365      1.0  0.11930  0.56766  0.04497  1.0000
  H   H366      1.0  0.11540  0.60165  0.98538  1.0000
  N   N10       1.0  0.13085  0.60566  0.01272  1.0000
  H   H367      1.0  0.16339  0.63440  0.87926  1.0000
  H   H368      1.0  0.19046  0.57670  0.67112  1.0000
  H   H369      1.0  0.14692  0.64211  0.92575  1.0000
  H   H370      1.0  0.22961  0.69440  0.25864  1.0000
  H   H371      1.0  0.13651  0.58903  0.01329  1.0000
  C   C225      1.0  0.13485  0.62375  0.94019  1.0000
  C   C226      1.0  0.13729  0.59792  0.98853  1.0000
  H   H372      1.0  0.14718  0.60261  0.97466  1.0000
  H   H373      1.0  0.22688  0.70712  0.16557  1.0000
  C   C227      1.0  0.13770  0.63775  0.92461  1.0000
  C   C228      1.0  0.18598  0.58372  0.67985  1.0000
  H   H374      1.0  0.13093  0.64091  0.94656  1.0000
  H   H375      1.0  0.16721  0.65741  0.03581  1.0000
  C   C229      1.0  0.05847  0.57745  0.91096  1.0000
  C   C230      1.0  0.21755  0.56298  0.12076  1.0000
  C   C231      1.0  0.22613  0.69866  0.19212  1.0000
  H   H376      1.0  0.19246  0.66873  0.88784  1.0000
  H   H377      1.0  0.19169  0.59304  0.65873  1.0000
  H   H378      1.0  0.12230  0.52876  0.13667  1.0000
  H   H379      1.0  0.13725  0.64077  0.88890  1.0000
  H   H380      1.0  0.04630  0.54465  0.97767  1.0000
  C   C232      1.0  0.13639  0.61916  0.98842  1.0000
  H   H381      1.0  0.14353  0.58108  0.94273  1.0000
  H   H382      1.0  0.22374  0.56334  0.08776  1.0000
  H   H383      1.0  0.17722  0.58215  0.67143  1.0000
  H   H384      1.0  0.14630  0.62169  0.98381  1.0000
  H   H385      1.0  0.18575  0.62380  0.01714  1.0000
  H   H386      1.0  0.13453  0.56629  0.02779  1.0000
  H   H387      1.0  0.11340  0.59219  0.04067  1.0000
  H   H388      1.0  0.08293  0.57879  0.82077  1.0000
  H   H389      1.0  0.09444  0.60409  0.01315  1.0000
  H   H390      1.0  0.23813  0.70583  0.97393  1.0000
  C   C233      1.0  0.04649  0.59235  0.89185  1.0000
  H   H391      1.0  0.19558  0.61221  0.96964  1.0000
  H   H392      1.0  0.23021  0.70479  0.09677  1.0000
  H   H393      1.0  0.09328  0.59520  0.07009  1.0000
  C   C234      1.0  0.03836  0.57044  0.90220  1.0000
  H   H394      1.0  0.20839  0.68671  0.88428  1.0000
  H   H395      1.0  0.03609  0.56734  0.98602  1.0000
  C   C235      1.0  0.19625  0.66839  0.91721  1.0000
  H   H396      1.0  0.24487  0.70251  0.08567  1.0000
  H   H397      1.0  0.03266  0.58170  0.97427  1.0000
  H   H398      1.0  0.09126  0.61043  0.06039  1.0000
  C   C236      1.0  0.09641  0.60457  0.04576  1.0000
  H   H399      1.0  0.02049  0.56482  0.95362  1.0000
  C   C237      1.0  0.06558  0.57954  0.86055  1.0000
  H   H400      1.0  0.21251  0.68892  0.14313  1.0000
  C   C238      1.0  0.17359  0.64493  0.93922  1.0000
  H   H401      1.0  0.19289  0.65916  0.22527  1.0000
  H   H402      1.0  0.15038  0.63128  0.08260  1.0000
  C   C239      1.0  0.04027  0.57737  0.96918  1.0000
  H   H403      1.0  0.13283  0.62477  0.00995  1.0000
  H   H404      1.0  0.03154  0.53588  0.93968  1.0000
  C   C240      1.0  0.23515  0.69785  0.09108  1.0000
  C   C241      1.0  0.17123  0.64266  0.86252  1.0000
  C   C242      1.0  0.23372  0.69067  0.17214  1.0000
  H   H405      1.0  0.15000  0.59872  0.04798  1.0000
  N   N11       1.0  0.18142  0.64740  0.97023  1.0000
  C   C243      1.0  0.10996  0.61000  0.03766  1.0000
  H   H406      1.0  0.02091  0.56474  0.85531  1.0000
  H   H407      1.0  0.24338  0.69612  0.16213  1.0000
  H   H408      1.0  0.11132  0.61100  0.07053  1.0000
  C   C244      1.0  0.14561  0.60493  0.06356  1.0000
  H   H409      1.0  0.06409  0.60215  0.89839  1.0000
  H   H410      1.0  0.12714  0.59369  0.08124  1.0000
  H   H411      1.0  0.03466  0.57223  0.06323  1.0000
  C   C245      1.0  0.19176  0.64159  0.96474  1.0000
  H   H412      1.0  0.18786  0.65158  0.87280  1.0000
  C   C246      1.0  0.03673  0.54145  0.99557  1.0000
  C   C247      1.0  0.23879  0.70762  0.00671  1.0000
  H   H413      1.0  0.16622  0.63625  0.95614  1.0000
  H   H414      1.0  0.15116  0.61452  0.04617  1.0000
  H   H415      1.0  0.23299  0.68258  0.20059  1.0000
  H   H416      1.0  0.11256  0.61932  0.01327  1.0000
  H   H417      1.0  0.23920  0.64384  0.66638  1.0000
  C   C248      1.0  0.23383  0.69557  0.04532  1.0000
  H   H418      1.0  0.05511  0.59049  0.98185  1.0000
  H   H419      1.0  0.20092  0.62550  0.92098  1.0000
  C   C249      1.0  0.10878  0.54269  0.09575  1.0000
  H   H420      1.0  0.05454  0.52236  0.00424  1.0000
  C   C250      1.0  0.21720  0.68157  0.14181  1.0000
  C   C251      1.0  0.07808  0.57736  0.85707  1.0000
  H   H421      1.0  0.18316  0.63531  0.89594  1.0000
  N   N12       1.0  0.23069  0.68672  0.13235  1.0000
  H   H422      1.0  0.20409  0.66450  0.91231  1.0000
  N   N13       1.0  0.04607  0.57966  0.91873  1.0000
  H   H423      1.0  0.12860  0.60935  0.07879  1.0000
  H   H424      1.0  0.10778  0.53932  0.06607  1.0000
  H   H425      1.0  0.23212  0.66212  0.74589  1.0000
  H   H426      1.0  0.19389  0.68641  0.91977  1.0000
  C   C252      1.0  0.10577  0.53794  0.17784  1.0000
  H   H427      1.0  0.17555  0.53135  0.22481  1.0000
  H   H428      1.0  0.22420  0.69182  0.04719  1.0000
  H   H429      1.0  0.10270  0.54886  0.09827  1.0000
  H   H430      1.0  0.15540  0.60356  0.11492  1.0000
  C   C253      1.0  0.11295  0.52380  0.13842  1.0000
  H   H431      1.0  0.23891  0.68909  0.03573  1.0000
  C   C254      1.0  0.04862  0.58132  0.99829  1.0000
  C   C255      1.0  0.14588  0.60201  0.11332  1.0000
  H   H432      1.0  0.20527  0.68202  0.94544  1.0000
  H   H433      1.0  0.11543  0.54185  0.17568  1.0000
  N   N14       1.0  0.24711  0.65419  0.73205  1.0000
  H   H434      1.0  0.21368  0.67211  0.21560  1.0000
  H   H435      1.0  0.21515  0.67814  0.11322  1.0000
  C   C256      1.0  0.21096  0.67054  0.18536  1.0000
  H   H436      1.0  0.23338  0.67251  0.09989  1.0000
  H   H437      1.0  0.14164  0.60799  0.13103  1.0000
  C   C257      1.0  0.19717  0.66790  0.19739  1.0000
  C   C258      1.0  0.23675  0.67686  0.12452  1.0000
  C   C259      1.0  0.16339  0.64796  0.03438  1.0000
  C   C260      1.0  0.18807  0.62732  0.97936  1.0000
  H   H438      1.0  0.19764  0.64486  0.92897  1.0000
  H   H439      1.0  0.03731  0.59384  0.89939  1.0000
  H   H440      1.0  0.23415  0.66924  0.15669  1.0000
  H   H441      1.0  0.14095  0.59225  0.13182  1.0000
  N   N15       1.0  0.10482  0.53227  0.13935  1.0000
  C   C261      1.0  0.18637  0.66105  0.96249  1.0000
  H   H442      1.0  0.07163  0.53427  0.83902  1.0000
  H   H443      1.0  0.25370  0.66431  0.14620  1.0000
  C   C262      1.0  0.10197  0.53599  0.26247  1.0000
  C   C263      1.0  0.25083  0.68104  0.10737  1.0000
  H   H444      1.0  0.19424  0.67543  0.20906  1.0000
  H   H445      1.0  0.05079  0.60441  0.93381  1.0000
  H   H446      1.0  0.03618  0.58846  0.04096  1.0000
  H   H447      1.0  0.08736  0.53237  0.08487  1.0000
  C   C264      1.0  0.09983  0.52924  0.22714  1.0000
  H   H448      1.0  0.21336  0.66216  0.17952  1.0000
  H   H449      1.0  0.19394  0.66698  0.16739  1.0000
  C   C265      1.0  0.09169  0.52529  0.14862  1.0000
  S   S59       1.0  0.13338  0.51046  0.19368  1.0000
  H   H450      1.0  0.18002  0.62351  0.96884  1.0000
  H   H451      1.0  0.05402  0.57466  0.00413  1.0000
  H   H452      1.0  0.20649  0.62562  0.97022  1.0000
  H   H453      1.0  0.11182  0.53929  0.25850  1.0000
  C   C266      1.0  0.20120  0.68169  0.91684  1.0000
  H   H454      1.0  0.22220  0.52549  0.21157  1.0000
  H   H455      1.0  0.13264  0.51755  0.09176  1.0000
  H   H456      1.0  0.08559  0.53020  0.16502  1.0000
  C   C267      1.0  0.05490  0.60330  0.90004  1.0000
  H   H457      1.0  0.25264  0.66424  0.08962  1.0000
  H   H458      1.0  0.17150  0.51608  0.29733  1.0000
  C   C268      1.0  0.14759  0.51034  0.50447  1.0000
  H   H459      1.0  0.09756  0.52964  0.29738  1.0000
  H   H460      1.0  0.16365  0.51301  0.45017  1.0000
  H   H461      1.0  0.25312  0.59457  0.96155  1.0000
  S   S60       1.0  0.15599  0.51325  0.54409  1.0000
  S   S61       1.0  0.14701  0.51470  0.27307  1.0000
  H   H462      1.0  0.12913  0.52775  0.34940  1.0000
  H   H463      1.0  0.13442  0.51085  0.88953  1.0000
  H   H464      1.0  0.09808  0.54397  0.25870  1.0000
  Fe  Fe32      1.0  0.25049  0.68118  0.95457  1.0000
  H   H465      1.0  0.08988  0.52572  0.23406  1.0000
  S   S62       1.0  0.11772  0.51141  0.29196  1.0000
  H   H466      1.0  0.24389  0.65734  0.79888  1.0000
  H   H467      1.0  0.24165  0.63427  0.74669  1.0000
  H   H468      1.0  0.10362  0.52127  0.23294  1.0000
  H   H469      1.0  0.23237  0.68433  0.73350  1.0000
  H   H470      1.0  0.24009  0.70819  0.21737  1.0000
  H   H471      1.0  0.08965  0.51606  0.17345  1.0000
  N   N16       1.0  0.19594  0.52194  0.23282  1.0000
  H   H472      1.0  0.23949  0.66540  0.68701  1.0000
  H   H473      1.0  0.13197  0.52283  0.81977  1.0000
  H   H474      1.0  0.25260  0.58934  0.89331  1.0000
  H   H475      1.0  0.24223  0.58624  0.04350  1.0000
  H   H476      1.0  0.04590  0.51530  0.09864  1.0000
  H   H477      1.0  0.01989  0.55149  0.90079  1.0000
  S   S63       1.0  0.00542  0.52654  0.96600  1.0000
  H   H478      1.0  0.07142  0.51435  0.09055  1.0000
  H   H479      1.0  0.17906  0.51316  0.22192  1.0000
  H   H480      1.0  0.22404  0.52422  0.12209  1.0000
  H   H481      1.0  0.21790  0.53615  0.24131  1.0000
  H   H482      1.0  0.12638  0.54270  0.33293  1.0000
  C   C269      1.0  0.12380  0.51093  0.09681  1.0000
  H   H483      1.0  0.12040  0.51507  0.90063  1.0000
  C   C270      1.0  0.20618  0.51377  0.16818  1.0000
  H   H484      1.0  0.06796  0.51920  0.14152  1.0000
  C   C271      1.0  0.24139  0.68686  0.70802  1.0000
  C   C272      1.0  0.12248  0.53315  0.35548  1.0000
  C   C273      1.0  0.07813  0.51182  0.96070  1.0000
  C   C274      1.0  0.07429  0.51521  0.12140  1.0000
  H   H485      1.0  0.00803  0.55908  0.90552  1.0000
  H   H486      1.0  0.24656  0.69602  0.70812  1.0000
  H   H487      1.0  0.17585  0.51328  0.84333  1.0000
  C   C275      1.0  0.22438  0.52234  0.27874  1.0000
  C   C276      1.0  0.18455  0.51152  0.24615  1.0000
  C   C277      1.0  0.01798  0.56058  0.89290  1.0000
  H   H488      1.0  0.21730  0.51042  0.10941  1.0000
  C   C278      1.0  0.25060  0.65434  0.77564  1.0000
  H   H489      1.0  0.02275  0.51298  0.91902  1.0000
  H   H490      1.0  0.09307  0.51959  0.08520  1.0000
  H   H491      1.0  0.03480  0.51208  0.04341  1.0000
  C   C279      1.0  0.06610  0.51210  0.97669  1.0000
  H   H492      1.0  0.25341  0.59338  0.81217  1.0000
  C   C280      1.0  0.15385  0.51067  0.46006  1.0000
  H   H493      1.0  0.21190  0.52381  0.09559  1.0000
  C   C281      1.0  0.24829  0.67740  0.72020  1.0000
  H   H494      1.0  0.11738  0.51255  0.82850  1.0000
  H   H495      1.0  0.25279  0.64860  0.86422  1.0000
  H   H496      1.0  0.22441  0.51260  0.28277  1.0000
  H   H497      1.0  0.09905  0.51765  0.57419  1.0000
  H   H498      1.0  0.25395  0.68678  0.07127  1.0000
  H   H499      1.0  0.20034  0.51851  0.29719  1.0000
  H   H500      1.0  0.45375  0.04638  0.29160  1.0000
  H   H501      1.0  0.47121  0.06410  0.24778  1.0000
  H   H502      1.0  0.45193  0.09007  0.16897  1.0000
  S   S64       1.0  0.47973  0.03219  0.03742  1.0000
  H   H503      1.0  0.45265  0.04225  0.24027  1.0000
  Fe  Fe33      1.0  0.49399  0.03423  0.07569  1.0000
  C   C282      1.0  0.45898  0.04676  0.25688  1.0000
  C   C283      1.0  0.46077  0.09678  0.16322  1.0000
  H   H504      1.0  0.49595  0.05058  0.66197  1.0000
  C   C284      1.0  0.49908  0.09582  0.74362  1.0000
  H   H505      1.0  0.49407  0.06287  0.03209  1.0000
  H   H506      1.0  0.47865  0.09719  0.16871  1.0000
  S   S65       1.0  0.49520  0.05948  0.92106  1.0000
  H   H507      1.0  0.46530  0.05721  0.16431  1.0000
  C   C285      1.0  0.46521  0.06014  0.22904  1.0000
  H   H508      1.0  0.46373  0.07704  0.13794  1.0000
  C   C286      1.0  0.48614  0.06661  0.03159  1.0000
  H   H509      1.0  0.49240  0.08077  0.08133  1.0000
  H   H510      1.0  0.46583  0.04157  0.26041  1.0000
  H   H511      1.0  0.46695  0.08456  0.20910  1.0000
  H   H512      1.0  0.49282  0.08662  0.69755  1.0000
  H   H513      1.0  0.47785  0.05432  0.18284  1.0000
  H   H514      1.0  0.48036  0.06139  0.01490  1.0000
  C   C287      1.0  0.47265  0.08218  0.13979  1.0000
  C   C288      1.0  0.47021  0.09010  0.17291  1.0000
  Fe  Fe34      1.0  0.49543  0.04287  0.97487  1.0000
  H   H515      1.0  0.49650  0.07643  0.64147  1.0000
  H   H516      1.0  0.46382  0.10280  0.12748  1.0000
  S   S66       1.0  0.49751  0.01627  0.06883  1.0000
  C   C289      1.0  0.47885  0.06526  0.08019  1.0000
  H   H517      1.0  0.45944  0.10260  0.18657  1.0000
  H   H518      1.0  0.49926  0.08715  0.76700  1.0000
  H   H519      1.0  0.47107  0.06912  0.07817  1.0000
  C   C290      1.0  0.50009  0.08953  0.14219  1.0000
  H   H520      1.0  0.47750  0.01932  0.89030  1.0000
  N   N17       1.0  0.48022  0.07344  0.15011  1.0000
  H   H521      1.0  0.49153  0.05826  0.61376  1.0000
  S   S67       1.0  0.49128  0.03942  0.14319  1.0000
  H   H522      1.0  0.47534  0.05526  0.09802  1.0000
  C   C291      1.0  0.47314  0.01207  0.87664  1.0000
  H   H523      1.0  0.49598  0.04968  0.28168  1.0000
  C   C292      1.0  0.48960  0.07811  0.17262  1.0000
  C   C293      1.0  0.50019  0.05194  0.24533  1.0000
  H   H524      1.0  0.47697  0.08887  0.10526  1.0000
  C   C294      1.0  0.47229  0.06095  0.18003  1.0000
  H   H525      1.0  0.50097  0.09894  0.19486  1.0000
  H   H526      1.0  0.49383  0.07076  0.18446  1.0000
  H   H527      1.0  0.49894  0.10493  0.53079  1.0000
  C   C295      1.0  0.48687  0.07174  0.10574  1.0000
  H   H528      1.0  0.45798  0.06488  0.22783  1.0000
  H   H529      1.0  0.49666  0.09645  0.12199  1.0000
  C   C296      1.0  0.49919  0.05567  0.62505  1.0000
  H   H530      1.0  0.48543  0.08020  0.20428  1.0000
  H   H531      1.0  0.48675  0.03761  0.23694  1.0000
  C   C297      1.0  0.49995  0.04768  0.17262  1.0000
  H   H532      1.0  0.49344  0.06633  0.11162  1.0000
  H   H533      1.0  0.48936  0.07639  0.01091  1.0000
  H   H534      1.0  0.49913  0.10305  0.67452  1.0000
  C   C298      1.0  0.50030  0.09453  0.69548  1.0000
  H   H535      1.0  0.50142  0.09785  0.60983  1.0000
  C   C299      1.0  0.49493  0.04504  0.21982  1.0000
  H   H536      1.0  0.47043  0.01654  0.84677  1.0000
  H   H537      1.0  0.50235  0.04948  0.60566  1.0000
  H   H538      1.0  0.49031  0.09774  0.75681  1.0000
  S   S68       1.0  0.49943  0.02591  0.95975  1.0000
  H   H539      1.0  0.50256  0.08185  0.84750  1.0000
  Fe  Fe35      1.0  0.48467  0.01506  0.02483  1.0000
  H   H540      1.0  0.50415  0.07072  0.68039  1.0000
  H   H541      1.0  0.48978  0.01113  0.83442  1.0000
  C   C300      1.0  0.41750  0.44686  0.84033  1.0000
  H   H542      1.0  0.47006  0.50967  0.79494  1.0000
  H   H543      1.0  0.45801  0.45484  0.82117  1.0000
  H   H544      1.0  0.49782  0.43480  0.01519  1.0000
  C   C301      1.0  0.42354  0.46893  0.75620  1.0000
  C   C302      1.0  0.40200  0.46067  0.95521  1.0000
  H   H545      1.0  0.50257  0.34485  0.59619  1.0000
  H   H546      1.0  0.42193  0.45591  0.91287  1.0000
  H   H547      1.0  0.44303  0.46687  0.88220  1.0000
  H   H548      1.0  0.41683  0.43706  0.91061  1.0000
  Fe  Fe36      1.0  0.43618  0.48533  0.01077  1.0000
  S   S69       1.0  0.44668  0.50208  0.95252  1.0000
  S   S70       1.0  0.42043  0.48519  0.06837  1.0000
  Fe  Fe37      1.0  0.45029  0.46878  0.97083  1.0000
  S   S71       1.0  0.46159  0.48430  0.90936  1.0000
  S   S72       1.0  0.45207  0.44920  0.98452  1.0000
  Fe  Fe38      1.0  0.46284  0.49520  0.95928  1.0000
  H   H549      1.0  0.49581  0.47579  0.02815  1.0000
  Fe  Fe39      1.0  0.44440  0.48977  0.90758  1.0000
  S   S73       1.0  0.44239  0.49759  0.83726  1.0000
  S   S74       1.0  0.45265  0.47941  0.02137  1.0000
  S   S75       1.0  0.43277  0.47325  0.96534  1.0000
  H   H550      1.0  0.43353  0.47082  0.74408  1.0000
  H   H551      1.0  0.42229  0.47801  0.80939  1.0000
  H   H552      1.0  0.50150  0.34137  0.74446  1.0000
  H   H553      1.0  0.47947  0.49683  0.11128  1.0000
  C   C303      1.0  0.43770  0.50904  0.22324  1.0000
  H   H554      1.0  0.48355  0.42263  0.08808  1.0000
  H   H555      1.0  0.41440  0.42237  0.84140  1.0000
  H   H556      1.0  0.41931  0.46009  0.75081  1.0000
  H   H557      1.0  0.40076  0.49715  0.97114  1.0000
  C   C304      1.0  0.39681  0.50458  0.95739  1.0000
  H   H558      1.0  0.48434  0.43586  0.10945  1.0000
  C   C305      1.0  0.41898  0.46177  0.88677  1.0000
  C   C306      1.0  0.43687  0.46288  0.82485  1.0000
  H   H559      1.0  0.47558  0.49240  0.04104  1.0000
  H   H560      1.0  0.40648  0.47004  0.95578  1.0000
  C   C307      1.0  0.46589  0.44526  0.96820  1.0000
  C   C308      1.0  0.46650  0.43331  0.98774  1.0000
  C   C309      1.0  0.47710  0.42963  0.97382  1.0000
  C   C310      1.0  0.48711  0.43778  0.93929  1.0000
  C   C311      1.0  0.48653  0.44975  0.91999  1.0000
  C   C312      1.0  0.47607  0.45354  0.93482  1.0000
  H   H561      1.0  0.45867  0.42682  0.01349  1.0000
  H   H562      1.0  0.47737  0.42038  0.98877  1.0000
  H   H563      1.0  0.36082  0.50042  0.00003  1.0000
  H   H564      1.0  0.47575  0.46273  0.91938  1.0000
  C   C313      1.0  0.41996  0.47905  0.72598  1.0000
  H   H565      1.0  0.42280  0.47897  0.68984  1.0000
  H   H566      1.0  0.43952  0.45086  0.88617  1.0000
  C   C314      1.0  0.40696  0.50175  0.80566  1.0000
  C   C315      1.0  0.40671  0.49508  0.84939  1.0000
  C   C316      1.0  0.41754  0.49430  0.86039  1.0000
  C   C317      1.0  0.42870  0.49976  0.82710  1.0000
  H   H567      1.0  0.49579  0.35466  0.73344  1.0000
  C   C318      1.0  0.50357  0.35094  0.72256  1.0000
  H   H568      1.0  0.39808  0.49055  0.87493  1.0000
  H   H569      1.0  0.41724  0.48930  0.89434  1.0000
  S   S76       1.0  0.48072  0.50840  0.94965  1.0000
  N   N18       1.0  0.42315  0.45975  0.84054  1.0000
  H   H570      1.0  0.46139  0.45978  0.86847  1.0000
  C   C319      1.0  0.48158  0.50425  0.08037  1.0000
  S   S77       1.0  0.39317  0.50216  0.79273  1.0000
  H   H571      1.0  0.41375  0.41639  0.90042  1.0000
  H   H572      1.0  0.42112  0.44556  0.80635  1.0000
  H   H573      1.0  0.45696  0.48924  0.11233  1.0000
  C   C320      1.0  0.45331  0.50387  0.17086  1.0000
  H   H574      1.0  0.40528  0.48803  0.14904  1.0000
  H   H575      1.0  0.43611  0.49956  0.24531  1.0000
  C   C321      1.0  0.42039  0.49805  0.08977  1.0000
  H   H576      1.0  0.48078  0.50256  0.81535  1.0000
  C   C322      1.0  0.41183  0.49681  0.13099  1.0000
  H   H577      1.0  0.49721  0.34581  0.66877  1.0000
  H   H578      1.0  0.39201  0.50734  0.98649  1.0000
  C   C323      1.0  0.44618  0.50082  0.13695  1.0000
  H   H579      1.0  0.43985  0.45821  0.79872  1.0000
  H   H580      1.0  0.40491  0.45382  0.97817  1.0000
  H   H581      1.0  0.40006  0.45021  0.90791  1.0000
  H   H582      1.0  0.44334  0.48098  0.15854  1.0000
  H   H583      1.0  0.40910  0.46627  0.81588  1.0000
  H   H584      1.0  0.39205  0.45901  0.96859  1.0000
  H   H585      1.0  0.40559  0.50560  0.18223  1.0000
  H   H586      1.0  0.42346  0.47136  0.88514  1.0000
  H   H587      1.0  0.40212  0.42315  0.88640  1.0000
  H   H588      1.0  0.42448  0.48821  0.72824  1.0000
  H   H589      1.0  0.40176  0.46643  0.88589  1.0000
  H   H590      1.0  0.46150  0.47104  0.81821  1.0000
  H   H591      1.0  0.47772  0.43485  0.06308  1.0000
  H   H592      1.0  0.44082  0.47293  0.80749  1.0000
  H   H593      1.0  0.43639  0.49976  0.15060  1.0000
  H   H594      1.0  0.40998  0.47763  0.73647  1.0000
  H   H595      1.0  0.49322  0.45454  0.00433  1.0000
  H   H596      1.0  0.44232  0.48707  0.10201  1.0000
  C   C324      1.0  0.49945  0.45308  0.02596  1.0000
  H   H597      1.0  0.42913  0.43623  0.86590  1.0000
  C   C325      1.0  0.41814  0.50756  0.77285  1.0000
  H   H598      1.0  0.49417  0.45609  0.89293  1.0000
  C   C326      1.0  0.41916  0.46850  0.80719  1.0000
  C   C327      1.0  0.44351  0.46018  0.86207  1.0000
  C   C328      1.0  0.45692  0.46156  0.84090  1.0000
  C   C329      1.0  0.44734  0.48879  0.12696  1.0000
  C   C330      1.0  0.47932  0.50175  0.04077  1.0000
  C   C331      1.0  0.41195  0.42382  0.87574  1.0000
  C   C332      1.0  0.42895  0.50639  0.78334  1.0000
  H   H599      1.0  0.46180  0.49888  0.24743  1.0000
  C   C333      1.0  0.48500  0.43275  0.07823  1.0000
  H   H600      1.0  0.46314  0.50621  0.15294  1.0000
  C   C334      1.0  0.40511  0.45954  0.90659  1.0000
  H   H601      1.0  0.45148  0.49517  0.19816  1.0000
  C   C335      1.0  0.41948  0.43630  0.87538  1.0000
  H   H602      1.0  0.40758  0.44530  0.84497  1.0000
  C   C336      1.0  0.49746  0.43899  0.04376  1.0000
  S   S78       1.0  0.50033  0.43342  0.91721  1.0000
  H   H603      1.0  0.46805  0.50371  0.31262  1.0000
  C   C337      1.0  0.42883  0.50942  0.06676  1.0000
  H   H604      1.0  0.37310  0.50621  0.12029  1.0000
  H   H605      1.0  0.49481  0.33754  0.53647  1.0000
  H   H606      1.0  0.43101  0.50820  0.20324  1.0000
  H   H607      1.0  0.45015  0.50301  0.28396  1.0000
  H   H608      1.0  0.50428  0.49696  0.02857  1.0000
  H   H609      1.0  0.35855  0.50580  0.07494  1.0000
  H   H610      1.0  0.49817  0.32307  0.55651  1.0000
  H   H611      1.0  0.49606  0.45609  0.05649  1.0000
  H   H612      1.0  0.50441  0.43679  0.06053  1.0000
  H   H613      1.0  0.42022  0.50174  0.30778  1.0000
  C   C338      1.0  0.41194  0.50678  0.14972  1.0000
  H   H614      1.0  0.37210  0.50898  0.19822  1.0000
  H   H615      1.0  0.39024  0.50088  0.94000  1.0000
  C   C339      1.0  0.45924  0.50661  0.25877  1.0000
  H   H616      1.0  0.44966  0.50822  0.10409  1.0000
  H   H617      1.0  0.41444  0.50975  0.26443  1.0000
  S   S79       1.0  0.50437  0.39787  0.97548  1.0000
  H   H618      1.0  0.50436  0.33191  0.49737  1.0000
  C   C340      1.0  0.50190  0.33255  0.53294  1.0000
  H   H619      1.0  0.46013  0.54850  0.90987  1.0000
  H   H620      1.0  0.44632  0.62005  0.66438  1.0000
  H   H621      1.0  0.34875  0.51512  0.01841  1.0000
  C   C341      1.0  0.37386  0.59295  0.87555  1.0000
  H   H622      1.0  0.37024  0.58707  0.91149  1.0000
  Fe  Fe40      1.0  0.40786  0.53246  0.20981  1.0000
  H   H623      1.0  0.40034  0.60169  0.98232  1.0000
  H   H624      1.0  0.44348  0.52611  0.62500  1.0000
  C   C342      1.0  0.39225  0.56138  0.87307  1.0000
  H   H625      1.0  0.26448  0.59644  0.02421  1.0000
  S   S80       1.0  0.43403  0.73504  0.12889  1.0000
  H   H626      1.0  0.29703  0.74299  0.81126  1.0000
  C   C343      1.0  0.45410  0.63122  0.59305  1.0000
  C   C344      1.0  0.38027  0.52570  0.49246  1.0000
  H   H627      1.0  0.44148  0.57951  0.18612  1.0000
  Fe  Fe41      1.0  0.32287  0.57141  0.99941  1.0000
  S   S81       1.0  0.34011  0.57835  0.94032  1.0000
  S   S82       1.0  0.30245  0.56791  0.00272  1.0000
  Fe  Fe42      1.0  0.33763  0.56761  0.06966  1.0000
  S   S83       1.0  0.35553  0.57388  0.01661  1.0000
  S   S84       1.0  0.33530  0.56185  0.14556  1.0000
  Fe  Fe43      1.0  0.34832  0.58891  0.98389  1.0000
  S   S85       1.0  0.36161  0.60799  0.95513  1.0000
  Fe  Fe44      1.0  0.34611  0.56288  0.97801  1.0000
  S   S86       1.0  0.35526  0.54937  0.95278  1.0000
  S   S87       1.0  0.33077  0.58334  0.03959  1.0000
  S   S88       1.0  0.32858  0.55526  0.03430  1.0000
  Fe  Fe45      1.0  0.42936  0.64746  0.03552  1.0000
  S   S89       1.0  0.41446  0.63486  0.09585  1.0000
  S   S90       1.0  0.43910  0.63454  0.00834  1.0000
  Fe  Fe46      1.0  0.42269  0.67014  0.05775  1.0000
  S   S91       1.0  0.40715  0.65862  0.11917  1.0000
  S   S92       1.0  0.42816  0.69138  0.03340  1.0000
  Fe  Fe47      1.0  0.42012  0.64766  0.13479  1.0000
  S   S93       1.0  0.42005  0.63915  0.20723  1.0000
  Fe  Fe48      1.0  0.40261  0.64636  0.07519  1.0000
  S   S94       1.0  0.38342  0.63445  0.08825  1.0000
  S   S95       1.0  0.43597  0.65973  0.07644  1.0000
  S   S96       1.0  0.41716  0.65854  0.01185  1.0000
  Fe  Fe49      1.0  0.46658  0.61498  0.31612  1.0000
  S   S97       1.0  0.46602  0.59603  0.31032  1.0000
  S   S98       1.0  0.46765  0.62868  0.25012  1.0000
  Fe  Fe50      1.0  0.46632  0.60783  0.41689  1.0000
  S   S99       1.0  0.46588  0.58849  0.41743  1.0000
  S   S100      1.0  0.46262  0.61264  0.48439  1.0000
  Fe  Fe51      1.0  0.47976  0.59637  0.34908  1.0000
  Fe  Fe52      1.0  0.45236  0.58974  0.37829  1.0000
  S   S101      1.0  0.43672  0.57328  0.39534  1.0000
  S   S102      1.0  0.48153  0.61597  0.35089  1.0000
  S   S103      1.0  0.45157  0.60855  0.38179  1.0000
  Fe  Fe53      1.0  0.38238  0.53353  0.25064  1.0000
  S   S104      1.0  0.39775  0.54645  0.19238  1.0000
  H   H628      1.0  0.39102  0.58887  0.86364  1.0000
  H   H629      1.0  0.42495  0.58057  0.89781  1.0000
  C   C345      1.0  0.32098  0.53509  0.84356  1.0000
  Fe  Fe54      1.0  0.40337  0.55378  0.24682  1.0000
  S   S105      1.0  0.41143  0.57372  0.23806  1.0000
  S   S106      1.0  0.38705  0.54214  0.30423  1.0000
  Fe  Fe55      1.0  0.46250  0.61398  0.79658  1.0000
  S   S107      1.0  0.47870  0.60651  0.78144  1.0000
  S   S108      1.0  0.46220  0.63246  0.80822  1.0000
  Fe  Fe56      1.0  0.44532  0.59165  0.78965  1.0000
  S   S109      1.0  0.45972  0.58199  0.77520  1.0000
  S   S110      1.0  0.42571  0.58423  0.79519  1.0000
  Fe  Fe57      1.0  0.46625  0.58863  0.82975  1.0000
  Fe  Fe58      1.0  0.47096  0.60043  0.72753  1.0000
  S   S111      1.0  0.48269  0.60237  0.65650  1.0000
  S   S112      1.0  0.45067  0.59662  0.84825  1.0000
  S   S113      1.0  0.45601  0.60956  0.73852  1.0000
  S   S114      1.0  0.39634  0.53602  0.74443  1.0000
  S   S115      1.0  0.39050  0.54573  0.64712  1.0000
  Fe  Fe59      1.0  0.40636  0.54233  0.67010  1.0000
  S   S116      1.0  0.42390  0.55707  0.64406  1.0000
  Fe  Fe60      1.0  0.38005  0.53791  0.72089  1.0000
  S   S117      1.0  0.36769  0.54894  0.74652  1.0000
  C   C346      1.0  0.49433  0.59212  0.24264  1.0000
  C   C347      1.0  0.48954  0.52587  0.03944  1.0000
  H   H630      1.0  0.48696  0.61322  0.49194  1.0000
  C   C348      1.0  0.39461  0.72378  0.04410  1.0000
  H   H631      1.0  0.25934  0.55811  0.00409  1.0000
  H   H632      1.0  0.42006  0.73105  0.95002  1.0000
  C   C349      1.0  0.42503  0.57834  0.74879  1.0000
  C   C350      1.0  0.41385  0.57242  0.74478  1.0000
  C   C351      1.0  0.41345  0.56641  0.71083  1.0000
  C   C352      1.0  0.42421  0.56629  0.68110  1.0000
  C   C353      1.0  0.43535  0.57291  0.68321  1.0000
  C   C354      1.0  0.43575  0.57893  0.71707  1.0000
  H   H633      1.0  0.40552  0.57220  0.76845  1.0000
  H   H634      1.0  0.40479  0.56183  0.70788  1.0000
  H   H635      1.0  0.44369  0.57304  0.65975  1.0000
  H   H636      1.0  0.44437  0.58382  0.71905  1.0000
  C   C355      1.0  0.27609  0.63243  0.94400  1.0000
  H   H637      1.0  0.43672  0.54890  0.35824  1.0000
  H   H638      1.0  0.38030  0.52685  0.42248  1.0000
  H   H639      1.0  0.37171  0.52790  0.50107  1.0000
  C   C356      1.0  0.46815  0.60707  0.53081  1.0000
  C   C357      1.0  0.46007  0.60235  0.57500  1.0000
  C   C358      1.0  0.46438  0.60063  0.61377  1.0000
  C   C359      1.0  0.47685  0.60346  0.60872  1.0000
  C   C360      1.0  0.48493  0.60758  0.56451  1.0000
  C   C361      1.0  0.48062  0.60941  0.52571  1.0000
  S   S118      1.0  0.41484  0.54104  0.25948  1.0000
  H   H640      1.0  0.47068  0.58697  0.07506  1.0000
  C   C362      1.0  0.36347  0.52018  0.12892  1.0000
  H   H641      1.0  0.45493  0.56763  0.31832  1.0000
  C   C363      1.0  0.42942  0.57396  0.35236  1.0000
  C   C364      1.0  0.42076  0.56351  0.35405  1.0000
  C   C365      1.0  0.41514  0.56359  0.31925  1.0000
  C   C366      1.0  0.41803  0.57417  0.28276  1.0000
  C   C367      1.0  0.42653  0.58479  0.28140  1.0000
  C   C368      1.0  0.43228  0.58467  0.31619  1.0000
  H   H642      1.0  0.41846  0.55522  0.38202  1.0000
  H   H643      1.0  0.40849  0.55541  0.32111  1.0000
  H   H644      1.0  0.42878  0.59302  0.25332  1.0000
  H   H645      1.0  0.43891  0.59284  0.31497  1.0000
  C   C369      1.0  0.44394  0.63409  0.95149  1.0000
  C   C370      1.0  0.44540  0.62295  0.94431  1.0000
  C   C371      1.0  0.45071  0.62232  0.90048  1.0000
  C   C372      1.0  0.45458  0.63284  0.86315  1.0000
  C   C373      1.0  0.45275  0.64394  0.87003  1.0000
  C   C374      1.0  0.44739  0.64457  0.91412  1.0000
  H   H646      1.0  0.44257  0.61482  0.97306  1.0000
  H   H647      1.0  0.45218  0.61379  0.89601  1.0000
  H   H648      1.0  0.45574  0.65214  0.84138  1.0000
  H   H649      1.0  0.44638  0.65323  0.91939  1.0000
  C   C375      1.0  0.43299  0.63495  0.21728  1.0000
  C   C376      1.0  0.44387  0.63830  0.18241  1.0000
  C   C377      1.0  0.45441  0.63609  0.19268  1.0000
  C   C378      1.0  0.45405  0.63021  0.23752  1.0000
  C   C379      1.0  0.44304  0.62636  0.27189  1.0000
  C   C380      1.0  0.43259  0.62884  0.26186  1.0000
  H   H650      1.0  0.44426  0.64295  0.14791  1.0000
  H   H651      1.0  0.46291  0.63911  0.16598  1.0000
  H   H652      1.0  0.44267  0.62185  0.30652  1.0000
  H   H653      1.0  0.42419  0.62619  0.28893  1.0000
  C   C381      1.0  0.35973  0.55004  0.89467  1.0000
  C   C382      1.0  0.35868  0.55958  0.86095  1.0000
  C   C383      1.0  0.36158  0.55938  0.81518  1.0000
  C   C384      1.0  0.36562  0.54972  0.80297  1.0000
  C   C385      1.0  0.36709  0.54041  0.83652  1.0000
  C   C386      1.0  0.36406  0.54055  0.88229  1.0000
  H   H654      1.0  0.35541  0.56694  0.87031  1.0000
  H   H655      1.0  0.36050  0.56663  0.78917  1.0000
  H   H656      1.0  0.37014  0.53291  0.82736  1.0000
  H   H657      1.0  0.36489  0.53316  0.90819  1.0000
  C   C387      1.0  0.34411  0.55374  0.17247  1.0000
  C   C388      1.0  0.35643  0.55514  0.15231  1.0000
  C   C389      1.0  0.36285  0.54811  0.17558  1.0000
  C   C390      1.0  0.35678  0.53941  0.21819  1.0000
  C   C391      1.0  0.34457  0.53823  0.23808  1.0000
  C   C392      1.0  0.33836  0.54552  0.21588  1.0000
  H   H658      1.0  0.36093  0.56151  0.11884  1.0000
  H   H659      1.0  0.37227  0.54901  0.15979  1.0000
  H   H660      1.0  0.33980  0.53150  0.27072  1.0000
  H   H661      1.0  0.32889  0.54444  0.23181  1.0000
  C   C393      1.0  0.36756  0.61533  0.99240  1.0000
  C   C394      1.0  0.37706  0.62626  0.97409  1.0000
  C   C395      1.0  0.38231  0.63202  0.00287  1.0000
  C   C396      1.0  0.37778  0.62714  0.05033  1.0000
  C   C397      1.0  0.36808  0.61639  0.06858  1.0000
  C   C398      1.0  0.36311  0.61041  0.03984  1.0000
  H   H662      1.0  0.38048  0.63021  0.93747  1.0000
  H   H663      1.0  0.38964  0.64039  0.98840  1.0000
  H   H664      1.0  0.36436  0.61265  0.10520  1.0000
  H   H665      1.0  0.35573  0.60207  0.05444  1.0000
  C   C399      1.0  0.43204  0.72314  0.10131  1.0000
  C   C400      1.0  0.42752  0.71079  0.12832  1.0000
  C   C401      1.0  0.42627  0.70100  0.10828  1.0000
  C   C402      1.0  0.42955  0.70338  0.06076  1.0000
  C   C403      1.0  0.43394  0.71573  0.03376  1.0000
  C   C404      1.0  0.43512  0.72554  0.05377  1.0000
  H   H666      1.0  0.42502  0.70878  0.16510  1.0000
  H   H667      1.0  0.42272  0.69161  0.12948  1.0000
  H   H668      1.0  0.43650  0.71775  0.99695  1.0000
  H   H669      1.0  0.43866  0.73494  0.03234  1.0000
  H   H670      1.0  0.46394  0.54480  0.24989  1.0000
  C   C405      1.0  0.45797  0.62406  0.09143  1.0000
  H   H671      1.0  0.28521  0.63656  0.91904  1.0000
  H   H672      1.0  0.43055  0.55972  0.84051  1.0000
  H   H673      1.0  0.42878  0.62770  0.61145  1.0000
  C   C406      1.0  0.46854  0.60346  0.18620  1.0000
  H   H674      1.0  0.46131  0.59038  0.15424  1.0000
  C   C407      1.0  0.48734  0.52339  0.00004  1.0000
  H   H675      1.0  0.47396  0.65923  0.57673  1.0000
  H   H676      1.0  0.42494  0.61770  0.66874  1.0000
  H   H677      1.0  0.46509  0.54800  0.18979  1.0000
  H   H678      1.0  0.44929  0.54920  0.38191  1.0000
  H   H679      1.0  0.46361  0.55740  0.30335  1.0000
  C   C408      1.0  0.39249  0.60478  0.89201  1.0000
  C   C409      1.0  0.32660  0.52333  0.14990  1.0000
  H   H680      1.0  0.38703  0.59980  0.92790  1.0000
  H   H681      1.0  0.40125  0.61667  0.02866  1.0000
  C   C410      1.0  0.27091  0.56244  0.93572  1.0000
  C   C411      1.0  0.26860  0.56072  0.98286  1.0000
  C   C412      1.0  0.27831  0.56230  0.00272  1.0000
  C   C413      1.0  0.29050  0.56568  0.97595  1.0000
  C   C414      1.0  0.29278  0.56746  0.92886  1.0000
  C   C415      1.0  0.28309  0.56580  0.90901  1.0000
  H   H682      1.0  0.48376  0.59675  0.08164  1.0000
  H   H683      1.0  0.27638  0.56092  0.03919  1.0000
  H   H684      1.0  0.30202  0.57034  0.90772  1.0000
  H   H685      1.0  0.28506  0.56725  0.87251  1.0000
  N   N19       1.0  0.40592  0.60704  0.88762  1.0000
  C   C416      1.0  0.40916  0.61568  0.91520  1.0000
  C   C417      1.0  0.41263  0.61327  0.83783  1.0000
  H   H686      1.0  0.48770  0.55483  0.17221  1.0000
  C   C418      1.0  0.40845  0.59480  0.90356  1.0000
  C   C419      1.0  0.41920  0.59465  0.92457  1.0000
  C   C420      1.0  0.40155  0.61154  0.96599  1.0000
  C   C421      1.0  0.42666  0.61718  0.82483  1.0000
  C   C422      1.0  0.43202  0.62436  0.77430  1.0000
  C   C423      1.0  0.42169  0.58210  0.93152  1.0000
  C   C424      1.0  0.40734  0.61914  0.99346  1.0000
  H   H687      1.0  0.40810  0.62489  0.89967  1.0000
  H   H688      1.0  0.41885  0.61742  0.91441  1.0000
  H   H689      1.0  0.41043  0.60711  0.81656  1.0000
  H   H690      1.0  0.40961  0.62158  0.82553  1.0000
  H   H691      1.0  0.44950  0.55576  0.18679  1.0000
  H   H692      1.0  0.40999  0.59061  0.87485  1.0000
  H   H693      1.0  0.41712  0.59637  0.95842  1.0000
  H   H694      1.0  0.42763  0.60169  0.90293  1.0000
  H   H695      1.0  0.39006  0.61366  0.88417  1.0000
  H   H696      1.0  0.39068  0.60284  0.82537  1.0000
  H   H697      1.0  0.43014  0.62316  0.84465  1.0000
  H   H698      1.0  0.43011  0.60895  0.82995  1.0000
  H   H699      1.0  0.42881  0.63272  0.76658  1.0000
  H   H700      1.0  0.44205  0.62731  0.76587  1.0000
  H   H701      1.0  0.42949  0.61851  0.75249  1.0000
  H   H702      1.0  0.41338  0.57466  0.95231  1.0000
  H   H703      1.0  0.44658  0.53935  0.34606  1.0000
  H   H704      1.0  0.42876  0.58174  0.94938  1.0000
  H   H705      1.0  0.47557  0.58952  0.16422  1.0000
  H   H706      1.0  0.41615  0.61738  0.99545  1.0000
  H   H707      1.0  0.40884  0.62911  0.97758  1.0000
  C   C425      1.0  0.37767  0.71693  0.11391  1.0000
  H   H708      1.0  0.39543  0.71847  0.18346  1.0000
  C   C426      1.0  0.39356  0.68550  0.11112  1.0000
  H   H709      1.0  0.32226  0.51805  0.00597  1.0000
  C   C427      1.0  0.40134  0.73766  0.17752  1.0000
  C   C428      1.0  0.39610  0.52214  0.43617  1.0000
  H   H710      1.0  0.39110  0.70389  0.14934  1.0000
  H   H711      1.0  0.44209  0.57338  0.11412  1.0000
  C   C429      1.0  0.26522  0.64675  0.69439  1.0000
  C   C430      1.0  0.48084  0.56704  0.94876  1.0000
  C   C431      1.0  0.25754  0.64388  0.84191  1.0000
  C   C432      1.0  0.39805  0.72902  0.11246  1.0000
  H   H712      1.0  0.35995  0.54004  0.03606  1.0000
  H   H713      1.0  0.49085  0.59969  0.24883  1.0000
  H   H714      1.0  0.40457  0.70930  0.10390  1.0000
  H   H715      1.0  0.46950  0.62220  0.96042  1.0000
  H   H716      1.0  0.29261  0.73629  0.96343  1.0000
  Fe  Fe61      1.0  0.38705  0.52640  0.64213  1.0000
  H   H717      1.0  0.39339  0.69960  0.05430  1.0000
  H   H718      1.0  0.25927  0.63746  0.70025  1.0000
  H   H719      1.0  0.45508  0.60292  0.99412  1.0000
  H   H720      1.0  0.32476  0.56712  0.88905  1.0000
  H   H721      1.0  0.26349  0.61405  0.91404  1.0000
  C   C433      1.0  0.28825  0.70764  0.03140  1.0000
  H   H722      1.0  0.46832  0.52486  0.91523  1.0000
  C   C434      1.0  0.40426  0.54647  0.85359  1.0000
  H   H723      1.0  0.46828  0.58913  0.96128  1.0000
  C   C435      1.0  0.27341  0.61844  0.95999  1.0000
  H   H724      1.0  0.39876  0.54300  0.83211  1.0000
  H   H725      1.0  0.39007  0.68225  0.14894  1.0000
  H   H726      1.0  0.47861  0.55693  0.57198  1.0000
  C   C436      1.0  0.28056  0.71972  0.96054  1.0000
  C   C437      1.0  0.46497  0.65234  0.59343  1.0000
  H   H727      1.0  0.40784  0.73824  0.95631  1.0000
  H   H728      1.0  0.46625  0.62953  0.09652  1.0000
  H   H729      1.0  0.42214  0.52689  0.83949  1.0000
  C   C438      1.0  0.39455  0.70755  0.11152  1.0000
  C   C439      1.0  0.48822  0.54148  0.86490  1.0000
  H   H730      1.0  0.35595  0.73350  0.12101  1.0000
  H   H731      1.0  0.38874  0.71756  0.03054  1.0000
  H   H732      1.0  0.39284  0.73285  0.03296  1.0000
  N   N20       1.0  0.45065  0.67624  0.18311  1.0000
  C   C440      1.0  0.43750  0.67268  0.18357  1.0000
  C   C441      1.0  0.45840  0.67569  0.13856  1.0000
  C   C442      1.0  0.45224  0.66667  0.22127  1.0000
  C   C443      1.0  0.45460  0.68874  0.19042  1.0000
  C   C444      1.0  0.44824  0.69852  0.17284  1.0000
  C   C445      1.0  0.42814  0.67017  0.23050  1.0000
  C   C446      1.0  0.46547  0.66728  0.22229  1.0000
  C   C447      1.0  0.45812  0.68477  0.09449  1.0000
  C   C448      1.0  0.46561  0.68260  0.05194  1.0000
  C   C449      1.0  0.45460  0.71121  0.17481  1.0000
  C   C450      1.0  0.41550  0.67012  0.22564  1.0000
  C   C451      1.0  0.46588  0.65978  0.26848  1.0000
  H   H733      1.0  0.43547  0.66416  0.17274  1.0000
  H   H734      1.0  0.43550  0.67964  0.15794  1.0000
  H   H735      1.0  0.46811  0.67769  0.13781  1.0000
  H   H736      1.0  0.45585  0.66619  0.13526  1.0000
  H   H737      1.0  0.44806  0.65726  0.22015  1.0000
  H   H738      1.0  0.44729  0.66724  0.25506  1.0000
  H   H739      1.0  0.45317  0.68794  0.22744  1.0000
  H   H740      1.0  0.46457  0.69273  0.17481  1.0000
  H   H741      1.0  0.43873  0.69607  0.19435  1.0000
  H   H742      1.0  0.44800  0.69936  0.13727  1.0000
  H   H743      1.0  0.42744  0.66097  0.25277  1.0000
  H   H744      1.0  0.43088  0.67711  0.24812  1.0000
  H   H745      1.0  0.47089  0.67688  0.21565  1.0000
  H   H746      1.0  0.46985  0.66334  0.19593  1.0000
  H   H747      1.0  0.44878  0.68387  0.09160  1.0000
  H   H748      1.0  0.46226  0.69435  0.09367  1.0000
  H   H749      1.0  0.46494  0.68898  0.02091  1.0000
  H   H750      1.0  0.47530  0.68433  0.05138  1.0000
  H   H751      1.0  0.46219  0.67304  0.05080  1.0000
  H   H752      1.0  0.46403  0.71442  0.15201  1.0000
  H   H753      1.0  0.33630  0.73844  0.91599  1.0000
  H   H754      1.0  0.50079  0.55630  0.80585  1.0000
  H   H755      1.0  0.40891  0.66741  0.26001  1.0000
  H   H756      1.0  0.41541  0.67940  0.20681  1.0000
  H   H757      1.0  0.41256  0.66340  0.20739  1.0000
  H   H758      1.0  0.46013  0.65020  0.27748  1.0000
  H   H759      1.0  0.47533  0.65948  0.26690  1.0000
  H   H760      1.0  0.46264  0.66399  0.29570  1.0000
  N   N21       1.0  0.39845  0.56637  0.49487  1.0000
  C   C452      1.0  0.38750  0.56864  0.52388  1.0000
  C   C453      1.0  0.39498  0.56010  0.46038  1.0000
  C   C454      1.0  0.40301  0.55776  0.52649  1.0000
  C   C455      1.0  0.40854  0.57803  0.47147  1.0000
  C   C456      1.0  0.40569  0.58815  0.43752  1.0000
  C   C457      1.0  0.38977  0.57537  0.55999  1.0000
  C   C458      1.0  0.41337  0.55284  0.50373  1.0000
  C   C459      1.0  0.38459  0.56328  0.44099  1.0000
  C   C460      1.0  0.38434  0.55909  0.39832  1.0000
  C   C461      1.0  0.41642  0.59966  0.41804  1.0000
  C   C462      1.0  0.37785  0.57617  0.58930  1.0000
  C   C463      1.0  0.41650  0.54380  0.53984  1.0000
  H   H761      1.0  0.38046  0.55970  0.54187  1.0000
  H   H762      1.0  0.38315  0.57427  0.50271  1.0000
  H   H763      1.0  0.40308  0.56174  0.43126  1.0000
  H   H764      1.0  0.39185  0.54995  0.47560  1.0000
  H   H765      1.0  0.39537  0.54960  0.54788  1.0000
  H   H766      1.0  0.40655  0.56227  0.55036  1.0000
  H   H767      1.0  0.41192  0.58199  0.49691  1.0000
  H   H768      1.0  0.41647  0.57601  0.45125  1.0000
  H   H769      1.0  0.39766  0.59077  0.45413  1.0000
  H   H770      1.0  0.40413  0.58494  0.40803  1.0000
  H   H771      1.0  0.39410  0.57058  0.58368  1.0000
  H   H772      1.0  0.39564  0.58488  0.54301  1.0000
  H   H773      1.0  0.42173  0.56041  0.48583  1.0000
  H   H774      1.0  0.41086  0.54803  0.47899  1.0000
  H   H775      1.0  0.37574  0.55851  0.46717  1.0000
  H   H776      1.0  0.38535  0.57323  0.43164  1.0000
  H   H777      1.0  0.37622  0.56047  0.38766  1.0000
  H   H778      1.0  0.39253  0.56455  0.36979  1.0000
  H   H779      1.0  0.38399  0.54921  0.40501  1.0000
  H   H780      1.0  0.41862  0.60342  0.44570  1.0000
  H   H781      1.0  0.42451  0.59749  0.39921  1.0000
  H   H782      1.0  0.41419  0.60681  0.39372  1.0000
  H   H783      1.0  0.37182  0.56681  0.60839  1.0000
  H   H784      1.0  0.37973  0.58111  0.61454  1.0000
  H   H785      1.0  0.37314  0.58123  0.56777  1.0000
  H   H786      1.0  0.42384  0.54024  0.52323  1.0000
  H   H787      1.0  0.41954  0.54835  0.56441  1.0000
  H   H788      1.0  0.40844  0.53597  0.55922  1.0000
  N   N22       1.0  0.39039  0.59817  0.16815  1.0000
  C   C464      1.0  0.38447  0.59789  0.13026  1.0000
  C   C465      1.0  0.38773  0.60833  0.18814  1.0000
  C   C466      1.0  0.40396  0.60142  0.14698  1.0000
  C   C467      1.0  0.38651  0.58598  0.20474  1.0000
  C   C468      1.0  0.37337  0.57783  0.21472  1.0000
  C   C469      1.0  0.38822  0.58965  0.10004  1.0000
  C   C470      1.0  0.41203  0.60506  0.17750  1.0000
  C   C471      1.0  0.37426  0.60741  0.20951  1.0000
  C   C472      1.0  0.37301  0.61909  0.22264  1.0000
  C   C473      1.0  0.37043  0.56645  0.25526  1.0000
  C   C474      1.0  0.37983  0.58778  0.06992  1.0000
  C   C475      1.0  0.42528  0.60580  0.15626  1.0000
  H   H789      1.0  0.38659  0.60736  0.10703  1.0000
  H   H790      1.0  0.37444  0.59496  0.14371  1.0000
  H   H791      1.0  0.39205  0.60890  0.21602  1.0000
  H   H792      1.0  0.39177  0.61737  0.16143  1.0000
  H   H793      1.0  0.40684  0.60916  0.11506  1.0000
  H   H794      1.0  0.40655  0.59360  0.13624  1.0000
  H   H795      1.0  0.39248  0.58006  0.19600  1.0000
  H   H796      1.0  0.38783  0.58742  0.23744  1.0000
  H   H797      1.0  0.37222  0.57450  0.18509  1.0000
  H   H798      1.0  0.36648  0.58282  0.22213  1.0000
  H   H799      1.0  0.39757  0.59407  0.07709  1.0000
  H   H800      1.0  0.38807  0.58052  0.12106  1.0000
  H   H801      1.0  0.40882  0.59837  0.21197  1.0000
  H   H802      1.0  0.41183  0.61429  0.18142  1.0000
  H   H803      1.0  0.36873  0.60622  0.18572  1.0000
  H   H804      1.0  0.37048  0.59970  0.24137  1.0000
  H   H805      1.0  0.37819  0.62070  0.24731  1.0000
  H   H806      1.0  0.37639  0.62718  0.19186  1.0000
  H   H807      1.0  0.36331  0.61816  0.23866  1.0000
  H   H808      1.0  0.36100  0.56083  0.26174  1.0000
  H   H809      1.0  0.37665  0.56071  0.24779  1.0000
  H   H810      1.0  0.37124  0.56911  0.28655  1.0000
  H   H811      1.0  0.37029  0.58340  0.09112  1.0000
  H   H812      1.0  0.38029  0.59674  0.04672  1.0000
  H   H813      1.0  0.38261  0.58180  0.04890  1.0000
  H   H814      1.0  0.43084  0.60901  0.17785  1.0000
  H   H815      1.0  0.42624  0.59662  0.15416  1.0000
  H   H816      1.0  0.42877  0.61245  0.12158  1.0000
  N   N23       1.0  0.27231  0.59957  0.92757  1.0000
  C   C476      1.0  0.28354  0.59730  0.93958  1.0000
  C   C477      1.0  0.26108  0.59101  0.96367  1.0000
  C   C478      1.0  0.27233  0.59655  0.88308  1.0000
  C   C479      1.0  0.27214  0.61282  0.92043  1.0000
  H   H817      1.0  0.48313  0.53622  0.78577  1.0000
  C   C480      1.0  0.29586  0.60511  0.90496  1.0000
  H   H818      1.0  0.41325  0.51874  0.94282  1.0000
  H   H819      1.0  0.38050  0.75129  0.18008  1.0000
  H   H820      1.0  0.48959  0.53085  0.96914  1.0000
  H   H821      1.0  0.49336  0.53522  0.03852  1.0000
  C   C481      1.0  0.37941  0.51493  0.16723  1.0000
  C   C482      1.0  0.27513  0.64963  0.64956  1.0000
  C   C483      1.0  0.36265  0.51569  0.05557  1.0000
  H   H822      1.0  0.25944  0.66130  0.76802  1.0000
  H   H823      1.0  0.49123  0.60819  0.00478  1.0000
  H   H824      1.0  0.27401  0.58738  0.88485  1.0000
  H   H825      1.0  0.27988  0.60323  0.85446  1.0000
  H   H826      1.0  0.27931  0.61876  0.88891  1.0000
  C   C484      1.0  0.25815  0.65659  0.69243  1.0000
  S   S119      1.0  0.26463  0.69877  0.95514  1.0000
  H   H827      1.0  0.29693  0.60294  0.87185  1.0000
  H   H828      1.0  0.49645  0.57145  0.58277  1.0000
  C   C485      1.0  0.35876  0.51789  0.01096  1.0000
  H   H829      1.0  0.26982  0.64673  0.72165  1.0000
  H   H830      1.0  0.44930  0.53250  0.17147  1.0000
  H   H831      1.0  0.34369  0.52610  0.16496  1.0000
  C   C486      1.0  0.47196  0.56255  0.49275  1.0000
  C   C487      1.0  0.46298  0.54229  0.08292  1.0000
  H   H832      1.0  0.43543  0.51044  0.03513  1.0000
  H   H833      1.0  0.27764  0.72456  0.93310  1.0000
  C   C488      1.0  0.37401  0.74701  0.21459  1.0000
  C   C489      1.0  0.39724  0.52022  0.51461  1.0000
  H   H834      1.0  0.44986  0.67400  0.55679  1.0000
  H   H835      1.0  0.48038  0.55963  0.49325  1.0000
  C   C490      1.0  0.28459  0.53425  0.92160  1.0000
  C   C491      1.0  0.30705  0.54490  0.88526  1.0000
  H   H836      1.0  0.38269  0.52162  0.09506  1.0000
  H   H837      1.0  0.44681  0.55333  0.62299  1.0000
  S   S120      1.0  0.36334  0.52849  0.24462  1.0000
  H   H838      1.0  0.43299  0.56419  0.21894  1.0000
  H   H839      1.0  0.37081  0.58752  0.85326  1.0000
  H   H840      1.0  0.40037  0.58812  0.93009  1.0000
  H   H841      1.0  0.47702  0.63123  0.55033  1.0000
  H   H842      1.0  0.37008  0.60100  0.87173  1.0000
  H   H843      1.0  0.44335  0.63485  0.65366  1.0000
  N   N24       1.0  0.45777  0.56746  0.22257  1.0000
  C   C492      1.0  0.45993  0.58052  0.22504  1.0000
  C   C493      1.0  0.44938  0.55910  0.26781  1.0000
  C   C494      1.0  0.46985  0.56456  0.21204  1.0000
  C   C495      1.0  0.45194  0.56565  0.18545  1.0000
  C   C496      1.0  0.46658  0.59066  0.17930  1.0000
  C   C497      1.0  0.46925  0.55091  0.21541  1.0000
  C   C498      1.0  0.45444  0.55882  0.30961  1.0000
  C   C499      1.0  0.44625  0.54842  0.35138  1.0000
  C   C500      1.0  0.48188  0.54890  0.20630  1.0000
  H   H844      1.0  0.46549  0.58190  0.24875  1.0000
  H   H845      1.0  0.45125  0.58242  0.24014  1.0000
  H   H846      1.0  0.44088  0.56192  0.27651  1.0000
  H   H847      1.0  0.44630  0.54955  0.26581  1.0000
  H   H848      1.0  0.47534  0.56759  0.23422  1.0000
  H   H849      1.0  0.47546  0.56997  0.17681  1.0000
  H   H850      1.0  0.45848  0.57042  0.15114  1.0000
  H   H851      1.0  0.39240  0.61278  0.96839  1.0000
  H   H852      1.0  0.45976  0.60505  0.20191  1.0000
  S   S121      1.0  0.49394  0.58626  0.33311  1.0000
  C   C501      1.0  0.44014  0.56971  0.18718  1.0000
  Fe  Fe62      1.0  0.34624  0.75553  0.03012  1.0000
  H   H853      1.0  0.48129  0.53919  0.20709  1.0000
  H   H854      1.0  0.47293  0.61057  0.15286  1.0000
  C   C502      1.0  0.38769  0.59717  0.86158  1.0000
  H   H855      1.0  0.47457  0.60462  0.20845  1.0000
  C   C503      1.0  0.47905  0.51870  0.83715  1.0000
  C   C504      1.0  0.50405  0.57303  0.22504  1.0000
  C   C505      1.0  0.43177  0.62101  0.63473  1.0000
  H   H856      1.0  0.45566  0.62275  0.58517  1.0000
  C   C506      1.0  0.46994  0.63390  0.63159  1.0000
  H   H857      1.0  0.45855  0.52519  0.22880  1.0000
  H   H858      1.0  0.46341  0.58019  0.51710  1.0000
  H   H859      1.0  0.46963  0.62413  0.63349  1.0000
  H   H860      1.0  0.44278  0.55420  0.89501  1.0000
  C   C507      1.0  0.26141  0.58807  0.01410  1.0000
  H   H861      1.0  0.49459  0.60979  0.56023  1.0000
  C   C508      1.0  0.44935  0.58021  0.99028  1.0000
  H   H862      1.0  0.45806  0.59746  0.64753  1.0000
  H   H863      1.0  0.43590  0.53253  0.75734  1.0000
  H   H864      1.0  0.28026  0.64261  0.65212  1.0000
  C   C509      1.0  0.44411  0.62704  0.63939  1.0000
  H   H865      1.0  0.45041  0.60060  0.57939  1.0000
  H   H866      1.0  0.27586  0.63617  0.97371  1.0000
  C   C510      1.0  0.32525  0.54198  0.90985  1.0000
  H   H867      1.0  0.43224  0.61300  0.62127  1.0000
  H   H868      1.0  0.38848  0.75314  0.26878  1.0000
  C   C511      1.0  0.47289  0.64518  0.50239  1.0000
  C   C512      1.0  0.47545  0.64045  0.54854  1.0000
  H   H869      1.0  0.38226  0.52426  0.17130  1.0000
  H   H870      1.0  0.46357  0.63368  0.66407  1.0000
  H   H871      1.0  0.45026  0.63527  0.56595  1.0000
  N   N25       1.0  0.46595  0.63969  0.59121  1.0000
  H   H872      1.0  0.26475  0.61497  0.98770  1.0000
  H   H873      1.0  0.46418  0.63958  0.50095  1.0000
  H   H874      1.0  0.43596  0.53173  0.66928  1.0000
  C   C513      1.0  0.38516  0.52520  0.44771  1.0000
  C   C514      1.0  0.48042  0.59176  0.05853  1.0000
  H   H875      1.0  0.46920  0.56437  0.60221  1.0000
  Fe  Fe63      1.0  0.39817  0.52877  0.31449  1.0000
  H   H876      1.0  0.45611  0.65636  0.53818  1.0000
  C   C515      1.0  0.32001  0.74296  0.90354  1.0000
  H   H877      1.0  0.33353  0.58792  0.83510  1.0000
  H   H878      1.0  0.41956  0.56146  0.88591  1.0000
  H   H879      1.0  0.25891  0.58185  0.95713  1.0000
  H   H880      1.0  0.43185  0.55713  0.93898  1.0000
  H   H881      1.0  0.25728  0.68059  0.69445  1.0000
  C   C516      1.0  0.26182  0.59330  0.82254  1.0000
  H   H882      1.0  0.44614  0.65210  0.59463  1.0000
  C   C517      1.0  0.43596  0.55936  0.90157  1.0000
  C   C518      1.0  0.40207  0.51961  0.46997  1.0000
  C   C519      1.0  0.47654  0.53124  0.81980  1.0000
  H   H883      1.0  0.46753  0.60616  0.07964  1.0000
  H   H884      1.0  0.46262  0.65268  0.62952  1.0000
  H   H885      1.0  0.39757  0.73831  0.09504  1.0000
  C   C520      1.0  0.45546  0.65726  0.57291  1.0000
  H   H886      1.0  0.49367  0.58377  0.83765  1.0000
  C   C521      1.0  0.35923  0.72519  0.12930  1.0000
  H   H887      1.0  0.33627  0.58158  0.78748  1.0000
  C   C522      1.0  0.30644  0.60245  0.92257  1.0000
  H   H888      1.0  0.47927  0.61944  0.04477  1.0000
  C   C523      1.0  0.42622  0.55625  0.87770  1.0000
  H   H889      1.0  0.36484  0.74381  0.21050  1.0000
  C   C524      1.0  0.33397  0.53413  0.82368  1.0000
  H   H890      1.0  0.38829  0.56071  0.84440  1.0000
  H   H891      1.0  0.46757  0.52910  0.81290  1.0000
  H   H892      1.0  0.38545  0.56297  0.90032  1.0000
  H   H893      1.0  0.34435  0.57908  0.83002  1.0000
  H   H894      1.0  0.45377  0.61568  0.12089  1.0000
  H   H895      1.0  0.33735  0.55755  0.83149  1.0000
  H   H896      1.0  0.45935  0.55814  0.82552  1.0000
  C   C525      1.0  0.47054  0.61317  0.04585  1.0000
  C   C526      1.0  0.33553  0.57990  0.82443  1.0000
  H   H897      1.0  0.45498  0.59439  0.04841  1.0000
  H   H898      1.0  0.43529  0.54721  0.80236  1.0000
  H   H899      1.0  0.41518  0.54024  0.93111  1.0000
  C   C527      1.0  0.32754  0.55686  0.83753  1.0000
  C   C528      1.0  0.46104  0.62068  0.04664  1.0000
  H   H900      1.0  0.44203  0.57793  0.02265  1.0000
  C   C529      1.0  0.32540  0.56828  0.85251  1.0000
  H   H901      1.0  0.39950  0.55057  0.91999  1.0000
  N   N26       1.0  0.47244  0.60712  0.00783  1.0000
  H   H902      1.0  0.40043  0.56937  0.86080  1.0000
  H   H903      1.0  0.39627  0.52801  0.93142  1.0000
  C   C530      1.0  0.48251  0.60110  0.01153  1.0000
  H   H904      1.0  0.45247  0.61545  0.04281  1.0000
  C   C531      1.0  0.39552  0.54954  0.89172  1.0000
  H   H905      1.0  0.48834  0.54806  0.88577  1.0000
  C   C532      1.0  0.46064  0.59810  0.01215  1.0000
  H   H906      1.0  0.36008  0.51141  0.95075  1.0000
  H   H907      1.0  0.45608  0.54228  0.83077  1.0000
  H   H908      1.0  0.41063  0.55527  0.83075  1.0000
  H   H909      1.0  0.47283  0.65493  0.49637  1.0000
  C   C533      1.0  0.41985  0.54225  0.89407  1.0000
  H   H910      1.0  0.37762  0.55697  0.98554  1.0000
  C   C534      1.0  0.45695  0.67081  0.57043  1.0000
  N   N27       1.0  0.41103  0.53742  0.86962  1.0000
  C   C535      1.0  0.46151  0.58669  0.99489  1.0000
  H   H911      1.0  0.38693  0.54203  0.90619  1.0000
  H   H912      1.0  0.48339  0.63504  0.46646  1.0000
  H   H913      1.0  0.39218  0.55848  0.99659  1.0000
  C   C536      1.0  0.37458  0.75837  0.04376  1.0000
  S   S122      1.0  0.42196  0.53057  0.15087  1.0000
  H   H914      1.0  0.45140  0.62966  0.09043  1.0000
  H   H915      1.0  0.40179  0.51791  0.54037  1.0000
  C   C537      1.0  0.50338  0.57627  0.88331  1.0000
  H   H916      1.0  0.43934  0.55975  0.55116  1.0000
  H   H917      1.0  0.46463  0.62943  0.01865  1.0000
  H   H918      1.0  0.34321  0.52396  0.78436  1.0000
  C   C538      1.0  0.42726  0.54432  0.79044  1.0000
  H   H919      1.0  0.44716  0.58626  0.96225  1.0000
  H   H920      1.0  0.34298  0.53767  0.11710  1.0000
  C   C539      1.0  0.41741  0.53390  0.82901  1.0000
  H   H921      1.0  0.36477  0.52801  0.14384  1.0000
  H   H922      1.0  0.49178  0.65051  0.46100  1.0000
  C   C540      1.0  0.43379  0.51700  0.25438  1.0000
  H   H923      1.0  0.44992  0.57156  0.98155  1.0000
  H   H924      1.0  0.32312  0.52856  0.17307  1.0000
  H   H925      1.0  0.31683  0.56990  0.84682  1.0000
  C   C541      1.0  0.28917  0.72646  0.97769  1.0000
  H   H926      1.0  0.39809  0.73636  0.21480  1.0000
  S   S123      1.0  0.46809  0.57549  0.89175  1.0000
  H   H927      1.0  0.43768  0.57983  0.56444  1.0000
  C   C542      1.0  0.34044  0.52766  0.13415  1.0000
  H   H928      1.0  0.35763  0.72205  0.16685  1.0000
  H   H929      1.0  0.48438  0.59642  0.98464  1.0000
  H   H930      1.0  0.46414  0.57995  0.01924  1.0000
  C   C543      1.0  0.47901  0.61316  0.91891  1.0000
  H   H931      1.0  0.44739  0.56767  0.49212  1.0000
  H   H932      1.0  0.47180  0.54612  0.05598  1.0000
  C   C544      1.0  0.29319  0.72052  0.01338  1.0000
  H   H933      1.0  0.32592  0.55800  0.80329  1.0000
  H   H934      1.0  0.38985  0.67801  0.09722  1.0000
  H   H935      1.0  0.45091  0.53934  0.99161  1.0000
  H   H936      1.0  0.46909  0.55109  0.40018  1.0000
  H   H937      1.0  0.36228  0.52768  0.99082  1.0000
  H   H938      1.0  0.32979  0.52645  0.76979  1.0000
  C   C545      1.0  0.40178  0.52589  0.90201  1.0000
  C   C546      1.0  0.43158  0.54002  0.74869  1.0000
  H   H939      1.0  0.33833  0.53166  0.85108  1.0000
  C   C547      1.0  0.48164  0.57388  0.90463  1.0000
  H   H940      1.0  0.48883  0.53291  0.88760  1.0000
  H   H941      1.0  0.27109  0.64947  0.62080  1.0000
  H   H942      1.0  0.30624  0.59262  0.92780  1.0000
  H   H943      1.0  0.28327  0.58747  0.94396  1.0000
  H   H944      1.0  0.40790  0.72960  0.10320  1.0000
  C   C548      1.0  0.47524  0.55142  0.82708  1.0000
  H   H945      1.0  0.29121  0.70279  0.05872  1.0000
  H   H946      1.0  0.47119  0.54450  0.93760  1.0000
  H   H947      1.0  0.41104  0.73785  0.16895  1.0000
  C   C549      1.0  0.39403  0.72713  0.16475  1.0000
  C   C550      1.0  0.38633  0.52335  0.52610  1.0000
  H   H948      1.0  0.32859  0.53427  0.99566  1.0000
  H   H949      1.0  0.40043  0.74663  0.15908  1.0000
  N   N28       1.0  0.32006  0.54444  0.86984  1.0000
  H   H950      1.0  0.32849  0.51509  0.82224  1.0000
  H   H951      1.0  0.48290  0.55595  0.79553  1.0000
  H   H952      1.0  0.42392  0.55233  0.77873  1.0000
  H   H953      1.0  0.43322  0.55796  0.14812  1.0000
  H   H954      1.0  0.40357  0.68745  0.10088  1.0000
  S   S124      1.0  0.30431  0.72862  0.03631  1.0000
  C   C551      1.0  0.38223  0.55534  0.01273  1.0000
  H   H955      1.0  0.41067  0.71682  0.02744  1.0000
  C   C552      1.0  0.40694  0.51548  0.92382  1.0000
  H   H956      1.0  0.44073  0.56930  0.88820  1.0000
  H   H957      1.0  0.37377  0.73181  0.06755  1.0000
  C   C553      1.0  0.45307  0.53327  0.97007  1.0000
  C   C554      1.0  0.43535  0.56782  0.14710  1.0000
  C   C555      1.0  0.38976  0.69695  0.09201  1.0000
  H   H958      1.0  0.37747  0.73589  0.11587  1.0000
  H   H959      1.0  0.41415  0.73265  0.02785  1.0000
  H   H960      1.0  0.38435  0.72682  0.17706  1.0000
  N   N29       1.0  0.39121  0.71932  0.09550  1.0000
  H   H961      1.0  0.43836  0.54779  0.72119  1.0000
  H   H962      1.0  0.36280  0.54260  0.08623  1.0000
  C   C556      1.0  0.40805  0.72549  0.01887  1.0000
  H   H963      1.0  0.37972  0.69427  0.10111  1.0000
  H   H964      1.0  0.33511  0.54294  0.89776  1.0000
  H   H965      1.0  0.47042  0.60781  0.91555  1.0000
  H   H966      1.0  0.47210  0.56327  0.97415  1.0000
  H   H967      1.0  0.37281  0.71041  0.09861  1.0000
  H   H968      1.0  0.37458  0.71225  0.15126  1.0000
  H   H969      1.0  0.46588  0.52444  0.09957  1.0000
  H   H970      1.0  0.49330  0.62970  0.87692  1.0000
  C   C557      1.0  0.37273  0.72835  0.10457  1.0000
  H   H971      1.0  0.42386  0.53679  0.73542  1.0000
  C   C558      1.0  0.46320  0.54078  0.92683  1.0000
  H   H972      1.0  0.27625  0.69105  0.02824  1.0000
  H   H973      1.0  0.42702  0.53729  0.89265  1.0000
  H   H974      1.0  0.28210  0.54114  0.89716  1.0000
  H   H975      1.0  0.35393  0.71794  0.11810  1.0000
  H   H976      1.0  0.45780  0.52871  0.88688  1.0000
  C   C559      1.0  0.42052  0.51810  0.12694  1.0000
  H   H977      1.0  0.48618  0.55101  0.23276  1.0000
  C   C560      1.0  0.36464  0.53712  0.06194  1.0000
  S   S125      1.0  0.36468  0.75190  0.01543  1.0000
  H   H978      1.0  0.47631  0.55801  0.84763  1.0000
  H   H979      1.0  0.48652  0.57934  0.61007  1.0000
  H   H980      1.0  0.37983  0.56085  0.03634  1.0000
  H   H981      1.0  0.48798  0.51988  0.84419  1.0000
  H   H982      1.0  0.28083  0.61638  0.97399  1.0000
  C   C561      1.0  0.41030  0.72953  0.96715  1.0000
  C   C562      1.0  0.46625  0.53284  0.89458  1.0000
  H   H983      1.0  0.31036  0.52964  0.96778  1.0000
  H   H984      1.0  0.43397  0.52618  0.23377  1.0000
  S   S126      1.0  0.39208  0.51887  0.26547  1.0000
  C   C563      1.0  0.31924  0.52947  0.94674  1.0000
  S   S127      1.0  0.40229  0.52063  0.38110  1.0000
  H   H985      1.0  0.42687  0.57072  0.14936  1.0000
  C   C564      1.0  0.27965  0.70090  0.01420  1.0000
  N   N30       1.0  0.47656  0.53924  0.85154  1.0000
  H   H986      1.0  0.34237  0.52365  0.07036  1.0000
  C   C565      1.0  0.27566  0.70685  0.97847  1.0000
  H   H987      1.0  0.45598  0.52579  0.98998  1.0000
  C   C566      1.0  0.37394  0.75629  0.24219  1.0000
  H   H988      1.0  0.47525  0.57227  0.47127  1.0000
  C   C567      1.0  0.33377  0.52428  0.79858  1.0000
  H   H989      1.0  0.41060  0.52951  0.81362  1.0000
  H   H990      1.0  0.40491  0.72231  0.95607  1.0000
  H   H991      1.0  0.26488  0.66528  0.68901  1.0000
  H   H992      1.0  0.45642  0.55423  0.75438  1.0000
  H   H993      1.0  0.31548  0.52573  0.86461  1.0000
  S   S128      1.0  0.33023  0.74420  0.08977  1.0000
  H   H994      1.0  0.28159  0.65880  0.64216  1.0000
  H   H995      1.0  0.47965  0.58452  0.54090  1.0000
  H   H996      1.0  0.44409  0.52330  0.13845  1.0000
  C   C568      1.0  0.48284  0.64463  0.46270  1.0000
  C   C569      1.0  0.46509  0.55384  0.76226  1.0000
  H   H997      1.0  0.47093  0.53419  0.13272  1.0000
  H   H998      1.0  0.44474  0.52924  0.96149  1.0000
  H   H999      1.0  0.48430  0.65039  0.62544  1.0000
  H   H1000     1.0  0.44539  0.58743  0.50465  1.0000
  H   H1001     1.0  0.37652  0.73893  0.23240  1.0000
  C   C570      1.0  0.46319  0.55107  0.81388  1.0000
  H   H1002     1.0  0.25745  0.63484  0.86361  1.0000
  H   H1003     1.0  0.45541  0.57271  0.57481  1.0000
  S   S129      1.0  0.48987  0.51962  0.12837  1.0000
  C   C571      1.0  0.45123  0.52521  0.15567  1.0000
  C   C572      1.0  0.43959  0.57862  0.52964  1.0000
  H   H1004     1.0  0.47181  0.56288  0.74398  1.0000
  H   H1005     1.0  0.28473  0.53729  0.95269  1.0000
  H   H1006     1.0  0.49041  0.55931  0.99387  1.0000
  H   H1007     1.0  0.30478  0.55093  0.85718  1.0000
  S   S130      1.0  0.25913  0.56089  0.90792  1.0000
  C   C573      1.0  0.44578  0.56834  0.52737  1.0000
  Fe  Fe64      1.0  0.31875  0.74566  0.03985  1.0000
  H   H1008     1.0  0.50075  0.54108  0.80137  1.0000
  H   H1009     1.0  0.31702  0.53721  0.81450  1.0000
  H   H1010     1.0  0.46828  0.54659  0.74937  1.0000
  H   H1011     1.0  0.43087  0.57628  0.52130  1.0000
  C   C574      1.0  0.47650  0.61718  0.96318  1.0000
  C   C575      1.0  0.45776  0.57109  0.54061  1.0000
  H   H1012     1.0  0.26769  0.58231  0.01945  1.0000
  H   H1013     1.0  0.33214  0.73399  0.86856  1.0000
  H   H1014     1.0  0.33977  0.54291  0.79863  1.0000
  C   C576      1.0  0.37846  0.54168  0.03881  1.0000
  C   C577      1.0  0.32699  0.52686  0.97898  1.0000
  C   C578      1.0  0.49693  0.59065  0.19861  1.0000
  H   H1015     1.0  0.29670  0.61506  0.89914  1.0000
  S   S131      1.0  0.40400  0.52350  0.66027  1.0000
  H   H1016     1.0  0.48481  0.62414  0.96179  1.0000
  C   C579      1.0  0.42884  0.51940  0.08514  1.0000
  H   H1017     1.0  0.31633  0.74276  0.93952  1.0000
  H   H1018     1.0  0.25479  0.68648  0.12788  1.0000
  C   C580      1.0  0.34577  0.52091  0.10044  1.0000
  H   H1019     1.0  0.32287  0.52503  0.12024  1.0000
  C   C581      1.0  0.47391  0.56432  0.56725  1.0000
  H   H1020     1.0  0.29620  0.52952  0.86911  1.0000
  H   H1021     1.0  0.46118  0.54951  0.09935  1.0000
  C   C582      1.0  0.48719  0.58202  0.05439  1.0000
  H   H1022     1.0  0.30222  0.75222  0.87063  1.0000
  C   C583      1.0  0.48678  0.51632  0.07958  1.0000
  H   H1023     1.0  0.38341  0.54066  0.06503  1.0000
  H   H1024     1.0  0.45652  0.55573  0.46647  1.0000
  H   H1025     1.0  0.31790  0.52170  0.93178  1.0000
  H   H1026     1.0  0.36732  0.75143  0.27622  1.0000
  H   H1027     1.0  0.25862  0.60543  0.86324  1.0000
  H   H1028     1.0  0.33587  0.52613  0.95996  1.0000
  C   C584      1.0  0.32859  0.73474  0.90344  1.0000
  C   C585      1.0  0.48429  0.62436  0.87686  1.0000
  H   H1029     1.0  0.48543  0.62134  0.84541  1.0000
  H   H1030     1.0  0.41187  0.51196  0.89769  1.0000
  H   H1031     1.0  0.48558  0.60758  0.91794  1.0000
  H   H1032     1.0  0.43297  0.53510  0.61477  1.0000
  H   H1033     1.0  0.45578  0.53970  0.06651  1.0000
  H   H1034     1.0  0.28384  0.59874  0.97310  1.0000
  H   H1035     1.0  0.32474  0.54910  0.92816  1.0000
  H   H1036     1.0  0.39527  0.52201  0.88446  1.0000
  H   H1037     1.0  0.47815  0.63043  0.87591  1.0000
  H   H1038     1.0  0.46246  0.54204  0.56090  1.0000
  H   H1039     1.0  0.48969  0.57718  0.51225  1.0000
  C   C586      1.0  0.46561  0.55462  0.46639  1.0000
  S   S132      1.0  0.37520  0.51865  0.71539  1.0000
  H   H1040     1.0  0.38136  0.53667  0.01401  1.0000
  C   C587      1.0  0.29692  0.53263  0.89966  1.0000
  H   H1041     1.0  0.48261  0.55758  0.41410  1.0000
  C   C588      1.0  0.47310  0.55780  0.41662  1.0000
  C   C589      1.0  0.45695  0.54869  0.56403  1.0000
  C   C590      1.0  0.49122  0.56481  0.96013  1.0000
  H   H1042     1.0  0.29863  0.52520  0.92414  1.0000
  S   S133      1.0  0.37960  0.52407  0.58201  1.0000
  H   H1043     1.0  0.43753  0.51052  0.75721  1.0000
  H   H1044     1.0  0.45473  0.71101  0.21028  1.0000
  H   H1045     1.0  0.48431  0.64668  0.54599  1.0000
  H   H1046     1.0  0.47307  0.56706  0.39747  1.0000
  H   H1047     1.0  0.46457  0.54474  0.48217  1.0000
  C   C591      1.0  0.46351  0.53106  0.11805  1.0000
  H   H1048     1.0  0.30586  0.54915  0.91391  1.0000
  H   H1049     1.0  0.46890  0.51971  0.19424  1.0000
  C   C592      1.0  0.48381  0.57680  0.54585  1.0000
  N   N31       1.0  0.46488  0.56163  0.54080  1.0000
  S   S134      1.0  0.33528  0.75582  0.97980  1.0000
  H   H1050     1.0  0.27749  0.52538  0.93161  1.0000
  H   H1051     1.0  0.44967  0.71793  0.16315  1.0000
  C   C593      1.0  0.45050  0.54577  0.61557  1.0000
  H   H1052     1.0  0.30605  0.60468  0.95540  1.0000
  H   H1053     1.0  0.26919  0.63515  0.92790  1.0000
  H   H1054     1.0  0.26711  0.64943  0.82574  1.0000
  H   H1055     1.0  0.44992  0.54630  0.54659  1.0000
  H   H1056     1.0  0.45701  0.54448  0.63577  1.0000
  H   H1057     1.0  0.43548  0.52812  0.06736  1.0000
  H   H1058     1.0  0.31892  0.75100  0.80272  1.0000
  C   C594      1.0  0.44012  0.53394  0.63201  1.0000
  C   C595      1.0  0.49296  0.57854  0.87186  1.0000
  C   C596      1.0  0.26058  0.59637  0.86794  1.0000
  H   H1059     1.0  0.31517  0.60813  0.89733  1.0000
  N   N32       1.0  0.35943  0.52358  0.08617  1.0000
  C   C597      1.0  0.50164  0.57464  0.26910  1.0000
  H   H1060     1.0  0.46597  0.67652  0.54736  1.0000
  C   C598      1.0  0.48480  0.63548  0.67916  1.0000
  H   H1061     1.0  0.45598  0.67214  0.60493  1.0000
  H   H1062     1.0  0.48530  0.57549  0.08859  1.0000
  C   C599      1.0  0.50013  0.54681  0.82519  1.0000
  H   H1063     1.0  0.32360  0.72540  0.92655  1.0000
  H   H1064     1.0  0.37257  0.51687  0.04503  1.0000
  H   H1065     1.0  0.49540  0.59710  0.17118  1.0000
  C   C600      1.0  0.49673  0.58418  0.27803  1.0000
  C   C601      1.0  0.50255  0.56944  0.92760  1.0000
  Fe  Fe65      1.0  0.39254  0.51734  0.73375  1.0000
  H   H1066     1.0  0.48379  0.62545  0.68703  1.0000
  H   H1067     1.0  0.29663  0.75816  0.78167  1.0000
  H   H1068     1.0  0.41843  0.51261  0.73892  1.0000
  C   C602      1.0  0.37507  0.51561  0.12455  1.0000
  H   H1069     1.0  0.49712  0.58634  0.04073  1.0000
  C   C603      1.0  0.49192  0.57890  0.57680  1.0000
  H   H1070     1.0  0.46598  0.51887  0.29650  1.0000
  C   C604      1.0  0.45953  0.51700  0.21728  1.0000
  S   S135      1.0  0.49804  0.55530  0.07450  1.0000
  H   H1071     1.0  0.47823  0.63731  0.70653  1.0000
  H   H1072     1.0  0.41824  0.51669  0.30706  1.0000
  Fe  Fe66      1.0  0.43638  0.75603  0.10693  1.0000
  C   C605      1.0  0.48281  0.64031  0.63264  1.0000
  H   H1073     1.0  0.47766  0.51465  0.25973  1.0000
  H   H1074     1.0  0.31247  0.73879  0.89122  1.0000
  H   H1075     1.0  0.50362  0.56852  0.29628  1.0000
  H   H1076     1.0  0.26956  0.60015  0.79533  1.0000
  H   H1077     1.0  0.48073  0.64793  0.43003  1.0000
  H   H1078     1.0  0.49902  0.58779  0.56034  1.0000
  H   H1079     1.0  0.48414  0.57674  0.03168  1.0000
  H   H1080     1.0  0.33179  0.75562  0.84022  1.0000
  H   H1081     1.0  0.26319  0.58399  0.82601  1.0000
  C   C606      1.0  0.48236  0.51133  0.00050  1.0000
  C   C607      1.0  0.31336  0.75760  0.80033  1.0000
  H   H1082     1.0  0.49411  0.64011  0.67877  1.0000
  N   N33       1.0  0.45046  0.51380  0.19176  1.0000
  H   H1083     1.0  0.48981  0.63843  0.60692  1.0000
  H   H1084     1.0  0.43970  0.51826  0.27692  1.0000
  H   H1085     1.0  0.25589  0.63677  0.78563  1.0000
  H   H1086     1.0  0.35626  0.51264  0.15625  1.0000
  C   C608      1.0  0.32672  0.75631  0.87343  1.0000
  H   H1087     1.0  0.30641  0.75666  0.93534  1.0000
  C   C609      1.0  0.30248  0.75185  0.78568  1.0000
  Fe  Fe67      1.0  0.50309  0.53829  0.10344  1.0000
  H   H1088     1.0  0.30571  0.75004  0.75238  1.0000
  H   H1089     1.0  0.34152  0.51085  0.11607  1.0000
  H   H1090     1.0  0.41042  0.51702  0.46168  1.0000
  H   H1091     1.0  0.26613  0.67326  0.09682  1.0000
  H   H1092     1.0  0.47188  0.51300  0.86878  1.0000
  H   H1093     1.0  0.37372  0.51357  0.96845  1.0000
  C   C610      1.0  0.50171  0.58107  0.18966  1.0000
  H   H1094     1.0  0.48621  0.51670  0.76956  1.0000
  H   H1095     1.0  0.38968  0.75315  0.00830  1.0000
  C   C611      1.0  0.38656  0.75755  0.03383  1.0000
  H   H1096     1.0  0.32341  0.51340  0.16881  1.0000
  H   H1097     1.0  0.25572  0.65817  0.65967  1.0000
  C   C612      1.0  0.47903  0.51152  0.80190  1.0000
  C   C613      1.0  0.46830  0.51129  0.28332  1.0000
  C   C614      1.0  0.25609  0.67001  0.11021  1.0000
  C   C615      1.0  0.42088  0.51087  0.28519  1.0000
  H   H1098     1.0  0.42032  0.75893  0.95373  1.0000
  S   S136      1.0  0.50440  0.57958  0.13378  1.0000
  H   H1099     1.0  0.33387  0.76007  0.88848  1.0000
  H   H1100     1.0  0.38731  0.51105  0.16408  1.0000
  C   C616      1.0  0.36367  0.51034  0.98087  1.0000
  H   H1101     1.0  0.47786  0.91097  0.01401  1.0000
  H   H1102     1.0  0.40075  0.94402  0.11568  1.0000
  Fe  Fe68      1.0  0.33254  0.77312  0.99568  1.0000
  H   H1103     1.0  0.49348  0.98142  0.03200  1.0000
  S   S137      1.0  0.33326  0.79052  0.94383  1.0000
  H   H1104     1.0  0.49206  0.90902  0.22902  1.0000
  C   C617      1.0  0.48607  0.99864  0.90320  1.0000
  H   H1105     1.0  0.36533  0.78342  0.38943  1.0000
  S   S138      1.0  0.34496  0.77375  0.04008  1.0000
  C   C618      1.0  0.40309  0.93819  0.09343  1.0000
  S   S139      1.0  0.45042  0.79161  0.96109  1.0000
  Fe  Fe69      1.0  0.43126  0.90829  0.02854  1.0000
  S   S140      1.0  0.41863  0.91809  0.00147  1.0000
  S   S141      1.0  0.42862  0.89578  0.09867  1.0000
  Fe  Fe70      1.0  0.45185  0.92108  0.94168  1.0000
  S   S142      1.0  0.44071  0.93137  0.90771  1.0000
  S   S143      1.0  0.47130  0.92359  0.90570  1.0000
  Fe  Fe71      1.0  0.43483  0.93516  0.97584  1.0000
  S   S144      1.0  0.43565  0.95480  0.98185  1.0000
  Fe  Fe72      1.0  0.42595  0.91330  0.93610  1.0000
  S   S145      1.0  0.41519  0.90339  0.89500  1.0000
  S   S146      1.0  0.44656  0.92539  0.00804  1.0000
  S   S147      1.0  0.43787  0.90289  0.96528  1.0000
  Fe  Fe73      1.0  0.39086  0.82104  0.29588  1.0000
  S   S148      1.0  0.37429  0.80952  0.35130  1.0000
  S   S149      1.0  0.40776  0.81477  0.28874  1.0000
  Fe  Fe74      1.0  0.37824  0.83974  0.26167  1.0000
  S   S150      1.0  0.36075  0.82953  0.31692  1.0000
  S   S151      1.0  0.37871  0.85528  0.20214  1.0000
  Fe  Fe75      1.0  0.37261  0.82748  0.36483  1.0000
  S   S152      1.0  0.36977  0.82617  0.44141  1.0000
  Fe  Fe76      1.0  0.36439  0.81270  0.29784  1.0000
  S   S153      1.0  0.34993  0.79802  0.28570  1.0000
  S   S154      1.0  0.38978  0.83894  0.31013  1.0000
  S   S155      1.0  0.38128  0.82304  0.24169  1.0000
  Fe  Fe77      1.0  0.38550  0.83580  0.73649  1.0000
  S   S156      1.0  0.37368  0.84848  0.72436  1.0000
  S   S157      1.0  0.38166  0.81645  0.78247  1.0000
  Fe  Fe78      1.0  0.40827  0.85538  0.67431  1.0000
  S   S158      1.0  0.39816  0.86926  0.65795  1.0000
  S   S159      1.0  0.42841  0.85991  0.64332  1.0000
  Fe  Fe79      1.0  0.38866  0.86294  0.73332  1.0000
  S   S160      1.0  0.38626  0.87637  0.77653  1.0000
  Fe  Fe80      1.0  0.38455  0.85356  0.64961  1.0000
  S   S161      1.0  0.37870  0.85717  0.58322  1.0000
  S   S162      1.0  0.39947  0.84978  0.74967  1.0000
  S   S163      1.0  0.39546  0.84013  0.66210  1.0000
  Fe  Fe81      1.0  0.47476  0.83682  0.32081  1.0000
  S   S164      1.0  0.46379  0.85013  0.30639  1.0000
  S   S165      1.0  0.47889  0.82610  0.26821  1.0000
  Fe  Fe82      1.0  0.47853  0.84484  0.40747  1.0000
  S   S166      1.0  0.46757  0.85823  0.39722  1.0000
  S   S167      1.0  0.48633  0.84241  0.46948  1.0000
  Fe  Fe83      1.0  0.45500  0.84345  0.38182  1.0000
  S   S168      1.0  0.43491  0.83924  0.41168  1.0000
  Fe  Fe84      1.0  0.47767  0.86363  0.32261  1.0000
  S   S169      1.0  0.48338  0.88419  0.28698  1.0000
  S   S170      1.0  0.46514  0.82941  0.39639  1.0000
  S   S171      1.0  0.48946  0.85092  0.33283  1.0000
  Fe  Fe85      1.0  0.49043  0.85423  0.79530  1.0000
  H   H1106     1.0  0.49666  0.88777  0.93802  1.0000
  S   S172      1.0  0.49348  0.83954  0.84931  1.0000
  Fe  Fe86      1.0  0.47143  0.86693  0.77790  1.0000
  S   S173      1.0  0.48480  0.88260  0.72241  1.0000
  S   S174      1.0  0.45200  0.86675  0.80022  1.0000
  Fe  Fe87      1.0  0.49174  0.86786  0.69732  1.0000
  H   H1107     1.0  0.49089  0.93246  0.74425  1.0000
  C   C619      1.0  0.32672  0.77782  0.83933  1.0000
  H   H1108     1.0  0.43436  0.93520  0.76589  1.0000
  S   S175      1.0  0.47760  0.85215  0.75232  1.0000
  S   S176      1.0  0.48275  0.86756  0.82567  1.0000
  C   C620      1.0  0.48681  0.84965  0.51424  1.0000
  C   C621      1.0  0.49755  0.90376  0.21407  1.0000
  H   H1109     1.0  0.42166  0.77771  0.30328  1.0000
  C   C622      1.0  0.48979  0.86158  0.58319  1.0000
  C   C623      1.0  0.48463  0.86625  0.54882  1.0000
  C   C624      1.0  0.48301  0.86027  0.51501  1.0000
  C   C625      1.0  0.47027  0.96423  0.87616  1.0000
  C   C626      1.0  0.42468  0.76848  0.93145  1.0000
  H   H1110     1.0  0.48205  0.87469  0.54790  1.0000
  H   H1111     1.0  0.47912  0.86407  0.48880  1.0000
  C   C627      1.0  0.43569  0.86381  0.68326  1.0000
  C   C628      1.0  0.42927  0.86650  0.72132  1.0000
  C   C629      1.0  0.43433  0.86749  0.75717  1.0000
  C   C630      1.0  0.44600  0.86624  0.75421  1.0000
  C   C631      1.0  0.45282  0.86458  0.71447  1.0000
  C   C632      1.0  0.44766  0.86336  0.67897  1.0000
  H   H1112     1.0  0.42045  0.86791  0.72301  1.0000
  H   H1113     1.0  0.42921  0.86925  0.78710  1.0000
  H   H1114     1.0  0.46202  0.86407  0.71115  1.0000
  H   H1115     1.0  0.45286  0.86174  0.64890  1.0000
  C   C633      1.0  0.41510  0.82020  0.32623  1.0000
  C   C634      1.0  0.40867  0.82389  0.36151  1.0000
  C   C635      1.0  0.41470  0.82933  0.38879  1.0000
  C   C636      1.0  0.42724  0.83126  0.38050  1.0000
  C   C637      1.0  0.43360  0.82712  0.34642  1.0000
  C   C638      1.0  0.42752  0.82150  0.31957  1.0000
  H   H1116     1.0  0.39899  0.82248  0.36817  1.0000
  H   H1117     1.0  0.40962  0.83216  0.41586  1.0000
  H   H1118     1.0  0.44321  0.82819  0.34086  1.0000
  H   H1119     1.0  0.43247  0.81830  0.29345  1.0000
  C   C639      1.0  0.37339  0.83525  0.47843  1.0000
  C   C640      1.0  0.37500  0.84798  0.46695  1.0000
  C   C641      1.0  0.37660  0.85449  0.49932  1.0000
  C   C642      1.0  0.37693  0.84848  0.54331  1.0000
  C   C643      1.0  0.37575  0.83583  0.55418  1.0000
  C   C644      1.0  0.37385  0.82928  0.52225  1.0000
  H   H1120     1.0  0.37456  0.85274  0.43375  1.0000
  H   H1121     1.0  0.37746  0.86424  0.49035  1.0000
  H   H1122     1.0  0.37597  0.83101  0.58768  1.0000
  H   H1123     1.0  0.37257  0.81945  0.53178  1.0000
  C   C645      1.0  0.44655  0.96588  0.99496  1.0000
  C   C646      1.0  0.45586  0.96292  0.01258  1.0000
  C   C647      1.0  0.46383  0.97183  0.02441  1.0000
  C   C648      1.0  0.49898  0.87323  0.90493  1.0000
  C   C649      1.0  0.44564  0.97804  0.98828  1.0000
  H   H1124     1.0  0.45700  0.95377  0.01689  1.0000
  H   H1125     1.0  0.47087  0.96929  0.03837  1.0000
  C   C650      1.0  0.40739  0.89532  0.86262  1.0000
  C   C651      1.0  0.41179  0.88676  0.84281  1.0000
  C   C652      1.0  0.40553  0.88079  0.81639  1.0000
  C   C653      1.0  0.39477  0.88330  0.80958  1.0000
  C   C654      1.0  0.39035  0.89164  0.83022  1.0000
  C   C655      1.0  0.39657  0.89759  0.85623  1.0000
  H   H1126     1.0  0.42008  0.88480  0.84744  1.0000
  H   H1127     1.0  0.40909  0.87439  0.80087  1.0000
  H   H1128     1.0  0.38208  0.89368  0.82549  1.0000
  H   H1129     1.0  0.39302  0.90411  0.87108  1.0000
  C   C656      1.0  0.41484  0.88429  0.12578  1.0000
  C   C657      1.0  0.41340  0.87627  0.16857  1.0000
  C   C658      1.0  0.40244  0.86717  0.19176  1.0000
  C   C659      1.0  0.39278  0.86613  0.17252  1.0000
  C   C660      1.0  0.39422  0.87412  0.12955  1.0000
  C   C661      1.0  0.40526  0.88315  0.10607  1.0000
  H   H1130     1.0  0.42074  0.87721  0.18413  1.0000
  H   H1131     1.0  0.40133  0.86115  0.22508  1.0000
  H   H1132     1.0  0.38676  0.87339  0.11459  1.0000
  H   H1133     1.0  0.40629  0.88932  0.07307  1.0000
  H   H1134     1.0  0.42933  0.92593  0.82439  1.0000
  C   C662      1.0  0.41541  0.93571  0.09550  1.0000
  H   H1135     1.0  0.42753  0.91892  0.77940  1.0000
  H   H1136     1.0  0.47433  0.87256  0.92058  1.0000
  H   H1137     1.0  0.49614  0.84399  0.94693  1.0000
  C   C663      1.0  0.47966  0.91052  0.11599  1.0000
  H   H1138     1.0  0.44968  0.90989  0.72046  1.0000
  H   H1139     1.0  0.47362  0.92160  0.06373  1.0000
  N   N34       1.0  0.31892  0.76501  0.86724  1.0000
  C   C664      1.0  0.49599  0.94659  0.96666  1.0000
  H   H1140     1.0  0.31091  0.78465  0.89638  1.0000
  C   C665      1.0  0.49298  0.93265  0.92050  1.0000
  C   C666      1.0  0.48095  0.93304  0.92686  1.0000
  C   C667      1.0  0.47665  0.94072  0.95115  1.0000
  C   C668      1.0  0.48413  0.94742  0.97131  1.0000
  H   H1141     1.0  0.38371  0.77905  0.35336  1.0000
  H   H1142     1.0  0.49642  0.92701  0.90057  1.0000
  H   H1143     1.0  0.46765  0.94170  0.95376  1.0000
  H   H1144     1.0  0.48065  0.95308  0.99113  1.0000
  H   H1145     1.0  0.40845  0.89378  0.50858  1.0000
  C   C669      1.0  0.47395  0.81213  0.21018  1.0000
  C   C670      1.0  0.46901  0.81591  0.24829  1.0000
  C   C671      1.0  0.45648  0.81152  0.26899  1.0000
  C   C672      1.0  0.44909  0.80346  0.25202  1.0000
  H   H1146     1.0  0.40914  0.89070  0.56676  1.0000
  H   H1147     1.0  0.45252  0.81417  0.29856  1.0000
  H   H1148     1.0  0.43945  0.80004  0.26890  1.0000
  C   C673      1.0  0.46195  0.80551  0.93307  1.0000
  C   C674      1.0  0.47146  0.80943  0.95095  1.0000
  C   C675      1.0  0.48104  0.81997  0.92524  1.0000
  C   C676      1.0  0.48097  0.82684  0.88223  1.0000
  C   C677      1.0  0.47122  0.82315  0.86523  1.0000
  C   C678      1.0  0.46187  0.81242  0.89020  1.0000
  H   H1149     1.0  0.47168  0.80408  0.98367  1.0000
  H   H1150     1.0  0.48861  0.82267  0.93840  1.0000
  H   H1151     1.0  0.47114  0.82829  0.83199  1.0000
  H   H1152     1.0  0.45468  0.80933  0.87576  1.0000
  C   C679      1.0  0.36831  0.80962  0.82799  1.0000
  C   C680      1.0  0.36733  0.79857  0.85987  1.0000
  C   C681      1.0  0.35670  0.79274  0.89610  1.0000
  C   C682      1.0  0.34695  0.79793  0.90038  1.0000
  C   C683      1.0  0.34797  0.80904  0.86869  1.0000
  C   C684      1.0  0.35862  0.81486  0.83254  1.0000
  H   H1153     1.0  0.37478  0.79441  0.85618  1.0000
  H   H1154     1.0  0.35598  0.78415  0.92027  1.0000
  H   H1155     1.0  0.34040  0.81302  0.87158  1.0000
  H   H1156     1.0  0.35922  0.82317  0.80722  1.0000
  C   C685      1.0  0.33345  0.77632  0.19584  1.0000
  C   C686      1.0  0.32680  0.77629  0.23894  1.0000
  C   C687      1.0  0.33215  0.78278  0.26543  1.0000
  C   C688      1.0  0.34433  0.78963  0.24965  1.0000
  C   C689      1.0  0.35119  0.78974  0.20639  1.0000
  C   C690      1.0  0.34578  0.78307  0.17959  1.0000
  H   H1157     1.0  0.49773  0.84727  0.60776  1.0000
  H   H1158     1.0  0.32670  0.78255  0.29852  1.0000
  H   H1159     1.0  0.36059  0.79499  0.19351  1.0000
  H   H1160     1.0  0.35109  0.78317  0.14648  1.0000
  N   N35       1.0  0.37932  0.84099  0.92443  1.0000
  C   C691      1.0  0.36902  0.83985  0.90282  1.0000
  C   C692      1.0  0.37600  0.83067  0.96837  1.0000
  C   C693      1.0  0.38125  0.85309  0.93602  1.0000
  C   C694      1.0  0.39104  0.84120  0.89218  1.0000
  C   C695      1.0  0.39097  0.82992  0.87390  1.0000
  C   C696      1.0  0.37061  0.85024  0.85939  1.0000
  C   C697      1.0  0.39047  0.85543  0.96390  1.0000
  C   C698      1.0  0.36715  0.81822  0.97187  1.0000
  C   C699      1.0  0.40375  0.83052  0.84697  1.0000
  C   C700      1.0  0.35924  0.84846  0.84300  1.0000
  C   C701      1.0  0.39067  0.86734  0.97711  1.0000
  H   H1161     1.0  0.36048  0.83934  0.92820  1.0000
  H   H1162     1.0  0.36728  0.83120  0.89281  1.0000
  H   H1163     1.0  0.38435  0.82880  0.97602  1.0000
  H   H1164     1.0  0.37244  0.85402  0.95505  1.0000
  H   H1165     1.0  0.38478  0.86098  0.90441  1.0000
  H   H1166     1.0  0.39411  0.84955  0.86216  1.0000
  H   H1167     1.0  0.39839  0.84198  0.90913  1.0000
  H   H1168     1.0  0.38499  0.82948  0.85122  1.0000
  H   H1169     1.0  0.38797  0.82133  0.90218  1.0000
  H   H1170     1.0  0.37208  0.85935  0.86579  1.0000
  H   H1171     1.0  0.37834  0.85036  0.83139  1.0000
  H   H1172     1.0  0.39980  0.85644  0.94326  1.0000
  H   H1173     1.0  0.38828  0.84790  0.99584  1.0000
  H   H1174     1.0  0.35777  0.81917  0.97670  1.0000
  H   H1175     1.0  0.36939  0.81507  0.94107  1.0000
  H   H1176     1.0  0.40960  0.82958  0.87007  1.0000
  H   H1177     1.0  0.40329  0.82294  0.83069  1.0000
  H   H1178     1.0  0.40804  0.83939  0.82005  1.0000
  H   H1179     1.0  0.36076  0.85592  0.81135  1.0000
  H   H1180     1.0  0.35713  0.83954  0.83529  1.0000
  H   H1181     1.0  0.35136  0.84884  0.86924  1.0000
  H   H1182     1.0  0.39753  0.86902  0.99586  1.0000
  H   H1183     1.0  0.39314  0.87529  0.94612  1.0000
  H   H1184     1.0  0.38167  0.86678  0.99945  1.0000
  C   C702      1.0  0.39450  0.76234  0.05696  1.0000
  H   H1185     1.0  0.50245  0.88027  0.87121  1.0000
  C   C703      1.0  0.33378  0.82448  0.27803  1.0000
  H   H1186     1.0  0.34526  0.77619  0.81829  1.0000
  N   N36       1.0  0.41798  0.80020  0.93165  1.0000
  C   C704      1.0  0.41758  0.79928  0.98082  1.0000
  C   C705      1.0  0.42330  0.79045  0.91712  1.0000
  C   C706      1.0  0.42658  0.81254  0.90279  1.0000
  C   C707      1.0  0.40567  0.79929  0.92331  1.0000
  C   C708      1.0  0.39442  0.79103  0.96308  1.0000
  C   C709      1.0  0.42959  0.81486  0.85024  1.0000
  H   H1187     1.0  0.42945  0.92047  0.16506  1.0000
  H   H1188     1.0  0.39572  0.92957  0.10340  1.0000
  C   C710      1.0  0.38295  0.78893  0.94740  1.0000
  C   C711      1.0  0.43708  0.82812  0.82494  1.0000
  H   H1189     1.0  0.42651  0.79867  0.98636  1.0000
  H   H1190     1.0  0.41104  0.79065  0.00442  1.0000
  H   H1191     1.0  0.42293  0.79046  0.88199  1.0000
  H   H1192     1.0  0.43309  0.79262  0.91534  1.0000
  H   H1193     1.0  0.43537  0.81383  0.91159  1.0000
  H   H1194     1.0  0.42291  0.82016  0.91037  1.0000
  H   H1195     1.0  0.40402  0.80850  0.91506  1.0000
  H   H1196     1.0  0.40539  0.79612  0.89249  1.0000
  H   H1197     1.0  0.39278  0.79539  0.99108  1.0000
  H   H1198     1.0  0.39557  0.78195  0.97785  1.0000
  H   H1199     1.0  0.42118  0.81308  0.83949  1.0000
  H   H1200     1.0  0.43509  0.80882  0.83907  1.0000
  H   H1201     1.0  0.44003  0.94186  0.07736  1.0000
  H   H1202     1.0  0.47544  0.89709  0.42484  1.0000
  H   H1203     1.0  0.31859  0.76619  0.77302  1.0000
  C   C712      1.0  0.47996  0.89203  0.40333  1.0000
  C   C713      1.0  0.42838  0.92582  0.13268  1.0000
  H   H1204     1.0  0.49747  0.90012  0.40896  1.0000
  H   H1205     1.0  0.49917  0.92392  0.77467  1.0000
  H   H1206     1.0  0.43206  0.83476  0.83365  1.0000
  H   H1207     1.0  0.44581  0.83014  0.83368  1.0000
  H   H1208     1.0  0.43916  0.82955  0.78750  1.0000
  N   N37       1.0  0.43806  0.84223  0.16397  1.0000
  C   C714      1.0  0.45119  0.84366  0.14106  1.0000
  C   C715      1.0  0.43234  0.84753  0.12833  1.0000
  C   C716      1.0  0.43741  0.84876  0.20054  1.0000
  C   C717      1.0  0.43121  0.82889  0.18614  1.0000
  C   C718      1.0  0.43269  0.82001  0.15636  1.0000
  C   C719      1.0  0.45843  0.83819  0.17227  1.0000
  C   C720      1.0  0.42465  0.84956  0.22397  1.0000
  C   C721      1.0  0.43705  0.86166  0.10592  1.0000
  C   C722      1.0  0.43042  0.86581  0.07106  1.0000
  C   C723      1.0  0.42384  0.80732  0.18102  1.0000
  C   C724      1.0  0.47135  0.83962  0.14445  1.0000
  C   C725      1.0  0.42517  0.85629  0.26035  1.0000
  H   H1209     1.0  0.45616  0.85354  0.12602  1.0000
  H   H1210     1.0  0.45202  0.83963  0.11183  1.0000
  H   H1211     1.0  0.43377  0.84326  0.09993  1.0000
  H   H1212     1.0  0.42231  0.84516  0.14272  1.0000
  H   H1213     1.0  0.44358  0.85823  0.18674  1.0000
  H   H1214     1.0  0.44067  0.84403  0.22858  1.0000
  H   H1215     1.0  0.43369  0.82516  0.21761  1.0000
  H   H1216     1.0  0.42134  0.82798  0.19782  1.0000
  H   H1217     1.0  0.44200  0.81887  0.14944  1.0000
  H   H1218     1.0  0.43084  0.82333  0.12332  1.0000
  H   H1219     1.0  0.45913  0.84302  0.19873  1.0000
  H   H1220     1.0  0.45412  0.82829  0.18968  1.0000
  H   H1221     1.0  0.41832  0.84031  0.24108  1.0000
  H   H1222     1.0  0.42076  0.85453  0.19903  1.0000
  H   H1223     1.0  0.43564  0.86679  0.13159  1.0000
  H   H1224     1.0  0.44685  0.86444  0.08751  1.0000
  H   H1225     1.0  0.42055  0.86370  0.08796  1.0000
  H   H1226     1.0  0.43399  0.87590  0.05518  1.0000
  H   H1227     1.0  0.43181  0.86123  0.04357  1.0000
  H   H1228     1.0  0.42510  0.80095  0.15993  1.0000
  H   H1229     1.0  0.42543  0.80348  0.21429  1.0000
  H   H1230     1.0  0.41435  0.80791  0.18733  1.0000
  H   H1231     1.0  0.47584  0.84929  0.12365  1.0000
  H   H1232     1.0  0.47680  0.83701  0.16785  1.0000
  H   H1233     1.0  0.47126  0.83350  0.12188  1.0000
  H   H1234     1.0  0.43122  0.86579  0.24504  1.0000
  H   H1235     1.0  0.41593  0.85679  0.27632  1.0000
  H   H1236     1.0  0.42848  0.85125  0.28748  1.0000
  H   H1237     1.0  0.41463  0.77817  0.23478  1.0000
  C   C726      1.0  0.48853  0.98066  0.87478  1.0000
  Fe  Fe88      1.0  0.41948  0.77290  0.10438  1.0000
  C   C727      1.0  0.49586  0.98409  0.93941  1.0000
  C   C728      1.0  0.49395  0.84891  0.97279  1.0000
  C   C729      1.0  0.49177  0.84486  0.54902  1.0000
  C   C730      1.0  0.47530  0.97302  0.90131  1.0000
  H   H1238     1.0  0.48569  0.85183  0.96992  1.0000
  H   H1239     1.0  0.40242  0.95028  0.21383  1.0000
  H   H1240     1.0  0.39746  0.92234  0.23032  1.0000
  H   H1241     1.0  0.29376  0.76576  0.98502  1.0000
  H   H1242     1.0  0.35261  0.79270  0.74642  1.0000
  H   H1243     1.0  0.49389  0.97385  0.87342  1.0000
  H   H1244     1.0  0.48885  0.98478  0.83871  1.0000
  C   C731      1.0  0.49167  0.89074  0.41484  1.0000
  C   C732      1.0  0.36476  0.77746  0.36645  1.0000
  S   S177      1.0  0.49367  0.87066  0.61995  1.0000
  H   H1245     1.0  0.48691  0.97923  0.96472  1.0000
  H   H1246     1.0  0.40361  0.76142  0.04989  1.0000
  H   H1247     1.0  0.41058  0.95434  0.03397  1.0000
  C   C733      1.0  0.45114  0.93466  0.11569  1.0000
  H   H1248     1.0  0.46272  0.89787  0.09310  1.0000
  H   H1249     1.0  0.47501  0.96745  0.93536  1.0000
  C   C734      1.0  0.39607  0.89507  0.21404  1.0000
  C   C735      1.0  0.43917  0.93759  0.11367  1.0000
  H   H1250     1.0  0.45281  0.92793  0.09657  1.0000
  H   H1251     1.0  0.46961  0.96944  0.84287  1.0000
  H   H1252     1.0  0.47051  0.90895  0.13943  1.0000
  H   H1253     1.0  0.45622  0.90159  0.02261  1.0000
  H   H1254     1.0  0.39363  0.89109  0.18719  1.0000
  C   C736      1.0  0.49080  0.83970  0.01985  1.0000
  H   H1255     1.0  0.45308  0.99636  0.99258  1.0000
  C   C737      1.0  0.50474  0.86010  0.96634  1.0000
  C   C738      1.0  0.50291  0.98549  0.00941  1.0000
  C   C739      1.0  0.47114  0.89550  0.07795  1.0000
  H   H1256     1.0  0.31733  0.77116  0.25215  1.0000
  H   H1257     1.0  0.34604  0.79842  0.79202  1.0000
  N   N38       1.0  0.44672  0.82876  0.63998  1.0000
  C   C740      1.0  0.43803  0.82972  0.68169  1.0000
  C   C741      1.0  0.45966  0.83229  0.64286  1.0000
  C   C742      1.0  0.44582  0.83783  0.59874  1.0000
  H   H1258     1.0  0.37136  0.83345  0.99789  1.0000
  C   C743      1.0  0.42440  0.82657  0.68401  1.0000
  C   C744      1.0  0.45464  0.83889  0.55188  1.0000
  C   C745      1.0  0.46157  0.82931  0.69126  1.0000
  C   C746      1.0  0.47494  0.83108  0.68887  1.0000
  C   C747      1.0  0.41676  0.82696  0.72969  1.0000
  C   C748      1.0  0.44843  0.83278  0.52152  1.0000
  H   H1259     1.0  0.44063  0.83920  0.68480  1.0000
  H   H1260     1.0  0.43864  0.82370  0.71344  1.0000
  H   H1261     1.0  0.39744  0.91613  0.16003  1.0000
  H   H1262     1.0  0.46387  0.84240  0.62770  1.0000
  H   H1263     1.0  0.44747  0.84721  0.60359  1.0000
  H   H1264     1.0  0.43649  0.83579  0.59518  1.0000
  C   C749      1.0  0.48236  0.93346  0.09716  1.0000
  H   H1265     1.0  0.43686  0.80522  0.70593  1.0000
  H   H1266     1.0  0.42262  0.83334  0.65712  1.0000
  H   H1267     1.0  0.42116  0.81725  0.68054  1.0000
  H   H1268     1.0  0.45857  0.84876  0.53291  1.0000
  H   H1269     1.0  0.45822  0.83557  0.70999  1.0000
  H   H1270     1.0  0.45669  0.81974  0.71179  1.0000
  H   H1271     1.0  0.41969  0.83615  0.73492  1.0000
  H   H1272     1.0  0.40711  0.82520  0.72986  1.0000
  H   H1273     1.0  0.41749  0.81981  0.75832  1.0000
  H   H1274     1.0  0.44381  0.82291  0.53866  1.0000
  H   H1275     1.0  0.44173  0.83747  0.51163  1.0000
  H   H1276     1.0  0.45534  0.83352  0.48972  1.0000
  C   C750      1.0  0.44609  0.92394  0.78409  1.0000
  C   C751      1.0  0.43354  0.92607  0.78880  1.0000
  H   H1277     1.0  0.45148  0.93107  0.79561  1.0000
  H   H1278     1.0  0.45047  0.92556  0.74746  1.0000
  H   H1279     1.0  0.43405  0.77127  0.93429  1.0000
  H   H1280     1.0  0.38122  0.79780  0.93264  1.0000
  S   S178      1.0  0.43458  0.79012  0.08434  1.0000
  H   H1281     1.0  0.40642  0.83363  0.50848  1.0000
  H   H1282     1.0  0.40817  0.81487  0.06028  1.0000
  C   C752      1.0  0.38672  0.76132  0.24778  1.0000
  C   C753      1.0  0.41929  0.76915  0.29308  1.0000
  H   H1283     1.0  0.37606  0.80628  0.00837  1.0000
  H   H1284     1.0  0.46870  0.92429  0.76186  1.0000
  H   H1285     1.0  0.43475  0.81437  0.62479  1.0000
  H   H1286     1.0  0.49485  0.83673  0.54881  1.0000
  H   H1287     1.0  0.46907  0.97886  0.90611  1.0000
  C   C754      1.0  0.44353  0.81617  0.63331  1.0000
  C   C755      1.0  0.33837  0.77888  0.80193  1.0000
  C   C756      1.0  0.36700  0.80799  0.01254  1.0000
  C   C757      1.0  0.46772  0.91740  0.79422  1.0000
  H   H1288     1.0  0.47589  0.82806  0.72382  1.0000
  H   H1289     1.0  0.46546  0.82796  0.62197  1.0000
  H   H1290     1.0  0.47905  0.82560  0.66818  1.0000
  H   H1291     1.0  0.36037  0.79938  0.01470  1.0000
  C   C758      1.0  0.41448  0.81017  0.99759  1.0000
  H   H1292     1.0  0.40758  0.81342  0.98294  1.0000
  H   H1293     1.0  0.40816  0.77367  0.94373  1.0000
  H   H1294     1.0  0.46240  0.83516  0.55528  1.0000
  H   H1295     1.0  0.45220  0.80570  0.67696  1.0000
  H   H1296     1.0  0.42280  0.81798  0.98671  1.0000
  C   C759      1.0  0.40967  0.80670  0.04954  1.0000
  H   H1297     1.0  0.35352  0.82076  0.09107  1.0000
  H   H1298     1.0  0.36428  0.81036  0.04495  1.0000
  S   S179      1.0  0.42857  0.76471  0.05308  1.0000
  H   H1299     1.0  0.30681  0.77794  0.98038  1.0000
  H   H1300     1.0  0.47994  0.84094  0.67385  1.0000
  H   H1301     1.0  0.41625  0.80329  0.06584  1.0000
  H   H1302     1.0  0.42191  0.94498  0.08570  1.0000
  C   C760      1.0  0.44297  0.80528  0.67332  1.0000
  C   C761      1.0  0.46653  0.80426  0.19269  1.0000
  Fe  Fe89      1.0  0.44441  0.78139  0.03661  1.0000
  H   H1303     1.0  0.39479  0.94680  0.04423  1.0000
  C   C762      1.0  0.45402  0.79976  0.21373  1.0000
  H   H1304     1.0  0.46598  0.91593  0.70815  1.0000
  H   H1305     1.0  0.45030  0.81568  0.60313  1.0000
  H   H1306     1.0  0.42965  0.92016  0.10853  1.0000
  H   H1307     1.0  0.46261  0.86609  0.19869  1.0000
  C   C763      1.0  0.44532  0.91093  0.81359  1.0000
  H   H1308     1.0  0.48362  0.81537  0.19392  1.0000
  H   H1309     1.0  0.48621  0.91251  0.13598  1.0000
  H   H1310     1.0  0.46654  0.92232  0.82085  1.0000
  C   C764      1.0  0.34399  0.79208  0.77133  1.0000
  H   H1311     1.0  0.40090  0.79944  0.06172  1.0000
  H   H1312     1.0  0.44243  0.91138  0.84941  1.0000
  H   H1313     1.0  0.39261  0.83653  0.08242  1.0000
  H   H1314     1.0  0.48633  0.89083  0.15900  1.0000
  C   C765      1.0  0.45830  0.90749  0.72079  1.0000
  H   H1315     1.0  0.39035  0.93844  0.25760  1.0000
  H   H1316     1.0  0.38669  0.84363  0.12469  1.0000
  H   H1317     1.0  0.45585  0.87191  0.24400  1.0000
  H   H1318     1.0  0.43767  0.90413  0.80976  1.0000
  H   H1319     1.0  0.38377  0.78377  0.92156  1.0000
  H   H1320     1.0  0.44416  0.79245  0.63232  1.0000
  S   S180      1.0  0.44415  0.78939  0.19446  1.0000
  C   C766      1.0  0.47876  0.88892  0.14345  1.0000
  Fe  Fe90      1.0  0.44209  0.78026  0.13720  1.0000
  H   H1321     1.0  0.42883  0.79190  0.66160  1.0000
  H   H1322     1.0  0.38771  0.82801  0.14190  1.0000
  C   C767      1.0  0.38577  0.83485  0.11553  1.0000
  H   H1323     1.0  0.45244  0.89163  0.69679  1.0000
  C   C768      1.0  0.46408  0.87349  0.21552  1.0000
  H   H1324     1.0  0.47182  0.87297  0.22981  1.0000
  H   H1325     1.0  0.48899  0.93094  0.80449  1.0000
  C   C769      1.0  0.46303  0.98404  0.01712  1.0000
  N   N39       1.0  0.45671  0.90664  0.80569  1.0000
  C   C770      1.0  0.30521  0.77517  0.91527  1.0000
  C   C771      1.0  0.46673  0.88608  0.18154  1.0000
  C   C772      1.0  0.49724  0.89019  0.06227  1.0000
  C   C773      1.0  0.48047  0.88128  0.92031  1.0000
  C   C774      1.0  0.43824  0.79302  0.66435  1.0000
  H   H1326     1.0  0.39653  0.88194  0.55356  1.0000
  C   C775      1.0  0.49352  0.90164  0.07147  1.0000
  H   H1327     1.0  0.46745  0.89300  0.20088  1.0000
  H   H1328     1.0  0.47464  0.93161  0.12786  1.0000
  C   C776      1.0  0.40645  0.88642  0.54095  1.0000
  H   H1329     1.0  0.46869  0.89717  0.68540  1.0000
  C   C777      1.0  0.46019  0.89997  0.68690  1.0000
  S   S181      1.0  0.31558  0.76327  0.05364  1.0000
  C   C778      1.0  0.50052  0.93942  0.94034  1.0000
  H   H1330     1.0  0.38280  0.80331  0.15608  1.0000
  H   H1331     1.0  0.45243  0.87302  0.89993  1.0000
  H   H1332     1.0  0.36313  0.81906  0.18061  1.0000
  H   H1333     1.0  0.44923  0.89209  0.77890  1.0000
  H   H1334     1.0  0.37265  0.82129  0.10231  1.0000
  C   C779      1.0  0.41394  0.93429  0.17706  1.0000
  H   H1335     1.0  0.49286  0.86536  0.89943  1.0000
  C   C780      1.0  0.37306  0.83005  0.11143  1.0000
  H   H1336     1.0  0.30410  0.76747  0.83915  1.0000
  S   S182      1.0  0.47415  0.99525  0.02871  1.0000
  H   H1337     1.0  0.47893  0.88020  0.13452  1.0000
  H   H1338     1.0  0.36592  0.83492  0.17309  1.0000
  C   C781      1.0  0.49038  0.92619  0.77751  1.0000
  N   N40       1.0  0.48073  0.89923  0.10103  1.0000
  C   C782      1.0  0.36305  0.82775  0.15665  1.0000
  H   H1339     1.0  0.49827  0.88441  0.09388  1.0000
  H   H1340     1.0  0.37179  0.83676  0.08278  1.0000
  H   H1341     1.0  0.49808  0.88752  0.35017  1.0000
  C   C783      1.0  0.40774  0.90557  0.19367  1.0000
  C   C784      1.0  0.45741  0.89998  0.76943  1.0000
  H   H1342     1.0  0.45890  0.88616  0.16741  1.0000
  H   H1343     1.0  0.33775  0.79508  0.75213  1.0000
  H   H1344     1.0  0.35192  0.83291  0.23464  1.0000
  H   H1345     1.0  0.46082  0.90556  0.65226  1.0000
  C   C785      1.0  0.48010  0.91441  0.78990  1.0000
  H   H1346     1.0  0.43855  0.98054  0.97465  1.0000
  H   H1347     1.0  0.34993  0.80893  0.14281  1.0000
  H   H1348     1.0  0.48204  0.90975  0.76296  1.0000
  H   H1349     1.0  0.32378  0.80251  0.09220  1.0000
  H   H1350     1.0  0.40024  0.86833  0.50417  1.0000
  C   C786      1.0  0.34268  0.83073  0.23052  1.0000
  H   H1351     1.0  0.43816  0.78534  0.69303  1.0000
  H   H1352     1.0  0.33883  0.81100  0.05643  1.0000
  N   N41       1.0  0.35046  0.82698  0.15169  1.0000
  C   C787      1.0  0.34769  0.81742  0.12697  1.0000
  H   H1353     1.0  0.34182  0.81317  0.21657  1.0000
  H   H1354     1.0  0.34041  0.83938  0.21699  1.0000
  H   H1355     1.0  0.33573  0.81586  0.29429  1.0000
  H   H1356     1.0  0.46512  0.89577  0.76727  1.0000
  C   C788      1.0  0.34145  0.82245  0.19857  1.0000
  H   H1357     1.0  0.36709  0.85231  0.11078  1.0000
  H   H1358     1.0  0.32429  0.82231  0.27608  1.0000
  H   H1359     1.0  0.35808  0.77946  0.34781  1.0000
  H   H1360     1.0  0.48368  0.88764  0.88507  1.0000
  C   C789      1.0  0.45388  0.98707  0.99862  1.0000
  H   H1361     1.0  0.41703  0.77603  0.98303  1.0000
  H   H1362     1.0  0.43688  0.89109  0.88791  1.0000
  C   C790      1.0  0.34930  0.83904  0.12481  1.0000
  H   H1363     1.0  0.33010  0.78303  0.86190  1.0000
  H   H1364     1.0  0.39210  0.80759  0.19165  1.0000
  H   H1365     1.0  0.49522  0.90842  0.03801  1.0000
  S   S183      1.0  0.45309  0.77228  0.08770  1.0000
  C   C791      1.0  0.45631  0.89765  0.84960  1.0000
  C   C792      1.0  0.38376  0.78791  0.20804  1.0000
  H   H1366     1.0  0.45871  0.94322  0.09993  1.0000
  H   H1367     1.0  0.33110  0.82153  0.11366  1.0000
  C   C793      1.0  0.33341  0.80562  0.09184  1.0000
  H   H1368     1.0  0.33655  0.79731  0.10234  1.0000
  H   H1369     1.0  0.49035  0.88454  0.05081  1.0000
  C   C794      1.0  0.33444  0.81342  0.12486  1.0000
  H   H1370     1.0  0.33203  0.82134  0.19608  1.0000
  H   H1371     1.0  0.32840  0.80762  0.15894  1.0000
  H   H1372     1.0  0.44129  0.88237  0.85004  1.0000
  H   H1373     1.0  0.29763  0.77297  0.90027  1.0000
  C   C795      1.0  0.38943  0.80067  0.17389  1.0000
  H   H1374     1.0  0.33469  0.83068  0.30005  1.0000
  C   C796      1.0  0.44429  0.88729  0.87367  1.0000
  H   H1375     1.0  0.42321  0.88197  0.52301  1.0000
  H   H1376     1.0  0.35145  0.83981  0.08767  1.0000
  C   C797      1.0  0.35743  0.85102  0.12841  1.0000
  H   H1377     1.0  0.48145  0.89708  0.00795  1.0000
  H   H1378     1.0  0.40045  0.77896  0.30633  1.0000
  C   C798      1.0  0.41344  0.87697  0.53387  1.0000
  H   H1379     1.0  0.39757  0.80062  0.14800  1.0000
  H   H1380     1.0  0.45810  0.90262  0.87502  1.0000
  H   H1381     1.0  0.35688  0.85093  0.16413  1.0000
  H   H1382     1.0  0.34445  0.86185  0.12392  1.0000
  H   H1383     1.0  0.36004  0.87072  0.10847  1.0000
  H   H1384     1.0  0.43155  0.86727  0.54146  1.0000
  H   H1385     1.0  0.41123  0.86994  0.56704  1.0000
  H   H1386     1.0  0.45338  0.86552  0.47111  1.0000
  H   H1387     1.0  0.48031  0.90847  0.82269  1.0000
  H   H1388     1.0  0.33969  0.83937  0.13458  1.0000
  H   H1389     1.0  0.46365  0.89300  0.84341  1.0000
  H   H1390     1.0  0.41774  0.94442  0.16178  1.0000
  H   H1391     1.0  0.45312  0.86883  0.52472  1.0000
  H   H1392     1.0  0.36932  0.77120  0.28881  1.0000
  C   C799      1.0  0.44574  0.87778  0.91314  1.0000
  H   H1393     1.0  0.44880  0.88223  0.93797  1.0000
  C   C800      1.0  0.44895  0.86977  0.49608  1.0000
  H   H1394     1.0  0.47053  0.80148  0.16348  1.0000
  C   C801      1.0  0.35391  0.86234  0.10610  1.0000
  C   C802      1.0  0.48150  0.92242  0.07792  1.0000
  H   H1395     1.0  0.45055  0.87971  0.47947  1.0000
  H   H1396     1.0  0.41366  0.87900  0.46495  1.0000
  H   H1397     1.0  0.43278  0.85909  0.45369  1.0000
  S   S184      1.0  0.40030  0.77460  0.11839  1.0000
  H   H1398     1.0  0.43429  0.85356  0.53121  1.0000
  C   C803      1.0  0.43538  0.86336  0.51444  1.0000
  H   H1399     1.0  0.43690  0.87081  0.93102  1.0000
  H   H1400     1.0  0.39355  0.76387  0.21393  1.0000
  H   H1401     1.0  0.40206  0.85465  0.37952  1.0000
  H   H1402     1.0  0.35477  0.86314  0.06947  1.0000
  C   C804      1.0  0.42908  0.86454  0.47561  1.0000
  H   H1403     1.0  0.43248  0.87422  0.45352  1.0000
  C   C805      1.0  0.39982  0.94065  0.23587  1.0000
  H   H1404     1.0  0.42183  0.83879  0.50940  1.0000
  H   H1405     1.0  0.48911  0.88586  0.45176  1.0000
  C   C806      1.0  0.29961  0.77507  0.96432  1.0000
  H   H1406     1.0  0.41337  0.85205  0.56157  1.0000
  C   C807      1.0  0.41030  0.87121  0.49670  1.0000
  H   H1407     1.0  0.47612  0.95805  0.87023  1.0000
  H   H1408     1.0  0.38848  0.89838  0.23020  1.0000
  H   H1409     1.0  0.38147  0.78156  0.18787  1.0000
  H   H1410     1.0  0.50469  0.86856  0.44800  1.0000
  H   H1411     1.0  0.48291  0.83194  0.02387  1.0000
  H   H1412     1.0  0.46581  0.90052  0.97101  1.0000
  H   H1413     1.0  0.48841  0.84414  0.04719  1.0000
  N   N42       1.0  0.41536  0.86062  0.48995  1.0000
  H   H1414     1.0  0.37540  0.78823  0.23199  1.0000
  H   H1415     1.0  0.40090  0.78439  0.20668  1.0000
  H   H1416     1.0  0.40964  0.90955  0.22115  1.0000
  H   H1417     1.0  0.40745  0.87251  0.41082  1.0000
  H   H1418     1.0  0.40010  0.84838  0.54524  1.0000
  C   C808      1.0  0.41008  0.84998  0.53293  1.0000
  H   H1419     1.0  0.42317  0.87231  0.39565  1.0000
  N   N43       1.0  0.49413  0.99037  0.89458  1.0000
  H   H1420     1.0  0.41461  0.83146  0.59553  1.0000
  H   H1421     1.0  0.50038  0.97670  0.93586  1.0000
  H   H1422     1.0  0.49100  0.93567  0.10626  1.0000
  C   C809      1.0  0.39279  0.78410  0.23360  1.0000
  C   C810      1.0  0.41364  0.86655  0.40687  1.0000
  H   H1423     1.0  0.39590  0.79155  0.24887  1.0000
  H   H1424     1.0  0.46104  0.95847  0.89710  1.0000
  C   C811      1.0  0.41103  0.85650  0.45248  1.0000
  H   H1425     1.0  0.46833  0.88533  0.08462  1.0000
  C   C812      1.0  0.40375  0.94525  0.04508  1.0000
  C   C813      1.0  0.40070  0.93179  0.20669  1.0000
  H   H1426     1.0  0.41841  0.93160  0.06762  1.0000
  Fe  Fe91      1.0  0.49699  0.88230  0.76878  1.0000
  C   C814      1.0  0.40688  0.91541  0.15265  1.0000
  C   C815      1.0  0.47440  0.90083  0.02536  1.0000
  S   S185      1.0  0.32545  0.76785  0.16518  1.0000
  C   C816      1.0  0.31276  0.76569  0.91408  1.0000
  H   H1427     1.0  0.47363  0.88285  0.41010  1.0000
  N   N44       1.0  0.41588  0.92784  0.14026  1.0000
  C   C817      1.0  0.49822  0.88356  0.38576  1.0000
  H   H1428     1.0  0.32122  0.78321  0.82318  1.0000
  H   H1429     1.0  0.48991  0.92451  0.04984  1.0000
  C   C818      1.0  0.37863  0.76917  0.09896  1.0000
  C   C819      1.0  0.37681  0.77052  0.30460  1.0000
  H   H1430     1.0  0.42508  0.76864  0.89559  1.0000
  H   H1431     1.0  0.48190  0.89719  0.36687  1.0000
  H   H1432     1.0  0.48755  0.87263  0.97244  1.0000
  N   N45       1.0  0.38841  0.77178  0.26933  1.0000
  C   C820      1.0  0.41227  0.83755  0.52796  1.0000
  H   H1433     1.0  0.40106  0.85207  0.46446  1.0000
  C   C821      1.0  0.37722  0.77987  0.33281  1.0000
  H   H1434     1.0  0.41527  0.84932  0.44377  1.0000
  H   H1435     1.0  0.40622  0.94000  0.02056  1.0000
  H   H1436     1.0  0.37985  0.78941  0.31015  1.0000
  C   C822      1.0  0.40912  0.82804  0.57420  1.0000
  H   H1437     1.0  0.41803  0.85553  0.36121  1.0000
  H   H1438     1.0  0.39430  0.93265  0.18598  1.0000
  H   H1439     1.0  0.41916  0.93179  0.20170  1.0000
  H   H1440     1.0  0.41107  0.81942  0.56914  1.0000
  C   C823      1.0  0.46324  0.89727  0.00879  1.0000
  C   C824      1.0  0.41142  0.86085  0.36906  1.0000
  H   H1441     1.0  0.39933  0.82596  0.59213  1.0000
  H   H1442     1.0  0.46484  0.00592  0.90330  1.0000
  H   H1443     1.0  0.41257  0.86821  0.33764  1.0000
  H   H1444     1.0  0.45104  0.93089  0.15165  1.0000
  H   H1445     1.0  0.49069  0.00633  0.91422  1.0000
  H   H1446     1.0  0.39736  0.88769  0.24046  1.0000
  H   H1447     1.0  0.41547  0.76114  0.32405  1.0000
  H   H1448     1.0  0.43790  0.94438  0.13287  1.0000
  H   H1449     1.0  0.40804  0.91155  0.12292  1.0000
  H   H1450     1.0  0.47716  0.99777  0.84831  1.0000
  C   C825      1.0  0.41738  0.77700  0.94687  1.0000
  H   H1451     1.0  0.49243  0.87388  0.39672  1.0000
  H   H1452     1.0  0.41528  0.90160  0.18211  1.0000
  C   C826      1.0  0.49121  0.87883  0.93712  1.0000
  H   H1453     1.0  0.40584  0.93983  0.25847  1.0000
  C   C827      1.0  0.48191  0.00470  0.86221  1.0000
  H   H1454     1.0  0.45936  0.88715  0.01950  1.0000
  H   H1455     1.0  0.47524  0.88561  0.94288  1.0000
  H   H1456     1.0  0.33665  0.77293  0.77982  1.0000
  C   C828      1.0  0.39058  0.76829  0.08923  1.0000
  H   H1457     1.0  0.47789  0.99361  0.93224  1.0000
  H   H1458     1.0  0.49893  0.00012  0.96649  1.0000
  H   H1459     1.0  0.48219  0.94161  0.07109  1.0000
  H   H1460     1.0  0.37502  0.78339  0.97698  1.0000
  C   C829      1.0  0.49329  0.85077  0.58300  1.0000
  H   H1461     1.0  0.29398  0.78164  0.96437  1.0000
  C   C830      1.0  0.49516  0.89114  0.23547  1.0000
  Fe  Fe92      1.0  0.32852  0.76274  0.09757  1.0000
  H   H1462     1.0  0.37548  0.77362  0.12431  1.0000
  H   H1463     1.0  0.42777  0.76805  0.27236  1.0000
  H   H1464     1.0  0.36146  0.76777  0.38813  1.0000
  C   C831      1.0  0.50224  0.88440  0.21574  1.0000
  H   H1465     1.0  0.49950  0.90934  0.86777  1.0000
  H   H1466     1.0  0.39462  0.76265  0.32432  1.0000
  H   H1467     1.0  0.50017  0.90599  0.08754  1.0000
  C   C832      1.0  0.39808  0.77082  0.29361  1.0000
  C   C833      1.0  0.41032  0.76996  0.26476  1.0000
  H   H1468     1.0  0.49855  0.83592  0.02370  1.0000
  H   H1469     1.0  0.37381  0.76117  0.32939  1.0000
  C   C834      1.0  0.50299  0.99258  0.96199  1.0000
  H   H1470     1.0  0.50210  0.86460  0.99339  1.0000
  H   H1471     1.0  0.31961  0.76784  0.93261  1.0000
  H   H1472     1.0  0.37041  0.76361  0.22530  1.0000
  S   S186      1.0  0.42616  0.76336  0.15999  1.0000
  C   C835      1.0  0.37062  0.76412  0.07667  1.0000
  H   H1473     1.0  0.36133  0.76454  0.08548  1.0000
  H   H1474     1.0  0.50037  0.87465  0.23156  1.0000
  S   S187      1.0  0.50365  0.89973  0.78992  1.0000
  H   H1475     1.0  0.40905  0.76169  0.25242  1.0000
  C   C836      1.0  0.30916  0.76051  0.84610  1.0000
  H   H1476     1.0  0.50468  0.00214  0.82755  1.0000
  Fe  Fe93      1.0  0.69586  0.20136  0.95230  1.0000
  S   S188      1.0  0.67762  0.20078  0.99454  1.0000
  S   S189      1.0  0.69464  0.18591  0.91628  1.0000
  Fe  Fe94      1.0  0.70896  0.22322  0.98541  1.0000
  S   S190      1.0  0.69087  0.22327  0.02841  1.0000
  Fe  Fe95      1.0  0.68622  0.20266  0.05006  1.0000
  S   S191      1.0  0.67380  0.19336  0.12203  1.0000
  Fe  Fe96      1.0  0.68373  0.22119  0.96943  1.0000
  S   S192      1.0  0.67025  0.23133  0.95206  1.0000
  S   S193      1.0  0.70459  0.20224  0.01024  1.0000
  S   S194      1.0  0.70178  0.22211  0.92390  1.0000
  Fe  Fe97      1.0  0.58916  0.20915  0.93689  1.0000
  S   S195      1.0  0.60102  0.20275  0.97930  1.0000
  S   S196      1.0  0.58334  0.22693  0.93729  1.0000
  Fe  Fe98      1.0  0.58605  0.18629  0.89908  1.0000
  S   S197      1.0  0.59785  0.17904  0.93917  1.0000
  S   S198      1.0  0.58164  0.17317  0.85551  1.0000
  Fe  Fe99      1.0  0.58777  0.18410  0.99801  1.0000
  S   S199      1.0  0.58471  0.16971  0.06492  1.0000
  Fe  Fe100     1.0  0.61011  0.19804  0.91725  1.0000
  S   S200      1.0  0.62973  0.19827  0.89324  1.0000
  S   S201      1.0  0.57508  0.19047  0.96001  1.0000
  S   S202      1.0  0.59915  0.20537  0.87288  1.0000
  Fe  Fe101     1.0  0.64837  0.12734  0.28750  1.0000
  S   S203      1.0  0.64751  0.10937  0.33566  1.0000
  S   S204      1.0  0.66596  0.13815  0.23335  1.0000
  Fe  Fe102     1.0  0.62161  0.12360  0.32386  1.0000
  S   S205      1.0  0.61887  0.10555  0.37464  1.0000
  S   S206      1.0  0.60521  0.13014  0.31916  1.0000
  Fe  Fe103     1.0  0.63571  0.11528  0.39007  1.0000
  S   S207      1.0  0.63601  0.11312  0.46587  1.0000
  Fe  Fe104     1.0  0.63078  0.10156  0.31552  1.0000
  S   S208      1.0  0.62809  0.08417  0.29060  1.0000
  S   S209      1.0  0.63750  0.13364  0.34203  1.0000
  S   S210      1.0  0.63263  0.11926  0.26472  1.0000
  Fe  Fe105     1.0  0.65962  0.15282  0.75354  1.0000
  S   S211      1.0  0.64613  0.13790  0.81229  1.0000
  S   S212      1.0  0.67065  0.17028  0.76507  1.0000
  Fe  Fe106     1.0  0.65376  0.13844  0.68161  1.0000
  S   S213      1.0  0.64070  0.12238  0.73805  1.0000
  S   S214      1.0  0.65673  0.14022  0.60409  1.0000
  Fe  Fe107     1.0  0.63428  0.13689  0.76550  1.0000
  S   S215      1.0  0.61456  0.13611  0.78571  1.0000
  Fe  Fe108     1.0  0.65394  0.12507  0.77888  1.0000
  S   S216      1.0  0.66060  0.11070  0.81991  1.0000
  S   S217      1.0  0.64690  0.15293  0.70886  1.0000
  S   S218      1.0  0.66794  0.13998  0.72044  1.0000
  Fe  Fe109     1.0  0.53751  0.11531  0.23390  1.0000
  S   S219      1.0  0.52343  0.10152  0.29566  1.0000
  S   S220      1.0  0.53478  0.13224  0.18971  1.0000
  Fe  Fe110     1.0  0.55603  0.10136  0.24149  1.0000
  S   S221      1.0  0.54340  0.08635  0.30172  1.0000
  S   S222      1.0  0.57537  0.10163  0.21298  1.0000
  Fe  Fe111     1.0  0.52948  0.08747  0.26292  1.0000
  C   C837      1.0  0.54397  0.07865  0.62558  1.0000
  Fe  Fe112     1.0  0.53873  0.10172  0.32914  1.0000
  S   S223      1.0  0.54056  0.09941  0.40255  1.0000
  S   S224      1.0  0.54271  0.10130  0.20038  1.0000
  S   S225      1.0  0.55208  0.11667  0.26940  1.0000
  Fe  Fe113     1.0  0.55187  0.13010  0.71390  1.0000
  S   S226      1.0  0.56220  0.11636  0.73030  1.0000
  S   S227      1.0  0.54749  0.14110  0.76533  1.0000
  Fe  Fe114     1.0  0.54900  0.12240  0.62584  1.0000
  S   S228      1.0  0.55933  0.10845  0.63821  1.0000
  S   S229      1.0  0.54221  0.12569  0.56166  1.0000
  Fe  Fe115     1.0  0.54852  0.10330  0.71195  1.0000
  S   S230      1.0  0.54276  0.08327  0.75341  1.0000
  Fe  Fe116     1.0  0.57178  0.12294  0.65547  1.0000
  S   S231      1.0  0.59188  0.12678  0.62853  1.0000
  S   S232      1.0  0.53729  0.11646  0.69954  1.0000
  S   S233      1.0  0.56229  0.13744  0.63902  1.0000
  H   H1477     1.0  0.61794  0.10969  0.81903  1.0000
  H   H1478     1.0  0.61032  0.25699  0.84887  1.0000
  C   C838      1.0  0.56558  0.06817  0.25256  1.0000
  H   H1479     1.0  0.53523  0.08753  0.67108  1.0000
  Fe  Fe117     1.0  0.61068  0.05417  0.01122  1.0000
  H   H1480     1.0  0.74007  0.25107  0.10469  1.0000
  S   S234      1.0  0.52978  0.02416  0.98814  1.0000
  S   S235      1.0  0.62944  0.05948  0.96261  1.0000
  S   S236      1.0  0.60229  0.06808  0.03406  1.0000
  C   C839      1.0  0.54155  0.03583  0.99094  1.0000
  C   C840      1.0  0.54117  0.04808  0.98054  1.0000
  C   C841      1.0  0.55075  0.05730  0.98226  1.0000
  H   H1481     1.0  0.66989  0.21067  0.91469  1.0000
  C   C842      1.0  0.55163  0.03288  0.00241  1.0000
  H   H1482     1.0  0.53361  0.05050  0.97043  1.0000
  H   H1483     1.0  0.55031  0.06667  0.97565  1.0000
  H   H1484     1.0  0.59852  0.15719  0.19243  1.0000
  C   C843      1.0  0.52928  0.07672  0.79881  1.0000
  C   C844      1.0  0.52010  0.08263  0.80511  1.0000
  H   H1485     1.0  0.51488  0.08632  0.70180  1.0000
  H   H1486     1.0  0.52113  0.04764  0.31860  1.0000
  C   C845      1.0  0.51750  0.06005  0.86745  1.0000
  C   C846      1.0  0.52782  0.06531  0.82959  1.0000
  H   H1487     1.0  0.52111  0.09136  0.78135  1.0000
  H   H1488     1.0  0.59766  0.11153  0.85901  1.0000
  H   H1489     1.0  0.51658  0.05135  0.89135  1.0000
  H   H1490     1.0  0.53476  0.06055  0.82441  1.0000
  C   C847      1.0  0.54256  0.10795  0.44265  1.0000
  C   C848      1.0  0.53886  0.11868  0.44192  1.0000
  C   C849      1.0  0.53926  0.12421  0.47765  1.0000
  C   C850      1.0  0.54348  0.11924  0.51443  1.0000
  C   C851      1.0  0.54792  0.10898  0.51361  1.0000
  C   C852      1.0  0.54726  0.10328  0.47848  1.0000
  H   H1491     1.0  0.53520  0.12242  0.41485  1.0000
  H   H1492     1.0  0.53591  0.13221  0.47744  1.0000
  H   H1493     1.0  0.55152  0.10520  0.54071  1.0000
  H   H1494     1.0  0.55026  0.09506  0.47935  1.0000
  H   H1495     1.0  0.51573  0.03773  0.28653  1.0000
  H   H1496     1.0  0.55061  0.18022  0.03304  1.0000
  H   H1497     1.0  0.60428  0.07710  0.87419  1.0000
  C   C853      1.0  0.73144  0.16157  0.78824  1.0000
  C   C854      1.0  0.63741  0.10589  0.00245  1.0000
  C   C855      1.0  0.52729  0.08894  0.61421  1.0000
  Fe  Fe118     1.0  0.58554  0.05712  0.02445  1.0000
  H   H1498     1.0  0.54016  0.10755  0.09253  1.0000
  H   H1499     1.0  0.63723  0.12003  0.91578  1.0000
  H   H1500     1.0  0.55085  0.08709  0.60216  1.0000
  C   C856      1.0  0.65121  0.09686  0.86035  1.0000
  C   C857      1.0  0.63923  0.09548  0.88512  1.0000
  C   C858      1.0  0.63228  0.08410  0.91727  1.0000
  C   C859      1.0  0.63739  0.07416  0.92448  1.0000
  C   C860      1.0  0.64938  0.07575  0.90014  1.0000
  C   C861      1.0  0.65625  0.08700  0.86865  1.0000
  H   H1501     1.0  0.63540  0.10317  0.87941  1.0000
  H   H1502     1.0  0.62302  0.08296  0.93611  1.0000
  H   H1503     1.0  0.65341  0.06817  0.90558  1.0000
  H   H1504     1.0  0.66551  0.08800  0.85016  1.0000
  C   C862      1.0  0.60880  0.13492  0.73933  1.0000
  C   C863      1.0  0.61562  0.13237  0.70168  1.0000
  C   C864      1.0  0.61057  0.13029  0.66674  1.0000
  C   C865      1.0  0.59877  0.13102  0.66886  1.0000
  C   C866      1.0  0.59227  0.13445  0.70479  1.0000
  C   C867      1.0  0.59721  0.13622  0.74034  1.0000
  H   H1505     1.0  0.62476  0.13189  0.69932  1.0000
  H   H1506     1.0  0.61575  0.12791  0.63847  1.0000
  H   H1507     1.0  0.58343  0.13571  0.70522  1.0000
  H   H1508     1.0  0.59211  0.13873  0.76823  1.0000
  C   C868      1.0  0.59712  0.12116  0.29178  1.0000
  C   C869      1.0  0.58458  0.11620  0.30990  1.0000
  C   C870      1.0  0.57800  0.10948  0.28716  1.0000
  C   C871      1.0  0.58387  0.10797  0.24560  1.0000
  C   C872      1.0  0.59648  0.11247  0.22842  1.0000
  C   C873      1.0  0.60308  0.11914  0.25132  1.0000
  H   H1509     1.0  0.57992  0.11743  0.34170  1.0000
  H   H1510     1.0  0.56836  0.10547  0.30198  1.0000
  H   H1511     1.0  0.60108  0.11120  0.19658  1.0000
  H   H1512     1.0  0.61270  0.12315  0.23651  1.0000
  C   C874      1.0  0.64140  0.12103  0.50427  1.0000
  C   C875      1.0  0.63837  0.11480  0.55127  1.0000
  C   C876      1.0  0.64263  0.12053  0.58249  1.0000
  C   C877      1.0  0.65020  0.13260  0.56728  1.0000
  C   C878      1.0  0.65312  0.13885  0.52040  1.0000
  C   C879      1.0  0.64865  0.13321  0.48950  1.0000
  H   H1513     1.0  0.63272  0.10543  0.56370  1.0000
  H   H1514     1.0  0.64022  0.11550  0.61820  1.0000
  H   H1515     1.0  0.65884  0.14819  0.50792  1.0000
  H   H1516     1.0  0.65079  0.13837  0.45432  1.0000
  C   C880      1.0  0.61976  0.07940  0.25307  1.0000
  C   C881      1.0  0.61046  0.08435  0.24288  1.0000
  C   C882      1.0  0.60377  0.07982  0.21490  1.0000
  C   C883      1.0  0.60641  0.07049  0.19555  1.0000
  C   C884      1.0  0.61581  0.06567  0.20523  1.0000
  C   C885      1.0  0.62233  0.07002  0.23396  1.0000
  H   H1517     1.0  0.60824  0.09149  0.25734  1.0000
  H   H1518     1.0  0.59654  0.08368  0.20801  1.0000
  H   H1519     1.0  0.52674  0.08922  0.01393  1.0000
  H   H1520     1.0  0.62940  0.06602  0.24175  1.0000
  H   H1521     1.0  0.68638  0.24681  0.05438  1.0000
  C   C886      1.0  0.56086  0.05436  0.99329  1.0000
  C   C887      1.0  0.59048  0.24049  0.94992  1.0000
  C   C888      1.0  0.60242  0.24296  0.95270  1.0000
  H   H1522     1.0  0.69203  0.24849  0.97800  1.0000
  H   H1523     1.0  0.60756  0.23642  0.94782  1.0000
  H   H1524     1.0  0.56828  0.02463  0.25193  1.0000
  C   C889      1.0  0.57202  0.16446  0.83019  1.0000
  C   C890      1.0  0.57672  0.15726  0.80387  1.0000
  C   C891      1.0  0.56945  0.15026  0.78321  1.0000
  C   C892      1.0  0.55728  0.15019  0.78903  1.0000
  C   C893      1.0  0.55256  0.15730  0.81572  1.0000
  C   C894      1.0  0.55985  0.16440  0.83602  1.0000
  H   H1525     1.0  0.58606  0.15709  0.79920  1.0000
  H   H1526     1.0  0.57325  0.14487  0.76291  1.0000
  H   H1527     1.0  0.54320  0.15743  0.82026  1.0000
  H   H1528     1.0  0.55606  0.16990  0.85587  1.0000
  C   C895      1.0  0.57044  0.15924  0.09479  1.0000
  C   C896      1.0  0.56991  0.14700  0.11468  1.0000
  C   C897      1.0  0.55901  0.13871  0.14384  1.0000
  C   C898      1.0  0.54845  0.14253  0.15251  1.0000
  C   C899      1.0  0.54885  0.15470  0.13145  1.0000
  C   C900      1.0  0.55987  0.16308  0.10307  1.0000
  H   H1529     1.0  0.57800  0.14393  0.10788  1.0000
  H   H1530     1.0  0.55880  0.12934  0.15970  1.0000
  H   H1531     1.0  0.54072  0.15774  0.13834  1.0000
  H   H1532     1.0  0.56028  0.17260  0.08888  1.0000
  C   C901      1.0  0.68601  0.18241  0.87787  1.0000
  C   C902      1.0  0.68835  0.19052  0.83440  1.0000
  C   C903      1.0  0.68334  0.18672  0.80113  1.0000
  C   C904      1.0  0.67571  0.17480  0.81057  1.0000
  C   C905      1.0  0.67288  0.16684  0.85473  1.0000
  C   C906      1.0  0.67823  0.17051  0.88760  1.0000
  H   H1533     1.0  0.69450  0.19959  0.82566  1.0000
  H   H1534     1.0  0.68564  0.19302  0.76736  1.0000
  H   H1535     1.0  0.66688  0.15773  0.86309  1.0000
  H   H1536     1.0  0.67651  0.16401  0.92054  1.0000
  C   C907      1.0  0.67111  0.17763  0.14974  1.0000
  C   C908      1.0  0.66133  0.17204  0.18938  1.0000
  C   C909      1.0  0.65930  0.15971  0.21399  1.0000
  C   C910      1.0  0.66722  0.15300  0.19970  1.0000
  C   C911      1.0  0.67689  0.15853  0.15968  1.0000
  C   C912      1.0  0.67875  0.17078  0.13442  1.0000
  H   H1537     1.0  0.65542  0.17731  0.20145  1.0000
  H   H1538     1.0  0.65185  0.15552  0.24478  1.0000
  H   H1539     1.0  0.68307  0.15340  0.14856  1.0000
  H   H1540     1.0  0.68633  0.17503  0.10398  1.0000
  C   C913      1.0  0.65889  0.22213  0.93605  1.0000
  C   C914      1.0  0.64749  0.22443  0.94064  1.0000
  C   C915      1.0  0.63833  0.21697  0.92877  1.0000
  C   C916      1.0  0.64065  0.20737  0.91122  1.0000
  C   C917      1.0  0.65203  0.20510  0.90663  1.0000
  C   C918      1.0  0.66109  0.21239  0.91924  1.0000
  H   H1541     1.0  0.64572  0.23195  0.95361  1.0000
  H   H1542     1.0  0.62959  0.21883  0.93219  1.0000
  H   H1543     1.0  0.65392  0.19772  0.89296  1.0000
  H   H1544     1.0  0.58774  0.15851  0.16086  1.0000
  C   C919      1.0  0.58445  0.14667  0.95813  1.0000
  H   H1545     1.0  0.56787  0.08744  0.84938  1.0000
  C   C920      1.0  0.57311  0.14870  0.98675  1.0000
  C   C921      1.0  0.56783  0.15248  0.22917  1.0000
  C   C922      1.0  0.58402  0.24922  0.95628  1.0000
  H   H1546     1.0  0.63236  0.10138  0.98171  1.0000
  C   C923      1.0  0.65378  0.19496  0.78262  1.0000
  S   S237      1.0  0.57309  0.06608  0.99282  1.0000
  H   H1547     1.0  0.53471  0.11911  0.11422  1.0000
  C   C924      1.0  0.58720  0.13998  0.19213  1.0000
  C   C925      1.0  0.57617  0.14083  0.36421  1.0000
  C   C926      1.0  0.59693  0.13910  0.15241  1.0000
  H   H1548     1.0  0.57498  0.13780  0.28476  1.0000
  H   H1549     1.0  0.59047  0.14573  0.27292  1.0000
  H   H1550     1.0  0.57821  0.13608  0.18806  1.0000
  H   H1551     1.0  0.58791  0.13408  0.22373  1.0000
  C   C927      1.0  0.61123  0.10131  0.84422  1.0000
  H   H1552     1.0  0.58408  0.13702  0.36339  1.0000
  H   H1553     1.0  0.57434  0.14417  0.39485  1.0000
  H   H1554     1.0  0.59466  0.12968  0.14865  1.0000
  H   H1555     1.0  0.59749  0.14572  0.11982  1.0000
  H   H1556     1.0  0.60590  0.14098  0.15924  1.0000
  N   N46       1.0  0.59132  0.11884  0.48942  1.0000
  C   C928      1.0  0.58366  0.12737  0.47852  1.0000
  C   C929      1.0  0.59300  0.11214  0.45348  1.0000
  C   C930      1.0  0.58500  0.11001  0.53627  1.0000
  C   C931      1.0  0.60370  0.12581  0.48950  1.0000
  C   C932      1.0  0.61045  0.13729  0.44799  1.0000
  C   C933      1.0  0.58135  0.13531  0.51160  1.0000
  C   C934      1.0  0.59046  0.09920  0.55042  1.0000
  C   C935      1.0  0.58126  0.10392  0.44956  1.0000
  C   C936      1.0  0.58426  0.09596  0.41822  1.0000
  C   C937      1.0  0.62323  0.14288  0.44986  1.0000
  C   C938      1.0  0.57510  0.14486  0.49371  1.0000
  C   C939      1.0  0.58413  0.09174  0.60016  1.0000
  H   H1557     1.0  0.57451  0.12207  0.47951  1.0000
  H   H1558     1.0  0.58761  0.13346  0.44289  1.0000
  H   H1559     1.0  0.59742  0.11877  0.41908  1.0000
  H   H1560     1.0  0.59941  0.10648  0.45852  1.0000
  H   H1561     1.0  0.57521  0.10615  0.54017  1.0000
  H   H1562     1.0  0.58511  0.11501  0.56260  1.0000
  H   H1563     1.0  0.60320  0.12881  0.52107  1.0000
  H   H1564     1.0  0.60982  0.11967  0.49072  1.0000
  H   H1565     1.0  0.60560  0.14451  0.44763  1.0000
  H   H1566     1.0  0.61132  0.13495  0.41525  1.0000
  H   H1567     1.0  0.57531  0.12942  0.54550  1.0000
  H   H1568     1.0  0.58987  0.14024  0.51662  1.0000
  H   H1569     1.0  0.60026  0.10257  0.54708  1.0000
  H   H1570     1.0  0.58935  0.09288  0.52895  1.0000
  H   H1571     1.0  0.57545  0.09767  0.48312  1.0000
  H   H1572     1.0  0.57592  0.10972  0.43465  1.0000
  H   H1573     1.0  0.57579  0.09086  0.41317  1.0000
  H   H1574     1.0  0.59038  0.10174  0.38430  1.0000
  H   H1575     1.0  0.58874  0.08923  0.43345  1.0000
  H   H1576     1.0  0.62295  0.14526  0.48241  1.0000
  H   H1577     1.0  0.62877  0.13631  0.44684  1.0000
  H   H1578     1.0  0.62766  0.15136  0.42100  1.0000
  H   H1579     1.0  0.58112  0.15154  0.46120  1.0000
  H   H1580     1.0  0.56647  0.14034  0.48810  1.0000
  H   H1581     1.0  0.57295  0.14993  0.51919  1.0000
  H   H1582     1.0  0.57428  0.08794  0.60525  1.0000
  H   H1583     1.0  0.58812  0.08400  0.60944  1.0000
  H   H1584     1.0  0.58538  0.09760  0.62321  1.0000
  H   H1585     1.0  0.65950  0.11031  0.40701  1.0000
  C   C940      1.0  0.51288  0.09285  0.67435  1.0000
  C   C941      1.0  0.58122  0.14714  0.27729  1.0000
  C   C942      1.0  0.56740  0.06455  0.30091  1.0000
  C   C943      1.0  0.56123  0.04211  0.00375  1.0000
  H   H1586     1.0  0.51467  0.05958  0.11483  1.0000
  H   H1587     1.0  0.53723  0.13959  0.05735  1.0000
  H   H1588     1.0  0.60889  0.16819  0.86921  1.0000
  C   C944      1.0  0.58888  0.15347  0.19362  1.0000
  H   H1589     1.0  0.68587  0.16019  0.23887  1.0000
  H   H1590     1.0  0.61326  0.16169  0.65519  1.0000
  H   H1591     1.0  0.59084  0.01702  0.91191  1.0000
  H   H1592     1.0  0.56724  0.11105  0.82835  1.0000
  H   H1593     1.0  0.57994  0.13556  0.88002  1.0000
  N   N47       1.0  0.54997  0.10112  0.87886  1.0000
  C   C945      1.0  0.59727  0.09906  0.79733  1.0000
  C   C946      1.0  0.63237  0.18786  0.77800  1.0000
  H   H1594     1.0  0.59561  0.09800  0.90447  1.0000
  H   H1595     1.0  0.52464  0.10332  0.90385  1.0000
  H   H1596     1.0  0.62562  0.17551  0.63774  1.0000
  H   H1597     1.0  0.70655  0.17694  0.65269  1.0000
  C   C947      1.0  0.57371  0.07582  0.31273  1.0000
  H   H1598     1.0  0.56794  0.08223  0.31442  1.0000
  H   H1599     1.0  0.57538  0.07295  0.34649  1.0000
  H   H1600     1.0  0.58256  0.08073  0.28683  1.0000
  C   C948      1.0  0.62590  0.08728  0.79995  1.0000
  C   C949      1.0  0.63471  0.08471  0.76174  1.0000
  C   C950      1.0  0.60942  0.11362  0.90161  1.0000
  H   H1601     1.0  0.61636  0.09661  0.86485  1.0000
  H   H1602     1.0  0.63129  0.09460  0.81044  1.0000
  H   H1603     1.0  0.62228  0.07879  0.82902  1.0000
  H   H1604     1.0  0.63001  0.07709  0.75059  1.0000
  H   H1605     1.0  0.53624  0.12170  0.03096  1.0000
  H   H1606     1.0  0.61642  0.12169  0.87627  1.0000
  H   H1607     1.0  0.60305  0.11704  0.92417  1.0000
  H   H1608     1.0  0.61387  0.10809  0.92282  1.0000
  H   H1609     1.0  0.58689  0.15860  0.31967  1.0000
  H   H1610     1.0  0.54232  0.12779  0.95556  1.0000
  H   H1611     1.0  0.56285  0.12804  0.85434  1.0000
  C   C951      1.0  0.54299  0.10913  0.85732  1.0000
  H   H1612     1.0  0.55228  0.14147  0.05921  1.0000
  H   H1613     1.0  0.53889  0.15404  0.28218  1.0000
  H   H1614     1.0  0.59317  0.05529  0.88917  1.0000
  C   C952      1.0  0.53033  0.08181  0.00394  1.0000
  H   H1615     1.0  0.51456  0.10365  0.14791  1.0000
  H   H1616     1.0  0.53350  0.16180  0.00333  1.0000
  C   C953      1.0  0.54181  0.13680  0.93627  1.0000
  C   C954      1.0  0.62000  0.16599  0.80687  1.0000
  H   H1617     1.0  0.64323  0.17616  0.80529  1.0000
  H   H1618     1.0  0.70624  0.18917  0.67927  1.0000
  H   H1619     1.0  0.52977  0.14352  0.89909  1.0000
  C   C955      1.0  0.62083  0.16681  0.66525  1.0000
  H   H1620     1.0  0.57323  0.05818  0.30238  1.0000
  C   C956      1.0  0.55506  0.07015  0.86213  1.0000
  H   H1621     1.0  0.68220  0.15068  0.81445  1.0000
  H   H1622     1.0  0.57065  0.14213  0.02119  1.0000
  H   H1623     1.0  0.56807  0.13340  0.36735  1.0000
  H   H1624     1.0  0.57102  0.15546  0.32549  1.0000
  C   C957      1.0  0.60246  0.10580  0.87755  1.0000
  H   H1625     1.0  0.65382  0.18531  0.01868  1.0000
  C   C958      1.0  0.73367  0.24605  0.04991  1.0000
  H   H1626     1.0  0.56150  0.07603  0.25004  1.0000
  H   H1627     1.0  0.57488  0.07189  0.22860  1.0000
  H   H1628     1.0  0.56482  0.14269  0.23008  1.0000
  C   C959      1.0  0.68454  0.15267  0.37103  1.0000
  H   H1629     1.0  0.65558  0.20352  0.75477  1.0000
  H   H1630     1.0  0.65052  0.19669  0.81606  1.0000
  H   H1631     1.0  0.55065  0.11986  0.10141  1.0000
  C   C960      1.0  0.54233  0.11748  0.09041  1.0000
  H   H1632     1.0  0.59199  0.14869  0.97363  1.0000
  H   H1633     1.0  0.64216  0.08203  0.77436  1.0000
  H   H1634     1.0  0.66243  0.19251  0.78124  1.0000
  H   H1635     1.0  0.55891  0.16247  0.01607  1.0000
  H   H1636     1.0  0.61999  0.10059  0.75664  1.0000
  C   C961      1.0  0.59843  0.08084  0.85449  1.0000
  H   H1637     1.0  0.63877  0.09307  0.73207  1.0000
  H   H1638     1.0  0.57564  0.15817  0.98969  1.0000
  H   H1639     1.0  0.53749  0.15871  0.05605  1.0000
  H   H1640     1.0  0.57451  0.07733  0.15857  1.0000
  N   N48       1.0  0.60551  0.09298  0.81954  1.0000
  C   C962      1.0  0.61562  0.09161  0.78339  1.0000
  N   N49       1.0  0.58053  0.15552  0.23377  1.0000
  C   C963      1.0  0.54616  0.13891  0.03854  1.0000
  H   H1641     1.0  0.57476  0.24743  0.95451  1.0000
  H   H1642     1.0  0.56416  0.02184  0.20234  1.0000
  H   H1643     1.0  0.54614  0.04592  0.30435  1.0000
  H   H1644     1.0  0.55866  0.06008  0.32778  1.0000
  C   C964      1.0  0.59901  0.19698  0.75259  1.0000
  H   H1645     1.0  0.58077  0.12024  0.90481  1.0000
  H   H1646     1.0  0.53515  0.17953  0.03386  1.0000
  C   C965      1.0  0.56778  0.02911  0.21741  1.0000
  C   C966      1.0  0.57877  0.15143  0.32121  1.0000
  C   C967      1.0  0.54439  0.12514  0.04149  1.0000
  C   C968      1.0  0.54089  0.16390  0.01930  1.0000
  C   C969      1.0  0.54351  0.17756  0.01627  1.0000
  H   H1647     1.0  0.55237  0.12346  0.02005  1.0000
  H   H1648     1.0  0.58277  0.13698  0.95709  1.0000
  H   H1649     1.0  0.56758  0.15766  0.19509  1.0000
  H   H1650     1.0  0.54653  0.18324  0.98005  1.0000
  H   H1651     1.0  0.62931  0.19039  0.81001  1.0000
  C   C970      1.0  0.55246  0.16068  0.99585  1.0000
  H   H1652     1.0  0.60330  0.10131  0.72385  1.0000
  H   H1653     1.0  0.58728  0.15289  0.92275  1.0000
  N   N50       1.0  0.55057  0.14778  0.99123  1.0000
  H   H1654     1.0  0.56564  0.15379  0.93034  1.0000
  H   H1655     1.0  0.61213  0.08522  0.76498  1.0000
  H   H1656     1.0  0.60103  0.10925  0.78643  1.0000
  H   H1657     1.0  0.58450  0.12643  0.84359  1.0000
  C   C971      1.0  0.56258  0.14689  0.96446  1.0000
  H   H1658     1.0  0.57210  0.01574  0.85899  1.0000
  H   H1659     1.0  0.59106  0.08213  0.88054  1.0000
  H   H1660     1.0  0.55669  0.16750  0.96147  1.0000
  H   H1661     1.0  0.59437  0.17063  0.23616  1.0000
  H   H1662     1.0  0.52297  0.07305  0.01832  1.0000
  C   C972      1.0  0.52371  0.11114  0.83638  1.0000
  H   H1663     1.0  0.62489  0.17238  0.86361  1.0000
  C   C973      1.0  0.58623  0.05862  0.87489  1.0000
  C   C974      1.0  0.58504  0.16883  0.23213  1.0000
  Fe  Fe119     1.0  0.51167  0.02796  0.00451  1.0000
  H   H1664     1.0  0.54646  0.15838  0.22193  1.0000
  C   C975      1.0  0.64447  0.18447  0.77714  1.0000
  H   H1665     1.0  0.56174  0.13792  0.95707  1.0000
  C   C976      1.0  0.53478  0.04766  0.25866  1.0000
  H   H1666     1.0  0.61423  0.15305  0.92422  1.0000
  H   H1667     1.0  0.63465  0.19655  0.75015  1.0000
  C   C977      1.0  0.53066  0.13467  0.91867  1.0000
  H   H1668     1.0  0.55950  0.11986  0.91376  1.0000
  N   N51       1.0  0.67844  0.14804  0.33822  1.0000
  C   C978      1.0  0.55790  0.15441  0.26633  1.0000
  H   H1669     1.0  0.59187  0.17790  0.15765  1.0000
  N   N52       1.0  0.63009  0.10130  0.05215  1.0000
  H   H1670     1.0  0.59860  0.06870  0.80942  1.0000
  C   C979      1.0  0.59212  0.07064  0.83656  1.0000
  H   H1671     1.0  0.64834  0.18274  0.74429  1.0000
  H   H1672     1.0  0.53189  0.14303  0.98951  1.0000
  C   C980      1.0  0.57840  0.12608  0.87670  1.0000
  H   H1673     1.0  0.63338  0.17208  0.72260  1.0000
  H   H1674     1.0  0.66418  0.13537  0.39644  1.0000
  C   C981      1.0  0.54120  0.14591  0.96549  1.0000
  H   H1675     1.0  0.54797  0.07432  0.65173  1.0000
  H   H1676     1.0  0.57436  0.05238  0.21899  1.0000
  H   H1677     1.0  0.62765  0.16186  0.79836  1.0000
  C   C982      1.0  0.67012  0.13532  0.36362  1.0000
  C   C983      1.0  0.56302  0.10874  0.86594  1.0000
  H   H1678     1.0  0.54325  0.06045  0.28872  1.0000
  C   C984      1.0  0.58539  0.17851  0.18822  1.0000
  C   C985      1.0  0.56467  0.04821  0.23871  1.0000
  H   H1679     1.0  0.57464  0.07789  0.07999  1.0000
  H   H1680     1.0  0.57365  0.06241  0.14962  1.0000
  C   C986      1.0  0.61622  0.15304  0.88794  1.0000
  H   H1681     1.0  0.60858  0.18391  0.81499  1.0000
  H   H1682     1.0  0.58833  0.09718  0.82257  1.0000
  C   C987      1.0  0.56860  0.06933  0.15315  1.0000
  H   H1683     1.0  0.65643  0.17946  0.07188  1.0000
  C   C988      1.0  0.56513  0.12101  0.87885  1.0000
  N   N53       1.0  0.55810  0.05804  0.23923  1.0000
  H   H1684     1.0  0.55203  0.07104  0.19495  1.0000
  H   H1685     1.0  0.60869  0.14613  0.88411  1.0000
  C   C989      1.0  0.56596  0.07385  0.10765  1.0000
  H   H1686     1.0  0.54185  0.15478  0.94071  1.0000
  C   C990      1.0  0.61749  0.16583  0.85770  1.0000
  H   H1687     1.0  0.53155  0.12880  0.89553  1.0000
  C   C991      1.0  0.54501  0.09686  0.93040  1.0000
  C   C992      1.0  0.55673  0.06369  0.19290  1.0000
  C   C993      1.0  0.50960  0.06710  0.61596  1.0000
  H   H1688     1.0  0.54174  0.10416  0.94286  1.0000
  H   H1689     1.0  0.52662  0.08499  0.93920  1.0000
  H   H1690     1.0  0.56103  0.08099  0.10894  1.0000
  N   N54       1.0  0.62235  0.17830  0.77272  1.0000
  C   C994      1.0  0.54580  0.05305  0.27459  1.0000
  H   H1691     1.0  0.58476  0.07333  0.82349  1.0000
  H   H1692     1.0  0.62955  0.06506  0.05038  1.0000
  H   H1693     1.0  0.69696  0.16680  0.26356  1.0000
  C   C995      1.0  0.62606  0.17680  0.72541  1.0000
  H   H1694     1.0  0.63017  0.18588  0.69921  1.0000
  H   H1695     1.0  0.56849  0.10336  0.88228  1.0000
  H   H1696     1.0  0.55236  0.09547  0.94645  1.0000
  C   C996      1.0  0.50963  0.07724  0.84255  1.0000
  C   C997      1.0  0.61581  0.16944  0.71030  1.0000
  H   H1697     1.0  0.54995  0.14066  0.90610  1.0000
  H   H1698     1.0  0.62478  0.15038  0.87862  1.0000
  H   H1699     1.0  0.56489  0.04379  0.27376  1.0000
  H   H1700     1.0  0.56049  0.06609  0.09924  1.0000
  H   H1701     1.0  0.57935  0.05990  0.90276  1.0000
  H   H1702     1.0  0.58162  0.05149  0.86137  1.0000
  H   H1703     1.0  0.54390  0.11768  0.86785  1.0000
  H   H1704     1.0  0.61759  0.20257  0.75220  1.0000
  C   C998      1.0  0.61866  0.10559  0.05609  1.0000
  H   H1705     1.0  0.61195  0.15936  0.80496  1.0000
  H   H1706     1.0  0.64410  0.11730  0.14535  1.0000
  C   C999      1.0  0.69272  0.16604  0.35358  1.0000
  H   H1707     1.0  0.57630  0.17731  0.18251  1.0000
  C   C1000     1.0  0.70287  0.15627  0.21922  1.0000
  H   H1708     1.0  0.55084  0.05686  0.18185  1.0000
  C   C1001     1.0  0.61096  0.18248  0.78055  1.0000
  C   C1002     1.0  0.59523  0.09602  0.75330  1.0000
  H   H1709     1.0  0.61095  0.16051  0.73605  1.0000
  H   H1710     1.0  0.53789  0.08069  0.01888  1.0000
  H   H1711     1.0  0.61495  0.19477  0.71046  1.0000
  H   H1712     1.0  0.62717  0.16104  0.66900  1.0000
  C   C1003     1.0  0.51597  0.06446  0.17716  1.0000
  H   H1713     1.0  0.67767  0.15164  0.40353  1.0000
  C   C1004     1.0  0.55947  0.03760  0.22032  1.0000
  S   S238      1.0  0.59756  0.06516  0.16033  1.0000
  H   H1714     1.0  0.55259  0.09404  0.82016  1.0000
  H   H1715     1.0  0.54692  0.11223  0.81957  1.0000
  C   C1005     1.0  0.55845  0.08267  0.87066  1.0000
  Fe  Fe120     1.0  0.59688  0.05495  0.10471  1.0000
  C   C1006     1.0  0.61153  0.19471  0.74641  1.0000
  H   H1716     1.0  0.60311  0.17518  0.78085  1.0000
  H   H1717     1.0  0.60906  0.17462  0.70538  1.0000
  C   C1007     1.0  0.55307  0.02706  0.85773  1.0000
  H   H1718     1.0  0.73512  0.16786  0.80685  1.0000
  H   H1719     1.0  0.59543  0.19770  0.78750  1.0000
  C   C1008     1.0  0.53460  0.08469  0.95196  1.0000
  H   H1720     1.0  0.52407  0.07200  0.16050  1.0000
  C   C1009     1.0  0.54989  0.09057  0.85815  1.0000
  H   H1721     1.0  0.58461  0.10915  0.74390  1.0000
  C   C1010     1.0  0.52917  0.10351  0.86849  1.0000
  H   H1722     1.0  0.65228  0.11896  0.91658  1.0000
  C   C1011     1.0  0.63186  0.10244  0.13201  1.0000
  H   H1723     1.0  0.68921  0.23108  0.11601  1.0000
  H   H1724     1.0  0.63355  0.12417  0.99014  1.0000
  H   H1725     1.0  0.54971  0.04209  0.88506  1.0000
  H   H1726     1.0  0.55853  0.04105  0.18570  1.0000
  H   H1727     1.0  0.53763  0.07678  0.94439  1.0000
  H   H1728     1.0  0.64473  0.08490  0.03244  1.0000
  H   H1729     1.0  0.54163  0.07213  0.60584  1.0000
  H   H1730     1.0  0.55842  0.08126  0.90676  1.0000
  H   H1731     1.0  0.58981  0.19827  0.15974  1.0000
  H   H1732     1.0  0.59964  0.20571  0.72761  1.0000
  C   C1012     1.0  0.74096  0.25385  0.06851  1.0000
  S   S239      1.0  0.59441  0.04432  0.99465  1.0000
  H   H1733     1.0  0.55647  0.14765  0.29962  1.0000
  H   H1734     1.0  0.57951  0.17102  0.26116  1.0000
  H   H1735     1.0  0.58408  0.09920  0.70760  1.0000
  H   H1736     1.0  0.52231  0.13003  0.94748  1.0000
  C   C1013     1.0  0.51067  0.05737  0.15126  1.0000
  H   H1737     1.0  0.59255  0.18938  0.74701  1.0000
  H   H1738     1.0  0.59391  0.08619  0.75530  1.0000
  C   C1014     1.0  0.58953  0.19156  0.19170  1.0000
  H   H1739     1.0  0.51971  0.10182  0.66699  1.0000
  H   H1740     1.0  0.55052  0.02301  0.83125  1.0000
  H   H1741     1.0  0.54061  0.08439  0.86710  1.0000
  H   H1742     1.0  0.67881  0.12156  0.34407  1.0000
  C   C1015     1.0  0.54572  0.15222  0.25572  1.0000
  C   C1016     1.0  0.60699  0.09731  0.09359  1.0000
  C   C1017     1.0  0.58713  0.02506  0.90465  1.0000
  H   H1743     1.0  0.70339  0.23354  0.12993  1.0000
  C   C1018     1.0  0.70219  0.17929  0.68361  1.0000
  H   H1744     1.0  0.68872  0.15643  0.73381  1.0000
  H   H1745     1.0  0.58312  0.19296  0.22072  1.0000
  H   H1746     1.0  0.52697  0.09410  0.86536  1.0000
  H   H1747     1.0  0.53260  0.05520  0.23596  1.0000
  H   H1748     1.0  0.55056  0.03190  0.24390  1.0000
  C   C1019     1.0  0.58421  0.09963  0.74251  1.0000
  H   H1749     1.0  0.56023  0.16387  0.26943  1.0000
  C   C1020     1.0  0.57328  0.02102  0.92045  1.0000
  C   C1021     1.0  0.62703  0.08744  0.06568  1.0000
  H   H1750     1.0  0.68332  0.13465  0.77933  1.0000
  H   H1751     1.0  0.58868  0.09751  0.12492  1.0000
  H   H1752     1.0  0.59877  0.19339  0.19634  1.0000
  H   H1753     1.0  0.73396  0.15286  0.79835  1.0000
  H   H1754     1.0  0.57569  0.09329  0.76710  1.0000
  H   H1755     1.0  0.69236  0.17786  0.68683  1.0000
  H   H1756     1.0  0.52503  0.03321  0.32221  1.0000
  H   H1757     1.0  0.69776  0.11559  0.71085  1.0000
  H   H1758     1.0  0.56885  0.03967  0.01332  1.0000
  H   H1759     1.0  0.53650  0.04103  0.23940  1.0000
  H   H1760     1.0  0.55192  0.02341  0.01110  1.0000
  H   H1761     1.0  0.57707  0.03433  0.19544  1.0000
  H   H1762     1.0  0.64855  0.13339  0.91367  1.0000
  C   C1022     1.0  0.52351  0.04116  0.29916  1.0000
  H   H1763     1.0  0.59465  0.10638  0.06581  1.0000
  C   C1023     1.0  0.64106  0.12003  0.98055  1.0000
  C   C1024     1.0  0.69836  0.15763  0.73397  1.0000
  C   C1025     1.0  0.64504  0.12326  0.92849  1.0000
  C   C1026     1.0  0.70413  0.17147  0.72625  1.0000
  C   C1027     1.0  0.54874  0.01724  0.90484  1.0000
  C   C1028     1.0  0.69302  0.15839  0.25515  1.0000
  H   H1764     1.0  0.66046  0.17567  0.31934  1.0000
  H   H1765     1.0  0.63653  0.21398  0.08208  1.0000
  H   H1766     1.0  0.70303  0.15565  0.70270  1.0000
  H   H1767     1.0  0.69625  0.13668  0.70353  1.0000
  H   H1768     1.0  0.57043  0.01700  0.95804  1.0000
  H   H1769     1.0  0.54575  0.06483  0.88362  1.0000
  C   C1029     1.0  0.63778  0.08166  0.06600  1.0000
  H   H1770     1.0  0.70264  0.17967  0.37898  1.0000
  H   H1771     1.0  0.64184  0.17744  0.13977  1.0000
  C   C1030     1.0  0.69867  0.13196  0.73381  1.0000
  H   H1772     1.0  0.65203  0.21863  0.08377  1.0000
  C   C1031     1.0  0.69150  0.15105  0.81770  1.0000
  C   C1032     1.0  0.59694  0.10380  0.09852  1.0000
  H   H1773     1.0  0.64878  0.12448  0.99160  1.0000
  H   H1774     1.0  0.64896  0.21641  0.03223  1.0000
  C   C1033     1.0  0.69316  0.13593  0.77613  1.0000
  H   H1775     1.0  0.62065  0.08328  0.10041  1.0000
  C   C1034     1.0  0.63719  0.19123  0.06703  1.0000
  C   C1035     1.0  0.64578  0.21294  0.06998  1.0000
  H   H1776     1.0  0.65527  0.19904  0.07387  1.0000
  H   H1777     1.0  0.55558  0.07127  0.82555  1.0000
  H   H1778     1.0  0.63962  0.19580  0.02963  1.0000
  H   H1779     1.0  0.70016  0.17467  0.75536  1.0000
  H   H1780     1.0  0.54248  0.14250  0.25613  1.0000
  H   H1781     1.0  0.64292  0.19678  0.12364  1.0000
  H   H1782     1.0  0.69496  0.16052  0.81940  1.0000
  S   S240      1.0  0.60607  0.04117  0.08207  1.0000
  H   H1783     1.0  0.63643  0.10410  0.19401  1.0000
  H   H1784     1.0  0.67548  0.12746  0.86529  1.0000
  C   C1036     1.0  0.64581  0.19952  0.08577  1.0000
  H   H1785     1.0  0.69747  0.13708  0.86251  1.0000
  H   H1786     1.0  0.64664  0.10470  0.07223  1.0000
  N   N55       1.0  0.69904  0.14882  0.77630  1.0000
  H   H1787     1.0  0.61603  0.10659  0.02368  1.0000
  H   H1788     1.0  0.56143  0.06486  0.87129  1.0000
  H   H1789     1.0  0.71406  0.17334  0.72059  1.0000
  C   C1037     1.0  0.69366  0.11817  0.74155  1.0000
  H   H1790     1.0  0.68368  0.11573  0.74751  1.0000
  H   H1791     1.0  0.69580  0.11279  0.77133  1.0000
  C   C1038     1.0  0.67800  0.13321  0.88736  1.0000
  C   C1039     1.0  0.69056  0.14227  0.86476  1.0000
  H   H1792     1.0  0.63373  0.15981  0.21376  1.0000
  H   H1793     1.0  0.69353  0.12906  0.80651  1.0000
  H   H1794     1.0  0.70868  0.13412  0.72583  1.0000
  H   H1795     1.0  0.62780  0.19173  0.08147  1.0000
  H   H1796     1.0  0.67792  0.12706  0.92022  1.0000
  H   H1797     1.0  0.69231  0.14789  0.88826  1.0000
  H   H1798     1.0  0.67113  0.13828  0.89458  1.0000
  H   H1799     1.0  0.71054  0.15476  0.23288  1.0000
  H   H1800     1.0  0.62936  0.14449  0.20867  1.0000
  H   H1801     1.0  0.63972  0.11684  0.06922  1.0000
  H   H1802     1.0  0.61787  0.05834  0.19168  1.0000
  C   C1040     1.0  0.65006  0.17769  0.05108  1.0000
  C   C1041     1.0  0.71207  0.14991  0.77638  1.0000
  C   C1042     1.0  0.63478  0.17257  0.12672  1.0000
  C   C1043     1.0  0.68762  0.14699  0.29785  1.0000
  H   H1803     1.0  0.71797  0.15234  0.74069  1.0000
  H   H1804     1.0  0.62604  0.17397  0.14431  1.0000
  C   C1044     1.0  0.71767  0.15913  0.80018  1.0000
  H   H1805     1.0  0.71317  0.14087  0.79353  1.0000
  S   S241      1.0  0.57915  0.04492  0.09614  1.0000
  N   N56       1.0  0.63756  0.17797  0.07571  1.0000
  H   H1806     1.0  0.69526  0.14419  0.30869  1.0000
  H   H1807     1.0  0.71561  0.16807  0.79092  1.0000
  H   H1808     1.0  0.61859  0.17086  0.08097  1.0000
  H   H1809     1.0  0.71407  0.15533  0.83782  1.0000
  H   H1810     1.0  0.68343  0.13953  0.28459  1.0000
  H   H1811     1.0  0.62450  0.18532  0.00647  1.0000
  H   H1812     1.0  0.66616  0.15210  0.29893  1.0000
  H   H1813     1.0  0.63748  0.18018  0.98591  1.0000
  H   H1814     1.0  0.70115  0.16662  0.32780  1.0000
  C   C1045     1.0  0.62876  0.15403  0.19637  1.0000
  C   C1046     1.0  0.62769  0.17133  0.05926  1.0000
  C   C1047     1.0  0.62810  0.17714  0.00899  1.0000
  H   H1815     1.0  0.62033  0.11491  0.06124  1.0000
  C   C1048     1.0  0.63426  0.15884  0.14453  1.0000
  C   C1049     1.0  0.65408  0.16651  0.33879  1.0000
  H   H1816     1.0  0.64953  0.16269  0.31561  1.0000
  H   H1817     1.0  0.64362  0.15779  0.13697  1.0000
  H   H1818     1.0  0.62873  0.15287  0.12949  1.0000
  H   H1819     1.0  0.62774  0.16163  0.06310  1.0000
  H   H1820     1.0  0.61905  0.15391  0.20606  1.0000
  H   H1821     1.0  0.67633  0.16533  0.30088  1.0000
  C   C1050     1.0  0.62030  0.16809  0.99141  1.0000
  H   H1822     1.0  0.62080  0.17253  0.95551  1.0000
  H   H1823     1.0  0.66384  0.13235  0.34388  1.0000
  C   C1051     1.0  0.65120  0.16590  0.03693  1.0000
  H   H1824     1.0  0.66602  0.11678  0.44616  1.0000
  H   H1825     1.0  0.62364  0.15981  0.99219  1.0000
  H   H1826     1.0  0.64706  0.16771  0.36638  1.0000
  H   H1827     1.0  0.64707  0.16523  0.00873  1.0000
  H   H1828     1.0  0.61067  0.16533  0.01230  1.0000
  H   H1829     1.0  0.70739  0.25042  0.97589  1.0000
  H   H1830     1.0  0.69041  0.14691  0.38156  1.0000
  H   H1831     1.0  0.64666  0.15742  0.06527  1.0000
  H   H1832     1.0  0.67267  0.10655  0.41982  1.0000
  H   H1833     1.0  0.57016  0.02941  0.91267  1.0000
  H   H1834     1.0  0.64109  0.06365  0.07891  1.0000
  H   H1835     1.0  0.68487  0.12803  0.38354  1.0000
  C   C1052     1.0  0.67642  0.12492  0.37448  1.0000
  H   H1836     1.0  0.62222  0.08396  0.04252  1.0000
  C   C1053     1.0  0.54718  0.03756  0.85958  1.0000
  H   H1837     1.0  0.66912  0.16670  0.04681  1.0000
  S   S242      1.0  0.51592  0.07036  0.26056  1.0000
  H   H1838     1.0  0.59970  0.11212  0.10964  1.0000
  H   H1839     1.0  0.70634  0.16444  0.18876  1.0000
  H   H1840     1.0  0.65397  0.14898  0.37906  1.0000
  C   C1054     1.0  0.66080  0.15783  0.35963  1.0000
  H   H1841     1.0  0.66476  0.16185  0.38366  1.0000
  H   H1842     1.0  0.72737  0.23748  0.07198  1.0000
  C   C1055     1.0  0.66450  0.16615  0.01976  1.0000
  H   H1843     1.0  0.68810  0.17261  0.33864  1.0000
  H   H1844     1.0  0.66512  0.15765  0.00993  1.0000
  H   H1845     1.0  0.64608  0.10331  0.99723  1.0000
  H   H1846     1.0  0.70147  0.16403  0.40834  1.0000
  S   S243      1.0  0.57788  0.01172  0.08712  1.0000
  C   C1056     1.0  0.66813  0.11400  0.41424  1.0000
  H   H1847     1.0  0.69908  0.14818  0.20830  1.0000
  C   C1057     1.0  0.67073  0.15601  0.32200  1.0000
  H   H1848     1.0  0.66929  0.17416  0.98927  1.0000
  N   N57       1.0  0.51415  0.08852  0.63195  1.0000
  H   H1849     1.0  0.68847  0.17012  0.41903  1.0000
  C   C1058     1.0  0.69654  0.17017  0.39247  1.0000
  H   H1850     1.0  0.60354  0.08879  0.08454  1.0000
  H   H1851     1.0  0.53297  0.09863  0.60281  1.0000
  H   H1852     1.0  0.60865  0.09467  0.12723  1.0000
  H   H1853     1.0  0.62404  0.10622  0.14098  1.0000
  H   H1854     1.0  0.51094  0.08909  0.19023  1.0000
  H   H1855     1.0  0.64879  0.10325  0.15039  1.0000
  C   C1059     1.0  0.64090  0.10711  0.15665  1.0000
  H   H1856     1.0  0.62881  0.09230  0.14559  1.0000
  S   S244      1.0  0.72607  0.23945  0.97650  1.0000
  H   H1857     1.0  0.55029  0.04452  0.82565  1.0000
  C   C1060     1.0  0.63338  0.06768  0.07723  1.0000
  C   C1061     1.0  0.63764  0.10664  0.07965  1.0000
  Fe  Fe121     1.0  0.58878  0.03224  0.06690  1.0000
  H   H1858     1.0  0.62631  0.06373  0.11059  1.0000
  H   H1859     1.0  0.51431  0.11453  0.51493  1.0000
  H   H1860     1.0  0.64212  0.08378  0.09235  1.0000
  H   H1861     1.0  0.52537  0.12072  0.83857  1.0000
  C   C1062     1.0  0.70066  0.25565  0.97145  1.0000
  H   H1862     1.0  0.73562  0.16599  0.75103  1.0000
  H   H1863     1.0  0.59055  0.03147  0.92323  1.0000
  C   C1063     1.0  0.70324  0.24755  0.07135  1.0000
  H   H1864     1.0  0.52773  0.11135  0.80057  1.0000
  C   C1064     1.0  0.60713  0.25862  0.81780  1.0000
  C   C1065     1.0  0.69685  0.23820  0.11805  1.0000
  H   H1865     1.0  0.69337  0.24283  0.14345  1.0000
  H   H1866     1.0  0.52597  0.07310  0.67193  1.0000
  H   H1867     1.0  0.53714  0.03407  0.86929  1.0000
  H   H1868     1.0  0.52119  0.09515  0.53302  1.0000
  C   C1066     1.0  0.73476  0.24917  0.00292  1.0000
  H   H1869     1.0  0.70706  0.24263  0.04786  1.0000
  H   H1870     1.0  0.55007  0.02200  0.93097  1.0000
  H   H1871     1.0  0.56303  0.03111  0.84686  1.0000
  H   H1872     1.0  0.59048  0.02986  0.86748  1.0000
  C   C1067     1.0  0.53263  0.08176  0.64916  1.0000
  H   H1873     1.0  0.69080  0.25882  0.07814  1.0000
  H   H1874     1.0  0.59817  0.25191  0.82513  1.0000
  H   H1875     1.0  0.69627  0.24790  0.89731  1.0000
  S   S245      1.0  0.50903  0.04583  0.01397  1.0000
  H   H1876     1.0  0.51675  0.10708  0.59117  1.0000
  H   H1877     1.0  0.71091  0.25416  0.07555  1.0000
  H   H1878     1.0  0.52892  0.08575  0.58320  1.0000
  H   H1879     1.0  0.71213  0.24958  0.89452  1.0000
  C   C1068     1.0  0.70524  0.25461  0.88961  1.0000
  C   C1069     1.0  0.51062  0.06181  0.22454  1.0000
  C   C1070     1.0  0.58934  0.26015  0.96567  1.0000
  H   H1880     1.0  0.51378  0.10696  0.84560  1.0000
  C   C1071     1.0  0.60780  0.25397  0.96132  1.0000
  H   H1881     1.0  0.61706  0.25574  0.96302  1.0000
  H   H1882     1.0  0.51277  0.07159  0.57875  1.0000
  H   H1883     1.0  0.67889  0.25967  0.96839  1.0000
  H   H1884     1.0  0.53875  0.01363  0.91248  1.0000
  C   C1072     1.0  0.50833  0.06598  0.87404  1.0000
  C   C1073     1.0  0.51189  0.09526  0.54987  1.0000
  H   H1885     1.0  0.61369  0.25695  0.78997  1.0000
  C   C1074     1.0  0.51094  0.09760  0.59704  1.0000
  C   C1075     1.0  0.50864  0.10529  0.51794  1.0000
  H   H1886     1.0  0.51717  0.06392  0.62568  1.0000
  H   H1887     1.0  0.51026  0.10392  0.48337  1.0000
  H   H1888     1.0  0.70790  0.26009  0.85326  1.0000
  C   C1076     1.0  0.50702  0.09565  0.17066  1.0000
  H   H1889     1.0  0.50655  0.10350  0.74345  1.0000
  C   C1077     1.0  0.69438  0.25415  0.05290  1.0000
  H   H1890     1.0  0.67350  0.25650  0.02931  1.0000
  C   C1078     1.0  0.50565  0.07578  0.64398  1.0000
  C   C1079     1.0  0.56822  0.01158  0.89654  1.0000
  H   H1891     1.0  0.50535  0.08648  0.55342  1.0000
  H   H1892     1.0  0.50666  0.08671  0.11802  1.0000
  H   H1893     1.0  0.65473  0.34241  0.87742  1.0000
  Fe  Fe122     1.0  0.60482  0.29482  0.98342  1.0000
  S   S246      1.0  0.61995  0.31226  0.94577  1.0000
  H   H1894     1.0  0.63877  0.36284  0.18687  1.0000
  Fe  Fe123     1.0  0.58820  0.30970  0.02067  1.0000
  S   S247      1.0  0.60167  0.32787  0.98383  1.0000
  S   S248      1.0  0.56966  0.30836  0.06442  1.0000
  Fe  Fe124     1.0  0.60527  0.31983  0.92501  1.0000
  S   S249      1.0  0.60901  0.33096  0.85162  1.0000
  Fe  Fe125     1.0  0.61509  0.31884  0.00790  1.0000
  S   S250      1.0  0.62613  0.32821  0.04803  1.0000
  S   S251      1.0  0.59048  0.30232  0.95964  1.0000
  S   S252      1.0  0.60127  0.30077  0.04786  1.0000
  Fe  Fe126     1.0  0.70715  0.40009  0.01414  1.0000
  S   S253      1.0  0.69200  0.38329  0.05820  1.0000
  S   S254      1.0  0.72791  0.40342  0.00048  1.0000
  Fe  Fe127     1.0  0.68887  0.41320  0.98127  1.0000
  S   S255      1.0  0.67266  0.39773  0.02413  1.0000
  S   S256      1.0  0.68689  0.43106  0.94068  1.0000
  Fe  Fe128     1.0  0.68238  0.39703  0.07812  1.0000
  S   S257      1.0  0.67190  0.39438  0.15088  1.0000
  Fe  Fe129     1.0  0.68343  0.38546  0.00009  1.0000
  S   S258      1.0  0.67495  0.37193  0.96569  1.0000
  S   S259      1.0  0.69780  0.41358  0.03748  1.0000
  S   S260      1.0  0.69937  0.40116  0.95388  1.0000
  Fe  Fe130     1.0  0.56505  0.37470  0.19513  1.0000
  S   S261      1.0  0.57745  0.36300  0.18022  1.0000
  S   S262      1.0  0.56328  0.38745  0.13261  1.0000
  Fe  Fe131     1.0  0.56091  0.36561  0.29899  1.0000
  S   S263      1.0  0.57258  0.35270  0.29209  1.0000
  S   S264      1.0  0.55242  0.36984  0.36450  1.0000
  Fe  Fe132     1.0  0.58516  0.36847  0.23412  1.0000
  S   S265      1.0  0.60525  0.37466  0.22123  1.0000
  Fe  Fe133     1.0  0.56373  0.34837  0.23869  1.0000
  S   S266      1.0  0.55693  0.32917  0.23426  1.0000
  S   S267      1.0  0.57417  0.38172  0.24349  1.0000
  S   S268      1.0  0.55067  0.35975  0.25091  1.0000
  Fe  Fe134     1.0  0.62810  0.41336  0.35615  1.0000
  S   S269      1.0  0.62074  0.42538  0.39504  1.0000
  S   S270      1.0  0.61911  0.39310  0.38203  1.0000
  Fe  Fe135     1.0  0.64791  0.43461  0.28708  1.0000
  S   S271      1.0  0.64242  0.44852  0.32131  1.0000
  S   S272      1.0  0.66268  0.43982  0.22048  1.0000
  Fe  Fe136     1.0  0.64017  0.43439  0.38792  1.0000
  S   S273      1.0  0.64814  0.43539  0.44770  1.0000
  Fe  Fe137     1.0  0.62341  0.43829  0.32590  1.0000
  S   S274      1.0  0.60722  0.44413  0.30997  1.0000
  S   S275      1.0  0.64737  0.42147  0.35232  1.0000
  S   S276      1.0  0.62913  0.42535  0.28798  1.0000
  Fe  Fe138     1.0  0.55111  0.36714  0.68353  1.0000
  S   S277      1.0  0.54986  0.34786  0.67936  1.0000
  S   S278      1.0  0.53580  0.37547  0.70452  1.0000
  Fe  Fe139     1.0  0.57818  0.37489  0.64847  1.0000
  S   S279      1.0  0.57967  0.35647  0.64158  1.0000
  S   S280      1.0  0.59327  0.39194  0.62895  1.0000
  Fe  Fe140     1.0  0.56403  0.35666  0.61126  1.0000
  S   S281      1.0  0.56527  0.34947  0.54910  1.0000
  Fe  Fe141     1.0  0.56557  0.34914  0.70964  1.0000
  S   S282      1.0  0.56475  0.33331  0.76866  1.0000
  S   S283      1.0  0.56385  0.37579  0.61278  1.0000
  S   S284      1.0  0.56559  0.36769  0.71914  1.0000
  Fe  Fe142     1.0  0.65080  0.43309  0.76153  1.0000
  S   S285      1.0  0.63590  0.42037  0.82176  1.0000
  S   S286      1.0  0.67053  0.43762  0.75900  1.0000
  Fe  Fe143     1.0  0.63387  0.43819  0.70320  1.0000
  S   S287      1.0  0.61750  0.42622  0.75996  1.0000
  S   S288      1.0  0.63069  0.44735  0.63638  1.0000
  Fe  Fe144     1.0  0.62586  0.43463  0.80728  1.0000
  S   S289      1.0  0.61303  0.43638  0.86963  1.0000
  Fe  Fe145     1.0  0.62888  0.41319  0.76947  1.0000
  S   S290      1.0  0.62122  0.39327  0.77745  1.0000
  S   S291      1.0  0.64134  0.44802  0.74981  1.0000
  S   S292      1.0  0.64472  0.42453  0.71006  1.0000
  S   S293      1.0  0.53278  0.40231  0.97585  1.0000
  Fe  Fe146     1.0  0.53499  0.42225  0.94855  1.0000
  S   S294      1.0  0.55294  0.43583  0.93518  1.0000
  H   H1895     1.0  0.55680  0.27674  0.93992  1.0000
  Fe  Fe147     1.0  0.59766  0.48161  0.00740  1.0000
  S   S295      1.0  0.59556  0.46830  0.07480  1.0000
  S   S296      1.0  0.61171  0.48316  0.94183  1.0000
  Fe  Fe148     1.0  0.57563  0.46552  0.08438  1.0000
  S   S297      1.0  0.56169  0.44732  0.11359  1.0000
  Fe  Fe149     1.0  0.59410  0.48412  0.10368  1.0000
  H   H1896     1.0  0.65155  0.46357  0.07633  1.0000
  S   S298      1.0  0.57774  0.47748  0.01465  1.0000
  C   C1080     1.0  0.55580  0.43775  0.98615  1.0000
  C   C1081     1.0  0.56716  0.44469  0.98538  1.0000
  C   C1082     1.0  0.56914  0.44699  0.02538  1.0000
  C   C1083     1.0  0.55978  0.44254  0.06610  1.0000
  C   C1084     1.0  0.54863  0.43518  0.06746  1.0000
  C   C1085     1.0  0.54666  0.43275  0.02759  1.0000
  H   H1897     1.0  0.57443  0.44847  0.95416  1.0000
  H   H1898     1.0  0.57787  0.45240  0.02462  1.0000
  H   H1899     1.0  0.54138  0.43184  0.09869  1.0000
  H   H1900     1.0  0.53798  0.42723  0.02899  1.0000
  C   C1086     1.0  0.61289  0.44961  0.88829  1.0000
  C   C1087     1.0  0.62064  0.46119  0.86279  1.0000
  C   C1088     1.0  0.62009  0.47146  0.87920  1.0000
  C   C1089     1.0  0.61188  0.47020  0.92126  1.0000
  C   C1090     1.0  0.60416  0.45861  0.94661  1.0000
  C   C1091     1.0  0.60461  0.44839  0.93007  1.0000
  H   H1901     1.0  0.62702  0.46224  0.83049  1.0000
  H   H1902     1.0  0.62611  0.48041  0.85945  1.0000
  H   H1903     1.0  0.59788  0.45753  0.97909  1.0000
  H   H1904     1.0  0.59850  0.43947  0.94985  1.0000
  C   C1092     1.0  0.53388  0.37811  0.75866  1.0000
  C   C1093     1.0  0.53682  0.37051  0.79348  1.0000
  C   C1094     1.0  0.53488  0.37244  0.83684  1.0000
  H   H1905     1.0  0.54031  0.36296  0.78732  1.0000
  H   H1906     1.0  0.53693  0.36634  0.86386  1.0000
  C   C1095     1.0  0.60107  0.39196  0.67006  1.0000
  C   C1096     1.0  0.60905  0.40292  0.66818  1.0000
  C   C1097     1.0  0.61545  0.40318  0.70059  1.0000
  C   C1098     1.0  0.61381  0.39251  0.73526  1.0000
  C   C1099     1.0  0.60594  0.38145  0.73685  1.0000
  C   C1100     1.0  0.59955  0.38118  0.70415  1.0000
  H   H1907     1.0  0.61027  0.41126  0.64174  1.0000
  H   H1908     1.0  0.62167  0.41169  0.69842  1.0000
  H   H1909     1.0  0.60464  0.37316  0.76357  1.0000
  H   H1910     1.0  0.59345  0.37265  0.70533  1.0000
  C   C1101     1.0  0.64213  0.43779  0.50121  1.0000
  C   C1102     1.0  0.63303  0.44378  0.50844  1.0000
  C   C1103     1.0  0.62930  0.44631  0.55056  1.0000
  C   C1104     1.0  0.63433  0.44254  0.58627  1.0000
  C   C1105     1.0  0.64299  0.43603  0.57969  1.0000
  C   C1106     1.0  0.64706  0.43393  0.53710  1.0000
  H   H1911     1.0  0.62919  0.44685  0.48111  1.0000
  H   H1912     1.0  0.62262  0.45140  0.55522  1.0000
  H   H1913     1.0  0.64679  0.43296  0.60703  1.0000
  H   H1914     1.0  0.65413  0.42934  0.53174  1.0000
  C   C1107     1.0  0.60803  0.45616  0.26236  1.0000
  C   C1108     1.0  0.60089  0.45380  0.23328  1.0000
  C   C1109     1.0  0.59976  0.46350  0.19972  1.0000
  C   C1110     1.0  0.60555  0.47569  0.19568  1.0000
  C   C1111     1.0  0.71244  0.27903  0.03342  1.0000
  C   C1112     1.0  0.61413  0.46832  0.25733  1.0000
  H   H1915     1.0  0.59591  0.44446  0.23761  1.0000
  H   H1916     1.0  0.58162  0.36295  0.04945  1.0000
  H   H1917     1.0  0.59600  0.40250  0.24541  1.0000
  C   C1113     1.0  0.51636  0.45599  0.95976  1.0000
  C   C1114     1.0  0.55623  0.36426  0.41546  1.0000
  C   C1115     1.0  0.56330  0.35599  0.41848  1.0000
  C   C1116     1.0  0.56601  0.35158  0.45960  1.0000
  C   C1117     1.0  0.56197  0.35563  0.49774  1.0000
  C   C1118     1.0  0.55514  0.36410  0.49447  1.0000
  C   C1119     1.0  0.55207  0.36822  0.45385  1.0000
  H   H1918     1.0  0.56657  0.35285  0.38938  1.0000
  H   H1919     1.0  0.57134  0.34503  0.46177  1.0000
  H   H1920     1.0  0.55219  0.36737  0.52342  1.0000
  H   H1921     1.0  0.54656  0.37457  0.45203  1.0000
  C   C1120     1.0  0.54911  0.38804  0.12384  1.0000
  C   C1121     1.0  0.53824  0.37953  0.15189  1.0000
  C   C1122     1.0  0.52712  0.38057  0.14376  1.0000
  H   H1922     1.0  0.64705  0.37890  0.16883  1.0000
  H   H1923     1.0  0.65382  0.37352  0.87122  1.0000
  C   C1123     1.0  0.54882  0.39752  0.08791  1.0000
  H   H1924     1.0  0.53838  0.37222  0.17988  1.0000
  H   H1925     1.0  0.51872  0.37397  0.16528  1.0000
  C   C1124     1.0  0.66201  0.39226  0.83137  1.0000
  C   C1125     1.0  0.60929  0.37933  0.26644  1.0000
  C   C1126     1.0  0.61985  0.38880  0.25719  1.0000
  C   C1127     1.0  0.62298  0.39294  0.29278  1.0000
  C   C1128     1.0  0.61577  0.38736  0.33783  1.0000
  C   C1129     1.0  0.60546  0.37756  0.34730  1.0000
  C   C1130     1.0  0.60206  0.37374  0.31149  1.0000
  H   H1926     1.0  0.62553  0.39307  0.22246  1.0000
  H   H1927     1.0  0.63106  0.40035  0.28541  1.0000
  H   H1928     1.0  0.59989  0.37318  0.38213  1.0000
  H   H1929     1.0  0.59395  0.36636  0.31887  1.0000
  C   C1131     1.0  0.66918  0.40715  0.16882  1.0000
  C   C1132     1.0  0.67514  0.41921  0.14171  1.0000
  C   C1133     1.0  0.67305  0.42917  0.15777  1.0000
  C   C1134     1.0  0.66498  0.42717  0.20076  1.0000
  C   C1135     1.0  0.65890  0.41513  0.22753  1.0000
  C   C1136     1.0  0.66104  0.40516  0.21168  1.0000
  H   H1930     1.0  0.68143  0.42085  0.10867  1.0000
  H   H1931     1.0  0.67777  0.43843  0.13706  1.0000
  H   H1932     1.0  0.65268  0.41346  0.26077  1.0000
  H   H1933     1.0  0.65639  0.39587  0.23284  1.0000
  C   C1137     1.0  0.68244  0.43190  0.89015  1.0000
  C   C1138     1.0  0.67262  0.42308  0.88766  1.0000
  C   C1139     1.0  0.66861  0.42481  0.84802  1.0000
  C   C1140     1.0  0.67475  0.43512  0.81024  1.0000
  C   C1141     1.0  0.68466  0.44374  0.81272  1.0000
  C   C1142     1.0  0.68829  0.44229  0.85276  1.0000
  H   H1934     1.0  0.66802  0.41509  0.91653  1.0000
  H   H1935     1.0  0.66095  0.41810  0.84636  1.0000
  H   H1936     1.0  0.68945  0.45171  0.78382  1.0000
  H   H1937     1.0  0.69580  0.44918  0.85457  1.0000
  C   C1143     1.0  0.57717  0.33305  0.79125  1.0000
  C   C1144     1.0  0.57534  0.32465  0.83373  1.0000
  C   C1145     1.0  0.58498  0.32416  0.85302  1.0000
  C   C1146     1.0  0.59660  0.33187  0.82943  1.0000
  C   C1147     1.0  0.59843  0.34031  0.78695  1.0000
  C   C1148     1.0  0.58872  0.34099  0.76807  1.0000
  H   H1938     1.0  0.56640  0.31855  0.85195  1.0000
  H   H1939     1.0  0.58342  0.31772  0.88590  1.0000
  H   H1940     1.0  0.60738  0.34632  0.76852  1.0000
  H   H1941     1.0  0.59020  0.34751  0.73536  1.0000
  C   C1149     1.0  0.56748  0.31441  0.11151  1.0000
  C   C1150     1.0  0.55800  0.30754  0.15050  1.0000
  C   C1151     1.0  0.55511  0.31222  0.18762  1.0000
  C   C1152     1.0  0.56134  0.32404  0.18584  1.0000
  C   C1153     1.0  0.57076  0.33114  0.14650  1.0000
  C   C1154     1.0  0.57399  0.32622  0.10960  1.0000
  H   H1942     1.0  0.55277  0.29853  0.15195  1.0000
  H   H1943     1.0  0.54780  0.30670  0.21767  1.0000
  H   H1944     1.0  0.57551  0.34034  0.14461  1.0000
  H   H1945     1.0  0.58116  0.33169  0.07913  1.0000
  C   C1155     1.0  0.63947  0.34063  0.02435  1.0000
  C   C1156     1.0  0.64472  0.34603  0.05373  1.0000
  C   C1157     1.0  0.65546  0.35577  0.03633  1.0000
  C   C1158     1.0  0.66110  0.36014  0.98931  1.0000
  C   C1159     1.0  0.65579  0.35477  0.95994  1.0000
  C   C1160     1.0  0.64498  0.34512  0.97732  1.0000
  H   H1946     1.0  0.64056  0.34253  0.09022  1.0000
  H   H1947     1.0  0.65954  0.35972  0.05930  1.0000
  H   H1948     1.0  0.66021  0.35797  0.92362  1.0000
  H   H1949     1.0  0.64108  0.34090  0.95460  1.0000
  C   C1161     1.0  0.62934  0.36435  0.79348  1.0000
  H   H1950     1.0  0.63324  0.38622  0.12526  1.0000
  H   H1951     1.0  0.58859  0.30761  0.14087  1.0000
  C   C1162     1.0  0.73903  0.40271  0.03110  1.0000
  C   C1163     1.0  0.73596  0.39715  0.07818  1.0000
  H   H1952     1.0  0.52675  0.37279  0.00756  1.0000
  C   C1164     1.0  0.63802  0.35497  0.85364  1.0000
  H   H1953     1.0  0.72658  0.39260  0.09687  1.0000
  C   C1165     1.0  0.60623  0.27181  0.80347  1.0000
  H   H1954     1.0  0.65847  0.33810  0.82547  1.0000
  H   H1955     1.0  0.56546  0.41628  0.36192  1.0000
  H   H1956     1.0  0.57341  0.38604  0.47696  1.0000
  H   H1957     1.0  0.65433  0.36780  0.15197  1.0000
  N   N58       1.0  0.57382  0.38483  0.83354  1.0000
  C   C1166     1.0  0.56880  0.37205  0.83061  1.0000
  C   C1167     1.0  0.57639  0.39359  0.78654  1.0000
  C   C1168     1.0  0.56521  0.39456  0.76866  1.0000
  C   C1169     1.0  0.56501  0.36143  0.87532  1.0000
  C   C1170     1.0  0.56173  0.34900  0.86592  1.0000
  C   C1171     1.0  0.56895  0.40425  0.72240  1.0000
  H   H1958     1.0  0.59174  0.38199  0.82099  1.0000
  H   H1959     1.0  0.56048  0.37139  0.81925  1.0000
  H   H1960     1.0  0.57545  0.36989  0.80418  1.0000
  H   H1961     1.0  0.58294  0.39112  0.76082  1.0000
  H   H1962     1.0  0.55835  0.39708  0.79269  1.0000
  H   H1963     1.0  0.56079  0.38584  0.76344  1.0000
  H   H1964     1.0  0.57237  0.36141  0.89200  1.0000
  H   H1965     1.0  0.55682  0.36210  0.89926  1.0000
  H   H1966     1.0  0.55869  0.34148  0.89841  1.0000
  H   H1967     1.0  0.55432  0.34836  0.84918  1.0000
  H   H1968     1.0  0.56979  0.34769  0.84342  1.0000
  H   H1969     1.0  0.57299  0.41348  0.72526  1.0000
  H   H1970     1.0  0.57560  0.40191  0.69685  1.0000
  H   H1971     1.0  0.56083  0.40455  0.71008  1.0000
  H   H1972     1.0  0.50600  0.33092  0.61652  1.0000
  H   H1973     1.0  0.57279  0.46236  0.88891  1.0000
  H   H1974     1.0  0.57884  0.28842  0.26889  1.0000
  C   C1172     1.0  0.73839  0.36294  0.00734  1.0000
  H   H1975     1.0  0.60387  0.41596  0.25707  1.0000
  H   H1976     1.0  0.66915  0.39004  0.80739  1.0000
  H   H1977     1.0  0.60065  0.29199  0.24293  1.0000
  C   C1173     1.0  0.73209  0.37344  0.00617  1.0000
  H   H1978     1.0  0.58843  0.44664  0.76059  1.0000
  H   H1979     1.0  0.57261  0.47485  0.84419  1.0000
  C   C1174     1.0  0.72233  0.37194  0.98124  1.0000
  H   H1980     1.0  0.62602  0.44103  0.01948  1.0000
  C   C1175     1.0  0.60493  0.45688  0.76767  1.0000
  H   H1981     1.0  0.58738  0.38875  0.39769  1.0000
  H   H1982     1.0  0.62299  0.37709  0.85615  1.0000
  H   H1983     1.0  0.73142  0.35417  0.02808  1.0000
  H   H1984     1.0  0.67652  0.48180  0.70448  1.0000
  C   C1176     1.0  0.55241  0.40491  0.21443  1.0000
  C   C1177     1.0  0.52031  0.45923  0.03161  1.0000
  C   C1178     1.0  0.58839  0.39625  0.41444  1.0000
  H   H1985     1.0  0.60684  0.40790  0.86758  1.0000
  C   C1179     1.0  0.53158  0.47020  0.02259  1.0000
  C   C1180     1.0  0.67808  0.42559  0.63281  1.0000
  H   H1986     1.0  0.73875  0.38252  0.98837  1.0000
  H   H1987     1.0  0.72750  0.37341  0.04123  1.0000
  H   H1988     1.0  0.64316  0.33245  0.86244  1.0000
  C   C1181     1.0  0.56477  0.38821  0.86767  1.0000
  H   H1989     1.0  0.56972  0.46390  0.79393  1.0000
  H   H1990     1.0  0.64149  0.43340  0.04847  1.0000
  Fe  Fe150     1.0  0.50899  0.41865  0.94621  1.0000
  H   H1991     1.0  0.71776  0.37938  0.98200  1.0000
  H   H1992     1.0  0.72642  0.37257  0.94497  1.0000
  H   H1993     1.0  0.71537  0.36298  0.99807  1.0000
  C   C1182     1.0  0.61245  0.35805  0.88629  1.0000
  C   C1183     1.0  0.60302  0.36165  0.91895  1.0000
  H   H1994     1.0  0.62787  0.36845  0.89961  1.0000
  H   H1995     1.0  0.64043  0.35567  0.88543  1.0000
  H   H1996     1.0  0.63013  0.34670  0.86488  1.0000
  H   H1997     1.0  0.61353  0.34926  0.90519  1.0000
  H   H1998     1.0  0.60101  0.37000  0.90065  1.0000
  H   H1999     1.0  0.59449  0.35405  0.93260  1.0000
  H   H2000     1.0  0.60632  0.36341  0.94800  1.0000
  N   N59       1.0  0.62736  0.39541  0.53211  1.0000
  C   C1184     1.0  0.63828  0.39904  0.54894  1.0000
  C   C1185     1.0  0.63123  0.39468  0.48356  1.0000
  C   C1186     1.0  0.62103  0.40547  0.53191  1.0000
  C   C1187     1.0  0.61847  0.38353  0.56305  1.0000
  C   C1188     1.0  0.62348  0.37223  0.57325  1.0000
  C   C1189     1.0  0.63562  0.40058  0.59787  1.0000
  C   C1190     1.0  0.61014  0.40441  0.51143  1.0000
  C   C1191     1.0  0.64264  0.39011  0.46983  1.0000
  C   C1192     1.0  0.64378  0.38693  0.42466  1.0000
  C   C1193     1.0  0.61394  0.36141  0.60988  1.0000
  C   C1194     1.0  0.64705  0.40248  0.61385  1.0000
  C   C1195     1.0  0.60483  0.41531  0.51308  1.0000
  H   H2001     1.0  0.64452  0.40790  0.52512  1.0000
  H   H2002     1.0  0.64372  0.39234  0.54833  1.0000
  H   H2003     1.0  0.62359  0.38887  0.47575  1.0000
  H   H2004     1.0  0.63340  0.40394  0.45863  1.0000
  H   H2005     1.0  0.62763  0.41455  0.51271  1.0000
  H   H2006     1.0  0.61746  0.40599  0.56712  1.0000
  H   H2007     1.0  0.61409  0.38480  0.59620  1.0000
  H   H2008     1.0  0.61086  0.38078  0.54855  1.0000
  H   H2009     1.0  0.63153  0.37418  0.58593  1.0000
  H   H2010     1.0  0.62579  0.36920  0.54211  1.0000
  H   H2011     1.0  0.63220  0.40874  0.59876  1.0000
  H   H2012     1.0  0.62884  0.39237  0.62310  1.0000
  H   H2013     1.0  0.60279  0.39593  0.53096  1.0000
  H   H2014     1.0  0.61287  0.40424  0.47545  1.0000
  H   H2015     1.0  0.65091  0.39749  0.46550  1.0000
  H   H2016     1.0  0.64260  0.38188  0.49573  1.0000
  H   H2017     1.0  0.65215  0.38397  0.41525  1.0000
  H   H2018     1.0  0.63587  0.37932  0.42761  1.0000
  H   H2019     1.0  0.64430  0.39503  0.39689  1.0000
  H   H2020     1.0  0.61106  0.36389  0.64207  1.0000
  H   H2021     1.0  0.60590  0.35858  0.59781  1.0000
  H   H2022     1.0  0.61777  0.35346  0.61722  1.0000
  H   H2023     1.0  0.64483  0.40388  0.64835  1.0000
  H   H2024     1.0  0.65059  0.39429  0.61597  1.0000
  H   H2025     1.0  0.65416  0.41072  0.59016  1.0000
  H   H2026     1.0  0.59732  0.41472  0.49707  1.0000
  H   H2027     1.0  0.60121  0.41527  0.54903  1.0000
  H   H2028     1.0  0.61187  0.42413  0.49451  1.0000
  C   C1196     1.0  0.56591  0.44691  0.77840  1.0000
  C   C1197     1.0  0.55225  0.44470  0.78591  1.0000
  H   H2029     1.0  0.56772  0.42996  0.85488  1.0000
  H   H2030     1.0  0.57048  0.45201  0.74188  1.0000
  H   H2031     1.0  0.56783  0.43786  0.78441  1.0000
  H   H2032     1.0  0.54925  0.43940  0.76313  1.0000
  H   H2033     1.0  0.54728  0.43932  0.82182  1.0000
  H   H2034     1.0  0.54987  0.45356  0.77829  1.0000
  H   H2035     1.0  0.57430  0.42404  0.92563  1.0000
  C   C1198     1.0  0.60137  0.32051  0.18169  1.0000
  C   C1199     1.0  0.59206  0.32525  0.21124  1.0000
  C   C1200     1.0  0.59515  0.33926  0.19586  1.0000
  H   H2036     1.0  0.61007  0.32437  0.18813  1.0000
  H   H2037     1.0  0.60247  0.32492  0.14495  1.0000
  H   H2038     1.0  0.57990  0.30376  0.27097  1.0000
  H   H2039     1.0  0.64902  0.37892  0.08724  1.0000
  H   H2040     1.0  0.58276  0.32160  0.20948  1.0000
  H   H2041     1.0  0.59223  0.32260  0.24733  1.0000
  H   H2042     1.0  0.59507  0.34259  0.15990  1.0000
  H   H2043     1.0  0.58827  0.34232  0.21770  1.0000
  H   H2044     1.0  0.60418  0.34341  0.19934  1.0000
  C   C1201     1.0  0.63006  0.37689  0.12163  1.0000
  C   C1202     1.0  0.64145  0.37209  0.11514  1.0000
  C   C1203     1.0  0.64562  0.37030  0.15839  1.0000
  H   H2045     1.0  0.61458  0.35791  0.11793  1.0000
  H   H2046     1.0  0.62362  0.37120  0.15529  1.0000
  H   H2047     1.0  0.63977  0.36314  0.10765  1.0000
  H   H2048     1.0  0.55534  0.38382  0.86808  1.0000
  H   H2049     1.0  0.53838  0.31657  0.04168  1.0000
  H   H2050     1.0  0.54629  0.39146  0.39000  1.0000
  C   C1204     1.0  0.57847  0.42222  0.89323  1.0000
  N   N60       1.0  0.62362  0.37717  0.08495  1.0000
  H   H2051     1.0  0.58084  0.40312  0.78554  1.0000
  H   H2052     1.0  0.62526  0.31953  0.14964  1.0000
  C   C1205     1.0  0.58575  0.38554  0.84460  1.0000
  H   H2053     1.0  0.60604  0.37497  0.13098  1.0000
  H   H2054     1.0  0.62495  0.35444  0.79941  1.0000
  C   C1206     1.0  0.61911  0.36420  0.08284  1.0000
  H   H2055     1.0  0.62670  0.36052  0.06947  1.0000
  H   H2056     1.0  0.62949  0.35515  0.71750  1.0000
  H   H2057     1.0  0.64001  0.48003  0.20688  1.0000
  H   H2058     1.0  0.57588  0.28964  0.34726  1.0000
  C   C1207     1.0  0.58465  0.29649  0.27431  1.0000
  H   H2059     1.0  0.57768  0.44555  0.88556  1.0000
  H   H2060     1.0  0.56411  0.39882  0.43783  1.0000
  H   H2061     1.0  0.58808  0.42250  0.89076  1.0000
  C   C1208     1.0  0.62479  0.36808  0.86877  1.0000
  H   H2062     1.0  0.60865  0.35644  0.85814  1.0000
  C   C1209     1.0  0.58889  0.37919  0.48041  1.0000
  H   H2063     1.0  0.60111  0.34877  0.02685  1.0000
  C   C1210     1.0  0.61264  0.38173  0.09958  1.0000
  H   H2064     1.0  0.58448  0.37938  0.87886  1.0000
  H   H2065     1.0  0.59888  0.40313  0.80593  1.0000
  C   C1211     1.0  0.64834  0.35174  0.82266  1.0000
  H   H2066     1.0  0.61706  0.35029  0.01899  1.0000
  H   H2067     1.0  0.56813  0.39037  0.39925  1.0000
  C   C1212     1.0  0.52687  0.39009  0.10753  1.0000
  H   H2068     1.0  0.58659  0.37215  0.46265  1.0000
  H   H2069     1.0  0.56534  0.37550  0.93162  1.0000
  H   H2070     1.0  0.58523  0.37476  0.51780  1.0000
  H   H2071     1.0  0.59891  0.38260  0.47188  1.0000
  C   C1213     1.0  0.65132  0.34049  0.84876  1.0000
  H   H2072     1.0  0.54142  0.38285  0.52705  1.0000
  H   H2073     1.0  0.56569  0.39826  0.85687  1.0000
  H   H2074     1.0  0.64437  0.38376  0.87816  1.0000
  H   H2075     1.0  0.60769  0.38245  0.07316  1.0000
  C   C1214     1.0  0.59311  0.39862  0.84158  1.0000
  H   H2076     1.0  0.61193  0.46585  0.69424  1.0000
  C   C1215     1.0  0.56551  0.38519  0.91775  1.0000
  H   H2077     1.0  0.57776  0.37194  0.00223  1.0000
  H   H2078     1.0  0.59581  0.39475  0.90947  1.0000
  H   H2079     1.0  0.62194  0.36886  0.79208  1.0000
  H   H2080     1.0  0.58153  0.37866  0.04555  1.0000
  H   H2081     1.0  0.63780  0.39372  0.04533  1.0000
  C   C1216     1.0  0.65086  0.38117  0.85300  1.0000
  C   C1217     1.0  0.57752  0.43157  0.85210  1.0000
  H   H2082     1.0  0.61838  0.39428  0.13910  1.0000
  C   C1218     1.0  0.63169  0.38585  0.03961  1.0000
  H   H2083     1.0  0.64531  0.37565  0.02471  1.0000
  H   H2084     1.0  0.65677  0.35941  0.80968  1.0000
  H   H2085     1.0  0.66581  0.39483  0.85839  1.0000
  C   C1219     1.0  0.61511  0.39453  0.10847  1.0000
  C   C1220     1.0  0.60130  0.39840  0.87317  1.0000
  H   H2086     1.0  0.58712  0.40444  0.85017  1.0000
  H   H2087     1.0  0.66724  0.44290  0.66539  1.0000
  H   H2088     1.0  0.55931  0.35421  0.02434  1.0000
  H   H2089     1.0  0.64549  0.34940  0.79358  1.0000
  H   H2090     1.0  0.57397  0.39103  0.92003  1.0000
  C   C1221     1.0  0.56938  0.39989  0.40224  1.0000
  N   N61       1.0  0.58304  0.45515  0.81394  1.0000
  H   H2091     1.0  0.58231  0.42976  0.82061  1.0000
  H   H2092     1.0  0.62202  0.40152  0.07890  1.0000
  H   H2093     1.0  0.60083  0.36235  0.07495  1.0000
  C   C1222     1.0  0.60992  0.36242  0.05468  1.0000
  C   C1223     1.0  0.58340  0.38979  0.46658  1.0000
  C   C1224     1.0  0.57697  0.37007  0.03926  1.0000
  C   C1225     1.0  0.63968  0.38041  0.00745  1.0000
  C   C1226     1.0  0.60854  0.35023  0.04314  1.0000
  H   H2094     1.0  0.56366  0.45113  0.84359  1.0000
  H   H2095     1.0  0.60945  0.41013  0.94553  1.0000
  N   N62       1.0  0.63452  0.36622  0.83243  1.0000
  H   H2096     1.0  0.62618  0.39001  0.01926  1.0000
  H   H2097     1.0  0.59093  0.46281  0.74133  1.0000
  H   H2098     1.0  0.60752  0.39266  0.86597  1.0000
  C   C1227     1.0  0.57040  0.45453  0.80925  1.0000
  C   C1228     1.0  0.62205  0.30943  0.16548  1.0000
  H   H2099     1.0  0.59347  0.44023  0.41596  1.0000
  C   C1229     1.0  0.52052  0.36624  0.03996  1.0000
  C   C1230     1.0  0.60353  0.39873  0.11732  1.0000
  H   H2100     1.0  0.60551  0.40782  0.12404  1.0000
  C   C1231     1.0  0.56628  0.28250  0.93080  1.0000
  H   H2101     1.0  0.59653  0.39208  0.14780  1.0000
  H   H2102     1.0  0.59402  0.46157  0.17820  1.0000
  H   H2103     1.0  0.62209  0.45888  0.71920  1.0000
  H   H2104     1.0  0.63401  0.37369  0.99524  1.0000
  H   H2105     1.0  0.61271  0.36995  0.02232  1.0000
  H   H2106     1.0  0.61052  0.40692  0.00314  1.0000
  C   C1232     1.0  0.59139  0.45527  0.76957  1.0000
  H   H2107     1.0  0.59983  0.39954  0.08750  1.0000
  H   H2108     1.0  0.65430  0.38643  0.94454  1.0000
  H   H2109     1.0  0.60628  0.34245  0.07447  1.0000
  H   H2110     1.0  0.56344  0.36474  0.10354  1.0000
  H   H2111     1.0  0.60920  0.44931  0.71022  1.0000
  C   C1233     1.0  0.55504  0.38775  0.94917  1.0000
  C   C1234     1.0  0.61588  0.41017  0.96664  1.0000
  H   H2112     1.0  0.62136  0.40380  0.95900  1.0000
  C   C1235     1.0  0.56365  0.36586  0.06726  1.0000
  H   H2113     1.0  0.58579  0.39621  0.48647  1.0000
  C   C1236     1.0  0.58292  0.44478  0.85300  1.0000
  C   C1237     1.0  0.61244  0.45778  0.71990  1.0000
  H   H2114     1.0  0.57355  0.41290  0.89441  1.0000
  N   N63       1.0  0.59875  0.30674  0.19067  1.0000
  H   H2115     1.0  0.56138  0.34664  0.07702  1.0000
  H   H2116     1.0  0.55945  0.37331  0.05646  1.0000
  H   H2117     1.0  0.74658  0.34487  0.05465  1.0000
  H   H2118     1.0  0.55486  0.39739  0.93626  1.0000
  C   C1238     1.0  0.64507  0.37765  0.81622  1.0000
  C   C1239     1.0  0.64817  0.39047  0.96530  1.0000
  S   S299      1.0  0.51828  0.42230  0.99895  1.0000
  H   H2119     1.0  0.64293  0.39475  0.94405  1.0000
  H   H2120     1.0  0.53769  0.40627  0.05367  1.0000
  H   H2121     1.0  0.52349  0.33290  0.15659  1.0000
  H   H2122     1.0  0.55715  0.40427  0.06647  1.0000
  H   H2123     1.0  0.57956  0.41151  0.45718  1.0000
  H   H2124     1.0  0.65386  0.39767  0.97544  1.0000
  H   H2125     1.0  0.59830  0.40036  0.40701  1.0000
  H   H2126     1.0  0.62941  0.42564  0.91864  1.0000
  H   H2127     1.0  0.55613  0.38634  0.98407  1.0000
  C   C1240     1.0  0.52629  0.33953  0.21271  1.0000
  N   N64       1.0  0.58261  0.40591  0.39508  1.0000
  H   H2128     1.0  0.63794  0.41739  0.97971  1.0000
  H   H2129     1.0  0.60602  0.44886  0.79167  1.0000
  H   H2130     1.0  0.59216  0.44552  0.85691  1.0000
  C   C1241     1.0  0.58763  0.30212  0.17626  1.0000
  H   H2131     1.0  0.54634  0.34151  0.14740  1.0000
  H   H2132     1.0  0.54630  0.38149  0.95099  1.0000
  H   H2133     1.0  0.58049  0.43293  0.46582  1.0000
  C   C1242     1.0  0.53777  0.39860  0.08019  1.0000
  H   H2134     1.0  0.74942  0.43111  0.19302  1.0000
  C   C1243     1.0  0.62406  0.42322  0.95485  1.0000
  H   H2135     1.0  0.60979  0.30787  0.12371  1.0000
  H   H2136     1.0  0.61806  0.42931  0.95902  1.0000
  Fe  Fe151     1.0  0.51548  0.40194  0.02326  1.0000
  H   H2137     1.0  0.64053  0.30826  0.14367  1.0000
  H   H2138     1.0  0.65251  0.37696  0.78899  1.0000
  C   C1244     1.0  0.59755  0.30050  0.23997  1.0000
  C   C1245     1.0  0.55704  0.35349  0.06151  1.0000
  C   C1246     1.0  0.52749  0.34182  0.16175  1.0000
  C   C1247     1.0  0.58418  0.41556  0.42009  1.0000
  C   C1248     1.0  0.60931  0.30420  0.16029  1.0000
  H   H2139     1.0  0.62686  0.42043  0.02174  1.0000
  H   H2140     1.0  0.53808  0.36620  0.08085  1.0000
  C   C1249     1.0  0.54090  0.34734  0.13312  1.0000
  C   C1250     1.0  0.63261  0.42403  0.98561  1.0000
  H   H2141     1.0  0.60885  0.46534  0.77605  1.0000
  H   H2142     1.0  0.57944  0.30356  0.19746  1.0000
  H   H2143     1.0  0.64641  0.36624  0.74144  1.0000
  H   H2144     1.0  0.59399  0.41916  0.41681  1.0000
  H   H2145     1.0  0.54396  0.35621  0.14056  1.0000
  C   C1251     1.0  0.58781  0.46700  0.82475  1.0000
  H   H2146     1.0  0.65957  0.40028  0.81265  1.0000
  H   H2147     1.0  0.64214  0.38569  0.80020  1.0000
  C   C1252     1.0  0.57917  0.42669  0.40592  1.0000
  H   H2148     1.0  0.52215  0.34834  0.15288  1.0000
  N   N65       1.0  0.54345  0.34930  0.08227  1.0000
  C   C1253     1.0  0.63809  0.36938  0.74422  1.0000
  H   H2149     1.0  0.64830  0.41609  0.03146  1.0000
  H   H2150     1.0  0.59593  0.46666  0.83731  1.0000
  H   H2151     1.0  0.62844  0.44705  0.96067  1.0000
  N   N66       1.0  0.64094  0.43656  0.97812  1.0000
  C   C1254     1.0  0.63198  0.36532  0.70979  1.0000
  H   H2152     1.0  0.64079  0.37960  0.73380  1.0000
  H   H2153     1.0  0.60377  0.30652  0.25303  1.0000
  C   C1255     1.0  0.58342  0.43663  0.42801  1.0000
  H   H2154     1.0  0.59100  0.47493  0.79327  1.0000
  H   H2155     1.0  0.58572  0.41875  0.32850  1.0000
  H   H2156     1.0  0.62194  0.30742  0.20189  1.0000
  H   H2157     1.0  0.63712  0.44542  0.89121  1.0000
  C   C1256     1.0  0.57867  0.47046  0.86070  1.0000
  H   H2158     1.0  0.54405  0.36459  0.02616  1.0000
  N   N67       1.0  0.64645  0.46639  0.14340  1.0000
  C   C1257     1.0  0.63338  0.44528  0.98669  1.0000
  C   C1258     1.0  0.54927  0.40138  0.38735  1.0000
  H   H2159     1.0  0.66725  0.43519  0.60045  1.0000
  C   C1259     1.0  0.58521  0.29279  0.32360  1.0000
  C   C1260     1.0  0.53818  0.35930  0.06123  1.0000
  H   H2160     1.0  0.57082  0.28857  0.14162  1.0000
  H   H2161     1.0  0.55354  0.32869  0.06993  1.0000
  H   H2162     1.0  0.54501  0.40643  0.36397  1.0000
  H   H2163     1.0  0.62369  0.36851  0.71056  1.0000
  H   H2164     1.0  0.63830  0.36934  0.67480  1.0000
  C   C1261     1.0  0.53876  0.33760  0.07065  1.0000
  H   H2165     1.0  0.54260  0.32459  0.12527  1.0000
  H   H2166     1.0  0.65189  0.43305  0.91938  1.0000
  H   H2167     1.0  0.57693  0.41824  0.19695  1.0000
  H   H2168     1.0  0.60798  0.29414  0.16647  1.0000
  H   H2169     1.0  0.59717  0.39761  0.32368  1.0000
  C   C1262     1.0  0.65474  0.42539  0.01594  1.0000
  C   C1263     1.0  0.54379  0.32668  0.08801  1.0000
  C   C1264     1.0  0.56307  0.40620  0.36879  1.0000
  H   H2170     1.0  0.58603  0.28246  0.20728  1.0000
  C   C1265     1.0  0.58483  0.28840  0.17653  1.0000
  H   H2171     1.0  0.54079  0.33949  0.03285  1.0000
  C   C1266     1.0  0.58954  0.41165  0.34529  1.0000
  H   H2172     1.0  0.59902  0.41668  0.34199  1.0000
  C   C1267     1.0  0.59046  0.40254  0.31610  1.0000
  H   H2173     1.0  0.73011  0.27772  0.04130  1.0000
  H   H2174     1.0  0.67447  0.28001  0.95785  1.0000
  C   C1268     1.0  0.57399  0.28002  0.88949  1.0000
  C   C1269     1.0  0.57195  0.28352  0.17426  1.0000
  H   H2175     1.0  0.58218  0.43102  0.36859  1.0000
  C   C1270     1.0  0.64992  0.44100  0.93094  1.0000
  H   H2176     1.0  0.57950  0.44439  0.41825  1.0000
  H   H2177     1.0  0.54608  0.40276  0.42146  1.0000
  C   C1271     1.0  0.64641  0.44932  0.89246  1.0000
  H   H2178     1.0  0.58413  0.26656  0.97146  1.0000
  C   C1272     1.0  0.64778  0.43536  0.01368  1.0000
  H   H2179     1.0  0.53453  0.49675  0.13228  1.0000
  H   H2180     1.0  0.71527  0.27799  0.96492  1.0000
  H   H2181     1.0  0.56911  0.42374  0.41791  1.0000
  H   H2182     1.0  0.65374  0.44254  0.83639  1.0000
  H   H2183     1.0  0.67764  0.41911  0.61165  1.0000
  H   H2184     1.0  0.66458  0.45479  0.84505  1.0000
  C   C1273     1.0  0.63143  0.30398  0.14109  1.0000
  C   C1274     1.0  0.53543  0.38438  0.29078  1.0000
  H   H2185     1.0  0.67096  0.42123  0.66599  1.0000
  C   C1275     1.0  0.65499  0.45130  0.84556  1.0000
  H   H2186     1.0  0.70903  0.40210  0.10806  1.0000
  C   C1276     1.0  0.53729  0.31504  0.07881  1.0000
  H   H2187     1.0  0.65891  0.44636  0.93148  1.0000
  H   H2188     1.0  0.70602  0.45848  0.13581  1.0000
  H   H2189     1.0  0.52875  0.33416  0.08393  1.0000
  H   H2190     1.0  0.64687  0.45852  0.89765  1.0000
  Fe  Fe152     1.0  0.52225  0.39926  0.92643  1.0000
  H   H2191     1.0  0.65290  0.45812  0.81957  1.0000
  H   H2192     1.0  0.51563  0.44606  0.97105  1.0000
  H   H2193     1.0  0.52351  0.45086  0.03118  1.0000
  C   C1277     1.0  0.52910  0.38773  0.76744  1.0000
  H   H2194     1.0  0.66015  0.42588  0.98139  1.0000
  H   H2195     1.0  0.68530  0.47426  0.73602  1.0000
  H   H2196     1.0  0.52266  0.41412  0.12488  1.0000
  H   H2197     1.0  0.59109  0.28736  0.14632  1.0000
  C   C1278     1.0  0.53017  0.38208  0.84567  1.0000
  H   H2198     1.0  0.71909  0.42078  0.06493  1.0000
  H   H2199     1.0  0.58066  0.50894  0.10504  1.0000
  H   H2200     1.0  0.64750  0.48035  0.27425  1.0000
  H   H2201     1.0  0.51940  0.37106  0.06670  1.0000
  H   H2202     1.0  0.68324  0.44165  0.57481  1.0000
  H   H2203     1.0  0.56577  0.40428  0.33540  1.0000
  H   H2204     1.0  0.57955  0.30209  0.81350  1.0000
  H   H2205     1.0  0.73764  0.35776  0.09391  1.0000
  S   S300      1.0  0.52619  0.41955  0.89404  1.0000
  H   H2206     1.0  0.57597  0.40677  0.16622  1.0000
  H   H2207     1.0  0.58168  0.39562  0.32334  1.0000
  H   H2208     1.0  0.53676  0.47394  0.98611  1.0000
  H   H2209     1.0  0.62430  0.45122  0.13507  1.0000
  H   H2210     1.0  0.58013  0.42286  0.13569  1.0000
  C   C1279     1.0  0.67855  0.47291  0.71660  1.0000
  H   H2211     1.0  0.68712  0.42733  0.63916  1.0000
  C   C1280     1.0  0.52737  0.38981  0.81074  1.0000
  H   H2212     1.0  0.68298  0.44599  0.65536  1.0000
  H   H2213     1.0  0.65462  0.44420  0.00781  1.0000
  C   C1281     1.0  0.70620  0.40319  0.14279  1.0000
  C   C1282     1.0  0.66330  0.42689  0.04576  1.0000
  H   H2214     1.0  0.69866  0.40757  0.14471  1.0000
  C   C1283     1.0  0.70120  0.39027  0.17608  1.0000
  C   C1284     1.0  0.57433  0.41576  0.16762  1.0000
  H   H2215     1.0  0.54461  0.38333  0.27762  1.0000
  C   C1285     1.0  0.67609  0.43759  0.60789  1.0000
  H   H2216     1.0  0.52881  0.36157  0.54196  1.0000
  H   H2217     1.0  0.67064  0.43561  0.02976  1.0000
  H   H2218     1.0  0.69753  0.39072  0.21135  1.0000
  H   H2219     1.0  0.57020  0.27365  0.17568  1.0000
  C   C1286     1.0  0.60135  0.26268  0.96776  1.0000
  C   C1287     1.0  0.72652  0.42509  0.07746  1.0000
  H   H2220     1.0  0.63186  0.30583  0.10431  1.0000
  H   H2221     1.0  0.65936  0.48841  0.22188  1.0000
  H   H2222     1.0  0.68934  0.46435  0.54443  1.0000
  H   H2223     1.0  0.70619  0.42884  0.11042  1.0000
  C   C1288     1.0  0.59492  0.40924  0.26512  1.0000
  C   C1289     1.0  0.73225  0.43814  0.04411  1.0000
  H   H2224     1.0  0.62914  0.29390  0.15682  1.0000
  C   C1290     1.0  0.67591  0.44664  0.63751  1.0000
  H   H2225     1.0  0.55283  0.39628  0.20513  1.0000
  H   H2226     1.0  0.57065  0.48058  0.29001  1.0000
  H   H2227     1.0  0.71362  0.48005  0.55663  1.0000
  C   C1291     1.0  0.56103  0.41529  0.17193  1.0000
  C   C1292     1.0  0.71715  0.41075  0.15391  1.0000
  H   H2228     1.0  0.58835  0.41407  0.25471  1.0000
  C   C1293     1.0  0.56137  0.47770  0.28643  1.0000
  H   H2229     1.0  0.69370  0.38494  0.16629  1.0000
  H   H2230     1.0  0.55652  0.40460  0.24328  1.0000
  H   H2231     1.0  0.55505  0.47256  0.32075  1.0000
  H   H2232     1.0  0.74523  0.43297  0.99559  1.0000
  H   H2233     1.0  0.56131  0.47146  0.26431  1.0000
  H   H2234     1.0  0.53863  0.34693  0.60795  1.0000
  H   H2235     1.0  0.66761  0.41924  0.04930  1.0000
  H   H2236     1.0  0.56518  0.28447  0.20332  1.0000
  C   C1294     1.0  0.53524  0.41036  0.18861  1.0000
  C   C1295     1.0  0.71148  0.42997  0.13532  1.0000
  C   C1296     1.0  0.66660  0.47250  0.56256  1.0000
  C   C1297     1.0  0.59060  0.28996  0.79287  1.0000
  H   H2237     1.0  0.53767  0.40561  0.16224  1.0000
  N   N68       1.0  0.67716  0.45978  0.61266  1.0000
  C   C1298     1.0  0.68942  0.46599  0.57808  1.0000
  N   N69       1.0  0.53936  0.40528  0.22950  1.0000
  C   C1299     1.0  0.50894  0.49333  0.00178  1.0000
  C   C1300     1.0  0.63390  0.46770  0.97992  1.0000
  H   H2238     1.0  0.53564  0.46266  0.08618  1.0000
  H   H2239     1.0  0.55906  0.41372  0.14034  1.0000
  H   H2240     1.0  0.64322  0.48447  0.12967  1.0000
  H   H2241     1.0  0.68570  0.45966  0.69071  1.0000
  N   N70       1.0  0.72191  0.42420  0.12729  1.0000
  C   C1301     1.0  0.53647  0.38266  0.56188  1.0000
  H   H2242     1.0  0.70005  0.45257  0.58791  1.0000
  H   H2243     1.0  0.69140  0.47614  0.57155  1.0000
  H   H2244     1.0  0.72516  0.44304  0.04200  1.0000
  C   C1302     1.0  0.66742  0.45971  0.58823  1.0000
  C   C1303     1.0  0.70356  0.44871  0.13590  1.0000
  H   H2245     1.0  0.65830  0.42678  0.08047  1.0000
  C   C1304     1.0  0.71239  0.47042  0.55512  1.0000
  H   H2246     1.0  0.54733  0.44244  0.27123  1.0000
  H   H2247     1.0  0.54011  0.42016  0.17172  1.0000
  H   H2248     1.0  0.66880  0.45464  0.56219  1.0000
  H   H2249     1.0  0.53816  0.31386  0.61905  1.0000
  C   C1305     1.0  0.55737  0.48891  0.26613  1.0000
  H   H2250     1.0  0.55712  0.49460  0.29030  1.0000
  H   H2251     1.0  0.71248  0.47011  0.51989  1.0000
  H   H2252     1.0  0.55998  0.42443  0.17294  1.0000
  H   H2253     1.0  0.68942  0.27543  0.02533  1.0000
  C   C1306     1.0  0.58515  0.47954  0.88177  1.0000
  C   C1307     1.0  0.70051  0.46209  0.58943  1.0000
  H   H2254     1.0  0.65831  0.45467  0.61270  1.0000
  H   H2255     1.0  0.66128  0.26742  0.98983  1.0000
  H   H2256     1.0  0.56860  0.49016  0.19902  1.0000
  H   H2257     1.0  0.69222  0.47524  0.65488  1.0000
  H   H2258     1.0  0.58953  0.28515  0.32923  1.0000
  H   H2259     1.0  0.72013  0.46727  0.56337  1.0000
  H   H2260     1.0  0.52204  0.42644  0.15132  1.0000
  H   H2261     1.0  0.51662  0.33533  0.23263  1.0000
  C   C1308     1.0  0.63659  0.47638  0.08256  1.0000
  C   C1309     1.0  0.67460  0.46669  0.64756  1.0000
  H   H2262     1.0  0.66531  0.46218  0.67140  1.0000
  H   H2263     1.0  0.55498  0.42695  0.24122  1.0000
  H   H2264     1.0  0.70105  0.46241  0.62387  1.0000
  N   N71       1.0  0.69946  0.26300  0.00540  1.0000
  H   H2265     1.0  0.69614  0.44343  0.16753  1.0000
  H   H2266     1.0  0.67460  0.47620  0.63097  1.0000
  H   H2267     1.0  0.50861  0.41419  0.16187  1.0000
  C   C1310     1.0  0.68362  0.46831  0.67635  1.0000
  H   H2268     1.0  0.52367  0.39722  0.81732  1.0000
  H   H2269     1.0  0.54634  0.48295  0.19773  1.0000
  C   C1311     1.0  0.75339  0.35272  0.02727  1.0000
  H   H2270     1.0  0.59041  0.30075  0.33177  1.0000
  C   C1312     1.0  0.56634  0.49660  0.21894  1.0000
  C   C1313     1.0  0.74319  0.42473  0.13968  1.0000
  C   C1314     1.0  0.67028  0.27261  0.99061  1.0000
  H   H2271     1.0  0.74165  0.44697  0.97221  1.0000
  H   H2272     1.0  0.54802  0.48560  0.26432  1.0000
  H   H2273     1.0  0.61541  0.27801  0.79620  1.0000
  H   H2274     1.0  0.66275  0.47718  0.58713  1.0000
  H   H2275     1.0  0.73316  0.41970  0.07251  1.0000
  H   H2276     1.0  0.67564  0.47846  0.54081  1.0000
  H   H2277     1.0  0.52640  0.36682  0.28319  1.0000
  C   C1315     1.0  0.58732  0.28797  0.87575  1.0000
  H   H2278     1.0  0.58732  0.29769  0.87306  1.0000
  C   C1316     1.0  0.65829  0.47137  0.53172  1.0000
  S   S301      1.0  0.60882  0.27653  0.97787  1.0000
  H   H2279     1.0  0.54794  0.47460  0.04383  1.0000
  H   H2280     1.0  0.62609  0.31306  0.83807  1.0000
  C   C1317     1.0  0.53125  0.34218  0.59620  1.0000
  H   H2281     1.0  0.54417  0.45947  0.03657  1.0000
  C   C1318     1.0  0.65333  0.47923  0.24314  1.0000
  H   H2282     1.0  0.64970  0.46119  0.96466  1.0000
  H   H2283     1.0  0.52417  0.34996  0.66814  1.0000
  C   C1319     1.0  0.64052  0.45784  0.98931  1.0000
  H   H2284     1.0  0.53075  0.44663  0.90059  1.0000
  H   H2285     1.0  0.57838  0.48243  0.90478  1.0000
  H   H2286     1.0  0.55390  0.50963  0.13663  1.0000
  C   C1320     1.0  0.51858  0.41643  0.15628  1.0000
  H   H2287     1.0  0.65854  0.48066  0.51168  1.0000
  C   C1321     1.0  0.52409  0.36056  0.57811  1.0000
  C   C1322     1.0  0.71463  0.44372  0.13431  1.0000
  H   H2288     1.0  0.71450  0.40978  0.19127  1.0000
  H   H2289     1.0  0.57351  0.27009  0.89894  1.0000
  C   C1323     1.0  0.62697  0.48314  0.07746  1.0000
  H   H2290     1.0  0.53534  0.34420  0.55879  1.0000
  H   H2291     1.0  0.54380  0.32632  0.56693  1.0000
  H   H2292     1.0  0.52967  0.36589  0.33707  1.0000
  C   C1324     1.0  0.54027  0.32397  0.60469  1.0000
  H   H2293     1.0  0.67921  0.46887  0.04844  1.0000
  H   H2294     1.0  0.62454  0.46471  0.00335  1.0000
  C   C1325     1.0  0.52888  0.32818  0.61833  1.0000
  H   H2295     1.0  0.52749  0.31216  0.09759  1.0000
  H   H2296     1.0  0.51670  0.34857  0.51783  1.0000
  H   H2297     1.0  0.74245  0.39377  0.13790  1.0000
  H   H2298     1.0  0.57940  0.31293  0.73724  1.0000
  C   C1326     1.0  0.73194  0.42989  0.14529  1.0000
  H   H2299     1.0  0.71376  0.26958  0.91059  1.0000
  H   H2300     1.0  0.52875  0.47784  0.03372  1.0000
  H   H2301     1.0  0.51502  0.45750  0.06776  1.0000
  H   H2302     1.0  0.53779  0.49382  0.20856  1.0000
  H   H2303     1.0  0.62921  0.49205  0.08547  1.0000
  H   H2304     1.0  0.61932  0.47028  0.28056  1.0000
  H   H2305     1.0  0.51781  0.41229  0.22708  1.0000
  H   H2306     1.0  0.57393  0.29658  0.74740  1.0000
  C   C1327     1.0  0.54516  0.42622  0.24729  1.0000
  H   H2307     1.0  0.50687  0.47446  0.95646  1.0000
  H   H2308     1.0  0.72193  0.44956  0.10340  1.0000
  C   C1328     1.0  0.69096  0.27082  0.99788  1.0000
  H   H2309     1.0  0.64880  0.46668  0.55263  1.0000
  H   H2310     1.0  0.54078  0.36674  0.59717  1.0000
  H   H2311     1.0  0.54742  0.32836  0.61841  1.0000
  H   H2312     1.0  0.66115  0.46616  0.50750  1.0000
  H   H2313     1.0  0.54118  0.50880  0.04357  1.0000
  H   H2314     1.0  0.53548  0.38848  0.31942  1.0000
  H   H2315     1.0  0.51737  0.37193  0.32615  1.0000
  C   C1329     1.0  0.61286  0.47803  0.22423  1.0000
  H   H2316     1.0  0.54364  0.48652  0.11931  1.0000
  C   C1330     1.0  0.54416  0.49149  0.18217  1.0000
  H   H2317     1.0  0.70782  0.27350  0.06927  1.0000
  H   H2318     1.0  0.73072  0.29064  0.99522  1.0000
  H   H2319     1.0  0.61691  0.28493  0.86178  1.0000
  H   H2320     1.0  0.72825  0.42888  0.18234  1.0000
  H   H2321     1.0  0.52674  0.39360  0.74070  1.0000
  S   S302      1.0  0.57387  0.48020  0.11853  1.0000
  H   H2322     1.0  0.62625  0.48498  0.04197  1.0000
  H   H2323     1.0  0.53161  0.33316  0.22380  1.0000
  H   H2324     1.0  0.57486  0.50048  0.22696  1.0000
  H   H2325     1.0  0.63349  0.46969  0.94410  1.0000
  H   H2326     1.0  0.53152  0.47199  0.91609  1.0000
  H   H2327     1.0  0.64166  0.45677  0.02401  1.0000
  C   C1331     1.0  0.66436  0.45816  0.10930  1.0000
  H   H2328     1.0  0.52116  0.47994  0.96417  1.0000
  C   C1332     1.0  0.53216  0.45673  0.88871  1.0000
  H   H2329     1.0  0.58266  0.28232  0.79618  1.0000
  C   C1333     1.0  0.53759  0.48873  0.14718  1.0000
  H   H2330     1.0  0.71768  0.44476  0.16466  1.0000
  N   N72       1.0  0.52043  0.34724  0.60591  1.0000
  H   H2331     1.0  0.63106  0.42832  0.18079  1.0000
  H   H2332     1.0  0.54053  0.40838  0.29377  1.0000
  C   C1334     1.0  0.75296  0.43179  0.15635  1.0000
  C   C1335     1.0  0.72559  0.28492  0.03056  1.0000
  H   H2333     1.0  0.71856  0.26581  0.00041  1.0000
  C   C1336     1.0  0.55597  0.50201  0.15915  1.0000
  C   C1337     1.0  0.73782  0.43754  0.99595  1.0000
  H   H2334     1.0  0.56982  0.28017  0.96074  1.0000
  C   C1338     1.0  0.52960  0.46190  0.92952  1.0000
  H   H2335     1.0  0.74078  0.41497  0.15998  1.0000
  H   H2336     1.0  0.73548  0.43992  0.12867  1.0000
  H   H2337     1.0  0.61731  0.48742  0.22154  1.0000
  H   H2338     1.0  0.63890  0.47634  0.98449  1.0000
  C   C1339     1.0  0.65583  0.46646  0.10158  1.0000
  H   H2339     1.0  0.52172  0.32267  0.60764  1.0000
  H   H2340     1.0  0.56625  0.29231  0.92299  1.0000
  H   H2341     1.0  0.58915  0.30483  0.71120  1.0000
  H   H2342     1.0  0.63240  0.30184  0.86711  1.0000
  H   H2343     1.0  0.54128  0.30746  0.09053  1.0000
  H   H2344     1.0  0.70837  0.38538  0.17526  1.0000
  C   C1340     1.0  0.63886  0.47492  0.13021  1.0000
  H   H2345     1.0  0.61354  0.29732  0.78799  1.0000
  H   H2346     1.0  0.70487  0.42509  0.16956  1.0000
  H   H2347     1.0  0.56183  0.49849  0.13536  1.0000
  S   S303      1.0  0.59769  0.49794  0.03523  1.0000
  C   C1341     1.0  0.74556  0.36565  0.07244  1.0000
  H   H2348     1.0  0.65896  0.47318  0.25387  1.0000
  H   H2349     1.0  0.60644  0.30573  0.82079  1.0000
  Fe  Fe153     1.0  0.57738  0.49267  0.04792  1.0000
  H   H2350     1.0  0.69812  0.26835  0.91234  1.0000
  H   H2351     1.0  0.52949  0.48073  0.16404  1.0000
  H   H2352     1.0  0.74081  0.36231  0.97171  1.0000
  H   H2353     1.0  0.59465  0.31019  0.77787  1.0000
  H   H2354     1.0  0.67016  0.46603  0.74013  1.0000
  H   H2355     1.0  0.74247  0.37408  0.07174  1.0000
  S   S304      1.0  0.60354  0.48817  0.15649  1.0000
  H   H2356     1.0  0.73083  0.43235  0.98341  1.0000
  H   H2357     1.0  0.58805  0.26757  0.84629  1.0000
  H   H2358     1.0  0.56973  0.28197  0.86150  1.0000
  H   H2359     1.0  0.59079  0.28503  0.90546  1.0000
  C   C1342     1.0  0.52533  0.35523  0.05506  1.0000
  H   H2360     1.0  0.61824  0.43359  0.20415  1.0000
  C   C1343     1.0  0.54176  0.43271  0.28362  1.0000
  H   H2361     1.0  0.61017  0.29457  0.89097  1.0000
  H   H2362     1.0  0.66887  0.27677  0.01929  1.0000
  C   C1344     1.0  0.62736  0.30371  0.84148  1.0000
  H   H2363     1.0  0.50856  0.47687  0.05102  1.0000
  C   C1345     1.0  0.52665  0.37149  0.31038  1.0000
  C   C1346     1.0  0.59688  0.27420  0.84149  1.0000
  H   H2364     1.0  0.60347  0.27313  0.77149  1.0000
  H   H2365     1.0  0.53599  0.45967  0.94927  1.0000
  C   C1347     1.0  0.58206  0.30419  0.74237  1.0000
  H   H2366     1.0  0.52611  0.32588  0.65611  1.0000
  C   C1348     1.0  0.52142  0.40907  0.19756  1.0000
  H   H2367     1.0  0.65909  0.44837  0.12435  1.0000
  H   H2368     1.0  0.66850  0.45659  0.03969  1.0000
  N   N73       1.0  0.59563  0.28713  0.83309  1.0000
  H   H2369     1.0  0.54351  0.42822  0.31582  1.0000
  H   H2370     1.0  0.74740  0.42551  0.10341  1.0000
  H   H2371     1.0  0.70029  0.44816  0.10562  1.0000
  C   C1349     1.0  0.64536  0.47359  0.21663  1.0000
  C   C1350     1.0  0.74502  0.39774  0.10130  1.0000
  H   H2372     1.0  0.66030  0.47995  0.15460  1.0000
  C   C1351     1.0  0.60771  0.29642  0.82248  1.0000
  H   H2373     1.0  0.63285  0.30338  0.80825  1.0000
  C   C1352     1.0  0.58685  0.30216  0.78410  1.0000
  C   C1353     1.0  0.61510  0.29405  0.85725  1.0000
  H   H2374     1.0  0.63729  0.44619  0.11129  1.0000
  H   H2375     1.0  0.53096  0.38716  0.22673  1.0000
  H   H2376     1.0  0.70807  0.28652  0.02520  1.0000
  H   H2377     1.0  0.59917  0.27132  0.87408  1.0000
  C   C1354     1.0  0.53149  0.39226  0.25261  1.0000
  C   C1355     1.0  0.74945  0.26506  0.04099  1.0000
  S   S305      1.0  0.52786  0.38385  0.90116  1.0000
  C   C1356     1.0  0.53255  0.36966  0.59448  1.0000
  C   C1357     1.0  0.67335  0.45929  0.06397  1.0000
  H   H2378     1.0  0.59136  0.48782  0.85488  1.0000
  S   S306      1.0  0.51299  0.39136  0.09665  1.0000
  H   H2379     1.0  0.61919  0.42874  0.15310  1.0000
  H   H2380     1.0  0.72586  0.29086  0.05376  1.0000
  H   H2381     1.0  0.51642  0.39929  0.20431  1.0000
  H   H2382     1.0  0.52807  0.41200  0.27730  1.0000
  C   C1358     1.0  0.54031  0.46645  0.04903  1.0000
  C   C1359     1.0  0.71181  0.27125  0.99935  1.0000
  C   C1360     1.0  0.62456  0.43352  0.17212  1.0000
  H   H2383     1.0  0.61805  0.47734  0.10074  1.0000
  H   H2384     1.0  0.59740  0.29051  0.76094  1.0000
  H   H2385     1.0  0.52568  0.35041  0.02814  1.0000
  H   H2386     1.0  0.69513  0.27846  0.96567  1.0000
  C   C1361     1.0  0.53779  0.41254  0.26363  1.0000
  C   C1362     1.0  0.51314  0.33933  0.54303  1.0000
  H   H2387     1.0  0.64509  0.48180  0.05537  1.0000
  H   H2388     1.0  0.52950  0.34831  0.22039  1.0000
  H   H2389     1.0  0.51866  0.34896  0.08687  1.0000
  H   H2390     1.0  0.63900  0.46489  0.24025  1.0000
  H   H2391     1.0  0.66977  0.46082  0.13202  1.0000
  H   H2392     1.0  0.59041  0.47511  0.90244  1.0000
  H   H2393     1.0  0.66162  0.47604  0.08389  1.0000
  H   H2394     1.0  0.63158  0.45389  0.19977  1.0000
  C   C1363     1.0  0.65319  0.47120  0.17433  1.0000
  C   C1364     1.0  0.51006  0.34035  0.59262  1.0000
  H   H2395     1.0  0.54172  0.46099  0.86769  1.0000
  H   H2396     1.0  0.53205  0.43259  0.29051  1.0000
  C   C1365     1.0  0.63128  0.44668  0.14311  1.0000
  H   H2397     1.0  0.65804  0.46463  0.18819  1.0000
  H   H2398     1.0  0.64388  0.44779  0.18413  1.0000
  C   C1366     1.0  0.70461  0.26310  0.92027  1.0000
  C   C1367     1.0  0.63849  0.45362  0.16957  1.0000
  H   H2399     1.0  0.51153  0.36310  0.03433  1.0000
  H   H2400     1.0  0.51169  0.35667  0.72778  1.0000
  H   H2401     1.0  0.63350  0.46742  0.07629  1.0000
  H   H2402     1.0  0.72430  0.40593  0.14810  1.0000
  H   H2403     1.0  0.52201  0.39222  0.26848  1.0000
  H   H2404     1.0  0.52002  0.33419  0.53727  1.0000
  H   H2405     1.0  0.67929  0.45317  0.06969  1.0000
  H   H2406     1.0  0.62989  0.47213  0.15644  1.0000
  H   H2407     1.0  0.54357  0.43133  0.21579  1.0000
  H   H2408     1.0  0.73955  0.44352  0.05449  1.0000
  H   H2409     1.0  0.51596  0.36395  0.57665  1.0000
  C   C1368     1.0  0.67824  0.26389  0.99694  1.0000
  S   S307      1.0  0.56375  0.50276  0.02841  1.0000
  N   N74       1.0  0.51230  0.46067  0.00016  1.0000
  H   H2410     1.0  0.54259  0.38885  0.57458  1.0000
  H   H2411     1.0  0.74645  0.34443  0.97863  1.0000
  C   C1369     1.0  0.51195  0.47378  0.98262  1.0000
  N   N75       1.0  0.56259  0.50672  0.19043  1.0000
  H   H2412     1.0  0.51886  0.49748  0.99340  1.0000
  C   C1370     1.0  0.75137  0.40822  0.00730  1.0000
  H   H2413     1.0  0.52845  0.38618  0.56026  1.0000
  H   H2414     1.0  0.74322  0.35664  0.16648  1.0000
  H   H2415     1.0  0.54670  0.50562  0.24401  1.0000
  H   H2416     1.0  0.51330  0.33605  0.67635  1.0000
  C   C1371     1.0  0.50571  0.35129  0.67232  1.0000
  H   H2417     1.0  0.50581  0.49611  0.97106  1.0000
  H   H2418     1.0  0.52789  0.37024  0.62844  1.0000
  C   C1372     1.0  0.75027  0.26834  0.99421  1.0000
  C   C1373     1.0  0.50584  0.47935  0.01925  1.0000
  N   N76       1.0  0.74945  0.36437  0.02483  1.0000
  C   C1374     1.0  0.51639  0.34590  0.65639  1.0000
  H   H2419     1.0  0.52608  0.45864  0.86710  1.0000
  H   H2420     1.0  0.74490  0.37302  0.15094  1.0000
  H   H2421     1.0  0.58660  0.50490  0.15257  1.0000
  H   H2422     1.0  0.74414  0.26315  0.93920  1.0000
  H   H2423     1.0  0.51023  0.45688  0.93750  1.0000
  H   H2424     1.0  0.75392  0.41249  0.97085  1.0000
  C   C1375     1.0  0.74969  0.36583  0.14836  1.0000
  H   H2425     1.0  0.50738  0.36096  0.65235  1.0000
  C   C1376     1.0  0.74315  0.26045  0.97546  1.0000
  C   C1377     1.0  0.56179  0.54221  0.93358  1.0000
  H   H2426     1.0  0.56592  0.56238  0.96549  1.0000
  C   C1378     1.0  0.55969  0.51538  0.04393  1.0000
  S   S308      1.0  0.52697  0.56938  0.04848  1.0000
  H   H2427     1.0  0.58452  0.53888  0.89321  1.0000
  H   H2428     1.0  0.56502  0.57017  0.91048  1.0000
  S   S309      1.0  0.51869  0.54137  0.04241  1.0000
  H   H2429     1.0  0.56416  0.55718  0.85827  1.0000
  Fe  Fe154     1.0  0.52964  0.55101  0.08009  1.0000
  S   S310      1.0  0.54820  0.54818  0.08107  1.0000
  C   C1379     1.0  0.54327  0.52821  0.23007  1.0000
  H   H2430     1.0  0.52567  0.54476  0.94365  1.0000
  S   S311      1.0  0.51418  0.54681  0.14377  1.0000
  H   H2431     1.0  0.55209  0.57146  0.86655  1.0000
  H   H2432     1.0  0.54222  0.52848  0.92122  1.0000
  H   H2433     1.0  0.56408  0.58361  0.95969  1.0000
  H   H2434     1.0  0.52977  0.54044  0.89163  1.0000
  C   C1380     1.0  0.55238  0.53538  0.06741  1.0000
  C   C1381     1.0  0.56443  0.53484  0.06179  1.0000
  Fe  Fe155     1.0  0.51457  0.55920  0.01608  1.0000
  C   C1382     1.0  0.56479  0.53180  0.91348  1.0000
  C   C1383     1.0  0.59535  0.52293  0.10739  1.0000
  C   C1384     1.0  0.54402  0.52589  0.06113  1.0000
  H   H2435     1.0  0.57100  0.54223  0.06607  1.0000
  C   C1385     1.0  0.52850  0.53765  0.92898  1.0000
  H   H2436     1.0  0.54110  0.55893  0.94612  1.0000
  H   H2437     1.0  0.53470  0.52612  0.06574  1.0000
  C   C1386     1.0  0.54806  0.56304  0.85812  1.0000
  C   C1387     1.0  0.51118  0.54741  0.84345  1.0000
  C   C1388     1.0  0.55600  0.57579  0.96660  1.0000
  H   H2438     1.0  0.55206  0.57207  0.00416  1.0000
  H   H2439     1.0  0.51211  0.57985  0.85784  1.0000
  C   C1389     1.0  0.54030  0.53546  0.93871  1.0000
  H   H2440     1.0  0.56024  0.51590  0.24311  1.0000
  H   H2441     1.0  0.54930  0.57926  0.95111  1.0000
  H   H2442     1.0  0.54556  0.57407  0.79703  1.0000
  H   H2443     1.0  0.51096  0.55290  0.86827  1.0000
  H   H2444     1.0  0.56033  0.53891  0.97108  1.0000
  N   N77       1.0  0.55114  0.54658  0.92364  1.0000
  H   H2445     1.0  0.53827  0.53093  0.97595  1.0000
  H   H2446     1.0  0.59936  0.52631  0.13263  1.0000
  H   H2447     1.0  0.53497  0.52092  0.25198  1.0000
  S   S312      1.0  0.51569  0.56651  0.94113  1.0000
  H   H2448     1.0  0.54538  0.54988  0.98921  1.0000
  C   C1390     1.0  0.51810  0.52585  0.94891  1.0000
  C   C1391     1.0  0.56808  0.52487  0.05010  1.0000
  H   H2449     1.0  0.55817  0.52285  0.93395  1.0000
  C   C1392     1.0  0.57735  0.53046  0.91520  1.0000
  H   H2450     1.0  0.55958  0.56978  0.78771  1.0000
  H   H2451     1.0  0.55218  0.54577  0.85470  1.0000
  C   C1393     1.0  0.54866  0.55510  0.95233  1.0000
  C   C1394     1.0  0.54978  0.56654  0.80665  1.0000
  H   H2452     1.0  0.60215  0.51968  0.08599  1.0000
  C   C1395     1.0  0.55976  0.56586  0.94681  1.0000
  H   H2453     1.0  0.53822  0.56039  0.87523  1.0000
  H   H2454     1.0  0.57019  0.54999  0.92062  1.0000
  H   H2455     1.0  0.56456  0.53357  0.87746  1.0000
  H   H2456     1.0  0.57831  0.52137  0.18311  1.0000
  C   C1396     1.0  0.55423  0.55278  0.87298  1.0000
  H   H2457     1.0  0.54535  0.55855  0.79660  1.0000
  H   H2458     1.0  0.57742  0.52466  0.04494  1.0000
  Fe  Fe156     1.0  0.51058  0.56438  0.10909  1.0000
  C   C1397     1.0  0.57400  0.51660  0.16122  1.0000
  H   H2459     1.0  0.50786  0.56570  0.21833  1.0000
  H   H2460     1.0  0.51137  0.53800  0.86044  1.0000
  H   H2461     1.0  0.59329  0.53062  0.08494  1.0000
  C   C1398     1.0  0.54771  0.51604  0.04874  1.0000
  H   H2462     1.0  0.55869  0.53116  0.17393  1.0000
  H   H2463     1.0  0.51597  0.52269  0.98670  1.0000
  H   H2464     1.0  0.54045  0.53594  0.21132  1.0000
  H   H2465     1.0  0.57185  0.52379  0.13687  1.0000
  H   H2466     1.0  0.51960  0.55181  0.81483  1.0000
  H   H2467     1.0  0.52040  0.51848  0.93439  1.0000
  H   H2468     1.0  0.57799  0.52872  0.95079  1.0000
  H   H2469     1.0  0.54862  0.53166  0.25186  1.0000
  H   H2470     1.0  0.57896  0.52253  0.90288  1.0000
  H   H2471     1.0  0.50988  0.52758  0.94009  1.0000
  C   C1399     1.0  0.55087  0.52333  0.19580  1.0000
  H   H2472     1.0  0.54514  0.52040  0.17440  1.0000
  C   C1400     1.0  0.58389  0.51233  0.13172  1.0000
  C   C1401     1.0  0.55507  0.51249  0.22058  1.0000
  Fe  Fe157     1.0  0.52058  0.94646  0.99907  1.0000
  S   S313      1.0  0.53747  0.95393  0.94064  1.0000
  H   H2473     1.0  0.59808  0.97776  0.95089  1.0000
  Fe  Fe158     1.0  0.53025  0.92770  0.05231  1.0000
  S   S314      1.0  0.54808  0.93417  0.99716  1.0000
  S   S315      1.0  0.52759  0.91023  0.10811  1.0000
  Fe  Fe159     1.0  0.54701  0.95353  0.99607  1.0000
  S   S316      1.0  0.56338  0.96993  0.98819  1.0000
  Fe  Fe160     1.0  0.53666  0.93395  0.94788  1.0000
  S   S317      1.0  0.53984  0.92455  0.89052  1.0000
  S   S318      1.0  0.52984  0.94692  0.05436  1.0000
  C   C1402     1.0  0.52755  0.86504  0.80624  1.0000
  C   C1403     1.0  0.51685  0.91540  0.88010  1.0000
  H   H2474     1.0  0.58627  0.94931  0.15499  1.0000
  C   C1404     1.0  0.59120  0.95319  0.11798  1.0000
  H   H2475     1.0  0.57226  0.00381  0.90498  1.0000
  H   H2476     1.0  0.61931  0.95489  0.13970  1.0000
  H   H2477     1.0  0.58259  0.96599  0.02590  1.0000
  H   H2478     1.0  0.59269  0.95683  0.03261  1.0000
  H   H2479     1.0  0.52080  0.88794  0.88904  1.0000
  H   H2480     1.0  0.50906  0.89922  0.99290  1.0000
  C   C1405     1.0  0.51539  0.87583  0.35893  1.0000
  C   C1406     1.0  0.51347  0.90496  0.82194  1.0000
  H   H2481     1.0  0.57369  0.93611  0.09900  1.0000
  C   C1407     1.0  0.56680  0.98176  0.01568  1.0000
  C   C1408     1.0  0.55952  0.98158  0.05798  1.0000
  C   C1409     1.0  0.56285  0.99099  0.07846  1.0000
  C   C1410     1.0  0.57340  0.00088  0.05697  1.0000
  C   C1411     1.0  0.58055  0.00116  0.01433  1.0000
  C   C1412     1.0  0.57729  0.99169  0.99404  1.0000
  H   H2482     1.0  0.55143  0.97408  0.07542  1.0000
  H   H2483     1.0  0.55723  0.99054  0.11156  1.0000
  C   C1413     1.0  0.50715  0.90967  0.17380  1.0000
  H   H2484     1.0  0.58304  0.99202  0.96138  1.0000
  C   C1414     1.0  0.52934  0.91677  0.86577  1.0000
  C   C1415     1.0  0.53377  0.91192  0.83009  1.0000
  C   C1416     1.0  0.52592  0.90602  0.80854  1.0000
  H   H2485     1.0  0.52984  0.87948  0.83808  1.0000
  H   H2486     1.0  0.53876  0.91499  0.37104  1.0000
  H   H2487     1.0  0.54340  0.91295  0.81838  1.0000
  H   H2488     1.0  0.52959  0.90275  0.78020  1.0000
  C   C1417     1.0  0.52975  0.87840  0.93367  1.0000
  H   H2489     1.0  0.61257  0.98657  0.95160  1.0000
  H   H2490     1.0  0.51962  0.86313  0.29403  1.0000
  H   H2491     1.0  0.54988  0.94237  0.09341  1.0000
  H   H2492     1.0  0.51785  0.90145  0.39765  1.0000
  C   C1418     1.0  0.53838  0.89050  0.93147  1.0000
  C   C1419     1.0  0.55131  0.99956  0.87745  1.0000
  C   C1420     1.0  0.52068  0.87066  0.49599  1.0000
  H   H2493     1.0  0.51217  0.85627  0.97440  1.0000
  C   C1421     1.0  0.55011  0.99901  0.95814  1.0000
  C   C1422     1.0  0.53638  0.99222  0.97660  1.0000
  C   C1423     1.0  0.55520  0.98748  0.88182  1.0000
  H   H2494     1.0  0.61023  0.96066  0.07775  1.0000
  C   C1424     1.0  0.53349  0.98360  0.02466  1.0000
  C   C1425     1.0  0.55161  0.98105  0.84738  1.0000
  C   C1426     1.0  0.51200  0.89036  0.17615  1.0000
  H   H2495     1.0  0.54138  0.99726  0.88202  1.0000
  C   C1427     1.0  0.60466  0.95910  0.11317  1.0000
  H   H2496     1.0  0.51329  0.91904  0.90744  1.0000
  H   H2497     1.0  0.51592  0.86088  0.50173  1.0000
  H   H2498     1.0  0.51850  0.98771  0.88287  1.0000
  H   H2499     1.0  0.55518  0.99206  0.96333  1.0000
  H   H2500     1.0  0.53337  0.98655  0.95502  1.0000
  H   H2501     1.0  0.55552  0.00521  0.84132  1.0000
  H   H2502     1.0  0.56516  0.98929  0.87533  1.0000
  H   H2503     1.0  0.55078  0.98095  0.91633  1.0000
  H   H2504     1.0  0.58007  0.97838  0.09113  1.0000
  H   H2505     1.0  0.59116  0.94505  0.10493  1.0000
  H   H2506     1.0  0.53818  0.97627  0.02375  1.0000
  H   H2507     1.0  0.52952  0.87107  0.50341  1.0000
  H   H2508     1.0  0.55487  0.97267  0.85015  1.0000
  H   H2509     1.0  0.52025  0.85767  0.80350  1.0000
  H   H2510     1.0  0.55576  0.98717  0.81195  1.0000
  H   H2511     1.0  0.60933  0.97009  0.96385  1.0000
  H   H2512     1.0  0.50978  0.00621  0.87249  1.0000
  S   S319      1.0  0.50541  0.86899  0.73894  1.0000
  H   H2513     1.0  0.60458  0.94893  0.18094  1.0000
  N   N78       1.0  0.58468  0.96128  0.09411  1.0000
  H   H2514     1.0  0.54181  0.89663  0.89593  1.0000
  H   H2515     1.0  0.60871  0.94164  0.13664  1.0000
  C   C1428     1.0  0.52221  0.87217  0.83723  1.0000
  H   H2516     1.0  0.52802  0.88751  0.44236  1.0000
  H   H2517     1.0  0.55220  0.93262  0.14270  1.0000
  H   H2518     1.0  0.54628  0.88867  0.94286  1.0000
  H   H2519     1.0  0.52742  0.87226  0.96890  1.0000
  H   H2520     1.0  0.52817  0.87374  0.42443  1.0000
  C   C1429     1.0  0.60956  0.95058  0.14460  1.0000
  C   C1430     1.0  0.55526  0.93613  0.10485  1.0000
  C   C1431     1.0  0.51456  0.90302  0.15523  1.0000
  H   H2521     1.0  0.53674  0.89343  0.36740  1.0000
  H   H2522     1.0  0.51614  0.87659  0.82100  1.0000
  H   H2523     1.0  0.58460  0.96551  0.18122  1.0000
  C   C1432     1.0  0.58978  0.96459  0.04273  1.0000
  H   H2524     1.0  0.59441  0.97880  0.09946  1.0000
  H   H2525     1.0  0.60786  0.97694  0.03445  1.0000
  C   C1433     1.0  0.58504  0.97276  0.10934  1.0000
  C   C1434     1.0  0.58104  0.98311  0.17219  1.0000
  H   H2526     1.0  0.53403  0.89740  0.31303  1.0000
  H   H2527     1.0  0.53092  0.99890  0.97866  1.0000
  H   H2528     1.0  0.53416  0.86086  0.81974  1.0000
  H   H2529     1.0  0.51769  0.88516  0.16191  1.0000
  H   H2530     1.0  0.54159  0.97822  0.85455  1.0000
  H   H2531     1.0  0.57133  0.94572  0.04990  1.0000
  S   S320      1.0  0.51914  0.92670  0.00324  1.0000
  H   H2532     1.0  0.60598  0.96789  0.12210  1.0000
  C   C1435     1.0  0.60030  0.97654  0.01884  1.0000
  C   C1436     1.0  0.60536  0.97777  0.96820  1.0000
  C   C1437     1.0  0.56878  0.94284  0.08779  1.0000
  C   C1438     1.0  0.50950  0.89383  0.02634  1.0000
  H   H2533     1.0  0.53581  0.91897  0.31601  1.0000
  H   H2534     1.0  0.52362  0.97912  0.03856  1.0000
  H   H2535     1.0  0.52178  0.87564  0.24442  1.0000
  H   H2536     1.0  0.57572  0.98849  0.15504  1.0000
  H   H2537     1.0  0.52481  0.87568  0.35830  1.0000
  H   H2538     1.0  0.56603  0.96023  0.09466  1.0000
  H   H2539     1.0  0.55348  0.92817  0.09087  1.0000
  H   H2540     1.0  0.52152  0.85871  0.89906  1.0000
  C   C1439     1.0  0.57977  0.97081  0.16122  1.0000
  H   H2541     1.0  0.53229  0.87137  0.77149  1.0000
  H   H2542     1.0  0.56996  0.96595  0.17310  1.0000
  C   C1440     1.0  0.51475  0.87921  0.30887  1.0000
  H   H2543     1.0  0.59069  0.98859  0.16091  1.0000
  C   C1441     1.0  0.57150  0.95409  0.10667  1.0000
  H   H2544     1.0  0.56762  0.95049  0.14437  1.0000
  H   H2545     1.0  0.53229  0.87673  0.27800  1.0000
  C   C1442     1.0  0.52261  0.87329  0.27970  1.0000
  H   H2546     1.0  0.53377  0.89531  0.95388  1.0000
  H   H2547     1.0  0.57751  0.98150  0.20958  1.0000
  H   H2548     1.0  0.53634  0.98878  0.04803  1.0000
  H   H2549     1.0  0.53476  0.87423  0.90977  1.0000
  H   H2550     1.0  0.59696  0.98471  0.02097  1.0000
  C   C1443     1.0  0.50606  0.99816  0.86112  1.0000
  C   C1444     1.0  0.52274  0.87801  0.44657  1.0000
  H   H2551     1.0  0.51376  0.88455  0.94749  1.0000
  H   H2552     1.0  0.50907  0.91944  0.15810  1.0000
  H   H2553     1.0  0.51760  0.88928  0.29269  1.0000
  C   C1445     1.0  0.51878  0.89703  0.36945  1.0000
  H   H2554     1.0  0.54919  0.91416  0.32084  1.0000
  H   H2555     1.0  0.50991  0.86605  0.37515  1.0000
  H   H2556     1.0  0.51521  0.87447  0.52015  1.0000
  N   N79       1.0  0.55459  0.00686  0.90915  1.0000
  C   C1446     1.0  0.53254  0.89931  0.34662  1.0000
  C   C1447     1.0  0.51053  0.87820  0.43607  1.0000
  H   H2557     1.0  0.50528  0.87579  0.30818  1.0000
  C   C1448     1.0  0.53946  0.91269  0.33818  1.0000
  N   N80       1.0  0.51105  0.88385  0.38708  1.0000
  H   H2558     1.0  0.51541  0.90250  0.34336  1.0000
  C   C1449     1.0  0.51604  0.99146  0.85145  1.0000
  H   H2559     1.0  0.51216  0.88544  0.02243  1.0000
  C   C1450     1.0  0.51813  0.88054  0.92164  1.0000
  H   H2560     1.0  0.50789  0.99182  0.02504  1.0000
  H   H2561     1.0  0.51660  0.89939  0.03729  1.0000
  C   C1451     1.0  0.51521  0.86350  0.88583  1.0000
  H   H2562     1.0  0.51258  0.99667  0.94123  1.0000
  C   C1452     1.0  0.50903  0.90975  0.85782  1.0000
  C   C1453     1.0  0.52752  0.00029  0.81617  1.0000
  H   H2563     1.0  0.58880  0.00852  0.99756  1.0000
  H   H2564     1.0  0.53456  0.99536  0.80955  1.0000
  H   H2565     1.0  0.50735  0.97806  0.00711  1.0000
  H   H2566     1.0  0.50628  0.88310  0.45893  1.0000
  N   N81       1.0  0.50927  0.86936  0.91975  1.0000
  H   H2567     1.0  0.53111  0.00809  0.82880  1.0000
  H   H2568     1.0  0.50830  0.85615  0.88114  1.0000
  H   H2569     1.0  0.52559  0.00392  0.78340  1.0000
  H   H2570     1.0  0.55201  0.00463  0.98145  1.0000
  H   H2571     1.0  0.50983  0.93913  0.93501  1.0000
  H   H2572     1.0  0.51302  0.98377  0.83751  1.0000
  S   S321      1.0  0.50489  0.95424  0.99505  1.0000
  H   H2573     1.0  0.80066  0.25824  0.81734  1.0000
  H   H2574     1.0  0.78059  0.24563  0.03085  1.0000
  H   H2575     1.0  0.78704  0.24883  0.86184  1.0000
  H   H2576     1.0  0.80065  0.24382  0.85388  1.0000
  C   C1454     1.0  0.79710  0.25199  0.85273  1.0000
  H   H2577     1.0  0.79746  0.25179  0.92082  1.0000
  C   C1455     1.0  0.80111  0.25849  0.88637  1.0000
  H   H2578     1.0  0.77713  0.25694  0.95911  1.0000
  C   C1456     1.0  0.77582  0.25294  0.03030  1.0000
  H   H2579     1.0  0.76591  0.24854  0.04011  1.0000
  H   H2580     1.0  0.77769  0.25774  0.05595  1.0000
  Fe  Fe161     1.0  0.81131  0.42810  0.00591  1.0000
  S   S322      1.0  0.80234  0.42868  0.07648  1.0000
  S   S323      1.0  0.81566  0.44446  0.94468  1.0000
  Fe  Fe162     1.0  0.80947  0.40097  0.03752  1.0000
  S   S324      1.0  0.80079  0.39950  0.11052  1.0000
  S   S325      1.0  0.81356  0.38567  0.00855  1.0000
  Fe  Fe163     1.0  0.78921  0.41073  0.08110  1.0000
  Fe  Fe164     1.0  0.81470  0.41756  0.09955  1.0000
  S   S326      1.0  0.82971  0.42203  0.13533  1.0000
  S   S327      1.0  0.79747  0.41119  0.00908  1.0000
  S   S328      1.0  0.82411  0.41797  0.02778  1.0000
  S   S329      1.0  0.77531  0.31039  0.01099  1.0000
  C   C1457     1.0  0.84886  0.31999  0.49477  1.0000
  S   S330      1.0  0.79939  0.32295  0.03900  1.0000
  H   H2581     1.0  0.80893  0.33287  0.39180  1.0000
  Fe  Fe165     1.0  0.77931  0.31910  0.06498  1.0000
  S   S331      1.0  0.77279  0.33479  0.08377  1.0000
  Fe  Fe166     1.0  0.79540  0.31270  0.98943  1.0000
  S   S332      1.0  0.80397  0.32026  0.91316  1.0000
  Fe  Fe167     1.0  0.87598  0.34665  0.25859  1.0000
  S   S333      1.0  0.85949  0.33464  0.31585  1.0000
  S   S334      1.0  0.89163  0.33942  0.23260  1.0000
  Fe  Fe168     1.0  0.86641  0.36861  0.24940  1.0000
  S   S335      1.0  0.84922  0.35841  0.30462  1.0000
  S   S336      1.0  0.86984  0.38846  0.21115  1.0000
  Fe  Fe169     1.0  0.86124  0.35101  0.34463  1.0000
  S   S337      1.0  0.85662  0.35162  0.42011  1.0000
  Fe  Fe170     1.0  0.84893  0.34306  0.27102  1.0000
  S   S338      1.0  0.83064  0.33415  0.26002  1.0000
  S   S339      1.0  0.87849  0.36212  0.29011  1.0000
  S   S340      1.0  0.86541  0.35407  0.21290  1.0000
  Fe  Fe171     1.0  0.86852  0.37674  0.71138  1.0000
  S   S341      1.0  0.88640  0.38112  0.65930  1.0000
  S   S342      1.0  0.85967  0.39191  0.71691  1.0000
  Fe  Fe172     1.0  0.86912  0.35100  0.75304  1.0000
  S   S343      1.0  0.88738  0.35372  0.70351  1.0000
  S   S344      1.0  0.86040  0.33479  0.81646  1.0000
  Fe  Fe173     1.0  0.89268  0.37207  0.71808  1.0000
  S   S345      1.0  0.91032  0.38334  0.72698  1.0000
  Fe  Fe174     1.0  0.87930  0.36260  0.64919  1.0000
  S   S346      1.0  0.88304  0.36068  0.57508  1.0000
  S   S347      1.0  0.87496  0.36857  0.77010  1.0000
  S   S348      1.0  0.86083  0.35883  0.69869  1.0000
  Fe  Fe175     1.0  0.88819  0.43625  0.32073  1.0000
  S   S349      1.0  0.87022  0.43143  0.37317  1.0000
  S   S350      1.0  0.89682  0.42109  0.31362  1.0000
  Fe  Fe176     1.0  0.88881  0.46264  0.28686  1.0000
  S   S351      1.0  0.87087  0.45979  0.33804  1.0000
  S   S352      1.0  0.89618  0.48167  0.23686  1.0000
  Fe  Fe177     1.0  0.87822  0.44886  0.38963  1.0000
  S   S353      1.0  0.87501  0.44864  0.46577  1.0000
  Fe  Fe178     1.0  0.86469  0.44272  0.31676  1.0000
  S   S354      1.0  0.84628  0.43754  0.30156  1.0000
  S   S355      1.0  0.89657  0.45296  0.33949  1.0000
  S   S356      1.0  0.88224  0.44626  0.26362  1.0000
  Fe  Fe179     1.0  0.87948  0.46411  0.75695  1.0000
  S   S357      1.0  0.89602  0.47905  0.71133  1.0000
  S   S358      1.0  0.86112  0.46767  0.76941  1.0000
  Fe  Fe180     1.0  0.89354  0.44553  0.76680  1.0000
  S   S359      1.0  0.91120  0.45871  0.72204  1.0000
  S   S360      1.0  0.89206  0.42598  0.79977  1.0000
  Fe  Fe181     1.0  0.90582  0.47171  0.76187  1.0000
  S   S361      1.0  0.91515  0.48250  0.80445  1.0000
  Fe  Fe182     1.0  0.89980  0.46470  0.67578  1.0000
  S   S362      1.0  0.90504  0.46731  0.59778  1.0000
  S   S363      1.0  0.88869  0.45776  0.80913  1.0000
  S   S364      1.0  0.88273  0.45044  0.71874  1.0000
  H   H2582     1.0  0.88636  0.48036  0.57471  1.0000
  H   H2583     1.0  0.98838  0.49784  0.17997  1.0000
  C   C1458     1.0  0.99283  0.50150  0.14265  1.0000
  S   S365      1.0  0.95479  0.48916  0.00033  1.0000
  C   C1459     1.0  0.90473  0.49638  0.50571  1.0000
  C   C1460     1.0  0.99644  0.42550  0.96724  1.0000
  H   H2584     1.0  0.77451  0.29797  0.93724  1.0000
  Fe  Fe183     1.0  0.97193  0.48685  0.01643  1.0000
  S   S366      1.0  0.97506  0.46855  0.04331  1.0000
  C   C1461     1.0  0.00265  0.46245  0.94105  1.0000
  C   C1462     1.0  0.99954  0.49265  0.12638  1.0000
  Fe  Fe184     1.0  0.94163  0.41388  0.99990  1.0000
  S   S367      1.0  0.95233  0.41697  0.92751  1.0000
  S   S368      1.0  0.93327  0.42800  0.02273  1.0000
  Fe  Fe185     1.0  0.94511  0.38870  0.03220  1.0000
  S   S369      1.0  0.95666  0.39014  0.96261  1.0000
  S   S370      1.0  0.94180  0.37188  0.09049  1.0000
  Fe  Fe186     1.0  0.94226  0.39721  0.93614  1.0000
  S   S371      1.0  0.92978  0.38642  0.90219  1.0000
  S   S372      1.0  0.95510  0.40727  0.03259  1.0000
  S   S373      1.0  0.93061  0.39503  0.00681  1.0000
  C   C1463     1.0  0.96326  0.45686  0.04114  1.0000
  C   C1464     1.0  0.96603  0.44750  0.02313  1.0000
  C   C1465     1.0  0.95686  0.43888  0.01633  1.0000
  C   C1466     1.0  0.94477  0.43909  0.03013  1.0000
  C   C1467     1.0  0.94190  0.44811  0.05023  1.0000
  C   C1468     1.0  0.95116  0.45714  0.05489  1.0000
  H   H2585     1.0  0.97535  0.44720  0.01273  1.0000
  H   H2586     1.0  0.95927  0.43226  0.99944  1.0000
  H   H2587     1.0  0.93256  0.44811  0.06226  1.0000
  H   H2588     1.0  0.94897  0.46425  0.06961  1.0000
  C   C1469     1.0  0.92868  0.48685  0.82120  1.0000
  C   C1470     1.0  0.92843  0.49298  0.85531  1.0000
  C   C1471     1.0  0.93875  0.49647  0.87045  1.0000
  C   C1472     1.0  0.94965  0.49415  0.85096  1.0000
  C   C1473     1.0  0.94996  0.48815  0.81648  1.0000
  C   C1474     1.0  0.93954  0.48438  0.80211  1.0000
  C   C1475     1.0  0.94366  0.33057  0.97272  1.0000
  H   H2589     1.0  0.81274  0.31275  0.49429  1.0000
  H   H2590     1.0  0.95836  0.48645  0.80058  1.0000
  H   H2591     1.0  0.93999  0.47978  0.77568  1.0000
  C   C1476     1.0  0.88378  0.45345  0.50199  1.0000
  C   C1477     1.0  0.87804  0.45091  0.54897  1.0000
  C   C1478     1.0  0.88440  0.45480  0.57887  1.0000
  C   C1479     1.0  0.89667  0.46142  0.56228  1.0000
  C   C1480     1.0  0.90246  0.46387  0.51540  1.0000
  C   C1481     1.0  0.89611  0.45993  0.48552  1.0000
  H   H2592     1.0  0.86855  0.44589  0.56244  1.0000
  H   H2593     1.0  0.87977  0.45268  0.61477  1.0000
  H   H2594     1.0  0.91191  0.46901  0.50186  1.0000
  H   H2595     1.0  0.90072  0.46211  0.44956  1.0000
  C   C1482     1.0  0.90959  0.48870  0.19102  1.0000
  C   C1483     1.0  0.91190  0.50129  0.17083  1.0000
  C   C1484     1.0  0.89406  0.50236  0.50928  1.0000
  C   C1485     1.0  0.93019  0.50155  0.11566  1.0000
  C   C1486     1.0  0.92794  0.48883  0.13529  1.0000
  C   C1487     1.0  0.91762  0.48239  0.17323  1.0000
  H   H2596     1.0  0.90578  0.50624  0.18411  1.0000
  C   C1488     1.0  0.86620  0.47176  0.65059  1.0000
  H   H2597     1.0  0.93417  0.48405  0.12159  1.0000
  H   H2598     1.0  0.91593  0.47266  0.18870  1.0000
  C   C1489     1.0  0.86879  0.40189  0.73797  1.0000
  C   C1490     1.0  0.86487  0.41135  0.75209  1.0000
  C   C1491     1.0  0.87205  0.41889  0.77092  1.0000
  C   C1492     1.0  0.88304  0.41683  0.77603  1.0000
  C   C1493     1.0  0.88695  0.40745  0.76166  1.0000
  C   C1494     1.0  0.87997  0.40019  0.74182  1.0000
  H   H2599     1.0  0.85631  0.41278  0.74865  1.0000
  H   H2600     1.0  0.86899  0.42612  0.78227  1.0000
  H   H2601     1.0  0.89538  0.40574  0.76568  1.0000
  H   H2602     1.0  0.88336  0.39331  0.72945  1.0000
  C   C1495     1.0  0.91526  0.38431  0.77664  1.0000
  C   C1496     1.0  0.90911  0.37625  0.82022  1.0000
  C   C1497     1.0  0.91369  0.37708  0.85787  1.0000
  C   C1498     1.0  0.92436  0.38611  0.85305  1.0000
  C   C1499     1.0  0.93042  0.39429  0.80962  1.0000
  C   C1500     1.0  0.92594  0.39333  0.77183  1.0000
  H   H2603     1.0  0.90095  0.36920  0.82467  1.0000
  H   H2604     1.0  0.90896  0.37057  0.89094  1.0000
  H   H2605     1.0  0.93871  0.40119  0.80483  1.0000
  H   H2606     1.0  0.93088  0.39957  0.73841  1.0000
  C   C1501     1.0  0.86415  0.35390  0.46301  1.0000
  C   C1502     1.0  0.87646  0.35458  0.45723  1.0000
  C   C1503     1.0  0.88189  0.35629  0.49229  1.0000
  C   C1504     1.0  0.87524  0.35751  0.53369  1.0000
  C   C1505     1.0  0.86290  0.35671  0.53965  1.0000
  C   C1506     1.0  0.85744  0.35493  0.50471  1.0000
  H   H2607     1.0  0.88180  0.35369  0.42587  1.0000
  H   H2608     1.0  0.89137  0.35666  0.48729  1.0000
  H   H2609     1.0  0.85757  0.35759  0.57107  1.0000
  H   H2610     1.0  0.84791  0.35437  0.51008  1.0000
  C   C1507     1.0  0.90536  0.34934  0.19411  1.0000
  C   C1508     1.0  0.90626  0.36111  0.16704  1.0000
  C   C1509     1.0  0.91738  0.36825  0.13456  1.0000
  C   C1510     1.0  0.92760  0.36370  0.13019  1.0000
  C   C1511     1.0  0.92667  0.35211  0.15807  1.0000
  C   C1512     1.0  0.91561  0.34493  0.18930  1.0000
  H   H2611     1.0  0.89832  0.36450  0.17048  1.0000
  H   H2612     1.0  0.91809  0.37718  0.11287  1.0000
  H   H2613     1.0  0.93453  0.34858  0.15534  1.0000
  H   H2614     1.0  0.91500  0.33588  0.21007  1.0000
  C   C1513     1.0  0.87646  0.39778  0.24095  1.0000
  C   C1514     1.0  0.87738  0.39249  0.28428  1.0000
  C   C1515     1.0  0.88374  0.39964  0.30631  1.0000
  C   C1516     1.0  0.88874  0.41225  0.28603  1.0000
  C   C1517     1.0  0.88732  0.41771  0.24364  1.0000
  C   C1518     1.0  0.88128  0.41046  0.22086  1.0000
  H   H2615     1.0  0.87305  0.38291  0.30133  1.0000
  H   H2616     1.0  0.88462  0.39536  0.33926  1.0000
  H   H2617     1.0  0.89119  0.42745  0.22788  1.0000
  H   H2618     1.0  0.88047  0.41464  0.18757  1.0000
  C   C1519     1.0  0.81706  0.31345  0.16134  1.0000
  C   C1520     1.0  0.80926  0.31768  0.19102  1.0000
  C   C1521     1.0  0.81358  0.32384  0.22092  1.0000
  C   C1522     1.0  0.82585  0.32634  0.22075  1.0000
  C   C1523     1.0  0.83373  0.32234  0.19042  1.0000
  C   C1524     1.0  0.80966  0.35242  0.26055  1.0000
  H   H2619     1.0  0.79979  0.31585  0.19204  1.0000
  H   H2620     1.0  0.80726  0.32660  0.24461  1.0000
  H   H2621     1.0  0.80558  0.34506  0.29346  1.0000
  C   C1525     1.0  0.81981  0.32547  0.88837  1.0000
  C   C1526     1.0  0.82440  0.33202  0.84192  1.0000
  C   C1527     1.0  0.83691  0.33545  0.82008  1.0000
  C   C1528     1.0  0.84490  0.33210  0.84436  1.0000
  C   C1529     1.0  0.84033  0.32581  0.89115  1.0000
  C   C1530     1.0  0.82783  0.32263  0.91324  1.0000
  H   H2622     1.0  0.81823  0.33426  0.82250  1.0000
  H   H2623     1.0  0.84033  0.34026  0.78402  1.0000
  H   H2624     1.0  0.84647  0.32317  0.91005  1.0000
  H   H2625     1.0  0.82432  0.31754  0.94898  1.0000
  C   C1531     1.0  0.82865  0.44985  0.89706  1.0000
  C   C1532     1.0  0.83972  0.44714  0.89763  1.0000
  C   C1533     1.0  0.84988  0.45234  0.85850  1.0000
  C   C1534     1.0  0.84891  0.46028  0.81920  1.0000
  C   C1535     1.0  0.83780  0.46275  0.81894  1.0000
  C   C1536     1.0  0.82778  0.45760  0.85749  1.0000
  H   H2626     1.0  0.84053  0.44140  0.92852  1.0000
  H   H2627     1.0  0.85848  0.45047  0.85901  1.0000
  H   H2628     1.0  0.83698  0.46886  0.78887  1.0000
  H   H2629     1.0  0.81932  0.45980  0.85684  1.0000
  C   C1537     1.0  0.83420  0.42679  0.18112  1.0000
  C   C1538     1.0  0.82603  0.42874  0.21687  1.0000
  C   C1539     1.0  0.82992  0.43204  0.25309  1.0000
  C   C1540     1.0  0.84204  0.43351  0.25428  1.0000
  C   C1541     1.0  0.85025  0.43159  0.21844  1.0000
  C   C1542     1.0  0.84633  0.42821  0.18234  1.0000
  H   H2630     1.0  0.81667  0.42763  0.21684  1.0000
  H   H2631     1.0  0.82346  0.43346  0.28056  1.0000
  H   H2632     1.0  0.85955  0.43250  0.21898  1.0000
  H   H2633     1.0  0.85274  0.42654  0.15543  1.0000
  H   H2634     1.0  0.76985  0.41314  0.01143  1.0000
  C   C1543     1.0  0.80169  0.37196  0.02804  1.0000
  C   C1544     1.0  0.79259  0.36932  0.06893  1.0000
  C   C1545     1.0  0.78381  0.35788  0.08594  1.0000
  C   C1546     1.0  0.78398  0.34906  0.06195  1.0000
  C   C1547     1.0  0.79294  0.35182  0.02055  1.0000
  C   C1548     1.0  0.80178  0.36321  0.00372  1.0000
  H   H2635     1.0  0.79248  0.37596  0.08813  1.0000
  H   H2636     1.0  0.77706  0.35574  0.11837  1.0000
  H   H2637     1.0  0.79301  0.34521  0.00119  1.0000
  H   H2638     1.0  0.80871  0.36522  0.97185  1.0000
  C   C1549     1.0  0.77256  0.37575  0.98987  1.0000
  C   C1550     1.0  0.94402  0.35838  0.91212  1.0000
  H   H2639     1.0  0.87349  0.46724  0.65440  1.0000
  H   H2640     1.0  0.92958  0.36149  0.95857  1.0000
  H   H2641     1.0  0.82950  0.31480  0.51481  1.0000
  H   H2642     1.0  0.80185  0.30813  0.41695  1.0000
  S   S374      1.0  0.79437  0.29437  0.03540  1.0000
  C   C1551     1.0  0.93991  0.35975  0.86877  1.0000
  Fe  Fe187     1.0  0.77409  0.29221  0.05882  1.0000
  S   S375      1.0  0.75886  0.27437  0.06657  1.0000
  H   H2643     1.0  0.84938  0.31037  0.49976  1.0000
  H   H2644     1.0  0.81480  0.34867  0.23538  1.0000
  H   H2645     1.0  0.85940  0.36582  0.12649  1.0000
  H   H2646     1.0  0.75767  0.38402  0.00333  1.0000
  H   H2647     1.0  0.87016  0.47877  0.51098  1.0000
  H   H2648     1.0  0.84129  0.33491  0.07165  1.0000
  H   H2649     1.0  0.91059  0.34932  0.00887  1.0000
  H   H2650     1.0  0.99595  0.46493  0.96590  1.0000
  H   H2651     1.0  0.85731  0.46486  0.66809  1.0000
  C   C1552     1.0  0.83691  0.32124  0.48531  1.0000
  H   H2652     1.0  0.88806  0.47685  0.42149  1.0000
  C   C1553     1.0  0.79994  0.39540  0.22599  1.0000
  H   H2653     1.0  0.80226  0.35519  0.24791  1.0000
  C   C1554     1.0  0.82628  0.31765  0.37912  1.0000
  S   S376      1.0  0.98393  0.49849  0.94771  1.0000
  H   H2654     1.0  0.94951  0.31462  0.96250  1.0000
  C   C1555     1.0  0.81793  0.33879  0.38852  1.0000
  H   H2655     1.0  0.85120  0.37532  0.10002  1.0000
  H   H2656     1.0  0.89561  0.50743  0.05050  1.0000
  H   H2657     1.0  0.80070  0.27656  0.84979  1.0000
  C   C1556     1.0  0.89442  0.49063  0.10151  1.0000
  H   H2658     1.0  0.89511  0.50845  0.53182  1.0000
  S   S377      1.0  0.98624  0.41940  0.93763  1.0000
  H   H2659     1.0  0.77894  0.39544  0.97932  1.0000
  N   N82       1.0  0.82853  0.41247  0.85447  1.0000
  C   C1557     1.0  0.82445  0.40257  0.83279  1.0000
  C   C1558     1.0  0.83766  0.42360  0.81891  1.0000
  C   C1559     1.0  0.83481  0.40725  0.88828  1.0000
  C   C1560     1.0  0.81800  0.41607  0.88015  1.0000
  C   C1561     1.0  0.80979  0.42083  0.85223  1.0000
  C   C1562     1.0  0.81523  0.39048  0.86559  1.0000
  C   C1563     1.0  0.84101  0.41632  0.91106  1.0000
  C   C1564     1.0  0.83620  0.42667  0.76991  1.0000
  C   C1565     1.0  0.84493  0.43904  0.74011  1.0000
  C   C1566     1.0  0.79866  0.42263  0.88312  1.0000
  C   C1567     1.0  0.81156  0.38140  0.83937  1.0000
  C   C1568     1.0  0.84700  0.40994  0.94428  1.0000
  H   H2660     1.0  0.83250  0.40011  0.81473  1.0000
  H   H2661     1.0  0.82022  0.40590  0.80593  1.0000
  H   H2662     1.0  0.83789  0.43196  0.83091  1.0000
  H   H2663     1.0  0.84700  0.42249  0.81409  1.0000
  H   H2664     1.0  0.84183  0.40327  0.87161  1.0000
  H   H2665     1.0  0.82825  0.39961  0.91692  1.0000
  H   H2666     1.0  0.81226  0.40833  0.91045  1.0000
  H   H2667     1.0  0.82129  0.42360  0.89459  1.0000
  H   H2668     1.0  0.80648  0.41438  0.83371  1.0000
  H   H2669     1.0  0.81483  0.42995  0.82768  1.0000
  H   H2670     1.0  0.81915  0.38579  0.89122  1.0000
  H   H2671     1.0  0.80686  0.39231  0.88371  1.0000
  H   H2672     1.0  0.83424  0.41985  0.93100  1.0000
  H   H2673     1.0  0.84810  0.42424  0.88548  1.0000
  H   H2674     1.0  0.83832  0.41957  0.75336  1.0000
  H   H2675     1.0  0.82690  0.42704  0.76973  1.0000
  H   H2676     1.0  0.84268  0.44661  0.75349  1.0000
  H   H2677     1.0  0.85445  0.43913  0.73911  1.0000
  H   H2678     1.0  0.84418  0.44072  0.70470  1.0000
  H   H2679     1.0  0.79310  0.41381  0.90853  1.0000
  H   H2680     1.0  0.80143  0.42940  0.90139  1.0000
  H   H2681     1.0  0.79299  0.42617  0.86222  1.0000
  H   H2682     1.0  0.81964  0.37905  0.82130  1.0000
  H   H2683     1.0  0.80509  0.37280  0.86361  1.0000
  H   H2684     1.0  0.80710  0.38532  0.81413  1.0000
  H   H2685     1.0  0.84030  0.40178  0.97026  1.0000
  H   H2686     1.0  0.85460  0.40706  0.92562  1.0000
  H   H2687     1.0  0.85054  0.41643  0.96237  1.0000
  N   N83       1.0  0.91577  0.45632  0.95773  1.0000
  C   C1569     1.0  0.91790  0.46243  0.99408  1.0000
  C   C1570     1.0  0.91056  0.44249  0.97817  1.0000
  C   C1571     1.0  0.92793  0.45868  0.92381  1.0000
  C   C1572     1.0  0.90765  0.46158  0.93255  1.0000
  C   C1573     1.0  0.89517  0.46133  0.96241  1.0000
  C   C1574     1.0  0.92369  0.47652  0.97813  1.0000
  C   C1575     1.0  0.92777  0.45304  0.88343  1.0000
  C   C1576     1.0  0.90335  0.43763  0.02961  1.0000
  C   C1577     1.0  0.89754  0.42378  0.04417  1.0000
  C   C1578     1.0  0.88783  0.46686  0.93286  1.0000
  C   C1579     1.0  0.92340  0.48169  0.01902  1.0000
  C   C1580     1.0  0.94050  0.45279  0.85929  1.0000
  H   H2688     1.0  0.92398  0.45831  0.01149  1.0000
  H   H2689     1.0  0.90935  0.46070  0.02101  1.0000
  H   H2690     1.0  0.90471  0.43864  0.95851  1.0000
  H   H2691     1.0  0.91791  0.43778  0.97506  1.0000
  H   H2692     1.0  0.93423  0.45522  0.94196  1.0000
  H   H2693     1.0  0.93219  0.46868  0.90760  1.0000
  H   H2694     1.0  0.91229  0.47119  0.91136  1.0000
  H   H2695     1.0  0.90582  0.45658  0.90734  1.0000
  H   H2696     1.0  0.89619  0.46676  0.98688  1.0000
  H   H2697     1.0  0.88984  0.45174  0.98134  1.0000
  H   H2698     1.0  0.93335  0.47876  0.95836  1.0000
  H   H2699     1.0  0.91881  0.48137  0.95687  1.0000
  H   H2700     1.0  0.92439  0.45866  0.85799  1.0000
  H   H2701     1.0  0.92180  0.44353  0.89466  1.0000
  H   H2702     1.0  0.90964  0.43933  0.05060  1.0000
  H   H2703     1.0  0.89606  0.44212  0.03797  1.0000
  H   H2704     1.0  0.89034  0.42153  0.02753  1.0000
  H   H2705     1.0  0.90448  0.41887  0.03532  1.0000
  H   H2706     1.0  0.89332  0.42052  0.08170  1.0000
  H   H2707     1.0  0.87896  0.46675  0.95484  1.0000
  H   H2708     1.0  0.89277  0.47653  0.91291  1.0000
  H   H2709     1.0  0.88611  0.46147  0.90873  1.0000
  H   H2710     1.0  0.91394  0.48059  0.03837  1.0000
  H   H2711     1.0  0.92793  0.47697  0.04229  1.0000
  H   H2712     1.0  0.92822  0.49166  0.00691  1.0000
  H   H2713     1.0  0.94390  0.44654  0.88263  1.0000
  H   H2714     1.0  0.94027  0.44944  0.82894  1.0000
  H   H2715     1.0  0.94687  0.46214  0.84768  1.0000
  N   N84       1.0  0.91179  0.42613  0.61447  1.0000
  C   C1581     1.0  0.91615  0.42020  0.57814  1.0000
  C   C1582     1.0  0.91615  0.43989  0.59409  1.0000
  C   C1583     1.0  0.91671  0.42197  0.65416  1.0000
  C   C1584     1.0  0.89812  0.42242  0.63172  1.0000
  C   C1585     1.0  0.89135  0.42477  0.59480  1.0000
  C   C1586     1.0  0.91080  0.40610  0.59057  1.0000
  C   C1587     1.0  0.91570  0.42932  0.68981  1.0000
  C   C1588     1.0  0.93012  0.44544  0.57718  1.0000
  C   C1589     1.0  0.93347  0.45946  0.56384  1.0000
  C   C1590     1.0  0.87763  0.42008  0.61594  1.0000
  C   C1591     1.0  0.91653  0.40090  0.55314  1.0000
  C   C1592     1.0  0.92084  0.42424  0.72842  1.0000
  H   H2716     1.0  0.92618  0.42196  0.56954  1.0000
  H   H2717     1.0  0.91434  0.42445  0.54569  1.0000
  H   H2718     1.0  0.91286  0.44278  0.56389  1.0000
  H   H2719     1.0  0.91215  0.44455  0.61860  1.0000
  H   H2720     1.0  0.92639  0.42212  0.64200  1.0000
  H   H2721     1.0  0.91193  0.41217  0.67328  1.0000
  H   H2722     1.0  0.89463  0.41252  0.65138  1.0000
  H   H2723     1.0  0.89506  0.42739  0.65663  1.0000
  H   H2724     1.0  0.89377  0.42011  0.56836  1.0000
  H   H2725     1.0  0.89350  0.43471  0.57763  1.0000
  H   H2726     1.0  0.91233  0.40135  0.62283  1.0000
  H   H2727     1.0  0.90093  0.40377  0.59457  1.0000
  H   H2728     1.0  0.90613  0.42893  0.70485  1.0000
  H   H2729     1.0  0.92085  0.43912  0.67437  1.0000
  H   H2730     1.0  0.93457  0.44235  0.60356  1.0000
  H   H2731     1.0  0.93399  0.44272  0.54653  1.0000
  H   H2732     1.0  0.94347  0.46326  0.55049  1.0000
  H   H2733     1.0  0.92932  0.46308  0.53696  1.0000
  H   H2734     1.0  0.87299  0.42231  0.58921  1.0000
  H   H2735     1.0  0.87491  0.40996  0.63094  1.0000
  H   H2736     1.0  0.87462  0.42445  0.64294  1.0000
  H   H2737     1.0  0.91519  0.40532  0.52004  1.0000
  H   H2738     1.0  0.92638  0.40234  0.54937  1.0000
  H   H2739     1.0  0.91219  0.39086  0.56247  1.0000
  H   H2740     1.0  0.91954  0.42940  0.75409  1.0000
  H   H2741     1.0  0.91612  0.41439  0.74560  1.0000
  H   H2742     1.0  0.93068  0.42527  0.71509  1.0000
  H   H2743     1.0  0.97480  0.48031  0.87072  1.0000
  N   N85       1.0  0.92240  0.40920  0.18193  1.0000
  C   C1593     1.0  0.93558  0.40963  0.17630  1.0000
  C   C1594     1.0  0.91515  0.40133  0.22954  1.0000
  C   C1595     1.0  0.91831  0.40391  0.14641  1.0000
  C   C1596     1.0  0.92053  0.42187  0.17563  1.0000
  C   C1597     1.0  0.92537  0.42926  0.20641  1.0000
  C   C1598     1.0  0.94478  0.41902  0.13254  1.0000
  C   C1599     1.0  0.90472  0.40226  0.14873  1.0000
  C   C1600     1.0  0.91392  0.38734  0.23917  1.0000
  C   C1601     1.0  0.90788  0.38060  0.28975  1.0000
  C   C1602     1.0  0.92322  0.44201  0.19603  1.0000
  C   C1603     1.0  0.95776  0.41854  0.13065  1.0000
  C   C1604     1.0  0.90114  0.39543  0.11546  1.0000
  H   H2744     1.0  0.93699  0.40048  0.17571  1.0000
  H   H2745     1.0  0.93838  0.41153  0.20621  1.0000
  H   H2746     1.0  0.91920  0.40445  0.25523  1.0000
  H   H2747     1.0  0.90585  0.40248  0.23803  1.0000
  H   H2748     1.0  0.92041  0.39495  0.14765  1.0000
  H   H2749     1.0  0.92349  0.40992  0.11158  1.0000
  H   H2750     1.0  0.92455  0.42748  0.13927  1.0000
  H   H2751     1.0  0.91070  0.42127  0.18313  1.0000
  H   H2752     1.0  0.93523  0.43055  0.20129  1.0000
  H   H2753     1.0  0.92063  0.42449  0.24297  1.0000
  H   H2754     1.0  0.94288  0.41701  0.10165  1.0000
  H   H2755     1.0  0.94447  0.42858  0.13089  1.0000
  H   H2756     1.0  0.90288  0.41134  0.13949  1.0000
  H   H2757     1.0  0.89870  0.39696  0.18323  1.0000
  H   H2758     1.0  0.90825  0.38322  0.21962  1.0000
  H   H2759     1.0  0.92288  0.38550  0.22976  1.0000
  H   H2760     1.0  0.90667  0.37057  0.29538  1.0000
  H   H2761     1.0  0.91361  0.38380  0.31079  1.0000
  H   H2762     1.0  0.89883  0.38215  0.30106  1.0000
  H   H2763     1.0  0.92795  0.44731  0.15983  1.0000
  H   H2764     1.0  0.91337  0.44123  0.20300  1.0000
  H   H2765     1.0  0.92681  0.44714  0.21827  1.0000
  H   H2766     1.0  0.95875  0.40923  0.13062  1.0000
  H   H2767     1.0  0.96412  0.42524  0.09879  1.0000
  H   H2768     1.0  0.96030  0.42096  0.16018  1.0000
  H   H2769     1.0  0.90127  0.38573  0.12707  1.0000
  H   H2770     1.0  0.89176  0.39549  0.11463  1.0000
  H   H2771     1.0  0.90740  0.39981  0.08050  1.0000
  N   N86       1.0  0.89415  0.39830  0.92903  1.0000
  C   C1605     1.0  0.88977  0.39494  0.89055  1.0000
  C   C1606     1.0  0.90741  0.40566  0.91214  1.0000
  C   C1607     1.0  0.89317  0.38647  0.96362  1.0000
  C   C1608     1.0  0.88648  0.40522  0.95255  1.0000
  C   C1609     1.0  0.88413  0.41627  0.92109  1.0000
  C   C1610     1.0  0.87669  0.38631  0.90435  1.0000
  C   C1611     1.0  0.89745  0.38793  0.00599  1.0000
  C   C1612     1.0  0.91265  0.41339  0.86132  1.0000
  C   C1613     1.0  0.92601  0.42024  0.85116  1.0000
  C   C1614     1.0  0.87744  0.42336  0.94866  1.0000
  C   C1615     1.0  0.87212  0.38583  0.86276  1.0000
  C   C1616     1.0  0.89875  0.37576  0.03270  1.0000
  H   H2772     1.0  0.89589  0.39024  0.87301  1.0000
  H   H2773     1.0  0.89034  0.40328  0.86375  1.0000
  H   H2774     1.0  0.90945  0.41192  0.93328  1.0000
  H   H2775     1.0  0.91334  0.39948  0.91663  1.0000
  H   H2776     1.0  0.89841  0.38096  0.94660  1.0000
  H   H2777     1.0  0.88365  0.38065  0.97767  1.0000
  H   H2778     1.0  0.87749  0.39895  0.97397  1.0000
  H   H2779     1.0  0.89071  0.40875  0.97707  1.0000
  H   H2780     1.0  0.87846  0.41306  0.89988  1.0000
  H   H2781     1.0  0.89273  0.42283  0.89855  1.0000
  H   H2782     1.0  0.87657  0.37677  0.92133  1.0000
  H   H2783     1.0  0.87016  0.38931  0.92777  1.0000
  H   H2784     1.0  0.89072  0.39083  0.02917  1.0000
  H   H2785     1.0  0.90630  0.39488  0.99643  1.0000
  H   H2786     1.0  0.91216  0.40744  0.83827  1.0000
  H   H2787     1.0  0.90778  0.42030  0.85249  1.0000
  H   H2788     1.0  0.93148  0.41366  0.85740  1.0000
  H   H2789     1.0  0.92961  0.42584  0.81489  1.0000
  H   H2790     1.0  0.92709  0.42642  0.87310  1.0000
  H   H2791     1.0  0.88358  0.42869  0.96377  1.0000
  H   H2792     1.0  0.87427  0.42997  0.92572  1.0000
  H   H2793     1.0  0.86948  0.41704  0.97641  1.0000
  H   H2794     1.0  0.86349  0.37847  0.87276  1.0000
  H   H2795     1.0  0.87038  0.39469  0.84810  1.0000
  H   H2796     1.0  0.87885  0.38384  0.83637  1.0000
  H   H2797     1.0  0.88997  0.36852  0.04446  1.0000
  H   H2798     1.0  0.90572  0.37273  0.01109  1.0000
  H   H2799     1.0  0.90169  0.37691  0.06306  1.0000
  H   H2800     1.0  0.85979  0.48148  0.59870  1.0000
  H   H2801     1.0  0.89422  0.34204  0.08073  1.0000
  H   H2802     1.0  0.86578  0.48348  0.16031  1.0000
  C   C1617     1.0  0.82931  0.31577  0.16168  1.0000
  H   H2803     1.0  0.85638  0.44445  0.08786  1.0000
  N   N87       1.0  0.88479  0.39813  0.45879  1.0000
  C   C1618     1.0  0.87553  0.40108  0.43472  1.0000
  C   C1619     1.0  0.89432  0.40974  0.45396  1.0000
  C   C1620     1.0  0.89111  0.39020  0.43546  1.0000
  C   C1621     1.0  0.87895  0.39102  0.50830  1.0000
  C   C1622     1.0  0.87155  0.39738  0.53807  1.0000
  C   C1623     1.0  0.86534  0.39001  0.43563  1.0000
  C   C1624     1.0  0.90179  0.38690  0.45242  1.0000
  C   C1625     1.0  0.89036  0.42175  0.45102  1.0000
  C   C1626     1.0  0.90068  0.43221  0.45105  1.0000
  C   C1627     1.0  0.86439  0.38844  0.58490  1.0000
  C   C1628     1.0  0.85654  0.39440  0.41089  1.0000
  C   C1629     1.0  0.90899  0.38118  0.42017  1.0000
  H   H2804     1.0  0.88019  0.40624  0.39832  1.0000
  H   H2805     1.0  0.87090  0.40738  0.44871  1.0000
  H   H2806     1.0  0.89857  0.40834  0.48239  1.0000
  H   H2807     1.0  0.90184  0.41200  0.42190  1.0000
  H   H2808     1.0  0.89461  0.39477  0.39796  1.0000
  H   H2809     1.0  0.88467  0.38124  0.43983  1.0000
  H   H2810     1.0  0.87304  0.38190  0.51128  1.0000
  H   H2811     1.0  0.88591  0.38887  0.52530  1.0000
  H   H2812     1.0  0.86492  0.40085  0.52242  1.0000
  H   H2813     1.0  0.87779  0.40513  0.54362  1.0000
  H   H2814     1.0  0.86906  0.38375  0.41808  1.0000
  H   H2815     1.0  0.86003  0.38469  0.47117  1.0000
  H   H2816     1.0  0.89829  0.38013  0.48676  1.0000
  H   H2817     1.0  0.90825  0.39502  0.45470  1.0000
  H   H2818     1.0  0.88811  0.42463  0.41842  1.0000
  H   H2819     1.0  0.88236  0.42068  0.47953  1.0000
  H   H2820     1.0  0.90899  0.43345  0.42341  1.0000
  H   H2821     1.0  0.89797  0.44088  0.44467  1.0000
  H   H2822     1.0  0.90267  0.43044  0.48449  1.0000
  H   H2823     1.0  0.85978  0.39335  0.60690  1.0000
  H   H2824     1.0  0.85740  0.38091  0.58145  1.0000
  H   H2825     1.0  0.87049  0.38436  0.60199  1.0000
  H   H2826     1.0  0.84955  0.38633  0.41081  1.0000
  H   H2827     1.0  0.85194  0.40021  0.42828  1.0000
  H   H2828     1.0  0.86143  0.39978  0.37493  1.0000
  H   H2829     1.0  0.91370  0.38810  0.38656  1.0000
  H   H2830     1.0  0.91590  0.37795  0.43492  1.0000
  H   H2831     1.0  0.90293  0.37321  0.41506  1.0000
  H   H2832     1.0  0.93026  0.46266  0.59405  1.0000
  H   H2833     1.0  0.83363  0.31145  0.01223  1.0000
  C   C1630     1.0  0.99314  0.45506  0.86198  1.0000
  C   C1631     1.0  0.81807  0.36339  0.26729  1.0000
  C   C1632     1.0  0.85699  0.45382  0.06750  1.0000
  C   C1633     1.0  0.76046  0.40861  0.03028  1.0000
  H   H2834     1.0  0.85850  0.45391  0.03117  1.0000
  Fe  Fe188     1.0  0.95824  0.50542  0.02743  1.0000
  H   H2835     1.0  0.83637  0.31057  0.30249  1.0000
  H   H2836     1.0  0.81407  0.28351  0.97713  1.0000
  C   C1634     1.0  0.94272  0.31685  0.98789  1.0000
  H   H2837     1.0  0.82902  0.29437  0.32652  1.0000
  H   H2838     1.0  0.83607  0.30335  0.38310  1.0000
  Fe  Fe189     1.0  0.96568  0.40962  0.96098  1.0000
  H   H2839     1.0  0.95645  0.45737  0.94048  1.0000
  H   H2840     1.0  0.93335  0.36534  0.86883  1.0000
  C   C1635     1.0  0.78120  0.38837  0.96289  1.0000
  S   S378      1.0  0.76831  0.40457  0.10910  1.0000
  C   C1636     1.0  0.82760  0.30484  0.37588  1.0000
  H   H2841     1.0  0.84823  0.45594  0.07915  1.0000
  H   H2842     1.0  0.95378  0.47152  0.91266  1.0000
  H   H2843     1.0  0.82516  0.33916  0.11462  1.0000
  H   H2844     1.0  0.83372  0.36926  0.20836  1.0000
  H   H2845     1.0  0.82650  0.36242  0.00503  1.0000
  H   H2846     1.0  0.94785  0.36440  0.83832  1.0000
  H   H2847     1.0  0.90423  0.49013  0.48381  1.0000
  C   C1637     1.0  0.83990  0.35870  0.95549  1.0000
  H   H2848     1.0  0.91004  0.33414  0.04086  1.0000
  H   H2849     1.0  0.84913  0.34310  0.01414  1.0000
  H   H2850     1.0  0.80333  0.37775  0.23985  1.0000
  H   H2851     1.0  0.85137  0.36327  0.01923  1.0000
  H   H2852     1.0  0.83313  0.38363  0.12972  1.0000
  H   H2853     1.0  0.83695  0.40462  0.26124  1.0000
  C   C1638     1.0  0.96043  0.46745  0.92620  1.0000
  C   C1639     1.0  0.86746  0.46329  0.07233  1.0000
  H   H2854     1.0  0.83479  0.28555  0.92868  1.0000
  H   H2855     1.0  0.85393  0.39758  0.08849  1.0000
  H   H2856     1.0  0.86818  0.47231  0.04878  1.0000
  H   H2857     1.0  0.84781  0.39003  0.17364  1.0000
  H   H2858     1.0  0.82057  0.37228  0.19580  1.0000
  H   H2859     1.0  0.82419  0.35992  0.28614  1.0000
  C   C1640     1.0  0.83672  0.38565  0.25871  1.0000
  C   C1641     1.0  0.83942  0.39321  0.17719  1.0000
  C   C1642     1.0  0.82583  0.37275  0.22093  1.0000
  H   H2860     1.0  0.87589  0.46071  0.06066  1.0000
  H   H2861     1.0  0.79486  0.27375  0.99271  1.0000
  C   C1643     1.0  0.97205  0.47030  0.88781  1.0000
  C   C1644     1.0  0.83549  0.39305  0.13328  1.0000
  H   H2862     1.0  0.81340  0.29714  0.93801  1.0000
  H   H2863     1.0  0.84377  0.38064  0.25338  1.0000
  C   C1645     1.0  0.83078  0.29343  0.92612  1.0000
  H   H2864     1.0  0.86172  0.45468  0.14564  1.0000
  H   H2865     1.0  0.90500  0.44948  0.10847  1.0000
  H   H2866     1.0  0.85732  0.46821  0.12733  1.0000
  C   C1646     1.0  0.81693  0.28896  0.94072  1.0000
  H   H2867     1.0  0.81243  0.36762  0.28901  1.0000
  H   H2868     1.0  0.79227  0.29068  0.94581  1.0000
  C   C1647     1.0  0.86517  0.46420  0.12205  1.0000
  C   C1648     1.0  0.84572  0.40095  0.09063  1.0000
  H   H2869     1.0  0.79869  0.31797  0.45283  1.0000
  N   N88       1.0  0.83020  0.38579  0.22222  1.0000
  H   H2870     1.0  0.83035  0.38051  0.29302  1.0000
  H   H2871     1.0  0.84271  0.40060  0.05970  1.0000
  H   H2872     1.0  0.77518  0.36905  0.97210  1.0000
  H   H2873     1.0  0.83419  0.29952  0.89045  1.0000
  H   H2874     1.0  0.83855  0.39432  0.33609  1.0000
  H   H2875     1.0  0.96227  0.47147  0.95364  1.0000
  H   H2876     1.0  0.98469  0.43189  0.85087  1.0000
  H   H2877     1.0  0.90474  0.33955  0.11330  1.0000
  H   H2878     1.0  0.76933  0.29744  0.88771  1.0000
  C   C1649     1.0  0.83600  0.31827  0.44002  1.0000
  H   H2879     1.0  0.80690  0.34276  0.16955  1.0000
  H   H2880     1.0  0.99064  0.45619  0.10942  1.0000
  H   H2881     1.0  0.88655  0.47974  0.06336  1.0000
  H   H2882     1.0  0.92567  0.34689  0.94910  1.0000
  H   H2883     1.0  0.90078  0.48520  0.10952  1.0000
  C   C1650     1.0  0.88144  0.49097  0.44655  1.0000
  H   H2884     1.0  0.88435  0.45094  0.10867  1.0000
  C   C1651     1.0  0.87955  0.48497  0.49789  1.0000
  C   C1652     1.0  0.90374  0.34523  0.08143  1.0000
  H   H2885     1.0  0.98439  0.47331  0.92676  1.0000
  C   C1653     1.0  0.90135  0.50124  0.05851  1.0000
  H   H2886     1.0  0.83382  0.29874  0.94880  1.0000
  H   H2887     1.0  0.97868  0.45752  0.93149  1.0000
  H   H2888     1.0  0.79065  0.38823  0.96217  1.0000
  N   N89       1.0  0.83404  0.34960  0.04366  1.0000
  H   H2889     1.0  0.96989  0.46552  0.86270  1.0000
  C   C1654     1.0  0.98240  0.46680  0.90643  1.0000
  H   H2890     1.0  0.81976  0.29741  0.40004  1.0000
  H   H2891     1.0  0.90653  0.46047  0.14043  1.0000
  C   C1655     1.0  0.88066  0.48137  0.42033  1.0000
  H   H2892     1.0  0.85672  0.32614  0.46609  1.0000
  C   C1656     1.0  0.80156  0.30956  0.45086  1.0000
  C   C1657     1.0  0.88313  0.48251  0.09428  1.0000
  H   H2893     1.0  0.82766  0.35308  0.91634  1.0000
  C   C1658     1.0  0.77738  0.29810  0.90087  1.0000
  H   H2894     1.0  0.99785  0.49580  0.05870  1.0000
  H   H2895     1.0  0.85134  0.40294  0.23300  1.0000
  H   H2896     1.0  0.86566  0.46920  0.58547  1.0000
  H   H2897     1.0  0.84808  0.41068  0.09119  1.0000
  H   H2898     1.0  0.99681  0.48650  0.83776  1.0000
  H   H2899     1.0  0.98312  0.42143  0.03188  1.0000
  N   N90       1.0  0.87561  0.47153  0.13419  1.0000
  H   H2900     1.0  0.84953  0.32266  0.52619  1.0000
  H   H2901     1.0  0.81674  0.39035  0.27075  1.0000
  H   H2902     1.0  0.88940  0.46831  0.16731  1.0000
  C   C1659     1.0  0.84300  0.39848  0.26199  1.0000
  C   C1660     1.0  0.79407  0.28801  0.91352  1.0000
  H   H2903     1.0  0.89543  0.44566  0.16594  1.0000
  H   H2904     1.0  0.85120  0.47937  0.23735  1.0000
  H   H2905     1.0  0.76081  0.42779  0.15226  1.0000
  H   H2906     1.0  0.84228  0.40304  0.17622  1.0000
  H   H2907     1.0  0.87722  0.45519  0.17868  1.0000
  H   H2908     1.0  0.97419  0.44769  0.86507  1.0000
  C   C1661     1.0  0.84670  0.39744  0.30609  1.0000
  H   H2909     1.0  0.83949  0.36810  0.04901  1.0000
  C   C1662     1.0  0.87033  0.47642  0.17270  1.0000
  H   H2910     1.0  0.85321  0.46157  0.20742  1.0000
  C   C1663     1.0  0.85612  0.47293  0.25122  1.0000
  H   H2911     1.0  0.85226  0.39085  0.30984  1.0000
  H   H2912     1.0  0.97765  0.43665  0.80718  1.0000
  C   C1664     1.0  0.89052  0.45849  0.11562  1.0000
  C   C1665     1.0  0.81242  0.28106  0.91079  1.0000
  H   H2913     1.0  0.92017  0.49511  0.87003  1.0000
  C   C1666     1.0  0.86106  0.46676  0.21574  1.0000
  H   H2914     1.0  0.83646  0.33074  0.48419  1.0000
  H   H2915     1.0  0.79154  0.39184  0.21696  1.0000
  H   H2916     1.0  0.80106  0.29615  0.88804  1.0000
  C   C1667     1.0  0.84772  0.35688  0.09203  1.0000
  C   C1668     1.0  0.88313  0.46347  0.15104  1.0000
  H   H2917     1.0  0.89545  0.46570  0.08323  1.0000
  C   C1669     1.0  0.89993  0.45321  0.13383  1.0000
  H   H2918     1.0  0.81063  0.34975  0.43007  1.0000
  C   C1670     1.0  0.82000  0.39168  0.23328  1.0000
  H   H2919     1.0  0.86540  0.46012  0.23220  1.0000
  H   H2920     1.0  0.84030  0.31488  0.05568  1.0000
  H   H2921     1.0  0.82329  0.36017  0.11456  1.0000
  C   C1671     1.0  0.96394  0.35615  0.04330  1.0000
  H   H2922     1.0  0.78289  0.29838  0.47883  1.0000
  C   C1672     1.0  0.83989  0.33940  0.03864  1.0000
  H   H2923     1.0  0.76341  0.33631  0.95192  1.0000
  H   H2924     1.0  0.81677  0.28650  0.87430  1.0000
  H   H2925     1.0  0.81545  0.30125  0.46816  1.0000
  H   H2926     1.0  0.84971  0.46581  0.28194  1.0000
  H   H2927     1.0  0.84432  0.32421  0.41269  1.0000
  C   C1673     1.0  0.80528  0.34815  0.13868  1.0000
  H   H2928     1.0  0.89043  0.49775  0.43036  1.0000
  H   H2929     1.0  0.86413  0.37224  0.06534  1.0000
  H   H2930     1.0  0.96640  0.35218  0.07451  1.0000
  H   H2931     1.0  0.82767  0.39690  0.13320  1.0000
  H   H2932     1.0  0.83664  0.30868  0.44473  1.0000
  C   C1674     1.0  0.81394  0.31056  0.46112  1.0000
  Fe  Fe190     1.0  0.79689  0.30469  0.08815  1.0000
  H   H2933     1.0  0.79391  0.28993  0.48521  1.0000
  H   H2934     1.0  0.87420  0.49549  0.44223  1.0000
  C   C1675     1.0  0.91240  0.34398  0.03954  1.0000
  C   C1676     1.0  0.98323  0.45069  0.83947  1.0000
  H   H2935     1.0  0.85214  0.40659  0.30537  1.0000
  H   H2936     1.0  0.99279  0.48359  0.13527  1.0000
  H   H2937     1.0  0.82362  0.34065  0.35296  1.0000
  H   H2938     1.0  0.90482  0.49119  0.53988  1.0000
  H   H2939     1.0  0.87761  0.48115  0.18519  1.0000
  H   H2940     1.0  0.77415  0.37330  0.02370  1.0000
  H   H2941     1.0  0.79081  0.29977  0.52118  1.0000
  C   C1677     1.0  0.76272  0.33940  0.98317  1.0000
  S   S379      1.0  0.81183  0.30456  0.12579  1.0000
  H   H2942     1.0  0.75846  0.37736  0.95773  1.0000
  S   S380      1.0  0.77657  0.30092  0.11608  1.0000
  H   H2943     1.0  0.84156  0.36454  0.88294  1.0000
  S   S381      1.0  0.96328  0.49925  0.86609  1.0000
  H   H2944     1.0  0.78063  0.39086  0.92725  1.0000
  C   C1678     1.0  0.87195  0.50073  0.52891  1.0000
  H   H2945     1.0  0.79881  0.34199  0.12709  1.0000
  C   C1679     1.0  0.84316  0.36000  0.04912  1.0000
  C   C1680     1.0  0.81635  0.35107  0.39502  1.0000
  H   H2946     1.0  0.82361  0.32472  0.04817  1.0000
  H   H2947     1.0  0.85290  0.34996  0.09001  1.0000
  N   N91       1.0  0.79884  0.27676  0.91965  1.0000
  C   C1681     1.0  0.75734  0.40354  0.07767  1.0000
  H   H2948     1.0  0.98884  0.47653  0.81296  1.0000
  C   C1682     1.0  0.78258  0.28730  0.89646  1.0000
  C   C1683     1.0  0.81719  0.35428  0.10093  1.0000
  H   H2949     1.0  0.82216  0.34737  0.00049  1.0000
  H   H2950     1.0  0.80106  0.35529  0.14791  1.0000
  H   H2951     1.0  0.82338  0.40181  0.21834  1.0000
  H   H2952     1.0  0.80438  0.40497  0.20386  1.0000
  H   H2953     1.0  0.78422  0.30696  0.88091  1.0000
  C   C1684     1.0  0.79651  0.27012  0.88489  1.0000
  C   C1685     1.0  0.83271  0.32898  0.02373  1.0000
  H   H2954     1.0  0.81632  0.27312  0.91661  1.0000
  H   H2955     1.0  0.81519  0.36028  0.07258  1.0000
  H   H2956     1.0  0.84817  0.32264  0.99590  1.0000
  H   H2957     1.0  0.98575  0.50260  0.12514  1.0000
  H   H2958     1.0  0.81582  0.33795  0.07829  1.0000
  C   C1686     1.0  0.83434  0.36147  0.91598  1.0000
  H   H2959     1.0  0.84475  0.35170  0.95023  1.0000
  H   H2960     1.0  0.82977  0.36886  0.91820  1.0000
  H   H2961     1.0  0.77531  0.27875  0.91545  1.0000
  H   H2962     1.0  0.84315  0.32396  0.19001  1.0000
  C   C1687     1.0  0.83917  0.31891  0.02177  1.0000
  H   H2963     1.0  0.83157  0.33246  0.98948  1.0000
  H   H2964     1.0  0.84668  0.36725  0.95294  1.0000
  H   H2965     1.0  0.78495  0.28762  0.85977  1.0000
  C   C1688     1.0  0.82303  0.34461  0.08491  1.0000
  C   C1689     1.0  0.83000  0.35437  0.00224  1.0000
  H   H2966     1.0  0.86692  0.47917  0.66772  1.0000
  H   H2967     1.0  0.95497  0.35485  0.97270  1.0000
  H   H2968     1.0  0.82532  0.35760  0.38912  1.0000
  N   N92       1.0  0.88143  0.49365  0.52652  1.0000
  H   H2969     1.0  0.96387  0.36578  0.04188  1.0000
  H   H2970     1.0  0.86362  0.47799  0.26177  1.0000
  H   H2971     1.0  0.83350  0.33918  0.41232  1.0000
  H   H2972     1.0  0.93556  0.35059  0.86601  1.0000
  H   H2973     1.0  0.94772  0.36383  0.00159  1.0000
  C   C1690     1.0  0.98501  0.43970  0.82233  1.0000
  H   H2974     1.0  0.81056  0.38726  0.18277  1.0000
  C   C1691     1.0  0.80844  0.38725  0.21887  1.0000
  H   H2975     1.0  0.90558  0.35495  0.08190  1.0000
  H   H2976     1.0  0.99385  0.44221  0.79583  1.0000
  N   N93       1.0  0.82482  0.31978  0.42559  1.0000
  H   H2977     1.0  0.84014  0.35315  0.12399  1.0000
  H   H2978     1.0  0.82001  0.30502  0.31819  1.0000
  C   C1692     1.0  0.82419  0.33281  0.42286  1.0000
  H   H2979     1.0  0.88160  0.48583  0.38397  1.0000
  C   C1693     1.0  0.79173  0.29874  0.48630  1.0000
  C   C1694     1.0  0.85613  0.36831  0.09597  1.0000
  H   H2980     1.0  0.81182  0.35513  0.37033  1.0000
  C   C1695     1.0  0.93304  0.35336  0.95584  1.0000
  H   H2981     1.0  0.94502  0.34826  0.07716  1.0000
  H   H2982     1.0  0.97096  0.35617  0.01298  1.0000
  H   H2983     1.0  0.92655  0.34378  0.07260  1.0000
  H   H2984     1.0  0.94935  0.36758  0.91136  1.0000
  C   C1696     1.0  0.99260  0.42537  0.01305  1.0000
  C   C1697     1.0  0.75915  0.37570  0.99336  1.0000
  C   C1698     1.0  0.00101  0.43031  0.03472  1.0000
  H   H2985     1.0  0.95024  0.35247  0.91043  1.0000
  C   C1699     1.0  0.79351  0.26847  0.96794  1.0000
  H   H2986     1.0  0.92735  0.35857  0.03866  1.0000
  H   H2987     1.0  0.92517  0.32935  0.00268  1.0000
  H   H2988     1.0  0.93355  0.31128  0.99046  1.0000
  H   H2989     1.0  0.93380  0.32929  0.04196  1.0000
  C   C1700     1.0  0.99637  0.47767  0.82885  1.0000
  C   C1701     1.0  0.92582  0.34873  0.03899  1.0000
  H   H2990     1.0  0.94458  0.31433  0.02151  1.0000
  C   C1702     1.0  0.93402  0.33393  0.00644  1.0000
  H   H2991     1.0  0.81980  0.33348  0.45725  1.0000
  H   H2992     1.0  0.81859  0.31908  0.36557  1.0000
  C   C1703     1.0  0.82827  0.30366  0.32785  1.0000
  H   H2993     1.0  0.94210  0.33255  0.93851  1.0000
  H   H2994     1.0  0.98326  0.45795  0.80972  1.0000
  N   N94       1.0  0.93532  0.34745  0.00023  1.0000
  C   C1704     1.0  0.95146  0.34855  0.04503  1.0000
  H   H2995     1.0  0.88542  0.47869  0.50117  1.0000
  H   H2996     1.0  0.95208  0.33907  0.04655  1.0000
  H   H2997     1.0  0.79737  0.39547  0.26221  1.0000
  C   C1705     1.0  0.86721  0.47703  0.60023  1.0000
  C   C1706     1.0  0.94754  0.35415  0.00268  1.0000
  H   H2998     1.0  0.78669  0.26715  0.88808  1.0000
  H   H2999     1.0  0.83544  0.31237  0.13977  1.0000
  H   H3000     1.0  0.86968  0.50269  0.56259  1.0000
  H   H3001     1.0  0.83432  0.32468  0.35402  1.0000
  H   H3002     1.0  0.87732  0.48852  0.08451  1.0000
  H   H3003     1.0  0.95301  0.33565  0.96988  1.0000
  H   H3004     1.0  0.88222  0.49228  0.59574  1.0000
  C   C1707     1.0  0.87993  0.48611  0.57451  1.0000
  H   H3005     1.0  0.92438  0.50158  0.48339  1.0000
  Fe  Fe191     1.0  0.96680  0.50200  0.93321  1.0000
  H   H3006     1.0  0.87178  0.47427  0.43487  1.0000
  C   C1708     1.0  0.77977  0.26208  0.98272  1.0000
  S   S382      1.0  0.97440  0.50194  0.05004  1.0000
  C   C1709     1.0  0.75536  0.34879  0.98259  1.0000
  H   H3007     1.0  0.90429  0.49777  0.02885  1.0000
  H   H3008     1.0  0.86328  0.49502  0.52707  1.0000
  H   H3009     1.0  0.76213  0.37577  0.08299  1.0000
  H   H3010     1.0  0.77204  0.34355  0.98401  1.0000
  H   H3011     1.0  0.81115  0.26092  0.87665  1.0000
  N   N95       1.0  0.99388  0.46731  0.87172  1.0000
  H   H3012     1.0  0.75831  0.33125  0.01346  1.0000
  H   H3013     1.0  0.99945  0.45247  0.94571  1.0000
  H   H3014     1.0  0.99987  0.44871  0.13868  1.0000
  H   H3015     1.0  0.93838  0.50130  0.89624  1.0000
  H   H3016     1.0  0.99782  0.43009  0.07006  1.0000
  H   H3017     1.0  0.76011  0.35680  0.95216  1.0000
  H   H3018     1.0  0.76185  0.35337  0.03769  1.0000
  H   H3019     1.0  0.99132  0.44763  0.89407  1.0000
  H   H3020     1.0  0.89183  0.49475  0.12956  1.0000
  H   H3021     1.0  0.75648  0.27696  0.97230  1.0000
  H   H3022     1.0  0.99996  0.47675  0.05495  1.0000
  H   H3023     1.0  0.90957  0.50667  0.06408  1.0000
  C   C1710     1.0  0.91694  0.50612  0.48478  1.0000
  C   C1711     1.0  0.00006  0.45567  0.10759  1.0000
  H   H3024     1.0  0.75622  0.44161  0.13597  1.0000
  H   H3025     1.0  0.89563  0.50862  0.47488  1.0000
  H   H3026     1.0  0.77471  0.26905  0.98464  1.0000
  H   H3027     1.0  0.79841  0.26134  0.97449  1.0000
  H   H3028     1.0  0.75975  0.35924  0.09849  1.0000
  H   H3029     1.0  0.75698  0.36719  0.16545  1.0000
  C   C1712     1.0  0.75528  0.36670  0.09843  1.0000
  C   C1713     1.0  0.92209  0.50764  0.13376  1.0000
  H   H3030     1.0  0.00357  0.45262  0.07735  1.0000
  H   H3031     1.0  0.00163  0.48804  0.73456  1.0000
  H   H3032     1.0  0.00205  0.45499  0.84077  1.0000
  H   H3033     1.0  0.00452  0.50133  0.98427  1.0000
  H   H3034     1.0  0.00441  0.47074  0.13537  1.0000
  C   C1714     1.0  0.00441  0.47012  0.89142  1.0000
  H   H3035     1.0  0.86033  0.51929  0.52936  1.0000
  S   S383      1.0  0.96966  0.51878  0.95915  1.0000
  H   H3036     1.0  0.93310  0.61528  0.02621  1.0000
  H   H3037     1.0  0.92595  0.61687  0.10503  1.0000
  H   H3038     1.0  0.91943  0.63044  0.00603  1.0000
  C   C1715     1.0  0.93542  0.62374  0.99745  1.0000
  H   H3039     1.0  0.92294  0.64702  0.09591  1.0000
  N   N96       1.0  0.92794  0.63454  0.05773  1.0000
  C   C1716     1.0  0.93254  0.62009  0.95637  1.0000
  H   H3040     1.0  0.94451  0.62941  0.06047  1.0000
  H   H3041     1.0  0.91263  0.61012  0.06118  1.0000
  C   C1717     1.0  0.92859  0.63308  0.01066  1.0000
  C   C1718     1.0  0.95502  0.64081  0.11061  1.0000
  H   H3042     1.0  0.94537  0.62794  0.98795  1.0000
  C   C1719     1.0  0.92031  0.62310  0.09562  1.0000
  C   C1720     1.0  0.94075  0.63741  0.06169  1.0000
  H   H3043     1.0  0.92372  0.51741  0.11896  1.0000
  H   H3044     1.0  0.85699  0.51226  0.48591  1.0000
  C   C1721     1.0  0.91026  0.64484  0.05769  1.0000
  H   H3045     1.0  0.93495  0.62833  0.92653  1.0000
  H   H3046     1.0  0.90910  0.64272  0.02597  1.0000
  H   H3047     1.0  0.93322  0.64208  0.98420  1.0000
  C   C1722     1.0  0.86411  0.51843  0.49478  1.0000
  H   H3048     1.0  0.93788  0.61375  0.94689  1.0000
  H   H3049     1.0  0.90366  0.62031  0.07221  1.0000
  H   H3050     1.0  0.90657  0.59917  0.14449  1.0000
  H   H3051     1.0  0.91358  0.66452  0.02688  1.0000
  H   H3052     1.0  0.92276  0.61528  0.96469  1.0000
  H   H3053     1.0  0.93562  0.63407  0.13669  1.0000
  H   H3054     1.0  0.91679  0.62559  0.12737  1.0000
  C   C1723     1.0  0.90939  0.61495  0.08622  1.0000
  C   C1724     1.0  0.90130  0.60511  0.12982  1.0000
  H   H3055     1.0  0.89731  0.60941  0.15558  1.0000
  H   H3056     1.0  0.88218  0.52018  0.50042  1.0000
  C   C1725     1.0  0.92323  0.64549  0.06199  1.0000
  H   H3057     1.0  0.92955  0.65399  0.03614  1.0000
  H   H3058     1.0  0.90351  0.63780  0.08773  1.0000
  H   H3059     1.0  0.00223  0.52958  0.05912  1.0000
  H   H3060     1.0  0.89377  0.59922  0.12192  1.0000
  C   C1726     1.0  0.90732  0.65708  0.05700  1.0000
  H   H3061     1.0  0.94684  0.64517  0.03196  1.0000
  H   H3062     1.0  0.89790  0.65631  0.05485  1.0000
  H   H3063     1.0  0.87880  0.51309  0.45782  1.0000
  H   H3064     1.0  0.90802  0.65959  0.08866  1.0000
  Fe  Fe192     1.0  0.98581  0.51406  0.98035  1.0000
  H   H3065     1.0  0.86676  0.52767  0.46975  1.0000
  C   C1727     1.0  0.94237  0.64072  0.10568  1.0000
  H   H3066     1.0  0.95603  0.64354  0.14159  1.0000
  H   H3067     1.0  0.94134  0.65008  0.10437  1.0000
  H   H3068     1.0  0.96211  0.64748  0.08048  1.0000
  H   H3069     1.0  0.95644  0.63151  0.11425  1.0000
  S   S384      1.0  0.94273  0.51062  0.06856  1.0000
  C   C1728     1.0  0.87519  0.51345  0.49308  1.0000
  H   H3070     1.0  0.91806  0.51255  0.50591  1.0000
  H   H3071     1.0  0.91770  0.51138  0.44947  1.0000
  H   H3072     1.0  0.99927  0.51064  0.13580  1.0000
