data_image0
_chemical_formula_structural       SHFe2S2H3CFeCH3SFeSHFeS2FeSFeS3C6H4C6H4C6H5NCH4SC2SHC2HSH2CH4CNC11H26CHCHSHSC2H3CH8CH2C2FeCH2CH3SHCH3CH9NSHFeCH3C4FeHCHCH2FeH2CH3SH6CH2SCH3CNHC2HCHC3HC2H6CHSHCH6C3FeH2C2HCH3CH5CHC2H3CH6NCH5C2H2CH2CHC2SH3SHNH2CHCHCH6C3H2CH5CHFeSHFeS2FeSFeS3FeH2CHCHFeSH2FeS2FeS2FeSFeS4H2C2FeCSH2CSH4S2HC6H4C2H3CHC2HC6HCH2C3HC3HCH2C6H4C4HCH2CH2CHSCH2C2H4CNC7H6CH2FeH2SHNC12H28FeH6CHCHCH2SC2H10CHC2SH3CH12CH3C2H2NH3CHCHCFeC3H6CFeC2H3CH5NH4CH3C2H3C2HC4H2CH3C2H2CHNH3CHCH3CH3CHCH5CH4CSH2SH2S2HCFeH2CHCH7C3HCNH2C2NFeCH3CFeSC2FeS2FeSFeSFeHS2H2SH3FeSHSC7H4NHC7H5CHCSH5CFeH5CH6SH5C5H6CH2CH4CNCH2CSCHC3H4CHCHCHC4H2CH3CSHCH3C2H3CH12C2HC3HSH10SH2CH2CH2S2CHCH2CHC2H4C2HC2FeHFeS2FeS2FeSFeS3C2FeCSH7SFeS2FeSHFeSFeS3H2C3HCH3CH2CFeCHCHC6H4C6H4C6HCH3SC2HNCH3CHCH10CH4CH5CH8C2HC2H2CH4C2H6SHCH3CH2CH5CH3CH2CH3NH3C2HNH5CHSHCHCH5C2HCH2C5HC8H4CH8CHCHCH2NH2C2H3NCH2CHCHCH2CH2CH4FeH2CH3CH4SHC2HCH2CSCFeCH4C4H4CH12CH2CHCHC4HCH2C3HCH2CH2C2HCHNC2HNC2HCH7S2H3C2H4CH2C2FeH3C2H4CH2SH3FeSHFeS2FeSFeS3HSHCFe2SH3CH5S2FeSFeS2FeS2FeSFeS3C6H4C2H2C6H4C2HC3HCH2NCHCH2SHC6H4C6H3C2SH2CHCH6C3H3C2H2C2H3C2HS2C3H4CHC2HSHCH3CH2C2H6NC12H28C2H5C3HNHNC12H36CH3C2H6C2H2SHC2H2NHS2HNC10H18CH5C2HCH2FeCH2SCHCNH3SH2CFeH2CHCH5C2HCH5FeH2C2NC5HSH2CH13CHFeH2C2H6FeH2CHCH3CHCH2NH2C2NH2CHSCHCHC2H2C3H4CSH5CH2SC2H5FeS2FeS2FeSFeS5FeSFeC2SH3C2H3NCSHNH6CHC2HSFeSHSH2C2HCH2CHSCH3NH3CHCHC3H2SC2H3C6H7NC6H4C6H3C7H4CH9CHCH3CH2CFeHCHC2FeHCSH2NH2C2HC2H3C4H6CH11CH3NC5HC2HSCH8SHCH3CH5CH5CH9CH2SNC4FeHC2H9CH2CH6C2HCH4CH3CH2SH2C5H16C3H2CH2C2HCH3C3H3CHC2HCH5SHCH7FeSH2CHCH2C2H2FeC4HC2H3CSHCSC3H5FeHCHSH2FeHCFeH2CHCH3FeH2C2SHS2H2NHCH5CSCSCH5CSH2CH3FeHCHCH3C2SH8Fe2S2FeCFeHS2FeSHSFeS2FeS2FeSFeS3H2SCH5FeS2FeS2FeSFeS3CHCHCH2NH2CNHC4HFeHC6H4C6H2C6H4CNCH2C2H7S2C6H4C6H9C2H2NC12H28CH6NC12H28C3H5CH2SH2SC2HC5HCHCHCH3C2HC2H6C3HSNH2CH3SCH5NH2C3HC5H2CH2C2H2C2H10CHCHCSHC2HFeHCH5CH2FeHCHNHCH2CH3CH3C4HC4HC3H2NC2HCH2CHCSH5CH3CH2CH3CH3CH3CSH2CHSHCSH5SCNHFeHCHSC2H3CH3CHC5H7CHCH4C3H2CH2SHCHCHCH3C2SCH9CH2CH3CH2SH3CH3CHCH3CH4CH2S2H3CH9CNH2CHCHC2HCH2CHCHC2HSCH4C4HFeSCSCH3SH4CH3CHCH5SCH3C2H2CNHCH5CH2S2CSH2CSH2CHC5H2CHC3FeCH2C2H6CHNH2CH2CH4SH5CHCN2H2C3HCH2NC12H29CH2C4H2C3H3FeH6CH3C2H5SCHSCFeSH2SFeS2FeS2Fe2S3CNHCH5CH2C6H4FeH3C6H5CFeCHCH11CHCH3CH10CH4CH3NHC2H2CHC2HCHC2HSCH4C2H2CH2CH2CH4CH2CHC2HFeCH5C2HS2C4HCH2CH8CHCHCHCH4SFeSFeSFeS2HCFeH2FeC2N2CSCH2C4FeH4C3H2C2H2CH4C2SH2CH2C3H2CHCH3SC2HCHCH6NH2CHCHC3H2CH3C3H2S2HCH3C2FeSCHCHC2H5CHCH2CH2CH2C4H3CH4C3HCH2S2CH2C2H2CH3FeH4NCHC4H3CHCH7SCSHC2H4CHCS2HCHCH4CH4SCHCHCHCHC3H7SH4C3H3CH2FeH2CH2C2HCH2CH4FeHSHCH3CFeH4C2H4CSH8CH2CH2CH2CH2NH4CHNC2HFeS2FeSFeHFeS4FeSFeS2FeS2FeSFeS3C6H4CH2C6H5CH2CH8CH2C4H3C7H7FeH2CH3CH3NH2C2H3S2CH5CH4CFeHCH5CH4CHCHCHC2H2CSH4Fe2HC2H3C3H2CH2CH2CHC2H8CH2C2H2CHC2H3CH3SCHC3H2CH2C2H7SHCHCHC2H4NC8HC3H17C2H10C3H3CHCNHCH2CHCHCHCSC2H7C2HNCH3C2HCHCHCH4CH8NC8HC2H4CH3CSCH3CHC2HC2HCH6SH5CH2NH4CHC2H6SC3FeS2FeS2FeSFeS3HSHSFeS2FeS2FeSFeS3CHCH7SFeS2CHCFeCHSCH6CH3C4H4C6H4C7H4C2H2CH3C3HC6H4C2H2C7HCH3CH2FeHCNH2CH3CH13SHCHNC6H2C2FeH3CH11CH6CH2CHC2HCH6FeC2HC2HNC12H28CH4C3H6CH2CH7NH2CH2C2FeHCH6NC11H11CHC2H4C2HC2H2CH2CHCH3CH2SH4CHCHCHCH2NCH3CSCH5CHSHCHCH3CH2CHCHC2H2C2H5FeHCHCHCHSH5S2H2CH2C2H4CH4CFeH2SCHC2H2C3HCHSFeHFeH2C2FeS2FeHSCHFeHS2FeS2FeSHFeSFeS3FeSFeS2FeSFeS3H3SCHC2HCH2CH2C4H2CHCH4CH6C4H5C7H4C6H9CH2C3HCNCFeH4C2H2CH3CSCH2C2H2FeH2CHCHCH2NC9H7CH10SH2SH2NC12H32CH2CH4C2H6CH2C3HCNFeHC4HCH3CHC3H4SHC2HCH6C2HC2H2C3H2CHCH2CSH5C2H2CSC2NC2H4NHCHCHCHCH3CSCH3SCH3N2CH4C2H4CH3CHNH4CH3CH7SCH2FeS2FeS2FeSFeS3HCH2CHSCFeS2Fe2CFeHS2H7C7H3C7H4C2H5CSC6H4C6H3CNC9H2CH18SH3CH13SCH4CHC3HC2H8C3H2CH8C2H2SH4NCHC2NHCH2C3H5SHCHC2H2CH5C2H3NC3H4CH8C2HCH2CH4CH3C2HNCHCHC2HCHNCH4CHC2FeHCH11CH4SCHCH4C2H4CHCH4NHC2HCH5C3H4CHCH2SCFe2CH6CHSHFeSFeS3H2C6H8C2FeCHC7HCHC2H3C3HCHC3HCH5CHC2H3CH5CH7CH2C4H5C3H2CH6CH3NSH5NCH2SH2NH6CSHCH2C2H3CHCHC2HC2H3C2H5SHCHCH2FeC2H2CSHCSH8CH2CHSH6SHCH2SCH2CHCFeCH4NC2HNH2CHSC2H4SFeHNHFeHSFeS2CFeS2FeS2FeSFeS3FeS2FeS2FeSFeS3HC2SH3SHCHSHSH6FeSFeS2FeSFeS3C7H3C2FeHC3HCH2C2NC6H4C6H4SCFeC8H4C6H8C6H12C3H4CHNHCH2CH2NC11H28CHCHCH2CH3C2H2CHFeH4CH7C2HCHCH5NC12H29C5HCNC12H29SH3CH5C2NH2FeHCH9CH2CH2CH2C2H2CH3CSH2CHCSHC2HCH4CHSC6H9CHCHC2H2NCH2C2HCH5CH4CSH4C4H2CHFeS2FeS2FeSFeS3HFeS3HSHFeSH2SHFeCFeSHSHSH2CHCH2SHCHC4H4C4H2C6H4C6H4C6H4C6H6C3H5CH5CHCH2CH7C2H2SCH2FeHCH3CSHCFeC2HC3HCFeHNC6H8CH7CH8CH7FeH2NSC2H3CH3CH3CHNH3C2NC5H2C3H14CH16CSNC10HCH16CH5C3H4C2HSH4CH4SCHSH3NCHC2H2CH3CHFeSFeS2FeS2FeSFeS3H2CSFeS2FeS2FeSFeS3C2HCHCH4C6H6SCH3C5H5C7H5C6H4C6H5CHC2HCHCH2SH2CH2NC2H3CH3CNC5HCH2CH11CH4C2H5NC2SHCHC2H2FeC2H13FeH4C3H5NC11H22CHSH6SHNC2HC3H5CHCH4CHCH3CH3C2HNC12H29CHC2NC2H2CH6CSH4FeC3H6CH2CH3CHCHCHCH2CHC3H3C3H2CH2CH2CH4CHC2HCH2CHCSHNH2CHCHCH2C2HCH2CH2CHCH4CH3CH3CH7CH4CH2CH3C2H4CHC2H2FeS2FeSFeSFeS2FeSHS2H3FeS2FeSHFeHFeS3HFeS2FeS2FeCFeS3HCH3C3H2CH2CHNC7H8C5H2C3H2CHCH2SCH2CHCSHC6H10C7H4CH3CHC6H4CH4CH8SHC5HCHCSCH2C2H3C4FeH3CNC12H30SH2SH6CH7CH10NC9H20NC6HC3H12C2HCH5C2NC5H9FeH4C2SH6CSFeC2H2CH3CH4CHCHCHCNCH2CH3C2NH5C2H4NCHCH3CHC2H5CH4C4H2C4H2SH2SCHCH3SCSH3C2H6CH5CHCH3C2H2CHC2HCHSH3CH6NH2CH2CHSHCFeCHSCHC2H4CHFe2S2HCFeHC2HSCSC2FeC2SC2HSHSC2H2C5SCH5C2HFeCH5C6H5CHC2H5CHC2H3CHSHC2H8CH2CFeH4CHCFeH2SCH2C2FeSCHCHSHC3H4SH3CHCH2CH2C2H3FeH2CH3CH5SNH2CH2CH2C3HFeHCH2NC2H2SH7C3HC2H6SH2CH4NCHC2HC2FeH5CH2SH7CSHNHC2H4C4H3C3H2CH7SCH3FeCHCH4CHSHCFeS2C2SCHSHCFeS2H2NH2SCS2H3SCH2C2HCFeS2FeS2Fe3S3FeSCFeS2FeSFeCS2H5CH5CHCSH2CNHC2HC6H4C2H2FeHCHCFeHCHCH5C7H4C6H4C5FeH2C2NHC4H3CSHC2H2C2H2CH3CH8CH7CH3C6H4CH4C2H5CH2CH5CH2C2H3C3SHCSFeHNC2H3CHC2HCH5FeHCH4SH7C2H4NH2C2H2C2HC2HCHSH2SCH2NC7HC2H12CHSH2NH2CH2SH2CHCH9CH6C3H4CH9CSFeC3HC4H4CH3C2H5C2HFeSHFeS2Fe2HS2HFeS3CS2HSH6FeSHFeSFeSH2C2HC6H4SH3CH2CHNCFeHCH2C6H4C2HCH2C2HCHCH5CHCH4C2HC4NCFe2HC2H2FeCH3CH3CH2FeHCHCHCHCH2C2HCH3CHCHCHSH2C4HC3HCH2C2H2C2H2SH3CSCFeH3CH3CH7CH4CH6C2H2C2H3CHCH4CFeHCSC2HCH2CH2SH2SHSHSHC3H2S2HCH4CHCNHCSH2NC8HCH14CH8NC9SC2H24CH3CH4FeCHSH3SH3CH2CH2C2HC2H2CH4CHCH2CH5
_chemical_formula_sum              "S576 H4608 Fe288 C2592 N144"
_cell_length_a       64.0147
_cell_length_b       64.7714
_cell_length_c       97.2707
_cell_angle_alpha    77.0844
_cell_angle_beta     77.6378
_cell_angle_gamma    102.068

_space_group_name_H-M_alt    "P 1"
_space_group_IT_number       1

loop_
  _space_group_symop_operation_xyz
  'x, y, z'

loop_
  _atom_site_type_symbol
  _atom_site_label
  _atom_site_symmetry_multiplicity
  _atom_site_fract_x
  _atom_site_fract_y
  _atom_site_fract_z
  _atom_site_occupancy
  S   S1        1.0  0.43763  0.32024  0.03291  1.0000
  H   H1        1.0  0.49320  0.16342  0.08937  1.0000
  Fe  Fe1       1.0  0.39666  0.33647  0.23193  1.0000
  Fe  Fe2       1.0  0.04380  0.08384  0.10994  1.0000
  S   S2        1.0  0.04963  0.06953  0.13161  1.0000
  S   S3        1.0  0.07422  0.09996  0.09074  1.0000
  H   H2        1.0  0.24822  0.19551  0.00495  1.0000
  H   H3        1.0  0.10054  0.16917  0.03889  1.0000
  H   H4        1.0  0.01973  0.10325  0.06612  1.0000
  C   C1        1.0  0.23452  0.30901  0.99725  1.0000
  Fe  Fe3       1.0  0.02288  0.04015  0.13273  1.0000
  C   C2        1.0  0.04061  0.15726  0.12919  1.0000
  H   H5        1.0  0.21296  0.17227  0.22965  1.0000
  H   H6        1.0  0.13632  0.04695  0.20649  1.0000
  H   H7        1.0  0.05148  0.03564  0.21428  1.0000
  S   S4        1.0  0.09355  0.10946  0.19315  1.0000
  Fe  Fe4       1.0  0.15107  0.25659  0.01615  1.0000
  S   S5        1.0  0.18417  0.24964  0.01078  1.0000
  H   H8        1.0  0.08310  0.04397  0.14516  1.0000
  Fe  Fe5       1.0  0.13270  0.21827  0.04402  1.0000
  S   S6        1.0  0.16434  0.20787  0.04127  1.0000
  S   S7        1.0  0.10083  0.20269  0.06214  1.0000
  Fe  Fe6       1.0  0.18123  0.24403  0.03480  1.0000
  S   S8        1.0  0.21092  0.25936  0.04146  1.0000
  Fe  Fe7       1.0  0.16462  0.21425  0.01757  1.0000
  S   S9        1.0  0.14958  0.25403  0.03971  1.0000
  S   S10       1.0  0.13157  0.22162  0.02082  1.0000
  S   S11       1.0  0.29101  0.22216  0.01828  1.0000
  C   C3        1.0  0.23310  0.24841  0.03589  1.0000
  C   C4        1.0  0.22932  0.22622  0.03612  1.0000
  C   C5        1.0  0.24725  0.21780  0.03139  1.0000
  C   C6        1.0  0.26882  0.23182  0.02582  1.0000
  C   C7        1.0  0.27252  0.25399  0.02552  1.0000
  C   C8        1.0  0.25478  0.26214  0.03089  1.0000
  H   H9        1.0  0.21261  0.21553  0.04002  1.0000
  H   H10       1.0  0.24429  0.20069  0.03154  1.0000
  H   H11       1.0  0.28906  0.26493  0.02117  1.0000
  H   H12       1.0  0.25784  0.27924  0.03077  1.0000
  C   C9        1.0  0.08170  0.12859  0.08328  1.0000
  C   C10       1.0  0.10225  0.13894  0.07286  1.0000
  C   C11       1.0  0.10829  0.16170  0.06625  1.0000
  C   C12       1.0  0.09379  0.17418  0.07007  1.0000
  C   C13       1.0  0.07326  0.16383  0.08049  1.0000
  C   C14       1.0  0.06726  0.14109  0.08715  1.0000
  H   H13       1.0  0.11344  0.12929  0.06979  1.0000
  H   H14       1.0  0.12413  0.16957  0.05817  1.0000
  H   H15       1.0  0.06195  0.17344  0.08340  1.0000
  H   H16       1.0  0.05128  0.13319  0.09502  1.0000
  C   C15       1.0  0.07275  0.10662  0.18389  1.0000
  C   C16       1.0  0.07678  0.10034  0.17088  1.0000
  C   C17       1.0  0.06039  0.09767  0.16335  1.0000
  C   C18       1.0  0.03998  0.10164  0.16869  1.0000
  C   C19       1.0  0.03613  0.10840  0.18153  1.0000
  C   C20       1.0  0.05239  0.11070  0.18919  1.0000
  H   H17       1.0  0.09264  0.09751  0.16664  1.0000
  H   H18       1.0  0.06354  0.09269  0.15339  1.0000
  H   H19       1.0  0.13453  0.10028  0.10851  1.0000
  H   H20       1.0  0.04917  0.11572  0.19915  1.0000
  H   H21       1.0  0.49213  0.28527  0.14001  1.0000
  N   N1        1.0  0.48544  0.32059  0.22670  1.0000
  C   C21       1.0  0.06084  0.14990  0.02299  1.0000
  H   H22       1.0  0.45680  0.32307  0.13609  1.0000
  H   H23       1.0  0.35218  0.32715  0.99558  1.0000
  H   H24       1.0  0.45658  0.30433  0.00824  1.0000
  H   H25       1.0  0.25025  0.23652  0.00103  1.0000
  S   S12       1.0  0.14071  0.28362  0.00268  1.0000
  C   C22       1.0  0.42650  0.30982  0.01973  1.0000
  C   C23       1.0  0.43930  0.30326  0.00879  1.0000
  S   S13       1.0  0.48359  0.30458  0.08919  1.0000
  H   H26       1.0  0.11398  0.06589  0.19250  1.0000
  C   C24       1.0  0.40406  0.30834  0.02020  1.0000
  C   C25       1.0  0.14124  0.19821  0.08410  1.0000
  H   H27       1.0  0.13140  0.21047  0.08337  1.0000
  S   S14       1.0  0.33356  0.28056  0.00206  1.0000
  H   H28       1.0  0.11310  0.09344  0.12549  1.0000
  H   H29       1.0  0.20397  0.13816  0.00604  1.0000
  C   C26       1.0  0.39452  0.30033  0.00994  1.0000
  H   H30       1.0  0.08751  0.06704  0.15264  1.0000
  H   H31       1.0  0.06911  0.13936  0.05705  1.0000
  H   H32       1.0  0.39400  0.31340  0.02858  1.0000
  H   H33       1.0  0.10150  0.17064  0.02038  1.0000
  C   C27       1.0  0.37402  0.21885  0.00172  1.0000
  N   N2        1.0  0.35587  0.23222  0.03914  1.0000
  C   C28       1.0  0.35825  0.21972  0.02778  1.0000
  C   C29       1.0  0.34510  0.21578  0.05400  1.0000
  C   C30       1.0  0.34193  0.24768  0.03551  1.0000
  C   C31       1.0  0.37812  0.24564  0.03924  1.0000
  C   C32       1.0  0.39562  0.23279  0.04141  1.0000
  C   C33       1.0  0.37198  0.23346  0.01202  1.0000
  C   C34       1.0  0.33606  0.26063  0.04678  1.0000
  C   C35       1.0  0.32028  0.20358  0.05686  1.0000
  C   C36       1.0  0.31144  0.18677  0.07197  1.0000
  C   C37       1.0  0.41785  0.24842  0.04023  1.0000
  C   C38       1.0  0.03581  0.14625  0.02416  1.0000
  H   H34       1.0  0.03571  0.11248  0.07787  1.0000
  H   H35       1.0  0.34161  0.21178  0.02685  1.0000
  H   H36       1.0  0.36558  0.20591  0.03117  1.0000
  H   H37       1.0  0.35413  0.20288  0.05565  1.0000
  H   H38       1.0  0.34662  0.22366  0.06294  1.0000
  H   H39       1.0  0.32634  0.23881  0.03364  1.0000
  H   H40       1.0  0.35080  0.26036  0.02493  1.0000
  H   H41       1.0  0.38549  0.25939  0.02901  1.0000
  H   H42       1.0  0.37610  0.25382  0.04818  1.0000
  H   H43       1.0  0.39868  0.22390  0.03300  1.0000
  H   H44       1.0  0.39004  0.22071  0.05242  1.0000
  H   H45       1.0  0.36377  0.24587  0.00757  1.0000
  H   H46       1.0  0.38909  0.24203  0.01165  1.0000
  H   H47       1.0  0.35099  0.27364  0.04603  1.0000
  H   H48       1.0  0.32980  0.24990  0.05819  1.0000
  H   H49       1.0  0.30977  0.21521  0.05652  1.0000
  H   H50       1.0  0.31799  0.19463  0.04858  1.0000
  H   H51       1.0  0.29366  0.17839  0.07374  1.0000
  H   H52       1.0  0.32081  0.17412  0.07276  1.0000
  H   H53       1.0  0.31276  0.19503  0.08072  1.0000
  H   H54       1.0  0.42991  0.23888  0.04240  1.0000
  H   H55       1.0  0.42482  0.25996  0.02903  1.0000
  H   H56       1.0  0.41589  0.25809  0.04831  1.0000
  H   H57       1.0  0.03962  0.15894  0.00074  1.0000
  H   H58       1.0  0.47599  0.30981  0.15521  1.0000
  H   H59       1.0  0.03797  0.15178  0.06492  1.0000
  C   C39       1.0  0.10084  0.13298  0.11954  1.0000
  H   H60       1.0  0.23949  0.19962  0.23219  1.0000
  C   C40       1.0  0.23953  0.15545  0.00155  1.0000
  H   H61       1.0  0.03376  0.14494  0.14011  1.0000
  S   S15       1.0  0.10596  0.09766  0.23098  1.0000
  H   H62       1.0  0.00904  0.11778  0.07858  1.0000
  S   S16       1.0  0.01782  0.09913  0.11938  1.0000
  C   C41       1.0  0.16320  0.19439  0.98937  1.0000
  C   C42       1.0  0.49436  0.31371  0.20095  1.0000
  H   H63       1.0  0.14547  0.17152  0.09982  1.0000
  H   H64       1.0  0.38343  0.22924  0.99045  1.0000
  H   H65       1.0  0.01669  0.09250  0.22374  1.0000
  C   C43       1.0  0.02436  0.11670  0.07118  1.0000
  H   H66       1.0  0.25926  0.24713  0.21435  1.0000
  H   H67       1.0  0.16460  0.30095  0.04016  1.0000
  H   H68       1.0  0.27121  0.33064  0.04582  1.0000
  H   H69       1.0  0.25051  0.15924  0.00861  1.0000
  H   H70       1.0  0.43990  0.29042  0.99007  1.0000
  H   H71       1.0  0.27995  0.33415  0.01909  1.0000
  H   H72       1.0  0.13119  0.19474  0.00170  1.0000
  H   H73       1.0  0.26049  0.29375  0.98986  1.0000
  C   C44       1.0  0.21663  0.12248  0.02299  1.0000
  H   H74       1.0  0.13482  0.15583  0.03390  1.0000
  H   H75       1.0  0.43272  0.31988  0.15069  1.0000
  C   C45       1.0  0.23066  0.21078  0.23669  1.0000
  C   C46       1.0  0.15676  0.32825  0.99381  1.0000
  Fe  Fe8       1.0  0.31311  0.25007  0.99922  1.0000
  C   C47       1.0  0.16168  0.30822  0.99377  1.0000
  H   H76       1.0  0.02945  0.06847  0.20358  1.0000
  H   H77       1.0  0.38309  0.20669  0.00529  1.0000
  C   C48       1.0  0.07236  0.19750  0.02281  1.0000
  H   H78       1.0  0.20359  0.31454  0.03861  1.0000
  H   H79       1.0  0.16931  0.31311  0.02085  1.0000
  H   H80       1.0  0.20963  0.15381  0.01855  1.0000
  S   S17       1.0  0.06964  0.12644  0.23036  1.0000
  H   H81       1.0  0.14030  0.32838  0.99948  1.0000
  C   C49       1.0  0.17501  0.31492  0.03062  1.0000
  H   H82       1.0  0.01433  0.04126  0.21466  1.0000
  H   H83       1.0  0.08055  0.01841  0.16864  1.0000
  H   H84       1.0  0.09534  0.12892  0.02636  1.0000
  C   C50       1.0  0.10191  0.13909  0.03304  1.0000
  H   H85       1.0  0.06228  0.19469  0.01509  1.0000
  H   H86       1.0  0.21614  0.30389  0.00092  1.0000
  H   H87       1.0  0.48411  0.18538  0.07951  1.0000
  H   H88       1.0  0.02621  0.13084  0.03284  1.0000
  H   H89       1.0  0.44332  0.33007  0.18825  1.0000
  H   H90       1.0  0.22225  0.11090  0.01712  1.0000
  H   H91       1.0  0.22796  0.12669  0.02975  1.0000
  H   H92       1.0  0.03072  0.02559  0.19526  1.0000
  H   H93       1.0  0.02342  0.14174  0.05294  1.0000
  N   N3        1.0  0.06847  0.15651  0.03540  1.0000
  S   S18       1.0  0.01909  0.05327  0.11026  1.0000
  H   H94       1.0  0.04591  0.17626  0.04100  1.0000
  Fe  Fe9       1.0  0.02168  0.08234  0.14119  1.0000
  C   C51       1.0  0.34472  0.33199  0.01699  1.0000
  H   H95       1.0  0.11886  0.17812  0.13178  1.0000
  H   H96       1.0  0.08991  0.19980  0.01707  1.0000
  H   H97       1.0  0.22031  0.22609  0.00546  1.0000
  C   C52       1.0  0.05850  0.04259  0.20221  1.0000
  C   C53       1.0  0.19936  0.31476  0.02812  1.0000
  C   C54       1.0  0.49872  0.17896  0.08033  1.0000
  C   C55       1.0  0.40735  0.29382  0.99900  1.0000
  Fe  Fe10      1.0  0.49095  0.31423  0.06446  1.0000
  H   H98       1.0  0.35351  0.32027  0.02167  1.0000
  C   C56       1.0  0.05803  0.13849  0.04970  1.0000
  H   H99       1.0  0.23997  0.32451  0.03467  1.0000
  C   C57       1.0  0.31805  0.27181  0.04380  1.0000
  H   H100      1.0  0.13770  0.18790  0.07675  1.0000
  H   H101      1.0  0.23835  0.30268  0.01918  1.0000
  Fe  Fe11      1.0  0.47138  0.32139  0.03800  1.0000
  H   H102      1.0  0.08131  0.17260  0.13199  1.0000
  H   H103      1.0  0.10429  0.16573  0.09815  1.0000
  C   C58       1.0  0.42977  0.29536  0.99850  1.0000
  H   H104      1.0  0.46858  0.30683  0.18979  1.0000
  H   H105      1.0  0.04351  0.17408  0.13061  1.0000
  H   H106      1.0  0.14175  0.19471  0.10638  1.0000
  S   S19       1.0  0.02519  0.00588  0.14154  1.0000
  H   H107      1.0  0.08995  0.12970  0.11233  1.0000
  H   H108      1.0  0.07673  0.23278  0.01593  1.0000
  H   H109      1.0  0.14676  0.15186  0.14784  1.0000
  H   H110      1.0  0.03138  0.00635  0.08938  1.0000
  H   H111      1.0  0.21988  0.18791  0.00534  1.0000
  H   H112      1.0  0.45042  0.30500  0.16919  1.0000
  C   C59       1.0  0.11269  0.14535  0.14608  1.0000
  H   H113      1.0  0.09698  0.12877  0.04459  1.0000
  H   H114      1.0  0.05647  0.12203  0.04768  1.0000
  S   S20       1.0  0.05473  0.07421  0.23087  1.0000
  C   C60       1.0  0.47775  0.30886  0.21614  1.0000
  H   H115      1.0  0.08079  0.22283  0.03372  1.0000
  H   H116      1.0  0.07113  0.18297  0.04560  1.0000
  H   H117      1.0  0.31464  0.28149  0.05171  1.0000
  C   C61       1.0  0.09341  0.16007  0.03176  1.0000
  N   N4        1.0  0.07543  0.03128  0.19655  1.0000
  H   H118      1.0  0.24596  0.14357  0.99630  1.0000
  C   C62       1.0  0.08775  0.04290  0.18061  1.0000
  C   C63       1.0  0.09217  0.03258  0.20542  1.0000
  H   H119      1.0  0.02820  0.15529  0.12285  1.0000
  C   C64       1.0  0.06390  0.17795  0.03699  1.0000
  H   H120      1.0  0.22293  0.21745  0.22807  1.0000
  C   C65       1.0  0.10607  0.05607  0.20407  1.0000
  C   C66       1.0  0.07816  0.03491  0.16872  1.0000
  C   C67       1.0  0.09003  0.05043  0.15339  1.0000
  H   H121      1.0  0.13564  0.16210  0.12508  1.0000
  C   C68       1.0  0.08014  0.15669  0.12917  1.0000
  C   C69       1.0  0.12449  0.05510  0.21172  1.0000
  H   H122      1.0  0.26251  0.31928  0.00526  1.0000
  H   H123      1.0  0.12563  0.14040  0.16507  1.0000
  H   H124      1.0  0.08949  0.06086  0.17838  1.0000
  H   H125      1.0  0.10509  0.04131  0.17819  1.0000
  H   H126      1.0  0.00854  0.05246  0.19757  1.0000
  H   H127      1.0  0.08389  0.02535  0.21735  1.0000
  C   C70       1.0  0.11831  0.16133  0.13052  1.0000
  H   H128      1.0  0.06654  0.06027  0.20054  1.0000
  S   S21       1.0  0.47695  0.29150  0.05222  1.0000
  H   H129      1.0  0.00403  0.00612  0.09913  1.0000
  C   C71       1.0  0.03096  0.14368  0.00982  1.0000
  H   H130      1.0  0.10617  0.09812  0.10818  1.0000
  H   H131      1.0  0.09539  0.06505  0.20948  1.0000
  H   H132      1.0  0.28374  0.17987  0.99519  1.0000
  H   H133      1.0  0.19970  0.11413  0.03043  1.0000
  H   H134      1.0  0.37729  0.29924  0.01047  1.0000
  H   H135      1.0  0.10392  0.02275  0.20247  1.0000
  C   C72       1.0  0.45109  0.32398  0.14750  1.0000
  C   C73       1.0  0.11045  0.17287  0.10641  1.0000
  C   C74       1.0  0.03914  0.04242  0.19509  1.0000
  Fe  Fe12      1.0  0.08211  0.10432  0.21767  1.0000
  H   H136      1.0  0.45128  0.28997  0.15565  1.0000
  H   H137      1.0  0.02974  0.16020  0.02662  1.0000
  C   C75       1.0  0.02181  0.05168  0.20323  1.0000
  C   C76       1.0  0.11881  0.10344  0.11383  1.0000
  H   H138      1.0  0.09224  0.12036  0.13023  1.0000
  C   C77       1.0  0.06208  0.15382  0.12084  1.0000
  H   H139      1.0  0.11736  0.04600  0.22353  1.0000
  H   H140      1.0  0.27915  0.25444  0.22425  1.0000
  H   H141      1.0  0.30240  0.25930  0.04511  1.0000
  C   C78       1.0  0.26666  0.24058  0.22316  1.0000
  H   H142      1.0  0.27528  0.22841  0.22005  1.0000
  H   H143      1.0  0.01282  0.14051  0.01106  1.0000
  H   H144      1.0  0.13376  0.07207  0.21090  1.0000
  H   H145      1.0  0.03639  0.12962  0.00693  1.0000
  H   H146      1.0  0.12892  0.13708  0.10091  1.0000
  C   C79       1.0  0.07053  0.21907  0.02624  1.0000
  H   H147      1.0  0.46198  0.31236  0.21445  1.0000
  C   C80       1.0  0.12725  0.14517  0.02776  1.0000
  C   C81       1.0  0.13581  0.18383  0.09985  1.0000
  H   H148      1.0  0.13304  0.13003  0.02949  1.0000
  H   H149      1.0  0.20079  0.29924  0.02550  1.0000
  H   H150      1.0  0.49601  0.16310  0.06337  1.0000
  C   C82       1.0  0.49627  0.32508  0.09625  1.0000
  H   H151      1.0  0.09646  0.14530  0.15299  1.0000
  H   H152      1.0  0.10809  0.05171  0.15069  1.0000
  H   H153      1.0  0.11237  0.12843  0.14544  1.0000
  H   H154      1.0  0.15916  0.20719  0.08015  1.0000
  H   H155      1.0  0.13309  0.15396  0.01586  1.0000
  H   H156      1.0  0.07042  0.16219  0.01231  1.0000
  N   N5        1.0  0.10289  0.15584  0.12128  1.0000
  C   C83       1.0  0.03533  0.13861  0.05933  1.0000
  H   H157      1.0  0.06746  0.16583  0.10984  1.0000
  H   H158      1.0  0.06020  0.03357  0.17062  1.0000
  H   H159      1.0  0.48492  0.30437  0.11846  1.0000
  H   H160      1.0  0.47382  0.29075  0.22073  1.0000
  H   H161      1.0  0.10302  0.18691  0.10685  1.0000
  C   C84       1.0  0.24425  0.31675  0.00906  1.0000
  C   C85       1.0  0.13009  0.15212  0.15397  1.0000
  H   H162      1.0  0.06463  0.13425  0.02195  1.0000
  H   H163      1.0  0.13561  0.13227  0.11832  1.0000
  C   C86       1.0  0.21605  0.14325  0.01210  1.0000
  H   H164      1.0  0.05373  0.00502  0.19145  1.0000
  H   H165      1.0  0.35733  0.21004  0.00139  1.0000
  C   C87       1.0  0.45765  0.30614  0.15751  1.0000
  H   H166      1.0  0.05299  0.21810  0.03143  1.0000
  C   C88       1.0  0.23694  0.19332  0.99780  1.0000
  C   C89       1.0  0.12267  0.12793  0.11273  1.0000
  S   S22       1.0  0.17491  0.19219  0.00420  1.0000
  H   H167      1.0  0.04534  0.05308  0.18363  1.0000
  H   H168      1.0  0.07323  0.14350  0.13976  1.0000
  H   H169      1.0  0.02041  0.11165  0.18566  1.0000
  S   S23       1.0  0.01909  0.09869  0.15952  1.0000
  H   H170      1.0  0.05803  0.13696  0.11958  1.0000
  N   N6        1.0  0.24103  0.17614  0.99011  1.0000
  H   H171      1.0  0.13074  0.16884  0.15526  1.0000
  H   H172      1.0  0.32344  0.28312  0.03255  1.0000
  C   C90       1.0  0.49445  0.32044  0.11132  1.0000
  H   H173      1.0  0.23667  0.27538  0.00430  1.0000
  C   C91       1.0  0.48365  0.30178  0.19124  1.0000
  H   H174      1.0  0.17212  0.15820  0.23263  1.0000
  C   C92       1.0  0.06518  0.00722  0.19842  1.0000
  H   H175      1.0  0.50013  0.33153  0.19520  1.0000
  H   H176      1.0  0.47910  0.28368  0.19614  1.0000
  H   H177      1.0  0.30489  0.33228  0.23789  1.0000
  H   H178      1.0  0.12176  0.24587  0.99026  1.0000
  H   H179      1.0  0.17258  0.33042  0.03293  1.0000
  H   H180      1.0  0.18591  0.13654  0.23441  1.0000
  C   C93       1.0  0.24212  0.28934  0.99415  1.0000
  C   C94       1.0  0.23596  0.23259  0.99643  1.0000
  C   C95       1.0  0.14127  0.19562  0.99110  1.0000
  H   H181      1.0  0.32690  0.32316  0.01946  1.0000
  H   H182      1.0  0.49553  0.30578  0.18029  1.0000
  C   C96       1.0  0.21457  0.33517  0.01563  1.0000
  H   H183      1.0  0.49535  0.26834  0.15641  1.0000
  H   H184      1.0  0.27732  0.32945  0.23561  1.0000
  H   H185      1.0  0.20879  0.33536  0.00561  1.0000
  H   H186      1.0  0.23520  0.24788  0.98898  1.0000
  H   H187      1.0  0.20695  0.16961  0.98899  1.0000
  C   C97       1.0  0.24875  0.23008  0.23773  1.0000
  H   H188      1.0  0.28254  0.20763  0.98819  1.0000
  Fe  Fe13      1.0  0.35952  0.30437  0.36249  1.0000
  S   S24       1.0  0.33858  0.27887  0.38307  1.0000
  H   H189      1.0  0.43292  0.20222  0.43332  1.0000
  Fe  Fe14      1.0  0.38320  0.27295  0.35196  1.0000
  S   S25       1.0  0.36419  0.24510  0.37210  1.0000
  S   S26       1.0  0.41022  0.26792  0.33505  1.0000
  Fe  Fe15      1.0  0.33444  0.25681  0.36836  1.0000
  S   S27       1.0  0.30092  0.23290  0.37136  1.0000
  Fe  Fe16      1.0  0.37049  0.27033  0.38455  1.0000
  S   S28       1.0  0.37901  0.26583  0.40660  1.0000
  S   S29       1.0  0.35333  0.28327  0.34761  1.0000
  S   S30       1.0  0.39158  0.29714  0.36454  1.0000
  Fe  Fe17      1.0  0.04403  0.09542  0.24476  1.0000
  H   H190      1.0  0.06153  0.07449  0.29675  1.0000
  H   H191      1.0  0.22333  0.24953  0.38622  1.0000
  C   C98       1.0  0.44795  0.28055  0.26423  1.0000
  H   H192      1.0  0.02241  0.09847  0.30833  1.0000
  C   C99       1.0  0.47366  0.27951  0.40371  1.0000
  H   H193      1.0  0.02661  0.14102  0.25225  1.0000
  Fe  Fe18      1.0  0.36452  0.30659  0.26027  1.0000
  S   S31       1.0  0.34167  0.27294  0.27170  1.0000
  H   H194      1.0  0.06655  0.16830  0.25909  1.0000
  H   H195      1.0  0.18066  0.17486  0.25748  1.0000
  Fe  Fe19      1.0  0.22178  0.21414  0.31702  1.0000
  S   S32       1.0  0.22792  0.25038  0.30820  1.0000
  S   S33       1.0  0.24250  0.19952  0.33089  1.0000
  Fe  Fe20      1.0  0.18214  0.20329  0.30305  1.0000
  S   S34       1.0  0.18527  0.23944  0.29404  1.0000
  S   S35       1.0  0.15757  0.17373  0.30001  1.0000
  Fe  Fe21      1.0  0.22195  0.24288  0.28774  1.0000
  S   S36       1.0  0.24440  0.26268  0.26555  1.0000
  Fe  Fe22      1.0  0.19094  0.24345  0.31551  1.0000
  S   S37       1.0  0.17902  0.26476  0.32923  1.0000
  S   S38       1.0  0.21897  0.20691  0.29574  1.0000
  S   S39       1.0  0.18467  0.20706  0.32538  1.0000
  S   S40       1.0  0.45364  0.30449  0.46292  1.0000
  H   H196      1.0  0.36767  0.33500  0.42548  1.0000
  H   H197      1.0  0.34667  0.32025  0.39431  1.0000
  C   C100      1.0  0.19297  0.22889  0.24901  1.0000
  C   C101      1.0  0.40648  0.24688  0.47304  1.0000
  Fe  Fe23      1.0  0.09168  0.11764  0.24497  1.0000
  C   C102      1.0  0.33516  0.30815  0.41825  1.0000
  S   S41       1.0  0.11224  0.14677  0.25100  1.0000
  H   H198      1.0  0.46927  0.00585  0.35886  1.0000
  H   H199      1.0  0.18344  0.31001  0.38624  1.0000
  C   C103      1.0  0.40689  0.30882  0.29785  1.0000
  S   S42       1.0  0.06484  0.08790  0.26019  1.0000
  H   H200      1.0  0.27717  0.31546  0.28872  1.0000
  H   H201      1.0  0.26272  0.32131  0.34207  1.0000
  H   H202      1.0  0.22610  0.24465  0.34335  1.0000
  H   H203      1.0  0.04668  0.10543  0.28606  1.0000
  S   S43       1.0  0.50098  0.30957  0.47206  1.0000
  S   S44       1.0  0.46647  0.24972  0.47462  1.0000
  H   H204      1.0  0.46579  0.20039  0.43660  1.0000
  C   C104      1.0  0.14587  0.16671  0.28588  1.0000
  C   C105      1.0  0.13787  0.14435  0.28665  1.0000
  C   C106      1.0  0.12802  0.13791  0.27600  1.0000
  C   C107      1.0  0.12578  0.15374  0.26439  1.0000
  C   C108      1.0  0.13389  0.17610  0.26356  1.0000
  C   C109      1.0  0.14365  0.18254  0.27424  1.0000
  H   H205      1.0  0.13932  0.13186  0.29559  1.0000
  H   H206      1.0  0.12219  0.12067  0.27678  1.0000
  H   H207      1.0  0.13219  0.18859  0.25472  1.0000
  H   H208      1.0  0.14903  0.19974  0.27364  1.0000
  C   C110      1.0  0.19501  0.29243  0.32276  1.0000
  C   C111      1.0  0.20708  0.30140  0.30804  1.0000
  H   H209      1.0  0.39465  0.31585  0.29406  1.0000
  H   H210      1.0  0.45922  0.28684  0.27048  1.0000
  H   H211      1.0  0.03117  0.15635  0.28002  1.0000
  C   C112      1.0  0.19553  0.30574  0.33234  1.0000
  H   H212      1.0  0.20654  0.29132  0.30057  1.0000
  C   C113      1.0  0.27454  0.31715  0.32083  1.0000
  C   C114      1.0  0.22091  0.31116  0.26146  1.0000
  H   H213      1.0  0.18594  0.29897  0.34369  1.0000
  C   C115      1.0  0.31509  0.26927  0.26908  1.0000
  C   C116      1.0  0.31129  0.28192  0.25664  1.0000
  C   C117      1.0  0.28957  0.27939  0.25527  1.0000
  C   C118      1.0  0.27170  0.26454  0.26647  1.0000
  C   C119      1.0  0.27563  0.25159  0.27870  1.0000
  C   C120      1.0  0.29728  0.25382  0.27994  1.0000
  H   H214      1.0  0.24144  0.24320  0.24052  1.0000
  C   C121      1.0  0.09056  0.19745  0.28274  1.0000
  H   H215      1.0  0.26201  0.23990  0.28732  1.0000
  H   H216      1.0  0.30010  0.24400  0.28953  1.0000
  C   C122      1.0  0.31119  0.31548  0.28664  1.0000
  C   C123      1.0  0.40157  0.28336  0.41000  1.0000
  C   C124      1.0  0.41881  0.29867  0.39861  1.0000
  H   H217      1.0  0.17889  0.25644  0.24977  1.0000
  C   C125      1.0  0.43736  0.31039  0.41627  1.0000
  C   C126      1.0  0.42017  0.29503  0.42768  1.0000
  C   C127      1.0  0.40234  0.28169  0.42455  1.0000
  H   H218      1.0  0.41875  0.29987  0.38736  1.0000
  C   C128      1.0  0.20843  0.32780  0.32726  1.0000
  H   H219      1.0  0.42052  0.29361  0.43892  1.0000
  H   H220      1.0  0.38904  0.26998  0.43345  1.0000
  C   C129      1.0  0.28468  0.22563  0.35953  1.0000
  C   C130      1.0  0.28307  0.24056  0.34708  1.0000
  C   C131      1.0  0.26933  0.23329  0.33843  1.0000
  C   C132      1.0  0.25747  0.21100  0.34210  1.0000
  C   C133      1.0  0.25899  0.19644  0.35461  1.0000
  C   C134      1.0  0.27205  0.20375  0.36336  1.0000
  H   H221      1.0  0.29214  0.25768  0.34427  1.0000
  H   H222      1.0  0.26840  0.24470  0.32874  1.0000
  H   H223      1.0  0.25002  0.17925  0.35758  1.0000
  H   H224      1.0  0.27275  0.19212  0.37305  1.0000
  C   C135      1.0  0.41694  0.28567  0.31728  1.0000
  C   C136      1.0  0.43847  0.29066  0.30811  1.0000
  C   C137      1.0  0.44443  0.30539  0.29405  1.0000
  C   C138      1.0  0.01534  0.03606  0.27320  1.0000
  H   H225      1.0  0.42559  0.22376  0.47064  1.0000
  C   C139      1.0  0.40117  0.29484  0.31215  1.0000
  H   H226      1.0  0.45073  0.28364  0.31205  1.0000
  H   H227      1.0  0.32506  0.29350  0.24807  1.0000
  C   C140      1.0  0.25500  0.25445  0.39070  1.0000
  H   H228      1.0  0.38460  0.29113  0.31919  1.0000
  H   H229      1.0  0.48154  0.26468  0.42323  1.0000
  C   C141      1.0  0.46656  0.26774  0.42013  1.0000
  H   H230      1.0  0.23028  0.14666  0.27770  1.0000
  S   S45       1.0  0.37363  0.32978  0.27339  1.0000
  C   C142      1.0  0.19482  0.18286  0.24749  1.0000
  H   H231      1.0  0.18548  0.22763  0.35315  1.0000
  H   H232      1.0  0.49379  0.07853  0.32822  1.0000
  C   C143      1.0  0.48519  0.23383  0.47703  1.0000
  C   C144      1.0  0.32159  0.28614  0.41767  1.0000
  H   H233      1.0  0.44128  0.25940  0.44931  1.0000
  H   H234      1.0  0.05929  0.18488  0.27889  1.0000
  H   H235      1.0  0.30888  0.27780  0.42833  1.0000
  H   H236      1.0  0.31289  0.28871  0.40896  1.0000
  C   C145      1.0  0.06192  0.01081  0.25397  1.0000
  N   N7        1.0  0.05289  0.13842  0.28862  1.0000
  C   C146      1.0  0.03789  0.13416  0.30378  1.0000
  C   C147      1.0  0.07309  0.15703  0.28626  1.0000
  C   C148      1.0  0.06052  0.11842  0.28679  1.0000
  C   C149      1.0  0.07083  0.10788  0.29873  1.0000
  C   C150      1.0  0.29377  0.32709  0.28309  1.0000
  C   C151      1.0  0.46734  0.31209  0.24104  1.0000
  C   C152      1.0  0.07671  0.08716  0.29604  1.0000
  H   H237      1.0  0.03111  0.14848  0.30453  1.0000
  H   H238      1.0  0.04748  0.13277  0.31208  1.0000
  H   H239      1.0  0.08202  0.15292  0.29469  1.0000
  H   H240      1.0  0.32340  0.31810  0.42052  1.0000
  H   H241      1.0  0.07341  0.12264  0.27618  1.0000
  H   H242      1.0  0.08629  0.11947  0.29868  1.0000
  C   C153      1.0  0.47486  0.21718  0.43623  1.0000
  H   H243      1.0  0.23273  0.16771  0.28724  1.0000
  H   H244      1.0  0.32790  0.32501  0.27946  1.0000
  Fe  Fe24      1.0  0.07735  0.06882  0.24503  1.0000
  H   H245      1.0  0.21293  0.32063  0.38316  1.0000
  H   H246      1.0  0.02998  0.16883  0.25382  1.0000
  S   S46       1.0  0.08208  0.03495  0.25267  1.0000
  H   H247      1.0  0.08463  0.08026  0.30445  1.0000
  N   N8        1.0  0.33236  0.22293  0.31611  1.0000
  C   C154      1.0  0.32575  0.24415  0.31317  1.0000
  C   C155      1.0  0.32351  0.20961  0.30667  1.0000
  C   C156      1.0  0.32278  0.21096  0.33218  1.0000
  C   C157      1.0  0.35728  0.22716  0.31231  1.0000
  C   C158      1.0  0.37019  0.24263  0.29679  1.0000
  C   C159      1.0  0.33555  0.26137  0.32045  1.0000
  C   C160      1.0  0.32702  0.18811  0.33713  1.0000
  C   C161      1.0  0.29788  0.20006  0.31101  1.0000
  C   C162      1.0  0.29059  0.18921  0.29976  1.0000
  C   C163      1.0  0.39514  0.24559  0.29416  1.0000
  C   C164      1.0  0.32961  0.28284  0.31523  1.0000
  C   C165      1.0  0.31423  0.17645  0.35314  1.0000
  H   H248      1.0  0.30747  0.24096  0.31689  1.0000
  H   H249      1.0  0.33009  0.25209  0.30122  1.0000
  H   H250      1.0  0.32849  0.21986  0.29505  1.0000
  H   H251      1.0  0.33112  0.19570  0.30642  1.0000
  H   H252      1.0  0.30461  0.20905  0.33554  1.0000
  H   H253      1.0  0.32972  0.22082  0.33898  1.0000
  H   H254      1.0  0.36406  0.23391  0.32052  1.0000
  H   H255      1.0  0.36191  0.21141  0.31300  1.0000
  H   H256      1.0  0.36749  0.25926  0.29531  1.0000
  H   H257      1.0  0.36500  0.23585  0.28816  1.0000
  H   H258      1.0  0.32886  0.25533  0.33253  1.0000
  H   H259      1.0  0.35386  0.26521  0.31779  1.0000
  H   H260      1.0  0.34495  0.18997  0.33621  1.0000
  H   H261      1.0  0.32178  0.17725  0.33045  1.0000
  H   H262      1.0  0.29190  0.18742  0.32180  1.0000
  H   H263      1.0  0.28922  0.21306  0.31169  1.0000
  H   H264      1.0  0.27222  0.18252  0.30325  1.0000
  H   H265      1.0  0.29533  0.20146  0.28883  1.0000
  H   H266      1.0  0.29823  0.17549  0.29890  1.0000
  H   H267      1.0  0.40378  0.25705  0.28312  1.0000
  H   H268      1.0  0.40124  0.25275  0.30240  1.0000
  H   H269      1.0  0.39918  0.22963  0.29468  1.0000
  H   H270      1.0  0.31133  0.27996  0.31743  1.0000
  H   H271      1.0  0.33573  0.29445  0.32117  1.0000
  H   H272      1.0  0.33761  0.29033  0.30329  1.0000
  H   H273      1.0  0.31851  0.16073  0.35674  1.0000
  H   H274      1.0  0.31849  0.18688  0.36034  1.0000
  H   H275      1.0  0.29606  0.17269  0.35441  1.0000
  Fe  Fe25      1.0  0.47959  0.28606  0.46372  1.0000
  H   H276      1.0  0.39467  0.32434  0.38452  1.0000
  H   H277      1.0  0.28659  0.28920  0.24570  1.0000
  H   H278      1.0  0.04359  0.02631  0.24062  1.0000
  H   H279      1.0  0.08708  0.21324  0.28370  1.0000
  H   H280      1.0  0.18999  0.20357  0.26849  1.0000
  H   H281      1.0  0.46056  0.27898  0.42611  1.0000
  C   C166      1.0  0.31297  0.32529  0.37157  1.0000
  H   H282      1.0  0.10015  0.19991  0.27127  1.0000
  C   C167      1.0  0.49455  0.21516  0.44251  1.0000
  H   H283      1.0  0.20956  0.15476  0.24761  1.0000
  C   C168      1.0  0.18089  0.14909  0.23952  1.0000
  H   H284      1.0  0.08529  0.15938  0.27565  1.0000
  H   H285      1.0  0.33247  0.27522  0.41560  1.0000
  S   S47       1.0  0.39954  0.30860  0.24915  1.0000
  C   C169      1.0  0.35391  0.31997  0.40377  1.0000
  C   C170      1.0  0.46024  0.28677  0.24800  1.0000
  H   H286      1.0  0.37225  0.19174  0.43520  1.0000
  H   H287      1.0  0.43397  0.25114  0.42011  1.0000
  H   H288      1.0  0.48582  0.06162  0.31669  1.0000
  H   H289      1.0  0.34234  0.30466  0.42766  1.0000
  H   H290      1.0  0.06232  0.14039  0.25812  1.0000
  H   H291      1.0  0.02681  0.12923  0.27841  1.0000
  H   H292      1.0  0.49193  0.02931  0.36793  1.0000
  H   H293      1.0  0.00614  0.11588  0.30165  1.0000
  H   H294      1.0  0.31585  0.31066  0.37773  1.0000
  H   H295      1.0  0.20021  0.25544  0.25914  1.0000
  C   C171      1.0  0.29140  0.32802  0.37422  1.0000
  H   H296      1.0  0.23530  0.19669  0.26482  1.0000
  C   C172      1.0  0.48135  0.06413  0.32777  1.0000
  C   C173      1.0  0.22094  0.15582  0.28396  1.0000
  S   S48       1.0  0.00743  0.09100  0.25457  1.0000
  H   H297      1.0  0.19817  0.17544  0.28175  1.0000
  H   H298      1.0  0.16918  0.14045  0.25054  1.0000
  H   H299      1.0  0.43342  0.28749  0.26579  1.0000
  C   C174      1.0  0.42450  0.21093  0.44049  1.0000
  H   H300      1.0  0.44953  0.32417  0.39283  1.0000
  H   H301      1.0  0.40083  0.33155  0.32443  1.0000
  H   H302      1.0  0.45316  0.21658  0.45657  1.0000
  H   H303      1.0  0.39531  0.17975  0.43294  1.0000
  H   H304      1.0  0.25263  0.27442  0.33847  1.0000
  H   H305      1.0  0.40717  0.22071  0.42382  1.0000
  H   H306      1.0  0.25854  0.24026  0.38692  1.0000
  H   H307      1.0  0.10080  0.19295  0.29025  1.0000
  H   H308      1.0  0.21589  0.22323  0.26225  1.0000
  H   H309      1.0  0.27774  0.31539  0.38230  1.0000
  H   H310      1.0  0.39394  0.22242  0.44161  1.0000
  H   H311      1.0  0.40080  0.21895  0.46469  1.0000
  C   C175      1.0  0.01745  0.11377  0.30875  1.0000
  H   H312      1.0  0.46133  0.30983  0.28724  1.0000
  H   H313      1.0  0.42045  0.25928  0.47412  1.0000
  H   H314      1.0  0.45367  0.23627  0.41632  1.0000
  C   C176      1.0  0.20332  0.21319  0.25833  1.0000
  C   C177      1.0  0.21906  0.32367  0.30285  1.0000
  H   H315      1.0  0.05923  0.10298  0.30986  1.0000
  H   H316      1.0  0.21515  0.30175  0.27324  1.0000
  N   N9        1.0  0.21317  0.19800  0.25084  1.0000
  H   H317      1.0  0.05925  0.17872  0.29790  1.0000
  H   H318      1.0  0.22741  0.33079  0.29135  1.0000
  H   H319      1.0  0.36812  0.32534  0.31778  1.0000
  C   C178      1.0  0.06872  0.17957  0.28671  1.0000
  H   H320      1.0  0.46495  0.06779  0.32964  1.0000
  C   C179      1.0  0.38719  0.18998  0.43892  1.0000
  H   H321      1.0  0.41738  0.25232  0.44326  1.0000
  C   C180      1.0  0.20806  0.16765  0.27479  1.0000
  Fe  Fe26      1.0  0.40855  0.33379  0.26082  1.0000
  C   C181      1.0  0.05384  0.15255  0.26127  1.0000
  C   C182      1.0  0.45935  0.22780  0.44522  1.0000
  C   C183      1.0  0.19733  0.22202  0.35897  1.0000
  H   H322      1.0  0.26203  0.32429  0.31659  1.0000
  H   H323      1.0  0.18942  0.28706  0.36966  1.0000
  H   H324      1.0  0.24786  0.24877  0.40279  1.0000
  H   H325      1.0  0.26350  0.31230  0.25991  1.0000
  H   H326      1.0  0.50075  0.01223  0.45188  1.0000
  H   H327      1.0  0.45901  0.28066  0.39951  1.0000
  C   C184      1.0  0.04009  0.14400  0.27759  1.0000
  Fe  Fe27      1.0  0.47360  0.32166  0.43968  1.0000
  C   C185      1.0  0.29733  0.33493  0.26630  1.0000
  C   C186      1.0  0.41533  0.23185  0.46457  1.0000
  H   H328      1.0  0.33464  0.33516  0.31154  1.0000
  H   H329      1.0  0.04917  0.16316  0.23960  1.0000
  H   H330      1.0  0.20030  0.32706  0.36834  1.0000
  C   C187      1.0  0.20348  0.29349  0.37392  1.0000
  H   H331      1.0  0.25243  0.31773  0.27642  1.0000
  H   H332      1.0  0.08855  0.09100  0.28506  1.0000
  H   H333      1.0  0.33070  0.32513  0.33109  1.0000
  H   H334      1.0  0.31151  0.31396  0.29814  1.0000
  H   H335      1.0  0.02246  0.05038  0.26330  1.0000
  N   N10       1.0  0.44019  0.23245  0.43949  1.0000
  H   H336      1.0  0.38177  0.18152  0.45087  1.0000
  H   H337      1.0  0.20664  0.31596  0.25815  1.0000
  H   H338      1.0  0.22980  0.23397  0.36124  1.0000
  H   H339      1.0  0.48170  0.22711  0.42461  1.0000
  C   C188      1.0  0.03890  0.15663  0.25118  1.0000
  H   H340      1.0  0.17276  0.23653  0.26725  1.0000
  H   H341      1.0  0.29031  0.33033  0.31771  1.0000
  H   H342      1.0  0.47750  0.04766  0.35028  1.0000
  C   C189      1.0  0.43635  0.31235  0.40175  1.0000
  C   C190      1.0  0.42885  0.24506  0.44861  1.0000
  H   H343      1.0  0.22652  0.30039  0.25487  1.0000
  H   H344      1.0  0.25626  0.26070  0.36249  1.0000
  H   H345      1.0  0.28032  0.30310  0.34134  1.0000
  C   C191      1.0  0.24865  0.27277  0.36668  1.0000
  C   C192      1.0  0.21854  0.24056  0.35533  1.0000
  H   H346      1.0  0.27083  0.26744  0.38807  1.0000
  C   C193      1.0  0.26643  0.30789  0.33747  1.0000
  C   C194      1.0  0.19987  0.31409  0.37814  1.0000
  C   C195      1.0  0.42861  0.31436  0.28881  1.0000
  C   C196      1.0  0.24600  0.28755  0.34193  1.0000
  H   H347      1.0  0.19643  0.15492  0.27208  1.0000
  H   H348      1.0  0.01834  0.04146  0.28283  1.0000
  C   C197      1.0  0.23849  0.26329  0.38343  1.0000
  H   H349      1.0  0.20912  0.14392  0.29409  1.0000
  H   H350      1.0  0.26295  0.28701  0.36519  1.0000
  H   H351      1.0  0.36497  0.30890  0.40284  1.0000
  C   C198      1.0  0.48028  0.04369  0.33962  1.0000
  C   C199      1.0  0.04478  0.01096  0.24707  1.0000
  H   H352      1.0  0.47250  0.31969  0.24941  1.0000
  H   H353      1.0  0.20148  0.20790  0.35537  1.0000
  C   C200      1.0  0.40306  0.21272  0.43579  1.0000
  H   H354      1.0  0.38864  0.32801  0.41385  1.0000
  N   N11       1.0  0.23325  0.27978  0.35794  1.0000
  H   H355      1.0  0.23463  0.29129  0.33505  1.0000
  H   H356      1.0  0.18930  0.21635  0.37097  1.0000
  H   H357      1.0  0.46978  0.24312  0.44627  1.0000
  C   C201      1.0  0.47691  0.21255  0.48655  1.0000
  H   H358      1.0  0.44874  0.27875  0.24247  1.0000
  C   C202      1.0  0.21344  0.26097  0.35973  1.0000
  H   H359      1.0  0.23450  0.27646  0.38825  1.0000
  H   H360      1.0  0.41978  0.19961  0.45178  1.0000
  H   H361      1.0  0.39602  0.25545  0.46739  1.0000
  C   C203      1.0  0.44803  0.24613  0.42368  1.0000
  H   H362      1.0  0.39625  0.23696  0.48424  1.0000
  H   H363      1.0  0.48869  0.20507  0.45416  1.0000
  H   H364      1.0  0.20285  0.25487  0.37119  1.0000
  C   C204      1.0  0.18582  0.24528  0.25683  1.0000
  H   H365      1.0  0.20259  0.26692  0.35306  1.0000
  C   C205      1.0  0.22581  0.29890  0.36200  1.0000
  H   H366      1.0  0.23886  0.30902  0.36553  1.0000
  H   H367      1.0  0.20274  0.28103  0.38399  1.0000
  H   H368      1.0  0.22382  0.31036  0.35225  1.0000
  H   H369      1.0  0.02402  0.02317  0.27192  1.0000
  H   H370      1.0  0.01457  0.10756  0.33216  1.0000
  C   C206      1.0  0.22400  0.18526  0.26088  1.0000
  H   H371      1.0  0.46568  0.03058  0.34000  1.0000
  H   H372      1.0  0.44204  0.26237  0.26865  1.0000
  H   H373      1.0  0.23488  0.17698  0.25485  1.0000
  H   H374      1.0  0.29883  0.32054  0.26209  1.0000
  C   C207      1.0  0.00418  0.11048  0.32450  1.0000
  S   S49       1.0  0.36065  0.33245  0.24212  1.0000
  H   H375      1.0  0.27737  0.30388  0.31576  1.0000
  H   H376      1.0  0.17795  0.21941  0.24696  1.0000
  S   S50       1.0  0.49828  0.30152  0.44011  1.0000
  H   H377      1.0  0.47475  0.27984  0.24703  1.0000
  H   H378      1.0  0.30733  0.29880  0.28509  1.0000
  S   S51       1.0  0.46019  0.32770  0.41953  1.0000
  S   S52       1.0  0.43664  0.33311  0.27123  1.0000
  H   H379      1.0  0.25706  0.22444  0.24621  1.0000
  C   C208      1.0  0.23974  0.33173  0.25881  1.0000
  Fe  Fe28      1.0  0.47673  0.32959  0.46941  1.0000
  H   H380      1.0  0.48406  0.29651  0.40168  1.0000
  H   H381      1.0  0.43214  0.32567  0.33300  1.0000
  C   C209      1.0  0.20140  0.16476  0.24081  1.0000
  H   H382      1.0  0.44094  0.33259  0.31330  1.0000
  C   C210      1.0  0.25923  0.32569  0.26444  1.0000
  H   H383      1.0  0.48339  0.27057  0.39751  1.0000
  H   H384      1.0  0.18778  0.19236  0.23951  1.0000
  H   H385      1.0  0.50171  0.02928  0.32659  1.0000
  H   H386      1.0  0.45207  0.31712  0.23968  1.0000
  H   H387      1.0  0.49741  0.00435  0.30778  1.0000
  H   H388      1.0  0.20484  0.23859  0.23831  1.0000
  H   H389      1.0  0.50190  0.02093  0.39154  1.0000
  C   C211      1.0  0.50171  0.03592  0.33624  1.0000
  C   C212      1.0  0.22001  0.33688  0.31243  1.0000
  C   C213      1.0  0.31498  0.29595  0.72168  1.0000
  H   H390      1.0  0.19570  0.25673  0.63365  1.0000
  C   C214      1.0  0.17786  0.17110  0.71686  1.0000
  N   N12       1.0  0.15401  0.15297  0.70193  1.0000
  H   H391      1.0  0.39756  0.31801  0.58613  1.0000
  H   H392      1.0  0.45382  0.29469  0.49512  1.0000
  C   C215      1.0  0.32627  0.28369  0.71191  1.0000
  C   C216      1.0  0.18944  0.15304  0.68296  1.0000
  N   N13       1.0  0.47169  0.28968  0.53518  1.0000
  Fe  Fe29      1.0  0.38293  0.32078  0.64279  1.0000
  C   C217      1.0  0.12363  0.31214  0.67272  1.0000
  H   H393      1.0  0.38580  0.30732  0.60571  1.0000
  H   H394      1.0  0.24228  0.32235  0.68927  1.0000
  H   H395      1.0  0.09549  0.08903  0.72978  1.0000
  C   C218      1.0  0.14108  0.15804  0.69084  1.0000
  Fe  Fe30      1.0  0.03331  0.09801  0.71551  1.0000
  S   S53       1.0  0.05404  0.13128  0.70014  1.0000
  C   C219      1.0  0.44492  0.27922  0.50390  1.0000
  C   C220      1.0  0.44957  0.32312  0.56128  1.0000
  Fe  Fe31      1.0  0.14286  0.22889  0.70924  1.0000
  S   S54       1.0  0.16150  0.24533  0.72277  1.0000
  S   S55       1.0  0.11891  0.19579  0.72289  1.0000
  Fe  Fe32      1.0  0.16780  0.26642  0.68150  1.0000
  S   S56       1.0  0.18829  0.28551  0.69282  1.0000
  Fe  Fe33      1.0  0.19173  0.25277  0.70413  1.0000
  S   S57       1.0  0.22376  0.24996  0.70930  1.0000
  Fe  Fe34      1.0  0.15644  0.27645  0.71050  1.0000
  H   H396      1.0  0.43174  0.31879  0.56154  1.0000
  S   S58       1.0  0.17389  0.23396  0.69135  1.0000
  S   S59       1.0  0.13518  0.25983  0.69838  1.0000
  H   H397      1.0  0.27273  0.29164  0.63300  1.0000
  H   H398      1.0  0.12036  0.17825  0.67146  1.0000
  S   S60       1.0  0.41209  0.30867  0.63340  1.0000
  H   H399      1.0  0.20887  0.23580  0.63983  1.0000
  H   H400      1.0  0.43543  0.29492  0.52056  1.0000
  H   H401      1.0  0.33759  0.27600  0.71718  1.0000
  Fe  Fe35      1.0  0.33212  0.30941  0.65112  1.0000
  S   S61       1.0  0.30153  0.28556  0.65058  1.0000
  H   H402      1.0  0.10986  0.12234  0.70875  1.0000
  S   S62       1.0  0.35643  0.30277  0.66393  1.0000
  C   C221      1.0  0.10672  0.10396  0.73066  1.0000
  C   C222      1.0  0.24555  0.25934  0.69310  1.0000
  C   C223      1.0  0.26745  0.26709  0.69357  1.0000
  C   C224      1.0  0.28480  0.27574  0.68053  1.0000
  C   C225      1.0  0.28034  0.27536  0.66711  1.0000
  C   C226      1.0  0.25861  0.26650  0.66678  1.0000
  C   C227      1.0  0.24113  0.25915  0.67967  1.0000
  H   H403      1.0  0.27090  0.26652  0.70399  1.0000
  H   H404      1.0  0.30164  0.28217  0.68088  1.0000
  H   H405      1.0  0.25526  0.26544  0.65653  1.0000
  H   H406      1.0  0.22432  0.25291  0.67926  1.0000
  N   N14       1.0  0.28475  0.31718  0.72378  1.0000
  H   H407      1.0  0.49034  0.07993  0.57546  1.0000
  C   C228      1.0  0.20588  0.13942  0.68004  1.0000
  C   C229      1.0  0.07079  0.14978  0.70687  1.0000
  C   C230      1.0  0.07241  0.14384  0.72126  1.0000
  C   C231      1.0  0.08671  0.15844  0.72611  1.0000
  C   C232      1.0  0.09964  0.17903  0.71663  1.0000
  C   C233      1.0  0.09761  0.18524  0.70236  1.0000
  C   C234      1.0  0.08320  0.17063  0.69752  1.0000
  H   H408      1.0  0.49524  0.01204  0.57821  1.0000
  H   H409      1.0  0.47961  0.28236  0.51430  1.0000
  H   H410      1.0  0.10732  0.20112  0.69500  1.0000
  H   H411      1.0  0.08176  0.17542  0.68644  1.0000
  H   H412      1.0  0.19825  0.19119  0.72681  1.0000
  C   C235      1.0  0.29925  0.33349  0.72910  1.0000
  H   H413      1.0  0.44332  0.26332  0.54951  1.0000
  C   C236      1.0  0.25505  0.27922  0.73439  1.0000
  S   S63       1.0  0.01518  0.07089  0.70771  1.0000
  H   H414      1.0  0.47785  0.31002  0.55770  1.0000
  H   H415      1.0  0.49930  0.24718  0.49997  1.0000
  H   H416      1.0  0.26014  0.32878  0.60202  1.0000
  H   H417      1.0  0.17750  0.18546  0.69476  1.0000
  H   H418      1.0  0.27999  0.32390  0.69301  1.0000
  C   C237      1.0  0.46139  0.26603  0.54449  1.0000
  Fe  Fe36      1.0  0.02760  0.04874  0.72346  1.0000
  H   H419      1.0  0.23787  0.29053  0.61199  1.0000
  H   H420      1.0  0.49960  0.29429  0.54468  1.0000
  H   H421      1.0  0.12763  0.14821  0.72140  1.0000
  H   H422      1.0  0.44756  0.30799  0.60986  1.0000
  H   H423      1.0  0.30761  0.32493  0.73661  1.0000
  C   C238      1.0  0.13851  0.18134  0.66675  1.0000
  H   H424      1.0  0.23322  0.32888  0.66383  1.0000
  H   H425      1.0  0.33623  0.29522  0.70108  1.0000
  H   H426      1.0  0.45115  0.28981  0.56496  1.0000
  H   H427      1.0  0.15294  0.18278  0.70800  1.0000
  H   H428      1.0  0.46240  0.25453  0.53753  1.0000
  H   H429      1.0  0.31150  0.28861  0.59941  1.0000
  S   S64       1.0  0.17150  0.27830  0.65721  1.0000
  H   H430      1.0  0.24639  0.29979  0.64839  1.0000
  H   H431      1.0  0.19072  0.16237  0.71431  1.0000
  H   H432      1.0  0.46663  0.32193  0.53379  1.0000
  H   H433      1.0  0.14788  0.19396  0.68376  1.0000
  H   H434      1.0  0.22416  0.26972  0.64575  1.0000
  C   C239      1.0  0.22978  0.26912  0.63427  1.0000
  C   C240      1.0  0.47171  0.25723  0.55695  1.0000
  C   C241      1.0  0.29991  0.30781  0.71427  1.0000
  C   C242      1.0  0.13774  0.13846  0.71623  1.0000
  C   C243      1.0  0.18948  0.19347  0.71812  1.0000
  H   H435      1.0  0.24305  0.28363  0.72837  1.0000
  H   H436      1.0  0.47469  0.30851  0.51293  1.0000
  H   H437      1.0  0.30335  0.27960  0.61918  1.0000
  H   H438      1.0  0.17720  0.20271  0.72105  1.0000
  H   H439      1.0  0.29042  0.29608  0.70968  1.0000
  H   H440      1.0  0.15440  0.31857  0.67829  1.0000
  C   C244      1.0  0.45995  0.30494  0.54124  1.0000
  H   H441      1.0  0.43563  0.26677  0.52722  1.0000
  H   H442      1.0  0.21365  0.13626  0.68920  1.0000
  C   C245      1.0  0.15046  0.18048  0.67880  1.0000
  H   H443      1.0  0.25915  0.32198  0.66409  1.0000
  H   H444      1.0  0.16617  0.16195  0.72777  1.0000
  H   H445      1.0  0.21642  0.25032  0.62058  1.0000
  H   H446      1.0  0.31730  0.30816  0.60964  1.0000
  C   C246      1.0  0.24414  0.31330  0.64001  1.0000
  N   N15       1.0  0.25139  0.31033  0.62491  1.0000
  C   C247      1.0  0.46894  0.29120  0.51993  1.0000
  H   H447      1.0  0.47965  0.01352  0.59558  1.0000
  H   H448      1.0  0.47942  0.22755  0.51597  1.0000
  C   C248      1.0  0.44486  0.28265  0.51895  1.0000
  S   S65       1.0  0.04824  0.07611  0.72953  1.0000
  C   C249      1.0  0.27219  0.32942  0.71481  1.0000
  H   H449      1.0  0.16113  0.30270  0.63246  1.0000
  C   C250      1.0  0.30506  0.29333  0.60946  1.0000
  C   C251      1.0  0.45109  0.32427  0.61139  1.0000
  C   C252      1.0  0.25418  0.33096  0.61305  1.0000
  H   H450      1.0  0.13139  0.31600  0.66075  1.0000
  H   H451      1.0  0.19895  0.16884  0.68384  1.0000
  H   H452      1.0  0.49513  0.25314  0.51746  1.0000
  H   H453      1.0  0.10762  0.31658  0.67455  1.0000
  C   C253      1.0  0.12120  0.11776  0.71537  1.0000
  H   H454      1.0  0.42761  0.27419  0.50316  1.0000
  C   C254      1.0  0.43664  0.32893  0.62261  1.0000
  H   H455      1.0  0.21761  0.29592  0.62514  1.0000
  C   C255      1.0  0.18980  0.32218  0.65462  1.0000
  H   H456      1.0  0.18472  0.28598  0.72848  1.0000
  C   C256      1.0  0.27348  0.30502  0.62338  1.0000
  C   C257      1.0  0.26527  0.32009  0.70257  1.0000
  C   C258      1.0  0.45750  0.23459  0.56677  1.0000
  C   C259      1.0  0.49738  0.07363  0.56629  1.0000
  H   H457      1.0  0.25814  0.30211  0.70618  1.0000
  H   H458      1.0  0.14483  0.19791  0.65871  1.0000
  C   C260      1.0  0.21159  0.25199  0.63186  1.0000
  H   H459      1.0  0.14673  0.13234  0.72419  1.0000
  H   H460      1.0  0.47362  0.26831  0.56403  1.0000
  H   H461      1.0  0.16156  0.12551  0.69464  1.0000
  C   C261      1.0  0.16539  0.17384  0.70482  1.0000
  S   S66       1.0  0.14776  0.30142  0.72171  1.0000
  H   H462      1.0  0.13123  0.31965  0.69180  1.0000
  C   C262      1.0  0.28258  0.29800  0.60954  1.0000
  H   H463      1.0  0.24501  0.26332  0.63294  1.0000
  H   H464      1.0  0.48481  0.18343  0.49712  1.0000
  H   H465      1.0  0.31371  0.27055  0.71018  1.0000
  C   C263      1.0  0.23395  0.29202  0.62338  1.0000
  C   C264      1.0  0.16953  0.31270  0.72849  1.0000
  H   H466      1.0  0.27115  0.28277  0.60924  1.0000
  H   H467      1.0  0.26577  0.27098  0.72832  1.0000
  H   H468      1.0  0.21924  0.14857  0.66980  1.0000
  C   C265      1.0  0.17755  0.30688  0.64918  1.0000
  H   H469      1.0  0.46559  0.22860  0.57531  1.0000
  H   H470      1.0  0.20194  0.20338  0.70762  1.0000
  H   H471      1.0  0.45565  0.22260  0.56024  1.0000
  H   H472      1.0  0.06274  0.12793  0.72860  1.0000
  H   H473      1.0  0.28646  0.31934  0.62352  1.0000
  H   H474      1.0  0.14147  0.16889  0.66090  1.0000
  H   H475      1.0  0.13837  0.14463  0.68543  1.0000
  H   H476      1.0  0.16842  0.18404  0.67355  1.0000
  H   H477      1.0  0.19525  0.31650  0.66419  1.0000
  H   H478      1.0  0.08794  0.15357  0.73722  1.0000
  H   H479      1.0  0.41542  0.31486  0.59816  1.0000
  H   H480      1.0  0.44081  0.23557  0.57234  1.0000
  C   C266      1.0  0.17028  0.14053  0.69697  1.0000
  C   C267      1.0  0.17063  0.31440  0.63672  1.0000
  H   H481      1.0  0.12411  0.15836  0.69644  1.0000
  C   C268      1.0  0.26884  0.29983  0.73709  1.0000
  C   C269      1.0  0.49630  0.29625  0.53379  1.0000
  C   C270      1.0  0.46056  0.30585  0.55689  1.0000
  H   H482      1.0  0.19740  0.12347  0.67869  1.0000
  S   S67       1.0  0.00357  0.09497  0.73374  1.0000
  H   H483      1.0  0.44208  0.30021  0.54158  1.0000
  H   H484      1.0  0.09636  0.11345  0.73582  1.0000
  H   H485      1.0  0.03901  0.00635  0.69348  1.0000
  H   H486      1.0  0.18274  0.15611  0.67330  1.0000
  H   H487      1.0  0.13004  0.10704  0.71047  1.0000
  H   H488      1.0  0.28505  0.31106  0.59934  1.0000
  H   H489      1.0  0.48716  0.07499  0.55840  1.0000
  H   H490      1.0  0.45311  0.26617  0.50205  1.0000
  H   H491      1.0  0.17762  0.13435  0.70593  1.0000
  H   H492      1.0  0.11710  0.09861  0.73781  1.0000
  S   S68       1.0  0.04060  0.02040  0.71907  1.0000
  H   H493      1.0  0.23328  0.32731  0.70667  1.0000
  H   H494      1.0  0.31098  0.32114  0.70449  1.0000
  C   C271      1.0  0.18574  0.30174  0.73067  1.0000
  H   H495      1.0  0.48842  0.25548  0.55218  1.0000
  H   H496      1.0  0.22604  0.31153  0.64332  1.0000
  C   C272      1.0  0.24797  0.33025  0.69730  1.0000
  H   H497      1.0  0.45932  0.20617  0.49199  1.0000
  H   H498      1.0  0.12022  0.29414  0.67758  1.0000
  S   S69       1.0  0.35831  0.32417  0.62974  1.0000
  S   S70       1.0  0.50116  0.01055  0.63099  1.0000
  C   C273      1.0  0.39996  0.31930  0.59690  1.0000
  H   H499      1.0  0.49886  0.19698  0.62932  1.0000
  C   C274      1.0  0.13922  0.32449  0.67988  1.0000
  H   H500      1.0  0.49652  0.05604  0.57083  1.0000
  H   H501      1.0  0.25710  0.33112  0.72214  1.0000
  C   C275      1.0  0.25136  0.33398  0.65851  1.0000
  H   H502      1.0  0.32831  0.30812  0.72358  1.0000
  C   C276      1.0  0.49133  0.19969  0.48945  1.0000
  C   C277      1.0  0.49582  0.23997  0.51197  1.0000
  H   H503      1.0  0.21771  0.31878  0.60134  1.0000
  H   H504      1.0  0.30535  0.28378  0.73229  1.0000
  H   H505      1.0  0.21567  0.30252  0.73756  1.0000
  H   H506      1.0  0.22012  0.33191  0.62377  1.0000
  C   C278      1.0  0.22318  0.33645  0.60074  1.0000
  C   C279      1.0  0.25607  0.33524  0.64223  1.0000
  H   H507      1.0  0.45079  0.32386  0.57241  1.0000
  C   C280      1.0  0.20332  0.31114  0.73577  1.0000
  C   C281      1.0  0.17111  0.33318  0.73131  1.0000
  Fe  Fe37      1.0  0.35733  0.33651  0.66670  1.0000
  H   H508      1.0  0.26440  0.19664  0.96948  1.0000
  Fe  Fe38      1.0  0.19729  0.24165  0.90296  1.0000
  S   S71       1.0  0.21472  0.21604  0.89872  1.0000
  S   S72       1.0  0.20966  0.27544  0.88703  1.0000
  Fe  Fe39      1.0  0.16382  0.21008  0.93003  1.0000
  S   S73       1.0  0.17865  0.18218  0.92779  1.0000
  S   S74       1.0  0.13563  0.20547  0.94968  1.0000
  Fe  Fe40      1.0  0.21138  0.20755  0.92303  1.0000
  S   S75       1.0  0.23701  0.19991  0.93516  1.0000
  Fe  Fe41      1.0  0.18006  0.19360  0.90382  1.0000
  S   S76       1.0  0.17149  0.16986  0.89013  1.0000
  S   S77       1.0  0.19616  0.23467  0.92672  1.0000
  S   S78       1.0  0.16303  0.22002  0.90654  1.0000
  C   C282      1.0  0.05673  0.02722  0.85502  1.0000
  C   C283      1.0  0.05760  0.00667  0.85285  1.0000
  Fe  Fe42      1.0  0.32691  0.26581  0.96611  1.0000
  C   C284      1.0  0.13232  0.19785  0.97904  1.0000
  S   S79       1.0  0.32298  0.25801  0.94494  1.0000
  H   H509      1.0  0.11514  0.15866  0.80161  1.0000
  H   H510      1.0  0.42193  0.33368  0.94210  1.0000
  H   H511      1.0  0.09339  0.09915  0.92100  1.0000
  H   H512      1.0  0.15543  0.19359  0.77884  1.0000
  H   H513      1.0  0.23185  0.24768  0.74655  1.0000
  H   H514      1.0  0.18682  0.29270  0.98636  1.0000
  H   H515      1.0  0.03430  0.08956  0.89944  1.0000
  S   S80       1.0  0.34971  0.29766  0.96589  1.0000
  Fe  Fe43      1.0  0.07402  0.12591  0.85247  1.0000
  S   S81       1.0  0.09159  0.11512  0.83373  1.0000
  S   S82       1.0  0.08841  0.15187  0.86312  1.0000
  Fe  Fe44      1.0  0.02847  0.09635  0.85408  1.0000
  S   S83       1.0  0.04292  0.08319  0.83598  1.0000
  H   H516      1.0  0.07680  0.11645  0.90384  1.0000
  Fe  Fe45      1.0  0.07012  0.08114  0.84671  1.0000
  S   S84       1.0  0.08054  0.04979  0.84830  1.0000
  Fe  Fe46      1.0  0.06253  0.11803  0.82449  1.0000
  S   S85       1.0  0.06644  0.13313  0.80028  1.0000
  S   S86       1.0  0.05426  0.09149  0.86602  1.0000
  S   S87       1.0  0.04648  0.13161  0.84207  1.0000
  H   H517      1.0  0.16365  0.30453  0.92664  1.0000
  H   H518      1.0  0.23458  0.28420  0.98578  1.0000
  C   C285      1.0  0.05133  0.11644  0.79162  1.0000
  C   C286      1.0  0.05762  0.12036  0.77629  1.0000
  C   C287      1.0  0.04648  0.10592  0.76961  1.0000
  H   H519      1.0  0.01253  0.01846  0.77496  1.0000
  C   C288      1.0  0.03325  0.09877  0.80003  1.0000
  H   H520      1.0  0.07135  0.13426  0.76962  1.0000
  H   H521      1.0  0.18741  0.31877  0.93900  1.0000
  H   H522      1.0  0.02781  0.09599  0.81168  1.0000
  C   C289      1.0  0.19916  0.32817  0.97878  1.0000
  H   H523      1.0  0.25532  0.22283  0.97960  1.0000
  H   H524      1.0  0.03576  0.04550  0.86430  1.0000
  C   C290      1.0  0.17901  0.27513  0.94870  1.0000
  Fe  Fe47      1.0  0.01756  0.07155  0.74728  1.0000
  C   C291      1.0  0.03666  0.02980  0.86251  1.0000
  H   H525      1.0  0.12268  0.11962  0.92964  1.0000
  C   C292      1.0  0.12243  0.16567  0.77298  1.0000
  H   H526      1.0  0.14771  0.32632  0.94178  1.0000
  C   C293      1.0  0.14868  0.16599  0.88224  1.0000
  C   C294      1.0  0.13023  0.17390  0.88637  1.0000
  C   C295      1.0  0.11206  0.16946  0.88038  1.0000
  C   C296      1.0  0.11202  0.15712  0.87016  1.0000
  C   C297      1.0  0.13069  0.14967  0.86576  1.0000
  C   C298      1.0  0.14875  0.15387  0.87188  1.0000
  H   H527      1.0  0.12987  0.18328  0.89430  1.0000
  H   H528      1.0  0.09790  0.17561  0.88375  1.0000
  H   H529      1.0  0.13133  0.14089  0.85754  1.0000
  H   H530      1.0  0.16300  0.14786  0.86847  1.0000
  C   C299      1.0  0.25993  0.21967  0.93634  1.0000
  C   C300      1.0  0.25780  0.23066  0.94731  1.0000
  C   C301      1.0  0.27691  0.24268  0.95007  1.0000
  C   C302      1.0  0.29821  0.24388  0.94183  1.0000
  C   C303      1.0  0.30017  0.23358  0.93057  1.0000
  C   C304      1.0  0.28126  0.22129  0.92802  1.0000
  H   H531      1.0  0.24143  0.22923  0.95398  1.0000
  H   H532      1.0  0.27523  0.25100  0.95855  1.0000
  H   H533      1.0  0.31650  0.23443  0.92408  1.0000
  H   H534      1.0  0.28320  0.21249  0.91980  1.0000
  C   C305      1.0  0.20788  0.29862  0.89325  1.0000
  C   C306      1.0  0.21267  0.30084  0.90634  1.0000
  C   C307      1.0  0.21339  0.32080  0.91004  1.0000
  C   C308      1.0  0.08118  0.07501  0.80436  1.0000
  C   C309      1.0  0.27353  0.31422  0.92423  1.0000
  C   C310      1.0  0.20312  0.31598  0.88418  1.0000
  H   H535      1.0  0.21635  0.28740  0.91334  1.0000
  C   C311      1.0  0.32377  0.32429  0.91620  1.0000
  H   H536      1.0  0.30758  0.18196  0.97055  1.0000
  H   H537      1.0  0.25953  0.33102  0.89258  1.0000
  H   H538      1.0  0.07282  0.11305  0.88671  1.0000
  S   S88       1.0  0.31029  0.32815  0.98515  1.0000
  C   C312      1.0  0.16729  0.19785  0.96355  1.0000
  C   C313      1.0  0.14558  0.19963  0.96516  1.0000
  H   H539      1.0  0.06136  0.06325  0.79105  1.0000
  N   N16       1.0  0.03290  0.02154  0.81353  1.0000
  C   C314      1.0  0.24134  0.26230  0.74888  1.0000
  H   H540      1.0  0.17762  0.19892  0.95297  1.0000
  H   H541      1.0  0.20473  0.13644  0.96235  1.0000
  H   H542      1.0  0.10502  0.25150  0.74780  1.0000
  C   C315      1.0  0.22391  0.17227  0.98180  1.0000
  H   H543      1.0  0.10844  0.16198  0.75468  1.0000
  C   C316      1.0  0.14201  0.27344  0.91596  1.0000
  H   H544      1.0  0.06513  0.07185  0.89679  1.0000
  H   H545      1.0  0.07683  0.04522  0.79808  1.0000
  H   H546      1.0  0.05856  0.00992  0.80162  1.0000
  H   H547      1.0  0.31950  0.20263  0.97840  1.0000
  H   H548      1.0  0.13820  0.17079  0.74930  1.0000
  H   H549      1.0  0.18367  0.23731  0.75171  1.0000
  H   H550      1.0  0.07185  0.08686  0.80697  1.0000
  H   H551      1.0  0.22661  0.18719  0.97263  1.0000
  H   H552      1.0  0.09188  0.01852  0.91612  1.0000
  H   H553      1.0  0.24170  0.25690  0.90870  1.0000
  C   C317      1.0  0.06642  0.05614  0.80091  1.0000
  H   H554      1.0  0.09982  0.04641  0.88448  1.0000
  H   H555      1.0  0.23924  0.15759  0.96535  1.0000
  H   H556      1.0  0.03900  0.11641  0.90240  1.0000
  H   H557      1.0  0.10680  0.16737  0.82524  1.0000
  C   C318      1.0  0.11383  0.20030  0.76192  1.0000
  H   H558      1.0  0.10219  0.10666  0.87394  1.0000
  H   H559      1.0  0.24003  0.32209  0.98675  1.0000
  H   H560      1.0  0.25230  0.25693  0.75558  1.0000
  H   H561      1.0  0.02387  0.14800  0.81586  1.0000
  H   H562      1.0  0.09857  0.05872  0.91356  1.0000
  C   C319      1.0  0.14302  0.27844  0.96304  1.0000
  H   H563      1.0  0.40165  0.33272  0.98082  1.0000
  H   H564      1.0  0.03473  0.05516  0.81418  1.0000
  H   H565      1.0  0.17685  0.26524  0.97235  1.0000
  H   H566      1.0  0.19493  0.24035  0.96122  1.0000
  H   H567      1.0  0.12268  0.06534  0.89890  1.0000
  H   H568      1.0  0.00834  0.07070  0.80014  1.0000
  H   H569      1.0  0.11536  0.19867  0.98037  1.0000
  H   H570      1.0  0.14356  0.25429  0.93662  1.0000
  C   C320      1.0  0.09355  0.04367  0.89648  1.0000
  C   C321      1.0  0.26375  0.18357  0.97932  1.0000
  H   H571      1.0  0.21803  0.26335  0.95008  1.0000
  C   C322      1.0  0.11098  0.10113  0.91539  1.0000
  C   C323      1.0  0.12494  0.12161  0.91773  1.0000
  H   H572      1.0  0.22577  0.21512  0.98182  1.0000
  H   H573      1.0  0.19276  0.28297  0.93843  1.0000
  C   C324      1.0  0.17601  0.19515  0.97563  1.0000
  H   H574      1.0  0.12156  0.25168  0.95806  1.0000
  H   H575      1.0  0.12155  0.19968  0.75077  1.0000
  H   H576      1.0  0.19441  0.21641  0.76140  1.0000
  H   H577      1.0  0.13238  0.23510  0.75681  1.0000
  C   C325      1.0  0.11143  0.18942  0.78798  1.0000
  C   C326      1.0  0.11490  0.22490  0.76043  1.0000
  H   H578      1.0  0.16994  0.26964  0.92390  1.0000
  H   H579      1.0  0.11381  0.20647  0.78896  1.0000
  H   H580      1.0  0.12450  0.27373  0.91996  1.0000
  H   H581      1.0  0.10938  0.12477  0.76842  1.0000
  H   H582      1.0  0.11929  0.07960  0.85232  1.0000
  H   H583      1.0  0.11978  0.13640  0.91308  1.0000
  S   S89       1.0  0.34058  0.24587  0.98239  1.0000
  H   H584      1.0  0.13513  0.15955  0.77770  1.0000
  C   C327      1.0  0.10219  0.17663  0.81578  1.0000
  H   H585      1.0  0.14935  0.21845  0.77182  1.0000
  H   H586      1.0  0.13237  0.10409  0.89444  1.0000
  H   H587      1.0  0.15720  0.20843  0.74627  1.0000
  C   C328      1.0  0.18968  0.27238  0.96166  1.0000
  H   H588      1.0  0.27782  0.29415  0.74519  1.0000
  H   H589      1.0  0.13311  0.07575  0.87446  1.0000
  C   C329      1.0  0.10448  0.06355  0.90137  1.0000
  H   H590      1.0  0.11609  0.08677  0.92080  1.0000
  H   H591      1.0  0.00838  0.13861  0.74106  1.0000
  H   H592      1.0  0.15143  0.28897  0.90729  1.0000
  H   H593      1.0  0.22277  0.13761  0.98234  1.0000
  H   H594      1.0  0.21247  0.25553  0.96981  1.0000
  C   C330      1.0  0.15278  0.27035  0.92859  1.0000
  H   H595      1.0  0.26726  0.16982  0.97492  1.0000
  H   H596      1.0  0.42477  0.32400  0.96029  1.0000
  H   H597      1.0  0.13625  0.29193  0.93805  1.0000
  C   C331      1.0  0.16422  0.20359  0.75552  1.0000
  H   H598      1.0  0.13011  0.28754  0.96276  1.0000
  H   H599      1.0  0.07523  0.04066  0.89927  1.0000
  C   C332      1.0  0.18298  0.30815  0.98638  1.0000
  H   H600      1.0  0.05053  0.04214  0.82438  1.0000
  H   H601      1.0  0.17190  0.25824  0.94818  1.0000
  H   H602      1.0  0.14799  0.09460  0.84815  1.0000
  N   N17       1.0  0.09987  0.08506  0.89502  1.0000
  H   H603      1.0  0.25514  0.29579  0.90756  1.0000
  H   H604      1.0  0.14663  0.32258  0.96088  1.0000
  H   H605      1.0  0.20021  0.28838  0.96157  1.0000
  C   C333      1.0  0.10348  0.23374  0.74898  1.0000
  C   C334      1.0  0.02488  0.02460  0.79991  1.0000
  H   H606      1.0  0.25652  0.30696  0.74298  1.0000
  N   N18       1.0  0.28655  0.31360  0.90950  1.0000
  H   H607      1.0  0.08456  0.16878  0.81674  1.0000
  H   H608      1.0  0.11679  0.02462  0.90123  1.0000
  H   H609      1.0  0.14893  0.28076  0.97269  1.0000
  H   H610      1.0  0.39844  0.31526  0.95642  1.0000
  H   H611      1.0  0.11281  0.11947  0.89330  1.0000
  C   C335      1.0  0.11456  0.10317  0.89880  1.0000
  H   H612      1.0  0.07029  0.07523  0.91339  1.0000
  S   S90       1.0  0.01556  0.06749  0.77120  1.0000
  H   H613      1.0  0.14096  0.10513  0.87106  1.0000
  C   C336      1.0  0.07559  0.08307  0.90134  1.0000
  H   H614      1.0  0.14206  0.24341  0.96666  1.0000
  C   C337      1.0  0.09859  0.02266  0.90403  1.0000
  H   H615      1.0  0.13947  0.13356  0.76245  1.0000
  H   H616      1.0  0.09605  0.19101  0.76445  1.0000
  H   H617      1.0  0.13461  0.18331  0.80136  1.0000
  H   H618      1.0  0.10220  0.25718  0.98214  1.0000
  H   H619      1.0  0.05172  0.10862  0.75786  1.0000
  C   C338      1.0  0.12857  0.09104  0.87019  1.0000
  C   C339      1.0  0.01763  0.01195  0.86795  1.0000
  H   H620      1.0  0.35580  0.32888  0.92090  1.0000
  C   C340      1.0  0.02894  0.08766  0.77829  1.0000
  H   H621      1.0  0.09264  0.07856  0.87535  1.0000
  H   H622      1.0  0.08743  0.06862  0.81383  1.0000
  C   C341      1.0  0.13073  0.09378  0.85389  1.0000
  C   C342      1.0  0.12407  0.13619  0.75972  1.0000
  C   C343      1.0  0.20278  0.33535  0.88819  1.0000
  C   C344      1.0  0.20472  0.25699  0.96058  1.0000
  C   C345      1.0  0.10473  0.09035  0.87854  1.0000
  H   H623      1.0  0.27730  0.30245  0.89154  1.0000
  C   C346      1.0  0.30863  0.30901  0.90995  1.0000
  C   C347      1.0  0.27310  0.29696  0.90376  1.0000
  C   C348      1.0  0.26921  0.29373  0.93725  1.0000
  C   C349      1.0  0.13056  0.25399  0.96639  1.0000
  C   C350      1.0  0.27573  0.27324  0.90738  1.0000
  C   C351      1.0  0.25883  0.25795  0.90264  1.0000
  C   C352      1.0  0.25922  0.29787  0.95180  1.0000
  C   C353      1.0  0.04350  0.10057  0.90471  1.0000
  H   H624      1.0  0.31817  0.30980  0.89874  1.0000
  H   H625      1.0  0.30643  0.29203  0.91671  1.0000
  H   H626      1.0  0.28469  0.28911  0.93810  1.0000
  H   H627      1.0  0.25719  0.27969  0.93603  1.0000
  C   C354      1.0  0.14822  0.20170  0.77040  1.0000
  H   H628      1.0  0.25688  0.31637  0.92378  1.0000
  H   H629      1.0  0.29254  0.27309  0.90139  1.0000
  H   H630      1.0  0.27348  0.26634  0.91922  1.0000
  H   H631      1.0  0.26125  0.24116  0.90503  1.0000
  H   H632      1.0  0.26075  0.26397  0.89069  1.0000
  H   H633      1.0  0.25543  0.28260  0.96087  1.0000
  H   H634      1.0  0.27122  0.31102  0.95396  1.0000
  H   H635      1.0  0.24363  0.30278  0.95167  1.0000
  C   C355      1.0  0.02216  0.08450  0.79342  1.0000
  H   H636      1.0  0.03910  0.03186  0.78989  1.0000
  C   C356      1.0  0.15792  0.32697  0.94963  1.0000
  H   H637      1.0  0.03837  0.09302  0.91677  1.0000
  C   C357      1.0  0.06855  0.10483  0.89857  1.0000
  H   H638      1.0  0.06141  0.01207  0.81907  1.0000
  H   H639      1.0  0.12691  0.10917  0.84883  1.0000
  N   N19       1.0  0.12434  0.18937  0.77301  1.0000
  H   H640      1.0  0.09068  0.00878  0.90026  1.0000
  H   H641      1.0  0.14217  0.25955  0.91103  1.0000
  C   C358      1.0  0.04546  0.04380  0.81398  1.0000
  C   C359      1.0  0.12352  0.16006  0.75818  1.0000
  H   H642      1.0  0.14287  0.12432  0.91243  1.0000
  H   H643      1.0  0.16786  0.18753  0.75564  1.0000
  H   H644      1.0  0.02236  0.14236  0.75488  1.0000
  N   N20       1.0  0.16186  0.28803  0.94918  1.0000
  C   C360      1.0  0.15329  0.28963  0.93568  1.0000
  H   H645      1.0  0.09326  0.18274  0.78953  1.0000
  H   H646      1.0  0.09562  0.08390  0.79470  1.0000
  C   C361      1.0  0.17308  0.31114  0.94893  1.0000
  H   H647      1.0  0.10616  0.15494  0.78027  1.0000
  C   C362      1.0  0.22387  0.15333  0.97447  1.0000
  H   H648      1.0  0.19301  0.19467  0.97406  1.0000
  C   C363      1.0  0.18629  0.22069  0.75255  1.0000
  H   H649      1.0  0.18012  0.31110  0.95838  1.0000
  H   H650      1.0  0.10296  0.22935  0.98304  1.0000
  C   C364      1.0  0.11727  0.17618  0.80141  1.0000
  H   H651      1.0  0.10642  0.22734  0.77089  1.0000
  H   H652      1.0  0.10393  0.19379  0.81642  1.0000
  C   C365      1.0  0.04888  0.00726  0.81313  1.0000
  H   H653      1.0  0.30221  0.33667  0.88801  1.0000
  H   H654      1.0  0.00282  0.12632  0.81409  1.0000
  H   H655      1.0  0.21788  0.32286  0.91983  1.0000
  H   H656      1.0  0.01508  0.03686  0.79955  1.0000
  Fe  Fe48      1.0  0.36037  0.27802  0.98409  1.0000
  H   H657      1.0  0.35496  0.31959  0.90481  1.0000
  H   H658      1.0  0.34207  0.30072  0.92293  1.0000
  C   C366      1.0  0.34546  0.31793  0.91617  1.0000
  H   H659      1.0  0.22938  0.26928  0.75519  1.0000
  H   H660      1.0  0.12368  0.13231  0.74923  1.0000
  H   H661      1.0  0.02039  0.01168  0.83707  1.0000
  C   C367      1.0  0.41331  0.32926  0.95397  1.0000
  H   H662      1.0  0.19952  0.31438  0.87404  1.0000
  H   H663      1.0  0.20440  0.16472  0.95992  1.0000
  H   H664      1.0  0.18819  0.14421  0.97683  1.0000
  H   H665      1.0  0.08558  0.22478  0.75235  1.0000
  S   S91       1.0  0.29815  0.26777  0.98297  1.0000
  H   H666      1.0  0.19758  0.22130  0.74196  1.0000
  C   C368      1.0  0.23887  0.21613  0.98768  1.0000
  C   C369      1.0  0.01384  0.01220  0.82734  1.0000
  H   H667      1.0  0.37733  0.33249  0.97527  1.0000
  C   C370      1.0  0.30561  0.19696  0.97381  1.0000
  H   H668      1.0  0.30667  0.21009  0.96394  1.0000
  H   H669      1.0  0.00368  0.09464  0.83346  1.0000
  C   C371      1.0  0.20533  0.33195  0.73808  1.0000
  S   S92       1.0  0.39626  0.28405  0.98561  1.0000
  C   C372      1.0  0.11334  0.24618  0.98137  1.0000
  Fe  Fe49      1.0  0.32161  0.29800  0.98397  1.0000
  C   C373      1.0  0.20407  0.14947  0.96803  1.0000
  H   H670      1.0  0.31538  0.32295  0.92771  1.0000
  H   H671      1.0  0.28179  0.32892  0.92713  1.0000
  H   H672      1.0  0.21543  0.32817  0.97274  1.0000
  H   H673      1.0  0.07312  0.00457  0.84712  1.0000
  C   C374      1.0  0.28348  0.19213  0.98530  1.0000
  C   C375      1.0  0.00592  0.13963  0.75252  1.0000
  C   C376      1.0  0.00599  0.14257  0.81639  1.0000
  C   C377      1.0  0.29127  0.33599  0.89878  1.0000
  H   H674      1.0  0.27389  0.33689  0.74722  1.0000
  H   H675      1.0  0.11136  0.23198  0.73812  1.0000
  H   H676      1.0  0.43883  0.38626  0.11656  1.0000
  H   H677      1.0  0.42437  0.37641  0.14138  1.0000
  C   C378      1.0  0.42939  0.36146  0.14599  1.0000
  H   H678      1.0  0.33078  0.63749  0.99829  1.0000
  H   H679      1.0  0.01548  0.59399  0.03787  1.0000
  H   H680      1.0  0.00646  0.60784  0.02296  1.0000
  H   H681      1.0  0.25389  0.38272  0.01041  1.0000
  H   H682      1.0  0.02170  0.66540  0.22808  1.0000
  H   H683      1.0  0.23165  0.38041  0.00171  1.0000
  H   H684      1.0  0.42237  0.35959  0.99786  1.0000
  H   H685      1.0  0.27147  0.35941  0.04209  1.0000
  H   H686      1.0  0.49501  0.40079  0.12625  1.0000
  H   H687      1.0  0.43389  0.37888  0.21058  1.0000
  H   H688      1.0  0.38969  0.36662  0.16199  1.0000
  H   H689      1.0  0.46141  0.38302  0.15696  1.0000
  C   C379      1.0  0.44993  0.34524  0.19065  1.0000
  H   H690      1.0  0.38051  0.36721  0.00170  1.0000
  H   H691      1.0  0.48555  0.39366  0.09629  1.0000
  C   C380      1.0  0.46705  0.38432  0.19692  1.0000
  H   H692      1.0  0.47352  0.39963  0.19920  1.0000
  C   C381      1.0  0.50201  0.38309  0.22373  1.0000
  H   H693      1.0  0.45676  0.39968  0.14148  1.0000
  C   C382      1.0  0.47237  0.35662  0.18457  1.0000
  C   C383      1.0  0.24899  0.37937  0.00070  1.0000
  C   C384      1.0  0.27816  0.34704  0.03761  1.0000
  C   C385      1.0  0.48109  0.37606  0.18775  1.0000
  H   H694      1.0  0.28045  0.36276  0.01530  1.0000
  C   C386      1.0  0.43615  0.35296  0.20027  1.0000
  H   H695      1.0  0.48001  0.35000  0.14416  1.0000
  H   H696      1.0  0.46419  0.40412  0.11699  1.0000
  C   C387      1.0  0.46722  0.39069  0.09866  1.0000
  C   C388      1.0  0.46187  0.34706  0.14872  1.0000
  C   C389      1.0  0.30277  0.35527  0.21900  1.0000
  H   H697      1.0  0.34460  0.35208  0.99640  1.0000
  C   C390      1.0  0.25102  0.35654  0.99908  1.0000
  H   H698      1.0  0.48292  0.35003  0.17768  1.0000
  H   H699      1.0  0.24454  0.35460  0.98958  1.0000
  C   C391      1.0  0.46466  0.38631  0.14484  1.0000
  H   H700      1.0  0.49034  0.38975  0.21827  1.0000
  H   H701      1.0  0.45948  0.34618  0.16049  1.0000
  C   C392      1.0  0.45697  0.38846  0.11482  1.0000
  C   C393      1.0  0.49017  0.39582  0.13841  1.0000
  H   H702      1.0  0.33054  0.60889  0.00337  1.0000
  C   C394      1.0  0.48768  0.34481  0.22090  1.0000
  H   H703      1.0  0.30571  0.34433  0.21189  1.0000
  N   N21       1.0  0.23914  0.33715  0.01233  1.0000
  C   C395      1.0  0.44464  0.37259  0.20338  1.0000
  C   C396      1.0  0.29291  0.34146  0.23496  1.0000
  H   H704      1.0  0.47222  0.34727  0.21807  1.0000
  N   N22       1.0  0.45431  0.36587  0.14106  1.0000
  C   C397      1.0  0.33744  0.62461  0.99448  1.0000
  C   C398      1.0  0.46142  0.36855  0.12481  1.0000
  H   H705      1.0  0.01922  0.64010  0.22271  1.0000
  C   C399      1.0  0.01662  0.64715  0.23216  1.0000
  H   H706      1.0  0.35581  0.62929  0.99229  1.0000
  H   H707      1.0  0.42581  0.36740  0.16782  1.0000
  H   H708      1.0  0.46357  0.40477  0.09162  1.0000
  H   H709      1.0  0.38686  0.34622  0.17875  1.0000
  H   H710      1.0  0.31893  0.36706  0.21764  1.0000
  H   H711      1.0  0.05419  0.60434  0.99617  1.0000
  H   H712      1.0  0.34597  0.34555  0.02228  1.0000
  S   S93       1.0  0.04870  0.65090  0.00131  1.0000
  S   S94       1.0  0.48304  0.34347  0.05154  1.0000
  H   H713      1.0  0.46024  0.37551  0.09579  1.0000
  H   H714      1.0  0.42192  0.33894  0.16828  1.0000
  H   H715      1.0  0.21103  0.34978  0.01885  1.0000
  C   C400      1.0  0.35452  0.34110  0.00039  1.0000
  C   C401      1.0  0.49857  0.41617  0.14323  1.0000
  H   H716      1.0  0.47938  0.36951  0.12117  1.0000
  H   H717      1.0  0.50088  0.35224  0.21039  1.0000
  H   H718      1.0  0.49463  0.41203  0.15538  1.0000
  H   H719      1.0  0.45280  0.35372  0.12220  1.0000
  C   C402      1.0  0.49188  0.35866  0.23168  1.0000
  H   H720      1.0  0.24019  0.35255  0.02992  1.0000
  H   H721      1.0  0.29120  0.36451  0.21536  1.0000
  C   C403      1.0  0.41892  0.35460  0.16287  1.0000
  C   C404      1.0  0.39379  0.35116  0.16663  1.0000
  Fe  Fe50      1.0  0.02131  0.64854  0.99026  1.0000
  H   H722      1.0  0.29649  0.35170  0.03562  1.0000
  H   H723      1.0  0.38767  0.34209  0.00191  1.0000
  H   H724      1.0  0.42110  0.34867  0.14148  1.0000
  C   C405      1.0  0.27242  0.34629  0.02324  1.0000
  C   C406      1.0  0.24687  0.34004  0.02556  1.0000
  H   H725      1.0  0.38586  0.33793  0.16235  1.0000
  H   H726      1.0  0.00963  0.62942  0.04079  1.0000
  H   H727      1.0  0.26896  0.35733  0.99557  1.0000
  H   H728      1.0  0.49092  0.42938  0.13918  1.0000
  C   C407      1.0  0.37947  0.35364  0.99634  1.0000
  H   H729      1.0  0.07512  0.59243  0.98816  1.0000
  H   H730      1.0  0.49896  0.38361  0.14223  1.0000
  S   S95       1.0  0.40849  0.33765  0.20823  1.0000
  H   H731      1.0  0.26170  0.41387  0.98835  1.0000
  H   H732      1.0  0.46252  0.37556  0.98894  1.0000
  H   H733      1.0  0.44860  0.39705  0.98875  1.0000
  Fe  Fe51      1.0  0.26161  0.37616  0.34890  1.0000
  S   S96       1.0  0.23249  0.38531  0.34220  1.0000
  H   H734      1.0  0.44921  0.35290  0.32251  1.0000
  Fe  Fe52      1.0  0.29543  0.40590  0.32118  1.0000
  S   S97       1.0  0.26950  0.41742  0.31184  1.0000
  S   S98       1.0  0.33186  0.41976  0.30961  1.0000
  Fe  Fe53      1.0  0.25505  0.42004  0.33442  1.0000
  S   S99       1.0  0.24749  0.45225  0.33629  1.0000
  Fe  Fe54      1.0  0.24953  0.38197  0.32033  1.0000
  S   S100      1.0  0.23506  0.36482  0.30529  1.0000
  S   S101      1.0  0.28241  0.41091  0.34312  1.0000
  S   S102      1.0  0.27697  0.37043  0.32764  1.0000
  H   H735      1.0  0.24529  0.61666  0.39298  1.0000
  S   S103      1.0  0.01553  0.60695  0.30324  1.0000
  H   H736      1.0  0.33191  0.39093  0.39656  1.0000
  C   C408      1.0  0.40169  0.34183  0.38363  1.0000
  Fe  Fe55      1.0  0.37335  0.35601  0.25412  1.0000
  Fe  Fe56      1.0  0.01189  0.60765  0.32662  1.0000
  S   S104      1.0  0.03987  0.60175  0.33699  1.0000
  H   H737      1.0  0.41830  0.34613  0.42362  1.0000
  H   H738      1.0  0.26084  0.36756  0.26580  1.0000
  H   H739      1.0  0.40934  0.40681  0.26054  1.0000
  C   C409      1.0  0.27186  0.64682  0.38257  1.0000
  H   H740      1.0  0.15970  0.57965  0.47625  1.0000
  H   H741      1.0  0.28703  0.61268  0.42284  1.0000
  H   H742      1.0  0.00937  0.60870  0.36368  1.0000
  H   H743      1.0  0.22827  0.58492  0.41192  1.0000
  H   H744      1.0  0.34621  0.64542  0.41292  1.0000
  S   S105      1.0  0.33014  0.56439  0.46188  1.0000
  S   S106      1.0  0.11850  0.63061  0.39336  1.0000
  Fe  Fe57      1.0  0.15059  0.62374  0.38434  1.0000
  S   S107      1.0  0.15209  0.58880  0.38727  1.0000
  Fe  Fe58      1.0  0.27283  0.56139  0.40314  1.0000
  S   S108      1.0  0.30205  0.54874  0.39543  1.0000
  S   S109      1.0  0.25919  0.56496  0.42571  1.0000
  Fe  Fe59      1.0  0.26716  0.57449  0.37242  1.0000
  S   S110      1.0  0.29570  0.56285  0.36231  1.0000
  S   S111      1.0  0.25118  0.59348  0.35757  1.0000
  Fe  Fe60      1.0  0.28183  0.53353  0.38210  1.0000
  S   S112      1.0  0.27982  0.49805  0.38228  1.0000
  Fe  Fe61      1.0  0.31302  0.57918  0.37642  1.0000
  S   S113      1.0  0.34848  0.59987  0.36721  1.0000
  S   S114      1.0  0.25167  0.54398  0.39127  1.0000
  S   S115      1.0  0.28544  0.59284  0.38505  1.0000
  C   C410      1.0  0.17943  0.58960  0.37895  1.0000
  C   C411      1.0  0.18872  0.57296  0.38456  1.0000
  C   C412      1.0  0.21094  0.57417  0.37816  1.0000
  C   C413      1.0  0.22358  0.59167  0.36592  1.0000
  C   C414      1.0  0.21407  0.60795  0.36012  1.0000
  C   C415      1.0  0.19214  0.60708  0.36676  1.0000
  H   H745      1.0  0.17891  0.55943  0.39401  1.0000
  H   H746      1.0  0.21814  0.56148  0.38259  1.0000
  H   H747      1.0  0.22369  0.62139  0.35058  1.0000
  H   H748      1.0  0.18499  0.61978  0.36226  1.0000
  C   C416      1.0  0.37823  0.63975  0.36035  1.0000
  C   C417      1.0  0.35612  0.62775  0.36707  1.0000
  H   H749      1.0  0.38993  0.63196  0.35526  1.0000
  H   H750      1.0  0.32402  0.62896  0.37875  1.0000
  C   C418      1.0  0.30872  0.56304  0.45320  1.0000
  C   C419      1.0  0.30967  0.55255  0.44207  1.0000
  C   C420      1.0  0.29410  0.55259  0.43393  1.0000
  C   C421      1.0  0.27743  0.56315  0.43686  1.0000
  C   C422      1.0  0.27591  0.57301  0.44838  1.0000
  C   C423      1.0  0.29163  0.57305  0.45654  1.0000
  H   H751      1.0  0.32264  0.54449  0.43964  1.0000
  H   H752      1.0  0.29498  0.54436  0.42544  1.0000
  H   H753      1.0  0.26295  0.58110  0.45075  1.0000
  H   H754      1.0  0.29079  0.58112  0.46518  1.0000
  C   C424      1.0  0.05736  0.62043  0.34334  1.0000
  C   C425      1.0  0.05326  0.64036  0.34476  1.0000
  H   H755      1.0  0.04355  0.61601  0.37446  1.0000
  C   C426      1.0  0.08551  0.64864  0.35442  1.0000
  C   C427      1.0  0.08965  0.62877  0.35294  1.0000
  C   C428      1.0  0.07568  0.61480  0.34742  1.0000
  H   H756      1.0  0.03909  0.64481  0.34184  1.0000
  C   C429      1.0  0.27381  0.36062  0.26951  1.0000
  H   H757      1.0  0.10367  0.62417  0.35604  1.0000
  H   H758      1.0  0.07903  0.59944  0.34637  1.0000
  N   N23       1.0  0.36708  0.34277  0.40278  1.0000
  C   C430      1.0  0.07514  0.57419  0.39665  1.0000
  H   H759      1.0  0.30586  0.63964  0.41340  1.0000
  C   C431      1.0  0.37951  0.34085  0.41435  1.0000
  H   H760      1.0  0.40873  0.36962  0.40325  1.0000
  H   H761      1.0  0.04851  0.56826  0.38693  1.0000
  S   S116      1.0  0.35979  0.38521  0.25465  1.0000
  H   H762      1.0  0.18085  0.60140  0.47775  1.0000
  C   C432      1.0  0.25735  0.46502  0.34880  1.0000
  C   C433      1.0  0.26033  0.48776  0.34654  1.0000
  C   C434      1.0  0.26712  0.49819  0.35673  1.0000
  C   C435      1.0  0.27109  0.48588  0.36921  1.0000
  C   C436      1.0  0.26851  0.46324  0.37130  1.0000
  C   C437      1.0  0.26167  0.45283  0.36115  1.0000
  H   H763      1.0  0.25737  0.49731  0.33686  1.0000
  H   H764      1.0  0.26936  0.51571  0.35491  1.0000
  H   H765      1.0  0.27161  0.45362  0.38090  1.0000
  H   H766      1.0  0.25928  0.43529  0.36307  1.0000
  C   C438      1.0  0.35455  0.39323  0.27087  1.0000
  C   C439      1.0  0.36315  0.41525  0.27020  1.0000
  C   C440      1.0  0.35671  0.42300  0.28235  1.0000
  C   C441      1.0  0.34074  0.40905  0.29500  1.0000
  C   C442      1.0  0.33227  0.38691  0.29580  1.0000
  C   C443      1.0  0.33963  0.37887  0.28386  1.0000
  H   H767      1.0  0.37444  0.42649  0.26012  1.0000
  H   H768      1.0  0.36330  0.44010  0.28167  1.0000
  H   H769      1.0  0.32000  0.37603  0.30558  1.0000
  C   C444      1.0  0.32670  0.36067  0.35334  1.0000
  C   C445      1.0  0.30522  0.36319  0.35577  1.0000
  S   S117      1.0  0.40930  0.36214  0.24243  1.0000
  H   H770      1.0  0.34015  0.37326  0.34516  1.0000
  H   H771      1.0  0.30249  0.37779  0.34949  1.0000
  C   C446      1.0  0.34109  0.63811  0.37353  1.0000
  H   H772      1.0  0.30864  0.37607  0.26845  1.0000
  C   C447      1.0  0.01781  0.58560  0.38030  1.0000
  H   H773      1.0  0.25482  0.60923  0.47333  1.0000
  H   H774      1.0  0.06954  0.59286  0.37697  1.0000
  H   H775      1.0  0.42927  0.34450  0.36535  1.0000
  H   H776      1.0  0.28355  0.66885  0.33095  1.0000
  H   H777      1.0  0.41139  0.35418  0.33116  1.0000
  H   H778      1.0  0.31001  0.64801  0.45085  1.0000
  C   C448      1.0  0.44825  0.64711  0.47561  1.0000
  C   C449      1.0  0.35116  0.65805  0.45519  1.0000
  C   C450      1.0  0.32451  0.62918  0.33878  1.0000
  H   H779      1.0  0.28518  0.38188  0.29034  1.0000
  H   H780      1.0  0.38269  0.35082  0.29588  1.0000
  H   H781      1.0  0.08553  0.58703  0.39999  1.0000
  C   C451      1.0  0.03239  0.60394  0.38477  1.0000
  C   C452      1.0  0.06138  0.61691  0.39591  1.0000
  H   H782      1.0  0.07437  0.62482  0.38526  1.0000
  H   H783      1.0  0.40589  0.35171  0.36002  1.0000
  C   C453      1.0  0.38285  0.35282  0.38762  1.0000
  C   C454      1.0  0.25269  0.63192  0.39557  1.0000
  H   H784      1.0  0.02878  0.56641  0.44681  1.0000
  H   H785      1.0  0.38714  0.37472  0.41620  1.0000
  H   H786      1.0  0.10209  0.57827  0.37738  1.0000
  C   C455      1.0  0.36209  0.59705  0.41568  1.0000
  C   C456      1.0  0.05941  0.58307  0.38824  1.0000
  H   H787      1.0  0.08172  0.55168  0.38356  1.0000
  S   S118      1.0  0.16973  0.64374  0.39581  1.0000
  S   S119      1.0  0.26064  0.35043  0.36890  1.0000
  C   C457      1.0  0.38471  0.62060  0.45090  1.0000
  C   C458      1.0  0.02245  0.56570  0.43710  1.0000
  C   C459      1.0  0.28851  0.35623  0.24522  1.0000
  H   H788      1.0  0.00858  0.57129  0.38992  1.0000
  H   H789      1.0  0.28675  0.62738  0.35989  1.0000
  H   H790      1.0  0.27725  0.36589  0.24152  1.0000
  H   H791      1.0  0.29690  0.39267  0.25666  1.0000
  C   C460      1.0  0.39196  0.65955  0.40387  1.0000
  H   H792      1.0  0.33879  0.63847  0.34168  1.0000
  C   C461      1.0  0.36499  0.34133  0.31856  1.0000
  C   C462      1.0  0.39607  0.36234  0.41399  1.0000
  H   H793      1.0  0.37038  0.60115  0.39189  1.0000
  S   S120      1.0  0.16010  0.65060  0.36318  1.0000
  H   H794      1.0  0.37362  0.35223  0.37926  1.0000
  C   C463      1.0  0.38502  0.61699  0.43587  1.0000
  H   H795      1.0  0.31133  0.36821  0.41064  1.0000
  H   H796      1.0  0.38442  0.59944  0.43691  1.0000
  H   H797      1.0  0.39836  0.61519  0.45472  1.0000
  C   C464      1.0  0.29657  0.64439  0.35339  1.0000
  H   H798      1.0  0.30967  0.37417  0.39196  1.0000
  H   H799      1.0  0.39958  0.62806  0.40511  1.0000
  C   C465      1.0  0.09105  0.56500  0.38717  1.0000
  C   C466      1.0  0.07664  0.62665  0.28925  1.0000
  H   H800      1.0  0.33292  0.36189  0.28442  1.0000
  H   H801      1.0  0.28137  0.65132  0.46933  1.0000
  H   H802      1.0  0.39669  0.35115  0.43679  1.0000
  H   H803      1.0  0.40104  0.62739  0.42811  1.0000
  H   H804      1.0  0.10173  0.55819  0.39357  1.0000
  H   H805      1.0  0.38712  0.63827  0.45031  1.0000
  N   N24       1.0  0.19867  0.50433  0.36781  1.0000
  C   C467      1.0  0.18653  0.48250  0.36655  1.0000
  C   C468      1.0  0.18194  0.51628  0.37283  1.0000
  C   C469      1.0  0.21438  0.51732  0.35303  1.0000
  C   C470      1.0  0.21198  0.50130  0.37884  1.0000
  C   C471      1.0  0.19948  0.48460  0.39402  1.0000
  C   C472      1.0  0.20129  0.46733  0.36251  1.0000
  C   C473      1.0  0.22631  0.54148  0.35153  1.0000
  C   C474      1.0  0.16802  0.52283  0.36215  1.0000
  C   C475      1.0  0.15331  0.53667  0.36773  1.0000
  C   C476      1.0  0.21475  0.48302  0.40411  1.0000
  C   C477      1.0  0.18719  0.44469  0.36336  1.0000
  C   C478      1.0  0.24257  0.55224  0.33630  1.0000
  H   H806      1.0  0.17775  0.48507  0.35787  1.0000
  H   H807      1.0  0.17317  0.47329  0.37682  1.0000
  H   H808      1.0  0.16980  0.50600  0.38337  1.0000
  H   H809      1.0  0.19021  0.53139  0.37531  1.0000
  H   H810      1.0  0.20583  0.51724  0.34420  1.0000
  H   H811      1.0  0.22770  0.50923  0.35018  1.0000
  H   H812      1.0  0.22703  0.49631  0.37437  1.0000
  H   H813      1.0  0.21849  0.51723  0.38097  1.0000
  H   H814      1.0  0.19341  0.46784  0.39298  1.0000
  H   H815      1.0  0.18510  0.48961  0.39952  1.0000
  H   H816      1.0  0.21201  0.47455  0.35108  1.0000
  H   H817      1.0  0.21212  0.46479  0.36987  1.0000
  H   H818      1.0  0.23595  0.54237  0.35970  1.0000
  H   H819      1.0  0.21426  0.55141  0.35305  1.0000
  H   H820      1.0  0.17871  0.53269  0.35109  1.0000
  H   H821      1.0  0.15696  0.50795  0.36109  1.0000
  H   H822      1.0  0.14261  0.54008  0.36037  1.0000
  H   H823      1.0  0.14246  0.52792  0.37898  1.0000
  H   H824      1.0  0.16367  0.55267  0.36779  1.0000
  H   H825      1.0  0.22045  0.49905  0.40630  1.0000
  H   H826      1.0  0.20565  0.47055  0.41474  1.0000
  H   H827      1.0  0.22947  0.47796  0.39909  1.0000
  H   H828      1.0  0.19828  0.43448  0.36008  1.0000
  H   H829      1.0  0.17665  0.43621  0.37473  1.0000
  H   H830      1.0  0.17651  0.44618  0.35577  1.0000
  H   H831      1.0  0.25568  0.54352  0.33449  1.0000
  H   H832      1.0  0.23372  0.55210  0.32766  1.0000
  H   H833      1.0  0.25074  0.56961  0.33532  1.0000
  C   C479      1.0  0.17770  0.58540  0.47523  1.0000
  C   C480      1.0  0.35604  0.56692  0.40302  1.0000
  H   H834      1.0  0.37767  0.59256  0.41666  1.0000
  H   H835      1.0  0.07072  0.61278  0.40400  1.0000
  H   H836      1.0  0.35313  0.56327  0.39284  1.0000
  H   H837      1.0  0.37188  0.56337  0.40425  1.0000
  H   H838      1.0  0.36875  0.61085  0.45910  1.0000
  C   C481      1.0  0.36496  0.62254  0.43077  1.0000
  C   C482      1.0  0.02997  0.58293  0.40972  1.0000
  C   C483      1.0  0.30714  0.64207  0.33805  1.0000
  H   H839      1.0  0.46448  0.64754  0.46849  1.0000
  N   N25       1.0  0.36432  0.62072  0.41568  1.0000
  H   H840      1.0  0.20102  0.57497  0.48681  1.0000
  N   N26       1.0  0.33157  0.47594  0.33572  1.0000
  C   C484      1.0  0.31666  0.46757  0.32691  1.0000
  C   C485      1.0  0.32748  0.45806  0.34975  1.0000
  C   C486      1.0  0.32457  0.49513  0.33984  1.0000
  C   C487      1.0  0.35589  0.48364  0.32731  1.0000
  C   C488      1.0  0.36380  0.47150  0.31591  1.0000
  C   C489      1.0  0.31560  0.48511  0.31347  1.0000
  C   C490      1.0  0.33539  0.50442  0.35081  1.0000
  C   C491      1.0  0.33491  0.43724  0.34822  1.0000
  C   C492      1.0  0.32684  0.41920  0.36282  1.0000
  C   C493      1.0  0.38911  0.47784  0.31037  1.0000
  C   C494      1.0  0.30534  0.47445  0.30310  1.0000
  C   C495      1.0  0.33199  0.52706  0.35093  1.0000
  H   H841      1.0  0.29927  0.46027  0.33395  1.0000
  H   H842      1.0  0.32124  0.45381  0.32311  1.0000
  H   H843      1.0  0.33649  0.46421  0.35722  1.0000
  H   H844      1.0  0.30949  0.45292  0.35583  1.0000
  H   H845      1.0  0.30631  0.49050  0.34467  1.0000
  H   H846      1.0  0.32815  0.50913  0.32988  1.0000
  H   H847      1.0  0.36058  0.50135  0.32105  1.0000
  H   H848      1.0  0.36635  0.48278  0.33511  1.0000
  H   H849      1.0  0.35730  0.47573  0.30625  1.0000
  H   H850      1.0  0.35808  0.45348  0.32045  1.0000
  H   H851      1.0  0.30497  0.49544  0.31722  1.0000
  H   H852      1.0  0.33229  0.49611  0.30722  1.0000
  H   H853      1.0  0.35350  0.50601  0.34806  1.0000
  H   H854      1.0  0.32750  0.49341  0.36213  1.0000
  H   H855      1.0  0.32849  0.43027  0.34008  1.0000
  H   H856      1.0  0.35332  0.44135  0.34489  1.0000
  H   H857      1.0  0.33280  0.40467  0.36143  1.0000
  H   H858      1.0  0.33331  0.42510  0.37137  1.0000
  H   H859      1.0  0.30839  0.41390  0.36655  1.0000
  H   H860      1.0  0.39573  0.49586  0.30517  1.0000
  H   H861      1.0  0.39647  0.47292  0.31953  1.0000
  H   H862      1.0  0.39412  0.46920  0.30206  1.0000
  H   H863      1.0  0.31505  0.46358  0.29909  1.0000
  H   H864      1.0  0.28795  0.46467  0.30881  1.0000
  H   H865      1.0  0.30515  0.48738  0.29350  1.0000
  H   H866      1.0  0.33845  0.53262  0.35960  1.0000
  H   H867      1.0  0.34093  0.53935  0.34020  1.0000
  H   H868      1.0  0.31404  0.52626  0.35332  1.0000
  H   H869      1.0  0.02844  0.57995  0.37209  1.0000
  H   H870      1.0  0.31924  0.59686  0.42258  1.0000
  H   H871      1.0  0.25891  0.62716  0.40528  1.0000
  H   H872      1.0  0.43348  0.39836  0.25331  1.0000
  H   H873      1.0  0.34242  0.35270  0.41703  1.0000
  H   H874      1.0  0.06091  0.63132  0.28977  1.0000
  H   H875      1.0  0.06256  0.59658  0.28427  1.0000
  H   H876      1.0  0.37896  0.66770  0.40159  1.0000
  C   C496      1.0  0.26410  0.65121  0.36837  1.0000
  H   H877      1.0  0.30461  0.36870  0.24309  1.0000
  H   H878      1.0  0.33680  0.66825  0.37851  1.0000
  H   H879      1.0  0.08186  0.65994  0.39478  1.0000
  C   C497      1.0  0.29329  0.38081  0.26762  1.0000
  C   C498      1.0  0.28777  0.39282  0.27920  1.0000
  H   H880      1.0  0.42408  0.37049  0.36647  1.0000
  H   H881      1.0  0.43478  0.64043  0.47097  1.0000
  H   H882      1.0  0.42015  0.37351  0.42528  1.0000
  H   H883      1.0  0.02080  0.54890  0.43574  1.0000
  H   H884      1.0  0.03505  0.62779  0.40875  1.0000
  H   H885      1.0  0.06011  0.59338  0.30347  1.0000
  C   C499      1.0  0.34005  0.33878  0.32106  1.0000
  C   C500      1.0  0.20292  0.66636  0.43874  1.0000
  H   H886      1.0  0.02732  0.64202  0.23914  1.0000
  H   H887      1.0  0.22068  0.60701  0.43268  1.0000
  S   S121      1.0  0.38331  0.63834  0.48382  1.0000
  H   H888      1.0  0.34552  0.62947  0.40044  1.0000
  C   C501      1.0  0.25038  0.60989  0.48456  1.0000
  C   C502      1.0  0.32129  0.37392  0.39898  1.0000
  H   H889      1.0  0.30179  0.40747  0.27728  1.0000
  H   H890      1.0  0.36923  0.34419  0.32842  1.0000
  N   N27       1.0  0.27967  0.34442  0.26136  1.0000
  H   H891      1.0  0.25274  0.63566  0.36824  1.0000
  S   S122      1.0  0.49455  0.34896  0.44599  1.0000
  S   S123      1.0  0.12506  0.65060  0.42691  1.0000
  H   H892      1.0  0.08755  0.63407  0.27788  1.0000
  N   N28       1.0  0.40009  0.37444  0.30492  1.0000
  C   C503      1.0  0.39615  0.38590  0.31677  1.0000
  C   C504      1.0  0.41758  0.36239  0.30680  1.0000
  C   C505      1.0  0.40921  0.39217  0.29038  1.0000
  C   C506      1.0  0.37899  0.35951  0.30433  1.0000
  C   C507      1.0  0.41454  0.34652  0.32211  1.0000
  C   C508      1.0  0.37914  0.39968  0.31610  1.0000
  C   C509      1.0  0.41942  0.38493  0.27684  1.0000
  C   C510      1.0  0.08831  0.63422  0.30040  1.0000
  C   C511      1.0  0.13798  0.66124  0.32138  1.0000
  C   C512      1.0  0.37757  0.41120  0.32824  1.0000
  H   H893      1.0  0.31530  0.65818  0.32980  1.0000
  H   H894      1.0  0.41217  0.39685  0.31667  1.0000
  H   H895      1.0  0.39006  0.37424  0.32786  1.0000
  H   H896      1.0  0.36208  0.37468  0.40311  1.0000
  H   H897      1.0  0.43406  0.37461  0.30398  1.0000
  H   H898      1.0  0.42236  0.40588  0.29111  1.0000
  H   H899      1.0  0.39598  0.39967  0.28754  1.0000
  H   H900      1.0  0.36818  0.36952  0.30042  1.0000
  H   H901      1.0  0.04040  0.59914  0.42571  1.0000
  H   H902      1.0  0.26270  0.64149  0.45173  1.0000
  H   H903      1.0  0.38376  0.41265  0.30554  1.0000
  H   H904      1.0  0.36242  0.38887  0.31761  1.0000
  H   H905      1.0  0.40796  0.37040  0.27573  1.0000
  H   H906      1.0  0.43517  0.38079  0.27771  1.0000
  H   H907      1.0  0.39485  0.66143  0.41442  1.0000
  H   H908      1.0  0.31889  0.61660  0.43296  1.0000
  H   H909      1.0  0.39053  0.37064  0.38576  1.0000
  H   H910      1.0  0.31016  0.64857  0.35859  1.0000
  C   C513      1.0  0.21005  0.57763  0.41525  1.0000
  H   H911      1.0  0.20936  0.56807  0.43788  1.0000
  H   H912      1.0  0.37490  0.39943  0.33909  1.0000
  H   H913      1.0  0.39295  0.42459  0.32592  1.0000
  H   H914      1.0  0.36327  0.41837  0.32876  1.0000
  H   H915      1.0  0.23274  0.34269  0.26464  1.0000
  C   C514      1.0  0.42485  0.40340  0.26266  1.0000
  C   C515      1.0  0.06733  0.65441  0.35019  1.0000
  H   H916      1.0  0.22061  0.66875  0.43859  1.0000
  C   C516      1.0  0.28752  0.34699  0.36623  1.0000
  H   H917      1.0  0.17568  0.64320  0.43668  1.0000
  H   H918      1.0  0.07081  0.64424  0.41387  1.0000
  Fe  Fe62      1.0  0.32696  0.57500  0.48254  1.0000
  C   C517      1.0  0.35715  0.59105  0.40193  1.0000
  H   H919      1.0  0.34909  0.58570  0.42554  1.0000
  H   H920      1.0  0.30440  0.61768  0.40469  1.0000
  S   S124      1.0  0.35791  0.33932  0.35774  1.0000
  C   C518      1.0  0.07123  0.60166  0.29222  1.0000
  H   H921      1.0  0.27778  0.66253  0.38515  1.0000
  C   C519      1.0  0.05051  0.63497  0.39962  1.0000
  N   N29       1.0  0.04579  0.59653  0.39503  1.0000
  H   H922      1.0  0.41919  0.35237  0.29891  1.0000
  H   H923      1.0  0.31719  0.61289  0.34706  1.0000
  H   H924      1.0  0.43590  0.41865  0.26328  1.0000
  S   S125      1.0  0.22093  0.63212  0.47688  1.0000
  H   H925      1.0  0.27356  0.65416  0.41801  1.0000
  H   H926      1.0  0.05499  0.57937  0.42218  1.0000
  C   C520      1.0  0.26222  0.64664  0.42925  1.0000
  Fe  Fe63      1.0  0.13844  0.65333  0.40300  1.0000
  H   H927      1.0  0.07815  0.62433  0.31167  1.0000
  H   H928      1.0  0.10372  0.62879  0.29877  1.0000
  C   C521      1.0  0.18323  0.56934  0.48714  1.0000
  H   H929      1.0  0.02106  0.61287  0.38968  1.0000
  C   C522      1.0  0.06640  0.65202  0.40388  1.0000
  H   H930      1.0  0.31408  0.34687  0.26145  1.0000
  H   H931      1.0  0.12801  0.66296  0.33170  1.0000
  H   H932      1.0  0.34099  0.59358  0.40061  1.0000
  H   H933      1.0  0.20250  0.64449  0.42512  1.0000
  H   H934      1.0  0.25491  0.62898  0.43061  1.0000
  C   C523      1.0  0.28313  0.66919  0.46483  1.0000
  C   C524      1.0  0.30367  0.62168  0.41525  1.0000
  H   H935      1.0  0.29533  0.34131  0.28775  1.0000
  C   C525      1.0  0.07070  0.66333  0.30378  1.0000
  H   H936      1.0  0.06526  0.56055  0.40654  1.0000
  H   H937      1.0  0.34486  0.64047  0.45583  1.0000
  H   H938      1.0  0.08665  0.59614  0.29102  1.0000
  H   H939      1.0  0.36194  0.66698  0.44398  1.0000
  H   H940      1.0  0.02419  0.56553  0.40959  1.0000
  Fe  Fe64      1.0  0.00333  0.63714  0.30052  1.0000
  H   H941      1.0  0.12825  0.64796  0.45614  1.0000
  H   H942      1.0  0.28674  0.63880  0.43948  1.0000
  C   C526      1.0  0.03862  0.58287  0.42348  1.0000
  C   C527      1.0  0.34500  0.62841  0.41204  1.0000
  N   N30       1.0  0.18798  0.60211  0.44686  1.0000
  C   C528      1.0  0.20298  0.60061  0.43305  1.0000
  C   C529      1.0  0.19499  0.62511  0.44831  1.0000
  C   C530      1.0  0.19184  0.58681  0.45974  1.0000
  C   C531      1.0  0.16366  0.59563  0.44734  1.0000
  C   C532      1.0  0.15770  0.60103  0.43249  1.0000
  H   H943      1.0  0.13369  0.64958  0.30297  1.0000
  S   S126      1.0  0.32564  0.60872  0.48404  1.0000
  H   H944      1.0  0.20690  0.56062  0.41418  1.0000
  H   H945      1.0  0.33076  0.62649  0.32794  1.0000
  C   C533      1.0  0.13257  0.59574  0.43487  1.0000
  H   H946      1.0  0.18266  0.56742  0.43468  1.0000
  H   H947      1.0  0.27257  0.39832  0.27869  1.0000
  H   H948      1.0  0.12642  0.65165  0.27802  1.0000
  H   H949      1.0  0.28558  0.63885  0.38162  1.0000
  H   H950      1.0  0.18475  0.62659  0.45862  1.0000
  H   H951      1.0  0.21245  0.62878  0.44907  1.0000
  H   H952      1.0  0.20973  0.59140  0.45957  1.0000
  H   H953      1.0  0.18807  0.56962  0.45899  1.0000
  H   H954      1.0  0.15650  0.57754  0.45221  1.0000
  H   H955      1.0  0.15412  0.60327  0.45481  1.0000
  H   H956      1.0  0.16394  0.59117  0.42539  1.0000
  H   H957      1.0  0.16488  0.61849  0.42625  1.0000
  H   H958      1.0  0.26612  0.35221  0.28140  1.0000
  C   C534      1.0  0.20033  0.57708  0.43113  1.0000
  H   H959      1.0  0.32392  0.34201  0.39775  1.0000
  Fe  Fe65      1.0  0.21204  0.66081  0.48373  1.0000
  H   H960      1.0  0.09425  0.66069  0.32118  1.0000
  H   H961      1.0  0.20082  0.61141  0.42315  1.0000
  C   C535      1.0  0.32160  0.61452  0.42174  1.0000
  C   C536      1.0  0.38525  0.63495  0.40414  1.0000
  H   H962      1.0  0.05840  0.66500  0.40615  1.0000
  H   H963      1.0  0.12885  0.60029  0.42411  1.0000
  H   H964      1.0  0.12474  0.57789  0.44013  1.0000
  H   H965      1.0  0.12525  0.60528  0.44184  1.0000
  H   H966      1.0  0.17971  0.55256  0.48567  1.0000
  H   H967      1.0  0.38352  0.63485  0.39300  1.0000
  Fe  Fe66      1.0  0.12881  0.65887  0.37299  1.0000
  H   H968      1.0  0.25363  0.66271  0.36974  1.0000
  H   H969      1.0  0.34214  0.55600  0.41246  1.0000
  C   C537      1.0  0.14144  0.66875  0.43392  1.0000
  H   H970      1.0  0.34980  0.61115  0.43914  1.0000
  C   C538      1.0  0.19333  0.64426  0.43622  1.0000
  H   H971      1.0  0.36441  0.63923  0.43160  1.0000
  H   H972      1.0  0.20241  0.58729  0.40780  1.0000
  H   H973      1.0  0.19370  0.66731  0.44952  1.0000
  C   C539      1.0  0.27478  0.64878  0.44074  1.0000
  H   H974      1.0  0.41275  0.34290  0.39094  1.0000
  C   C540      1.0  0.41607  0.35291  0.36789  1.0000
  H   H975      1.0  0.24507  0.34008  0.24688  1.0000
  H   H976      1.0  0.26244  0.64491  0.34190  1.0000
  N   N31       1.0  0.28224  0.66025  0.35409  1.0000
  H   H977      1.0  0.11394  0.63368  0.32006  1.0000
  H   H978      1.0  0.06014  0.65122  0.31429  1.0000
  C   C541      1.0  0.35204  0.35746  0.40530  1.0000
  C   C542      1.0  0.33193  0.66810  0.45889  1.0000
  N   N32       1.0  0.09292  0.65843  0.29943  1.0000
  H   H979      1.0  0.24875  0.65489  0.43052  1.0000
  H   H980      1.0  0.34436  0.36450  0.38386  1.0000
  C   C543      1.0  0.27114  0.66180  0.34180  1.0000
  H   H981      1.0  0.43129  0.66850  0.48467  1.0000
  S   S127      1.0  0.02422  0.66555  0.28121  1.0000
  C   C544      1.0  0.31712  0.66600  0.44840  1.0000
  H   H982      1.0  0.23967  0.64048  0.39822  1.0000
  C   C545      1.0  0.34835  0.66032  0.37344  1.0000
  H   H983      1.0  0.29408  0.63290  0.33406  1.0000
  C   C546      1.0  0.13957  0.66329  0.44900  1.0000
  C   C547      1.0  0.33547  0.35842  0.39571  1.0000
  H   H984      1.0  0.42739  0.66549  0.39383  1.0000
  H   H985      1.0  0.01458  0.58855  0.41184  1.0000
  C   C548      1.0  0.33065  0.34171  0.36113  1.0000
  C   C549      1.0  0.12748  0.66923  0.27707  1.0000
  C   C550      1.0  0.12291  0.65071  0.31314  1.0000
  H   H986      1.0  0.43766  0.66667  0.45148  1.0000
  H   H987      1.0  0.04630  0.64384  0.38985  1.0000
  H   H988      1.0  0.36122  0.65935  0.46310  1.0000
  H   H989      1.0  0.06397  0.66975  0.35127  1.0000
  C   C551      1.0  0.10582  0.66381  0.31014  1.0000
  S   S128      1.0  0.10259  0.66677  0.36136  1.0000
  H   H990      1.0  0.33594  0.35400  0.32276  1.0000
  H   H991      1.0  0.14899  0.65077  0.32423  1.0000
  H   H992      1.0  0.20878  0.33800  0.33468  1.0000
  H   H993      1.0  0.32214  0.65910  0.47036  1.0000
  H   H994      1.0  0.23880  0.66676  0.35148  1.0000
  C   C552      1.0  0.38536  0.66185  0.36000  1.0000
  H   H995      1.0  0.06123  0.66136  0.29560  1.0000
  H   H996      1.0  0.00584  0.56893  0.43916  1.0000
  S   S129      1.0  0.17770  0.66507  0.48720  1.0000
  C   C553      1.0  0.40848  0.35794  0.42566  1.0000
  C   C554      1.0  0.43551  0.33900  0.32272  1.0000
  H   H997      1.0  0.23815  0.66116  0.32718  1.0000
  H   H998      1.0  0.47587  0.35692  0.23967  1.0000
  H   H999      1.0  0.26605  0.67011  0.46447  1.0000
  H   H1000     1.0  0.34963  0.43728  0.55714  1.0000
  H   H1001     1.0  0.03143  0.60261  0.62654  1.0000
  Fe  Fe67      1.0  0.22502  0.40081  0.61304  1.0000
  S   S130      1.0  0.25700  0.39689  0.61768  1.0000
  S   S131      1.0  0.19130  0.38055  0.62778  1.0000
  Fe  Fe68      1.0  0.24842  0.43780  0.58483  1.0000
  S   S132      1.0  0.28215  0.43683  0.58724  1.0000
  S   S133      1.0  0.24600  0.46125  0.56462  1.0000
  Fe  Fe69      1.0  0.26850  0.40029  0.59362  1.0000
  S   S134      1.0  0.28828  0.37852  0.58542  1.0000
  Fe  Fe70      1.0  0.26753  0.43372  0.61089  1.0000
  S   S135      1.0  0.28637  0.45176  0.62356  1.0000
  S   S136      1.0  0.23564  0.40118  0.58943  1.0000
  S   S137      1.0  0.23458  0.43773  0.60807  1.0000
  S   S138      1.0  0.25993  0.39011  0.70834  1.0000
  S   S139      1.0  0.26829  0.44161  0.71023  1.0000
  Fe  Fe71      1.0  0.24214  0.41653  0.70618  1.0000
  S   S140      1.0  0.22489  0.42239  0.68849  1.0000
  Fe  Fe72      1.0  0.28438  0.41391  0.71450  1.0000
  C   C555      1.0  0.37704  0.38568  0.56325  1.0000
  C   C556      1.0  0.04855  0.64404  0.53535  1.0000
  S   S141      1.0  0.36295  0.38724  0.61825  1.0000
  H   H1002     1.0  0.05598  0.66710  0.54813  1.0000
  H   H1003     1.0  0.16904  0.34270  0.62077  1.0000
  H   H1004     1.0  0.37476  0.37539  0.70183  1.0000
  C   C557      1.0  0.47647  0.40655  0.55187  1.0000
  C   C558      1.0  0.29519  0.56503  0.55246  1.0000
  H   H1005     1.0  0.35993  0.40284  0.53551  1.0000
  H   H1006     1.0  0.11064  0.66162  0.48999  1.0000
  H   H1007     1.0  0.31288  0.34515  0.71973  1.0000
  N   N33       1.0  0.23298  0.53460  0.55794  1.0000
  C   C559      1.0  0.26081  0.65380  0.53151  1.0000
  S   S142      1.0  0.33633  0.53416  0.53101  1.0000
  H   H1008     1.0  0.27575  0.53166  0.56181  1.0000
  N   N34       1.0  0.00683  0.57121  0.63549  1.0000
  H   H1009     1.0  0.40347  0.42269  0.66054  1.0000
  H   H1010     1.0  0.48845  0.41162  0.55805  1.0000
  H   H1011     1.0  0.36480  0.42971  0.62490  1.0000
  H   H1012     1.0  0.27883  0.38903  0.64314  1.0000
  H   H1013     1.0  0.24748  0.51574  0.54477  1.0000
  H   H1014     1.0  0.21735  0.36477  0.70237  1.0000
  C   C560      1.0  0.20784  0.49720  0.57564  1.0000
  H   H1015     1.0  0.48476  0.39956  0.54347  1.0000
  C   C561      1.0  0.27586  0.54608  0.55315  1.0000
  C   C562      1.0  0.34441  0.46017  0.56950  1.0000
  H   H1016     1.0  0.38593  0.39470  0.66748  1.0000
  S   S143      1.0  0.05666  0.61532  0.70150  1.0000
  Fe  Fe73      1.0  0.04262  0.59268  0.68934  1.0000
  S   S144      1.0  0.06382  0.58484  0.67070  1.0000
  H   H1017     1.0  0.29597  0.58011  0.54404  1.0000
  S   S145      1.0  0.33380  0.59412  0.51673  1.0000
  H   H1018     1.0  0.33584  0.63975  0.52556  1.0000
  H   H1019     1.0  0.11265  0.63626  0.53830  1.0000
  C   C563      1.0  0.07061  0.60487  0.65382  1.0000
  C   C564      1.0  0.09118  0.60878  0.64378  1.0000
  H   H1020     1.0  0.22981  0.55266  0.52880  1.0000
  C   C565      1.0  0.27600  0.66717  0.49184  1.0000
  H   H1021     1.0  0.10773  0.34655  0.72668  1.0000
  H   H1022     1.0  0.10287  0.59981  0.64660  1.0000
  C   C566      1.0  0.10204  0.62092  0.56148  1.0000
  H   H1023     1.0  0.04976  0.60328  0.59323  1.0000
  S   S146      1.0  0.32124  0.41841  0.70740  1.0000
  C   C567      1.0  0.25354  0.55228  0.55643  1.0000
  H   H1024     1.0  0.37976  0.47032  0.61272  1.0000
  H   H1025     1.0  0.37840  0.40359  0.56069  1.0000
  H   H1026     1.0  0.25507  0.56743  0.54774  1.0000
  N   N35       1.0  0.34141  0.42843  0.65390  1.0000
  H   H1027     1.0  0.33065  0.47910  0.68147  1.0000
  H   H1028     1.0  0.38686  0.42841  0.63938  1.0000
  H   H1029     1.0  0.30648  0.39182  0.63243  1.0000
  C   C568      1.0  0.47610  0.35851  0.51007  1.0000
  H   H1030     1.0  0.15862  0.34170  0.72970  1.0000
  C   C569      1.0  0.23314  0.61895  0.48942  1.0000
  H   H1031     1.0  0.46395  0.38254  0.61689  1.0000
  C   C570      1.0  0.07739  0.63421  0.54618  1.0000
  C   C571      1.0  0.48336  0.35493  0.49634  1.0000
  C   C572      1.0  0.01737  0.56200  0.64717  1.0000
  H   H1032     1.0  0.03110  0.57519  0.64786  1.0000
  H   H1033     1.0  0.03121  0.58214  0.51288  1.0000
  S   S147      1.0  0.01713  0.61252  0.57682  1.0000
  C   C573      1.0  0.38906  0.64600  0.50956  1.0000
  C   C574      1.0  0.20627  0.55142  0.57323  1.0000
  H   H1034     1.0  0.30998  0.45306  0.68728  1.0000
  H   H1035     1.0  0.38658  0.62846  0.51370  1.0000
  H   H1036     1.0  0.25225  0.55739  0.56668  1.0000
  C   C575      1.0  0.34823  0.36467  0.69253  1.0000
  C   C576      1.0  0.35941  0.37785  0.69971  1.0000
  C   C577      1.0  0.35102  0.39438  0.70402  1.0000
  C   C578      1.0  0.33079  0.39720  0.70187  1.0000
  C   C579      1.0  0.31923  0.38373  0.69494  1.0000
  C   C580      1.0  0.32825  0.36781  0.68993  1.0000
  H   H1037     1.0  0.35387  0.65694  0.53226  1.0000
  H   H1038     1.0  0.36004  0.40475  0.70933  1.0000
  H   H1039     1.0  0.30364  0.38588  0.69317  1.0000
  H   H1040     1.0  0.16744  0.57151  0.72851  1.0000
  H   H1041     1.0  0.29897  0.64197  0.52662  1.0000
  H   H1042     1.0  0.24826  0.54431  0.50656  1.0000
  H   H1043     1.0  0.33084  0.48018  0.49438  1.0000
  N   N36       1.0  0.06795  0.63408  0.53322  1.0000
  C   C581      1.0  0.27090  0.48186  0.55551  1.0000
  C   C582      1.0  0.27548  0.49178  0.54047  1.0000
  C   C583      1.0  0.29537  0.50812  0.53296  1.0000
  C   C584      1.0  0.31094  0.51439  0.54041  1.0000
  C   C585      1.0  0.30638  0.50445  0.55546  1.0000
  C   C586      1.0  0.28631  0.48835  0.56303  1.0000
  H   H1044     1.0  0.26371  0.48666  0.53458  1.0000
  H   H1045     1.0  0.29902  0.51517  0.52128  1.0000
  H   H1046     1.0  0.31830  0.50934  0.56131  1.0000
  H   H1047     1.0  0.28265  0.48125  0.57472  1.0000
  C   C587      1.0  0.31031  0.38074  0.59348  1.0000
  C   C588      1.0  0.31976  0.40087  0.59555  1.0000
  C   C589      1.0  0.33682  0.40288  0.60239  1.0000
  C   C590      1.0  0.34339  0.38440  0.60824  1.0000
  C   C591      1.0  0.33401  0.36411  0.60622  1.0000
  C   C592      1.0  0.31781  0.36241  0.59850  1.0000
  H   H1048     1.0  0.31386  0.41496  0.59202  1.0000
  H   H1049     1.0  0.34426  0.41863  0.60363  1.0000
  H   H1050     1.0  0.17300  0.56863  0.49810  1.0000
  C   C593      1.0  0.18792  0.35230  0.63523  1.0000
  C   C594      1.0  0.26954  0.44395  0.64166  1.0000
  C   C595      1.0  0.27748  0.45125  0.65256  1.0000
  C   C596      1.0  0.26417  0.44413  0.66716  1.0000
  C   C597      1.0  0.24259  0.43046  0.67065  1.0000
  C   C598      1.0  0.23460  0.42358  0.65967  1.0000
  C   C599      1.0  0.24813  0.43001  0.64528  1.0000
  H   H1051     1.0  0.29386  0.46241  0.64970  1.0000
  H   H1052     1.0  0.27027  0.44971  0.67560  1.0000
  H   H1053     1.0  0.21800  0.41309  0.66228  1.0000
  H   H1054     1.0  0.24182  0.42427  0.63698  1.0000
  C   C600      1.0  0.26293  0.60307  0.49399  1.0000
  H   H1055     1.0  0.48575  0.37065  0.52740  1.0000
  H   H1056     1.0  0.22010  0.35751  0.68533  1.0000
  H   H1057     1.0  0.08599  0.61258  0.72225  1.0000
  H   H1058     1.0  0.07348  0.59449  0.59681  1.0000
  H   H1059     1.0  0.32872  0.40707  0.55434  1.0000
  H   H1060     1.0  0.02812  0.66678  0.63032  1.0000
  H   H1061     1.0  0.25234  0.64202  0.54250  1.0000
  H   H1062     1.0  0.25547  0.52187  0.51744  1.0000
  H   H1063     1.0  0.24325  0.50792  0.56999  1.0000
  C   C601      1.0  0.33202  0.43052  0.53288  1.0000
  H   H1064     1.0  0.31105  0.56053  0.54950  1.0000
  C   C602      1.0  0.22954  0.51602  0.57144  1.0000
  H   H1065     1.0  0.01137  0.61164  0.64463  1.0000
  H   H1066     1.0  0.27937  0.54227  0.54248  1.0000
  H   H1067     1.0  0.33764  0.43156  0.62382  1.0000
  C   C603      1.0  0.37745  0.41528  0.64963  1.0000
  H   H1068     1.0  0.40658  0.40320  0.65011  1.0000
  H   H1069     1.0  0.00515  0.55633  0.65816  1.0000
  C   C604      1.0  0.10009  0.63588  0.51084  1.0000
  Fe  Fe74      1.0  0.02618  0.62720  0.70139  1.0000
  H   H1070     1.0  0.27304  0.60383  0.73231  1.0000
  C   C605      1.0  0.47377  0.36214  0.60339  1.0000
  H   H1071     1.0  0.45798  0.33965  0.55346  1.0000
  C   C606      1.0  0.00568  0.50398  0.70411  1.0000
  C   C607      1.0  0.04201  0.58425  0.52028  1.0000
  Fe  Fe75      1.0  0.03102  0.64218  0.58360  1.0000
  H   H1072     1.0  0.22001  0.56389  0.57444  1.0000
  C   C608      1.0  0.33579  0.49160  0.50081  1.0000
  S   S148      1.0  0.35884  0.34335  0.68817  1.0000
  H   H1073     1.0  0.36910  0.40057  0.64689  1.0000
  H   H1074     1.0  0.32278  0.50030  0.50317  1.0000
  N   N37       1.0  0.15866  0.36456  0.67970  1.0000
  H   H1075     1.0  0.45779  0.63620  0.49573  1.0000
  H   H1076     1.0  0.04602  0.52254  0.65593  1.0000
  C   C609      1.0  0.17190  0.38561  0.66791  1.0000
  C   C610      1.0  0.14383  0.37076  0.69148  1.0000
  H   H1077     1.0  0.07242  0.60242  0.53123  1.0000
  C   C611      1.0  0.19003  0.36705  0.69281  1.0000
  C   C612      1.0  0.15904  0.39696  0.65804  1.0000
  H   H1078     1.0  0.05232  0.61958  0.51172  1.0000
  H   H1079     1.0  0.47202  0.42120  0.54620  1.0000
  H   H1080     1.0  0.13130  0.37028  0.72107  1.0000
  C   C613      1.0  0.17372  0.41933  0.64798  1.0000
  C   C614      1.0  0.24961  0.63573  0.73113  1.0000
  C   C615      1.0  0.11810  0.65228  0.49776  1.0000
  C   C616      1.0  0.28000  0.42355  0.54001  1.0000
  H   H1081     1.0  0.01614  0.59568  0.61441  1.0000
  H   H1082     1.0  0.18608  0.38264  0.66041  1.0000
  H   H1083     1.0  0.17935  0.39820  0.67287  1.0000
  H   H1084     1.0  0.15391  0.38328  0.69540  1.0000
  H   H1085     1.0  0.13216  0.37892  0.68698  1.0000
  H   H1086     1.0  0.31454  0.66649  0.50477  1.0000
  C   C617      1.0  0.38694  0.65482  0.49559  1.0000
  H   H1087     1.0  0.19854  0.38387  0.68574  1.0000
  H   H1088     1.0  0.45851  0.35391  0.51549  1.0000
  H   H1089     1.0  0.14406  0.39979  0.66462  1.0000
  H   H1090     1.0  0.15376  0.38683  0.65093  1.0000
  H   H1091     1.0  0.32872  0.42811  0.52247  1.0000
  H   H1092     1.0  0.06474  0.61486  0.60476  1.0000
  H   H1093     1.0  0.37424  0.37987  0.55373  1.0000
  H   H1094     1.0  0.05838  0.58205  0.51520  1.0000
  H   H1095     1.0  0.05417  0.57771  0.62259  1.0000
  H   H1096     1.0  0.11315  0.62812  0.62266  1.0000
  H   H1097     1.0  0.36175  0.62737  0.54996  1.0000
  C   C618      1.0  0.17502  0.35378  0.68547  1.0000
  H   H1098     1.0  0.17829  0.43070  0.65454  1.0000
  H   H1099     1.0  0.18917  0.41749  0.64117  1.0000
  H   H1100     1.0  0.16464  0.42671  0.64054  1.0000
  N   N38       1.0  0.42198  0.38346  0.58487  1.0000
  C   C619      1.0  0.42169  0.35958  0.58701  1.0000
  C   C620      1.0  0.44394  0.39813  0.57446  1.0000
  C   C621      1.0  0.42017  0.38808  0.59956  1.0000
  C   C622      1.0  0.40256  0.38866  0.57971  1.0000
  C   C623      1.0  0.39828  0.38103  0.56637  1.0000
  H   H1101     1.0  0.28271  0.65287  0.49502  1.0000
  C   C624      1.0  0.42147  0.41226  0.59967  1.0000
  C   C625      1.0  0.45574  0.38922  0.56224  1.0000
  H   H1102     1.0  0.10793  0.37106  0.71339  1.0000
  S   S149      1.0  0.27565  0.60034  0.51933  1.0000
  C   C626      1.0  0.42209  0.41521  0.61475  1.0000
  H   H1103     1.0  0.09221  0.65208  0.67733  1.0000
  H   H1104     1.0  0.38535  0.34624  0.59675  1.0000
  H   H1105     1.0  0.44208  0.41449  0.56913  1.0000
  H   H1106     1.0  0.45647  0.40163  0.58065  1.0000
  H   H1107     1.0  0.43344  0.38336  0.60409  1.0000
  H   H1108     1.0  0.40432  0.37784  0.60769  1.0000
  H   H1109     1.0  0.38694  0.38166  0.58884  1.0000
  H   H1110     1.0  0.40454  0.40671  0.57677  1.0000
  S   S150      1.0  0.35728  0.57540  0.49065  1.0000
  H   H1111     1.0  0.41216  0.39007  0.55645  1.0000
  C   C627      1.0  0.10837  0.62021  0.73532  1.0000
  H   H1112     1.0  0.14804  0.58799  0.72800  1.0000
  H   H1113     1.0  0.40667  0.41690  0.59718  1.0000
  H   H1114     1.0  0.43656  0.42391  0.59154  1.0000
  C   C628      1.0  0.28341  0.66752  0.53133  1.0000
  H   H1115     1.0  0.44468  0.38396  0.55563  1.0000
  H   H1116     1.0  0.20539  0.35657  0.65142  1.0000
  H   H1117     1.0  0.03563  0.54300  0.63480  1.0000
  H   H1118     1.0  0.31941  0.35750  0.68451  1.0000
  H   H1119     1.0  0.07697  0.65549  0.51097  1.0000
  C   C629      1.0  0.05878  0.59966  0.60164  1.0000
  H   H1120     1.0  0.03492  0.63344  0.54517  1.0000
  H   H1121     1.0  0.40720  0.40394  0.62332  1.0000
  H   H1122     1.0  0.43722  0.41176  0.61750  1.0000
  H   H1123     1.0  0.42225  0.43238  0.61477  1.0000
  H   H1124     1.0  0.22660  0.52057  0.51849  1.0000
  C   C630      1.0  0.49147  0.36793  0.51683  1.0000
  H   H1125     1.0  0.01189  0.52669  0.64952  1.0000
  H   H1126     1.0  0.18592  0.34987  0.67642  1.0000
  H   H1127     1.0  0.08336  0.65130  0.54676  1.0000
  H   H1128     1.0  0.29116  0.64122  0.54527  1.0000
  H   H1129     1.0  0.39758  0.65333  0.52859  1.0000
  H   H1130     1.0  0.11309  0.65063  0.66219  1.0000
  H   H1131     1.0  0.03983  0.66625  0.66409  1.0000
  H   H1132     1.0  0.33838  0.37755  0.54470  1.0000
  H   H1133     1.0  0.03415  0.57138  0.53093  1.0000
  C   C631      1.0  0.08834  0.60937  0.73313  1.0000
  H   H1134     1.0  0.27433  0.33934  0.63764  1.0000
  H   H1135     1.0  0.23553  0.34549  0.59002  1.0000
  S   S151      1.0  0.33095  0.34182  0.65549  1.0000
  N   N39       1.0  0.31953  0.44585  0.53828  1.0000
  C   C632      1.0  0.29627  0.43402  0.54789  1.0000
  C   C633      1.0  0.33189  0.45873  0.54662  1.0000
  C   C634      1.0  0.31750  0.46221  0.52517  1.0000
  C   C635      1.0  0.32864  0.63000  0.54901  1.0000
  Fe  Fe76      1.0  0.06280  0.66247  0.59917  1.0000
  H   H1136     1.0  0.34840  0.60943  0.54072  1.0000
  C   C636      1.0  0.33933  0.47915  0.51508  1.0000
  C   C637      1.0  0.33639  0.44531  0.56042  1.0000
  H   H1137     1.0  0.04821  0.60072  0.54459  1.0000
  H   H1138     1.0  0.20826  0.48808  0.56722  1.0000
  H   H1139     1.0  0.40190  0.34251  0.60950  1.0000
  H   H1140     1.0  0.28861  0.44557  0.55281  1.0000
  H   H1141     1.0  0.29630  0.42100  0.55747  1.0000
  H   H1142     1.0  0.34864  0.46877  0.53963  1.0000
  H   H1143     1.0  0.32287  0.47061  0.54983  1.0000
  H   H1144     1.0  0.30596  0.47175  0.52883  1.0000
  H   H1145     1.0  0.30992  0.45349  0.51804  1.0000
  C   C638      1.0  0.19552  0.34482  0.64740  1.0000
  H   H1146     1.0  0.35024  0.43816  0.52997  1.0000
  H   H1147     1.0  0.09617  0.66190  0.52101  1.0000
  C   C639      1.0  0.32691  0.40696  0.54331  1.0000
  H   H1148     1.0  0.27492  0.43660  0.53301  1.0000
  H   H1149     1.0  0.10425  0.63632  0.56485  1.0000
  H   H1150     1.0  0.35259  0.47094  0.51230  1.0000
  H   H1151     1.0  0.34510  0.49171  0.52057  1.0000
  H   H1152     1.0  0.32137  0.43257  0.56757  1.0000
  H   H1153     1.0  0.34805  0.45024  0.57914  1.0000
  C   C640      1.0  0.08508  0.64778  0.51904  1.0000
  C   C641      1.0  0.23927  0.61194  0.51355  1.0000
  H   H1154     1.0  0.12119  0.63179  0.72607  1.0000
  C   C642      1.0  0.17947  0.60386  0.73027  1.0000
  H   H1155     1.0  0.28002  0.35803  0.73026  1.0000
  H   H1156     1.0  0.17222  0.54943  0.57215  1.0000
  H   H1157     1.0  0.13831  0.66829  0.55560  1.0000
  H   H1158     1.0  0.13903  0.34132  0.70958  1.0000
  C   C643      1.0  0.02615  0.54164  0.64603  1.0000
  H   H1159     1.0  0.08132  0.65815  0.65405  1.0000
  H   H1160     1.0  0.04136  0.64490  0.52586  1.0000
  H   H1161     1.0  0.32665  0.63681  0.55855  1.0000
  C   C644      1.0  0.24308  0.53159  0.51732  1.0000
  H   H1162     1.0  0.39607  0.36309  0.56830  1.0000
  H   H1163     1.0  0.29334  0.56850  0.56327  1.0000
  S   S152      1.0  0.30300  0.55778  0.50472  1.0000
  H   H1164     1.0  0.26291  0.64458  0.52323  1.0000
  H   H1165     1.0  0.30965  0.39740  0.54478  1.0000
  C   C645      1.0  0.32704  0.43551  0.66545  1.0000
  C   C646      1.0  0.34905  0.44689  0.63976  1.0000
  C   C647      1.0  0.30490  0.40779  0.64996  1.0000
  C   C648      1.0  0.33875  0.45575  0.66970  1.0000
  C   C649      1.0  0.32193  0.46575  0.67762  1.0000
  H   H1166     1.0  0.31954  0.42180  0.67570  1.0000
  H   H1167     1.0  0.31270  0.43951  0.66184  1.0000
  H   H1168     1.0  0.33649  0.45645  0.63908  1.0000
  H   H1169     1.0  0.36441  0.45895  0.63955  1.0000
  H   H1170     1.0  0.29271  0.40585  0.66052  1.0000
  H   H1171     1.0  0.30582  0.42360  0.64229  1.0000
  H   H1172     1.0  0.34994  0.46887  0.65996  1.0000
  H   H1173     1.0  0.34875  0.45064  0.67723  1.0000
  H   H1174     1.0  0.35211  0.47145  0.61148  1.0000
  H   H1175     1.0  0.31266  0.47273  0.67016  1.0000
  H   H1176     1.0  0.43101  0.35341  0.63363  1.0000
  H   H1177     1.0  0.34001  0.39243  0.52631  1.0000
  H   H1178     1.0  0.24974  0.41701  0.55733  1.0000
  H   H1179     1.0  0.37097  0.43910  0.66078  1.0000
  H   H1180     1.0  0.35467  0.41192  0.67047  1.0000
  H   H1181     1.0  0.33139  0.46802  0.57357  1.0000
  C   C650      1.0  0.32788  0.40725  0.65255  1.0000
  C   C651      1.0  0.36084  0.42394  0.65937  1.0000
  C   C652      1.0  0.29601  0.38923  0.64369  1.0000
  H   H1182     1.0  0.08802  0.60804  0.56982  1.0000
  H   H1183     1.0  0.23488  0.61271  0.52476  1.0000
  C   C653      1.0  0.20820  0.35626  0.69583  1.0000
  H   H1184     1.0  0.01267  0.65016  0.64873  1.0000
  H   H1185     1.0  0.12971  0.35450  0.67212  1.0000
  C   C654      1.0  0.35348  0.44044  0.62522  1.0000
  C   C655      1.0  0.36364  0.46080  0.61202  1.0000
  H   H1186     1.0  0.32477  0.39364  0.66266  1.0000
  C   C656      1.0  0.14529  0.34977  0.67279  1.0000
  H   H1187     1.0  0.21754  0.55965  0.54974  1.0000
  H   H1188     1.0  0.19147  0.57645  0.56347  1.0000
  H   H1189     1.0  0.18183  0.56631  0.58318  1.0000
  C   C657      1.0  0.09696  0.62473  0.63024  1.0000
  C   C658      1.0  0.23525  0.52559  0.54485  1.0000
  C   C659      1.0  0.25787  0.60493  0.50831  1.0000
  H   H1190     1.0  0.33714  0.40180  0.64365  1.0000
  H   H1191     1.0  0.36661  0.45571  0.60176  1.0000
  H   H1192     1.0  0.29587  0.37311  0.65073  1.0000
  C   C660      1.0  0.46041  0.36628  0.61532  1.0000
  H   H1193     1.0  0.15470  0.35209  0.66125  1.0000
  C   C661      1.0  0.34566  0.61671  0.55004  1.0000
  C   C662      1.0  0.05893  0.61051  0.53340  1.0000
  H   H1194     1.0  0.19886  0.53322  0.55780  1.0000
  C   C663      1.0  0.21358  0.54455  0.55903  1.0000
  H   H1195     1.0  0.25851  0.55408  0.52754  1.0000
  H   H1196     1.0  0.20348  0.48863  0.59930  1.0000
  H   H1197     1.0  0.19010  0.46685  0.59277  1.0000
  H   H1198     1.0  0.32047  0.57041  0.73296  1.0000
  H   H1199     1.0  0.35978  0.47320  0.56286  1.0000
  S   S153      1.0  0.38589  0.35395  0.64668  1.0000
  H   H1200     1.0  0.25875  0.63586  0.72002  1.0000
  C   C664      1.0  0.39437  0.40863  0.65745  1.0000
  H   H1201     1.0  0.23372  0.63978  0.73054  1.0000
  H   H1202     1.0  0.21935  0.51383  0.54564  1.0000
  H   H1203     1.0  0.43637  0.35661  0.59072  1.0000
  H   H1204     1.0  0.23043  0.52240  0.58108  1.0000
  H   H1205     1.0  0.46136  0.37490  0.56721  1.0000
  H   H1206     1.0  0.47998  0.33740  0.59269  1.0000
  H   H1207     1.0  0.06404  0.62542  0.55657  1.0000
  Fe  Fe77      1.0  0.03496  0.58924  0.72176  1.0000
  S   S154      1.0  0.02280  0.56533  0.70954  1.0000
  H   H1208     1.0  0.28779  0.41445  0.53292  1.0000
  H   H1209     1.0  0.36244  0.37681  0.57285  1.0000
  C   C665      1.0  0.18675  0.56150  0.57293  1.0000
  H   H1210     1.0  0.20089  0.53709  0.58312  1.0000
  C   C666      1.0  0.24192  0.54277  0.52963  1.0000
  H   H1211     1.0  0.19289  0.50342  0.57674  1.0000
  H   H1212     1.0  0.20854  0.34323  0.60142  1.0000
  C   C667      1.0  0.20518  0.48069  0.59026  1.0000
  C   C668      1.0  0.04478  0.60716  0.52255  1.0000
  H   H1213     1.0  0.21975  0.47382  0.58973  1.0000
  H   H1214     1.0  0.31054  0.34680  0.59692  1.0000
  Fe  Fe78      1.0  0.35939  0.35599  0.63513  1.0000
  C   C669      1.0  0.33612  0.64833  0.53426  1.0000
  C   C670      1.0  0.09754  0.62454  0.54643  1.0000
  C   C671      1.0  0.22703  0.61919  0.50405  1.0000
  C   C672      1.0  0.25883  0.40782  0.55096  1.0000
  H   H1215     1.0  0.23781  0.35740  0.61222  1.0000
  C   C673      1.0  0.40099  0.34255  0.59823  1.0000
  C   C674      1.0  0.39552  0.66008  0.51789  1.0000
  H   H1216     1.0  0.03804  0.56671  0.61131  1.0000
  H   H1217     1.0  0.26275  0.39455  0.55859  1.0000
  H   H1218     1.0  0.09505  0.60845  0.54402  1.0000
  C   C675      1.0  0.29912  0.65274  0.53410  1.0000
  S   S155      1.0  0.02615  0.64593  0.60630  1.0000
  H   H1219     1.0  0.03272  0.53701  0.66748  1.0000
  C   C676      1.0  0.34232  0.39424  0.53702  1.0000
  S   S156      1.0  0.02716  0.66294  0.69579  1.0000
  C   C677      1.0  0.08179  0.63609  0.62642  1.0000
  C   C678      1.0  0.02399  0.58853  0.62280  1.0000
  C   C679      1.0  0.05555  0.61651  0.65010  1.0000
  H   H1220     1.0  0.25821  0.66105  0.49262  1.0000
  H   H1221     1.0  0.33954  0.60314  0.56040  1.0000
  H   H1222     1.0  0.25002  0.34888  0.63677  1.0000
  H   H1223     1.0  0.11745  0.61548  0.56107  1.0000
  H   H1224     1.0  0.03971  0.61356  0.65782  1.0000
  Fe  Fe79      1.0  0.30493  0.59167  0.50713  1.0000
  H   H1225     1.0  0.21323  0.62550  0.50794  1.0000
  C   C680      1.0  0.06091  0.63168  0.63623  1.0000
  H   H1226     1.0  0.25505  0.34822  0.69210  1.0000
  S   S157      1.0  0.08977  0.65640  0.60962  1.0000
  H   H1227     1.0  0.10841  0.62682  0.51801  1.0000
  H   H1228     1.0  0.31258  0.61843  0.54996  1.0000
  Fe  Fe80      1.0  0.24132  0.38015  0.73210  1.0000
  H   H1229     1.0  0.09021  0.62394  0.50652  1.0000
  C   C681      1.0  0.04377  0.58132  0.61505  1.0000
  Fe  Fe81      1.0  0.33325  0.56107  0.51300  1.0000
  H   H1230     1.0  0.04916  0.64034  0.63322  1.0000
  H   H1231     1.0  0.24785  0.40014  0.54502  1.0000
  C   C682      1.0  0.04127  0.53805  0.65604  1.0000
  H   H1232     1.0  0.42349  0.35522  0.57651  1.0000
  C   C683      1.0  0.01707  0.66669  0.64081  1.0000
  H   H1233     1.0  0.05667  0.55188  0.65217  1.0000
  H   H1234     1.0  0.02789  0.60880  0.52702  1.0000
  H   H1235     1.0  0.18667  0.61078  0.71823  1.0000
  Fe  Fe82      1.0  0.35455  0.60813  0.49348  1.0000
  H   H1236     1.0  0.18009  0.36804  0.70338  1.0000
  H   H1237     1.0  0.17331  0.61658  0.73462  1.0000
  C   C684      1.0  0.12922  0.35179  0.70500  1.0000
  C   C685      1.0  0.11840  0.36058  0.71724  1.0000
  S   S158      1.0  0.00504  0.60256  0.72233  1.0000
  H   H1238     1.0  0.27688  0.59700  0.49004  1.0000
  S   S159      1.0  0.49428  0.38415  0.59006  1.0000
  S   S160      1.0  0.06773  0.65518  0.57753  1.0000
  H   H1239     1.0  0.12929  0.66401  0.50152  1.0000
  H   H1240     1.0  0.01845  0.50816  0.70992  1.0000
  N   N40       1.0  0.32257  0.66474  0.53290  1.0000
  H   H1241     1.0  0.33918  0.34978  0.61058  1.0000
  C   C686      1.0  0.44164  0.34985  0.62474  1.0000
  H   H1242     1.0  0.34154  0.66197  0.50345  1.0000
  H   H1243     1.0  0.25955  0.64862  0.73478  1.0000
  H   H1244     1.0  0.44484  0.61433  0.48910  1.0000
  H   H1245     1.0  0.26776  0.34454  0.61343  1.0000
  H   H1246     1.0  0.25828  0.35030  0.65992  1.0000
  C   C687      1.0  0.46951  0.34090  0.60169  1.0000
  S   S161      1.0  0.22124  0.40443  0.72950  1.0000
  C   C688      1.0  0.05368  0.66763  0.53710  1.0000
  S   S162      1.0  0.01461  0.60751  0.68694  1.0000
  C   C689      1.0  0.28733  0.34749  0.73743  1.0000
  H   H1247     1.0  0.30836  0.60462  0.73368  1.0000
  H   H1248     1.0  0.20095  0.33867  0.70206  1.0000
  H   H1249     1.0  0.12817  0.64332  0.49181  1.0000
  H   H1250     1.0  0.42812  0.62934  0.49790  1.0000
  H   H1251     1.0  0.25022  0.66474  0.52869  1.0000
  C   C690      1.0  0.23318  0.33953  0.61333  1.0000
  S   S163      1.0  0.46364  0.34254  0.48836  1.0000
  H   H1252     1.0  0.28231  0.34661  0.70902  1.0000
  H   H1253     1.0  0.01247  0.51376  0.69243  1.0000
  C   C691      1.0  0.18923  0.34300  0.73580  1.0000
  H   H1254     1.0  0.31130  0.66490  0.55558  1.0000
  H   H1255     1.0  0.35147  0.50411  0.49406  1.0000
  H   H1256     1.0  0.31676  0.37453  0.73326  1.0000
  Fe  Fe83      1.0  0.24886  0.42753  0.73389  1.0000
  H   H1257     1.0  0.05474  0.66763  0.64638  1.0000
  C   C692      1.0  0.10444  0.66184  0.66672  1.0000
  H   H1258     1.0  0.11565  0.34164  0.70198  1.0000
  C   C693      1.0  0.44456  0.63083  0.49052  1.0000
  H   H1259     1.0  0.00588  0.54408  0.62564  1.0000
  H   H1260     1.0  0.16661  0.33769  0.69374  1.0000
  H   H1261     1.0  0.34103  0.59132  0.73602  1.0000
  C   C694      1.0  0.16047  0.58319  0.73355  1.0000
  C   C695      1.0  0.17526  0.33703  0.63002  1.0000
  S   S164      1.0  0.16409  0.66950  0.52781  1.0000
  H   H1262     1.0  0.01885  0.66743  0.54390  1.0000
  H   H1263     1.0  0.00268  0.58846  0.66068  1.0000
  H   H1264     1.0  0.11944  0.55787  0.73643  1.0000
  H   H1265     1.0  0.17654  0.51833  0.73512  1.0000
  H   H1266     1.0  0.19054  0.35897  0.73771  1.0000
  H   H1267     1.0  0.07943  0.54481  0.73613  1.0000
  H   H1268     1.0  0.19277  0.59993  0.73522  1.0000
  H   H1269     1.0  0.14581  0.53734  0.73737  1.0000
  Fe  Fe84      1.0  0.23183  0.38190  0.94805  1.0000
  Fe  Fe85      1.0  0.25148  0.42132  0.92082  1.0000
  S   S165      1.0  0.26179  0.40013  0.90673  1.0000
  S   S166      1.0  0.25671  0.45722  0.90930  1.0000
  Fe  Fe86      1.0  0.22857  0.37629  0.91853  1.0000
  C   C696      1.0  0.38032  0.62055  0.80902  1.0000
  Fe  Fe87      1.0  0.27264  0.38338  0.92558  1.0000
  H   H1270     1.0  0.03166  0.57621  0.93556  1.0000
  S   S167      1.0  0.21718  0.39877  0.93122  1.0000
  S   S168      1.0  0.26530  0.40654  0.93881  1.0000
  Fe  Fe88      1.0  0.17342  0.59196  0.78717  1.0000
  S   S169      1.0  0.17096  0.55590  0.79101  1.0000
  H   H1271     1.0  0.22019  0.63463  0.86935  1.0000
  S   S170      1.0  0.14178  0.60204  0.79218  1.0000
  Fe  Fe89      1.0  0.30973  0.52360  0.81883  1.0000
  S   S171      1.0  0.32704  0.54078  0.79513  1.0000
  S   S172      1.0  0.32716  0.51620  0.83638  1.0000
  Fe  Fe90      1.0  0.26407  0.52019  0.81438  1.0000
  S   S173      1.0  0.27719  0.53694  0.79030  1.0000
  S   S174      1.0  0.22779  0.50793  0.82619  1.0000
  Fe  Fe91      1.0  0.30090  0.51599  0.79067  1.0000
  S   S175      1.0  0.31135  0.50012  0.77284  1.0000
  Fe  Fe92      1.0  0.30196  0.56030  0.79675  1.0000
  S   S176      1.0  0.31128  0.59653  0.78505  1.0000
  S   S177      1.0  0.28570  0.49706  0.81438  1.0000
  S   S178      1.0  0.28661  0.54522  0.82085  1.0000
  H   H1272     1.0  0.25338  0.35929  0.82650  1.0000
  H   H1273     1.0  0.23804  0.63696  0.81934  1.0000
  S   S179      1.0  0.20588  0.61859  0.91406  1.0000
  C   C697      1.0  0.23680  0.35780  0.82442  1.0000
  H   H1274     1.0  0.20344  0.53848  0.77302  1.0000
  H   H1275     1.0  0.17333  0.58584  0.83882  1.0000
  H   H1276     1.0  0.20533  0.39551  0.76514  1.0000
  H   H1277     1.0  0.09511  0.55400  0.77613  1.0000
  H   H1278     1.0  0.22856  0.57612  0.76240  1.0000
  Fe  Fe93      1.0  0.36878  0.60810  0.90001  1.0000
  S   S180      1.0  0.34810  0.62623  0.88906  1.0000
  S   S181      1.0  0.40332  0.62511  0.89994  1.0000
  Fe  Fe94      1.0  0.33210  0.56478  0.91109  1.0000
  S   S182      1.0  0.30781  0.57975  0.90160  1.0000
  S   S183      1.0  0.32454  0.52938  0.92442  1.0000
  Fe  Fe95      1.0  0.33709  0.59611  0.88199  1.0000
  S   S184      1.0  0.33314  0.60021  0.85933  1.0000
  Fe  Fe96      1.0  0.32098  0.60843  0.90961  1.0000
  S   S185      1.0  0.30380  0.63080  0.91908  1.0000
  S   S186      1.0  0.36076  0.57941  0.89078  1.0000
  S   S187      1.0  0.34231  0.59196  0.92116  1.0000
  C   C698      1.0  0.32636  0.35611  0.94133  1.0000
  H   H1279     1.0  0.32592  0.64354  0.77644  1.0000
  C   C699      1.0  0.20821  0.33800  0.90097  1.0000
  H   H1280     1.0  0.31469  0.47605  0.75151  1.0000
  C   C700      1.0  0.27059  0.34338  0.89595  1.0000
  H   H1281     1.0  0.32784  0.66554  0.88896  1.0000
  H   H1282     1.0  0.19082  0.62746  0.87113  1.0000
  N   N41       1.0  0.39131  0.36262  0.98013  1.0000
  H   H1283     1.0  0.28438  0.56404  0.76017  1.0000
  H   H1284     1.0  0.22530  0.41812  0.81032  1.0000
  C   C701      1.0  0.40656  0.64794  0.90717  1.0000
  N   N42       1.0  0.07997  0.62383  0.94408  1.0000
  H   H1285     1.0  0.18334  0.57488  0.82395  1.0000
  C   C702      1.0  0.11099  0.55561  0.77918  1.0000
  C   C703      1.0  0.29092  0.34878  0.96590  1.0000
  C   C704      1.0  0.42429  0.65255  0.91329  1.0000
  C   C705      1.0  0.23601  0.37945  0.81455  1.0000
  H   H1286     1.0  0.16684  0.55654  0.84150  1.0000
  Fe  Fe97      1.0  0.16200  0.62817  0.79956  1.0000
  H   H1287     1.0  0.43545  0.64212  0.91355  1.0000
  C   C706      1.0  0.23245  0.62103  0.91655  1.0000
  C   C707      1.0  0.24220  0.60359  0.91675  1.0000
  C   C708      1.0  0.26423  0.60646  0.91751  1.0000
  C   C709      1.0  0.27625  0.62661  0.91834  1.0000
  C   C710      1.0  0.26623  0.64377  0.91863  1.0000
  C   C711      1.0  0.24447  0.64108  0.91753  1.0000
  H   H1288     1.0  0.23294  0.58809  0.91596  1.0000
  H   H1289     1.0  0.27178  0.59302  0.91760  1.0000
  H   H1290     1.0  0.27014  0.38950  0.80236  1.0000
  H   H1291     1.0  0.28516  0.66742  0.87372  1.0000
  C   C712      1.0  0.29116  0.48714  0.76548  1.0000
  C   C713      1.0  0.26892  0.48723  0.77000  1.0000
  C   C714      1.0  0.25298  0.47556  0.76458  1.0000
  C   C715      1.0  0.25924  0.46394  0.75452  1.0000
  C   C716      1.0  0.28158  0.46451  0.74961  1.0000
  C   C717      1.0  0.29747  0.47599  0.75514  1.0000
  H   H1292     1.0  0.26395  0.49596  0.77786  1.0000
  H   H1293     1.0  0.23571  0.47525  0.76835  1.0000
  C   C718      1.0  0.33029  0.53931  0.84303  1.0000
  C   C719      1.0  0.32899  0.53743  0.85785  1.0000
  C   C720      1.0  0.33007  0.55613  0.86304  1.0000
  C   C721      1.0  0.33253  0.57658  0.85337  1.0000
  C   C722      1.0  0.33407  0.57830  0.83862  1.0000
  C   C723      1.0  0.33285  0.55978  0.83345  1.0000
  H   H1294     1.0  0.32637  0.52152  0.86537  1.0000
  H   H1295     1.0  0.32843  0.55470  0.87453  1.0000
  H   H1296     1.0  0.33610  0.59400  0.83120  1.0000
  H   H1297     1.0  0.33380  0.56133  0.82203  1.0000
  C   C724      1.0  0.31200  0.60824  0.81058  1.0000
  N   N43       1.0  0.13313  0.55086  0.75492  1.0000
  C   C725      1.0  0.23700  0.43239  0.80163  1.0000
  H   H1298     1.0  0.09708  0.63123  0.96009  1.0000
  H   H1299     1.0  0.26091  0.34618  0.90595  1.0000
  C   C726      1.0  0.07507  0.59045  0.75900  1.0000
  C   C727      1.0  0.09509  0.60144  0.76121  1.0000
  H   H1300     1.0  0.42280  0.38617  0.96711  1.0000
  H   H1301     1.0  0.12083  0.61003  0.94365  1.0000
  H   H1302     1.0  0.06216  0.57902  0.76825  1.0000
  H   H1303     1.0  0.09731  0.59869  0.77212  1.0000
  H   H1304     1.0  0.20621  0.55710  0.83851  1.0000
  H   H1305     1.0  0.30618  0.59092  0.81625  1.0000
  H   H1306     1.0  0.19661  0.56858  0.85299  1.0000
  S   S188      1.0  0.04623  0.57971  0.74254  1.0000
  S   S189      1.0  0.26726  0.40199  0.73860  1.0000
  C   C728      1.0  0.18645  0.54355  0.80161  1.0000
  C   C729      1.0  0.20553  0.55579  0.80392  1.0000
  C   C730      1.0  0.21861  0.54495  0.81127  1.0000
  C   C731      1.0  0.21211  0.52196  0.81675  1.0000
  C   C732      1.0  0.19267  0.50989  0.81484  1.0000
  C   C733      1.0  0.18009  0.52062  0.80711  1.0000
  H   H1307     1.0  0.21031  0.57349  0.79986  1.0000
  H   H1308     1.0  0.23360  0.55431  0.81281  1.0000
  H   H1309     1.0  0.18763  0.49215  0.81903  1.0000
  H   H1310     1.0  0.16542  0.51109  0.80531  1.0000
  C   C734      1.0  0.27482  0.47731  0.91399  1.0000
  C   C735      1.0  0.28237  0.47192  0.92643  1.0000
  C   C736      1.0  0.29749  0.48808  0.92961  1.0000
  C   C737      1.0  0.30495  0.50974  0.92045  1.0000
  C   C738      1.0  0.29717  0.51519  0.90811  1.0000
  C   C739      1.0  0.28220  0.49900  0.90488  1.0000
  H   H1311     1.0  0.27663  0.45532  0.93360  1.0000
  H   H1312     1.0  0.30341  0.48382  0.93920  1.0000
  H   H1313     1.0  0.30297  0.53180  0.90092  1.0000
  H   H1314     1.0  0.27676  0.50328  0.89512  1.0000
  H   H1315     1.0  0.28527  0.65958  0.81913  1.0000
  H   H1316     1.0  0.39598  0.35405  0.95080  1.0000
  H   H1317     1.0  0.12054  0.54848  0.79961  1.0000
  H   H1318     1.0  0.40685  0.62106  0.83366  1.0000
  H   H1319     1.0  0.30051  0.34906  0.90260  1.0000
  C   C740      1.0  0.45151  0.38380  0.98365  1.0000
  C   C741      1.0  0.20089  0.57148  0.84093  1.0000
  H   H1320     1.0  0.19402  0.60137  0.85692  1.0000
  H   H1321     1.0  0.28210  0.58880  0.84164  1.0000
  N   N44       1.0  0.21277  0.48556  0.87805  1.0000
  C   C742      1.0  0.20957  0.46286  0.88795  1.0000
  C   C743      1.0  0.21127  0.50184  0.88700  1.0000
  C   C744      1.0  0.19404  0.48425  0.87081  1.0000
  C   C745      1.0  0.23433  0.49320  0.86605  1.0000
  C   C746      1.0  0.25567  0.49371  0.87108  1.0000
  C   C747      1.0  0.21103  0.44443  0.88027  1.0000
  C   C748      1.0  0.19168  0.50657  0.86215  1.0000
  C   C749      1.0  0.22108  0.49886  0.90039  1.0000
  C   C750      1.0  0.22376  0.51926  0.90597  1.0000
  C   C751      1.0  0.27548  0.49664  0.85828  1.0000
  C   C752      1.0  0.20938  0.42279  0.89127  1.0000
  C   C753      1.0  0.17315  0.50288  0.85460  1.0000
  H   H1322     1.0  0.19318  0.45757  0.89635  1.0000
  H   H1323     1.0  0.22185  0.46276  0.89442  1.0000
  H   H1324     1.0  0.21906  0.51895  0.87977  1.0000
  H   H1325     1.0  0.19355  0.50106  0.89175  1.0000
  H   H1326     1.0  0.17780  0.47562  0.87914  1.0000
  H   H1327     1.0  0.19592  0.47425  0.86290  1.0000
  H   H1328     1.0  0.23390  0.48316  0.85815  1.0000
  H   H1329     1.0  0.23668  0.51020  0.85926  1.0000
  H   H1330     1.0  0.25432  0.47837  0.87937  1.0000
  H   H1331     1.0  0.25953  0.50794  0.87555  1.0000
  H   H1332     1.0  0.19730  0.44137  0.87506  1.0000
  H   H1333     1.0  0.22710  0.44876  0.87179  1.0000
  H   H1334     1.0  0.20717  0.51615  0.85353  1.0000
  H   H1335     1.0  0.18755  0.51684  0.86952  1.0000
  H   H1336     1.0  0.20977  0.48470  0.90952  1.0000
  H   H1337     1.0  0.23745  0.49549  0.89791  1.0000
  H   H1338     1.0  0.23587  0.53365  0.89744  1.0000
  H   H1339     1.0  0.20755  0.52306  0.90909  1.0000
  H   H1340     1.0  0.23016  0.51625  0.91578  1.0000
  H   H1341     1.0  0.29041  0.49694  0.86236  1.0000
  H   H1342     1.0  0.27282  0.48285  0.85325  1.0000
  H   H1343     1.0  0.27852  0.51237  0.84980  1.0000
  H   H1344     1.0  0.19346  0.41734  0.90005  1.0000
  H   H1345     1.0  0.21016  0.40977  0.88559  1.0000
  H   H1346     1.0  0.22341  0.42468  0.89635  1.0000
  H   H1347     1.0  0.15684  0.49472  0.86284  1.0000
  H   H1348     1.0  0.17240  0.51891  0.84796  1.0000
  H   H1349     1.0  0.17641  0.49256  0.84710  1.0000
  C   C754      1.0  0.29561  0.41778  0.77505  1.0000
  H   H1350     1.0  0.32427  0.56804  0.75112  1.0000
  H   H1351     1.0  0.37735  0.60909  0.83930  1.0000
  H   H1352     1.0  0.29860  0.43443  0.77673  1.0000
  H   H1353     1.0  0.31092  0.40315  0.75873  1.0000
  H   H1354     1.0  0.23702  0.65458  0.91744  1.0000
  H   H1355     1.0  0.34672  0.66342  0.93139  1.0000
  N   N45       1.0  0.33662  0.46398  0.89249  1.0000
  C   C755      1.0  0.33896  0.48840  0.88820  1.0000
  C   C756      1.0  0.31576  0.45221  0.88955  1.0000
  C   C757      1.0  0.33363  0.45679  0.90885  1.0000
  C   C758      1.0  0.35666  0.45791  0.88481  1.0000
  C   C759      1.0  0.36972  0.47269  0.86908  1.0000
  C   C760      1.0  0.35674  0.50253  0.89341  1.0000
  C   C761      1.0  0.32777  0.43170  0.91612  1.0000
  C   C762      1.0  0.31440  0.45817  0.87349  1.0000
  C   C763      1.0  0.29161  0.44678  0.87239  1.0000
  C   C764      1.0  0.38655  0.46224  0.86161  1.0000
  C   C765      1.0  0.36169  0.52694  0.88566  1.0000
  C   C766      1.0  0.32898  0.42692  0.93202  1.0000
  H   H1356     1.0  0.32288  0.49171  0.89270  1.0000
  H   H1357     1.0  0.34259  0.49513  0.87617  1.0000
  H   H1358     1.0  0.31342  0.43411  0.89272  1.0000
  H   H1359     1.0  0.30099  0.45506  0.89651  1.0000
  H   H1360     1.0  0.32040  0.46298  0.91466  1.0000
  H   H1361     1.0  0.34902  0.46418  0.91155  1.0000
  H   H1362     1.0  0.36912  0.45815  0.89125  1.0000
  H   H1363     1.0  0.35173  0.44058  0.88435  1.0000
  H   H1364     1.0  0.37908  0.48891  0.86951  1.0000
  H   H1365     1.0  0.35878  0.47589  0.86193  1.0000
  H   H1366     1.0  0.35057  0.50051  0.90535  1.0000
  H   H1367     1.0  0.37247  0.49762  0.89145  1.0000
  H   H1368     1.0  0.33924  0.42398  0.91011  1.0000
  H   H1369     1.0  0.31051  0.42376  0.91637  1.0000
  H   H1370     1.0  0.31714  0.47609  0.86890  1.0000
  H   H1371     1.0  0.32675  0.45237  0.86658  1.0000
  H   H1372     1.0  0.27828  0.45162  0.87925  1.0000
  H   H1373     1.0  0.29098  0.45167  0.86082  1.0000
  H   H1374     1.0  0.28852  0.42863  0.87597  1.0000
  H   H1375     1.0  0.39847  0.45939  0.86815  1.0000
  H   H1376     1.0  0.37792  0.44637  0.86025  1.0000
  H   H1377     1.0  0.39601  0.47342  0.85057  1.0000
  H   H1378     1.0  0.36790  0.53027  0.87359  1.0000
  H   H1379     1.0  0.34640  0.53248  0.88828  1.0000
  H   H1380     1.0  0.37451  0.53654  0.88959  1.0000
  H   H1381     1.0  0.32419  0.40889  0.93714  1.0000
  H   H1382     1.0  0.34612  0.43383  0.93252  1.0000
  H   H1383     1.0  0.31733  0.43407  0.93846  1.0000
  C   C767      1.0  0.06916  0.60748  0.98693  1.0000
  C   C768      1.0  0.30960  0.34175  0.96761  1.0000
  C   C769      1.0  0.07150  0.59439  0.74495  1.0000
  H   H1384     1.0  0.27052  0.62026  0.83538  1.0000
  H   H1385     1.0  0.08978  0.60286  0.96092  1.0000
  H   H1386     1.0  0.06966  0.64987  0.91952  1.0000
  H   H1387     1.0  0.25269  0.53959  0.76706  1.0000
  H   H1388     1.0  0.26410  0.61171  0.82028  1.0000
  C   C770      1.0  0.25146  0.63871  0.82489  1.0000
  H   H1389     1.0  0.19688  0.65335  0.80931  1.0000
  H   H1390     1.0  0.26964  0.42629  0.79970  1.0000
  S   S190      1.0  0.18571  0.61399  0.76422  1.0000
  H   H1391     1.0  0.16288  0.57295  0.75604  1.0000
  H   H1392     1.0  0.25160  0.57270  0.83353  1.0000
  S   S191      1.0  0.21536  0.37310  0.97223  1.0000
  C   C771      1.0  0.16587  0.53288  0.75270  1.0000
  C   C772      1.0  0.24474  0.61317  0.74203  1.0000
  H   H1393     1.0  0.14144  0.58545  0.75386  1.0000
  C   C773      1.0  0.28977  0.35923  0.95198  1.0000
  C   C774      1.0  0.30357  0.36262  0.74272  1.0000
  C   C775      1.0  0.19448  0.34814  0.97948  1.0000
  C   C776      1.0  0.30056  0.64097  0.87380  1.0000
  C   C777      1.0  0.06949  0.64283  0.94303  1.0000
  H   H1394     1.0  0.26235  0.37027  0.88245  1.0000
  C   C778      1.0  0.32739  0.34543  0.95532  1.0000
  H   H1395     1.0  0.22388  0.58775  0.86427  1.0000
  C   C779      1.0  0.27844  0.62579  0.87443  1.0000
  H   H1396     1.0  0.41097  0.39141  0.98362  1.0000
  C   C780      1.0  0.26890  0.55806  0.85836  1.0000
  H   H1397     1.0  0.04818  0.59957  0.95056  1.0000
  H   H1398     1.0  0.28655  0.45583  0.74171  1.0000
  H   H1399     1.0  0.23153  0.41677  0.77570  1.0000
  C   C781      1.0  0.27742  0.36499  0.88378  1.0000
  C   C782      1.0  0.20344  0.38050  0.77402  1.0000
  H   H1400     1.0  0.40350  0.64423  0.85046  1.0000
  C   C783      1.0  0.14344  0.53430  0.74940  1.0000
  C   C784      1.0  0.30738  0.36275  0.93966  1.0000
  H   H1401     1.0  0.26647  0.59142  0.96063  1.0000
  H   H1402     1.0  0.27509  0.36434  0.95085  1.0000
  H   H1403     1.0  0.30280  0.63727  0.88500  1.0000
  H   H1404     1.0  0.31373  0.63664  0.86644  1.0000
  H   H1405     1.0  0.23783  0.38200  0.76886  1.0000
  H   H1406     1.0  0.30964  0.64519  0.94352  1.0000
  C   C785      1.0  0.31552  0.61535  0.79540  1.0000
  C   C786      1.0  0.06321  0.61334  0.97241  1.0000
  C   C787      1.0  0.31217  0.63655  0.95406  1.0000
  H   H1407     1.0  0.33872  0.60851  0.95460  1.0000
  S   S192      1.0  0.20728  0.36278  0.90529  1.0000
  N   N46       1.0  0.39421  0.64211  0.80961  1.0000
  H   H1408     1.0  0.21449  0.51630  0.78027  1.0000
  H   H1409     1.0  0.24309  0.61398  0.85718  1.0000
  C   C788      1.0  0.20573  0.62114  0.87003  1.0000
  H   H1410     1.0  0.26450  0.62866  0.88213  1.0000
  H   H1411     1.0  0.27581  0.62870  0.86332  1.0000
  H   H1412     1.0  0.27868  0.60839  0.87836  1.0000
  S   S193      1.0  0.19241  0.61580  0.79648  1.0000
  C   C789      1.0  0.31671  0.62360  0.81842  1.0000
  H   H1413     1.0  0.31438  0.61815  0.83014  1.0000
  H   H1414     1.0  0.27164  0.62019  0.78786  1.0000
  H   H1415     1.0  0.22733  0.59129  0.82180  1.0000
  H   H1416     1.0  0.21236  0.60672  0.83061  1.0000
  H   H1417     1.0  0.21904  0.37708  0.81312  1.0000
  N   N47       1.0  0.23775  0.59775  0.84053  1.0000
  H   H1418     1.0  0.24252  0.61792  0.79430  1.0000
  H   H1419     1.0  0.11276  0.64581  0.93437  1.0000
  C   C790      1.0  0.21992  0.59282  0.83286  1.0000
  C   C791      1.0  0.25682  0.61652  0.83018  1.0000
  C   C792      1.0  0.17987  0.57228  0.83597  1.0000
  H   H1420     1.0  0.21241  0.62763  0.84669  1.0000
  C   C793      1.0  0.37728  0.37513  0.97278  1.0000
  C   C794      1.0  0.25467  0.60947  0.78982  1.0000
  C   C795      1.0  0.32322  0.63791  0.78818  1.0000
  C   C796      1.0  0.30707  0.59254  0.74411  1.0000
  C   C797      1.0  0.20960  0.61340  0.85620  1.0000
  H   H1421     1.0  0.25253  0.59369  0.79803  1.0000
  H   H1422     1.0  0.30274  0.64292  0.96242  1.0000
  C   C798      1.0  0.25106  0.60545  0.77549  1.0000
  H   H1423     1.0  0.27135  0.61930  0.94986  1.0000
  H   H1424     1.0  0.28403  0.60512  0.76667  1.0000
  C   C799      1.0  0.24648  0.57773  0.84373  1.0000
  C   C800      1.0  0.22934  0.60289  0.85484  1.0000
  H   H1425     1.0  0.25423  0.62181  0.76775  1.0000
  H   H1426     1.0  0.23311  0.56343  0.85146  1.0000
  C   C801      1.0  0.26748  0.59349  0.76904  1.0000
  C   C802      1.0  0.30126  0.66553  0.86787  1.0000
  H   H1427     1.0  0.08221  0.62127  0.98757  1.0000
  H   H1428     1.0  0.40099  0.38905  0.95050  1.0000
  H   H1429     1.0  0.29455  0.37200  0.74894  1.0000
  H   H1430     1.0  0.23754  0.66918  0.94306  1.0000
  H   H1431     1.0  0.24668  0.64544  0.83427  1.0000
  H   H1432     1.0  0.26530  0.44122  0.78342  1.0000
  H   H1433     1.0  0.10012  0.51921  0.74776  1.0000
  H   H1434     1.0  0.14653  0.64334  0.84908  1.0000
  H   H1435     1.0  0.10656  0.59818  0.93193  1.0000
  H   H1436     1.0  0.26719  0.57907  0.77785  1.0000
  C   C803      1.0  0.26652  0.58030  0.85047  1.0000
  H   H1437     1.0  0.23359  0.59608  0.77761  1.0000
  C   C804      1.0  0.31221  0.41957  0.76066  1.0000
  H   H1438     1.0  0.40139  0.61361  0.79062  1.0000
  C   C805      1.0  0.29971  0.61198  0.95707  1.0000
  S   S194      1.0  0.17265  0.65318  0.77744  1.0000
  H   H1439     1.0  0.22412  0.35351  0.83513  1.0000
  C   C806      1.0  0.34754  0.62565  0.94802  1.0000
  C   C807      1.0  0.41870  0.64338  0.80544  1.0000
  H   H1440     1.0  0.39857  0.61247  0.94308  1.0000
  Fe  Fe98      1.0  0.20710  0.65256  0.90192  1.0000
  H   H1441     1.0  0.37118  0.59364  0.95083  1.0000
  C   C808      1.0  0.38083  0.60999  0.94320  1.0000
  H   H1442     1.0  0.28602  0.36283  0.87321  1.0000
  H   H1443     1.0  0.27064  0.54763  0.85081  1.0000
  H   H1444     1.0  0.20295  0.60740  0.87998  1.0000
  H   H1445     1.0  0.34640  0.62638  0.93664  1.0000
  H   H1446     1.0  0.26503  0.59004  0.85848  1.0000
  C   C809      1.0  0.32501  0.64602  0.81117  1.0000
  H   H1447     1.0  0.23854  0.55010  0.78096  1.0000
  H   H1448     1.0  0.27544  0.65932  0.91938  1.0000
  Fe  Fe99      1.0  0.20199  0.63919  0.77393  1.0000
  H   H1449     1.0  0.31134  0.35293  0.75006  1.0000
  C   C810      1.0  0.32801  0.65321  0.79604  1.0000
  H   H1450     1.0  0.16417  0.52895  0.76466  1.0000
  N   N48       1.0  0.26470  0.58686  0.75549  1.0000
  H   H1451     1.0  0.34202  0.34028  0.95657  1.0000
  C   C811      1.0  0.23933  0.54758  0.76999  1.0000
  H   H1452     1.0  0.38310  0.64408  0.94025  1.0000
  H   H1453     1.0  0.16031  0.36143  0.94787  1.0000
  C   C812      1.0  0.37228  0.62834  0.94796  1.0000
  H   H1454     1.0  0.25430  0.54944  0.86795  1.0000
  H   H1455     1.0  0.28397  0.56062  0.86238  1.0000
  H   H1456     1.0  0.10702  0.56626  0.75141  1.0000
  C   C813      1.0  0.38921  0.63025  0.85162  1.0000
  H   H1457     1.0  0.31245  0.61639  0.98362  1.0000
  H   H1458     1.0  0.37452  0.62760  0.95903  1.0000
  H   H1459     1.0  0.35747  0.65071  0.96727  1.0000
  C   C814      1.0  0.38736  0.64319  0.82526  1.0000
  C   C815      1.0  0.42958  0.36693  0.98586  1.0000
  C   C816      1.0  0.39057  0.62448  0.83711  1.0000
  C   C817      1.0  0.24292  0.56981  0.75851  1.0000
  H   H1460     1.0  0.36950  0.64317  0.82845  1.0000
  C   C818      1.0  0.40674  0.34908  0.95778  1.0000
  C   C819      1.0  0.10521  0.54667  0.79585  1.0000
  C   C820      1.0  0.33086  0.62166  0.98069  1.0000
  C   C821      1.0  0.33967  0.64344  0.96821  1.0000
  H   H1461     1.0  0.46011  0.39114  0.97178  1.0000
  C   C822      1.0  0.34791  0.66426  0.94255  1.0000
  C   C823      1.0  0.28326  0.57667  0.75072  1.0000
  C   C824      1.0  0.17404  0.51489  0.74716  1.0000
  H   H1462     1.0  0.33094  0.65508  0.97210  1.0000
  H   H1463     1.0  0.05792  0.57114  0.92795  1.0000
  N   N49       1.0  0.33666  0.64199  0.95349  1.0000
  C   C825      1.0  0.21767  0.53123  0.77104  1.0000
  C   C826      1.0  0.23134  0.40202  0.78423  1.0000
  H   H1464     1.0  0.30581  0.60594  0.94754  1.0000
  C   C827      1.0  0.11196  0.61632  0.74934  1.0000
  H   H1465     1.0  0.31199  0.60175  0.75175  1.0000
  H   H1466     1.0  0.37349  0.63463  0.85533  1.0000
  C   C828      1.0  0.27473  0.60887  0.95941  1.0000
  H   H1467     1.0  0.18942  0.37895  0.78351  1.0000
  C   C829      1.0  0.25740  0.42657  0.79310  1.0000
  S   S195      1.0  0.24022  0.35738  0.93625  1.0000
  H   H1468     1.0  0.28857  0.37808  0.88657  1.0000
  H   H1469     1.0  0.30218  0.60139  0.96688  1.0000
  H   H1470     1.0  0.17514  0.66070  0.85972  1.0000
  H   H1471     1.0  0.23315  0.34422  0.81930  1.0000
  H   H1472     1.0  0.42110  0.62662  0.80888  1.0000
  C   C830      1.0  0.26654  0.60667  0.74312  1.0000
  H   H1473     1.0  0.42760  0.65307  0.81161  1.0000
  H   H1474     1.0  0.37111  0.59076  0.78398  1.0000
  H   H1475     1.0  0.11978  0.57328  0.77624  1.0000
  C   C831      1.0  0.19208  0.65473  0.82034  1.0000
  H   H1476     1.0  0.10094  0.63595  0.92157  1.0000
  H   H1477     1.0  0.16962  0.36351  0.98766  1.0000
  C   C832      1.0  0.07354  0.65866  0.92755  1.0000
  H   H1478     1.0  0.04910  0.61642  0.92579  1.0000
  H   H1479     1.0  0.29952  0.40667  0.78399  1.0000
  H   H1480     1.0  0.27059  0.39331  0.77154  1.0000
  C   C833      1.0  0.27168  0.65593  0.81388  1.0000
  H   H1481     1.0  0.33750  0.60838  0.97757  1.0000
  H   H1482     1.0  0.30919  0.43074  0.75127  1.0000
  H   H1483     1.0  0.25209  0.44438  0.81745  1.0000
  C   C834      1.0  0.12569  0.54303  0.77147  1.0000
  H   H1484     1.0  0.21717  0.40034  0.79360  1.0000
  H   H1485     1.0  0.19868  0.34852  0.88118  1.0000
  H   H1486     1.0  0.14742  0.61011  0.92140  1.0000
  C   C835      1.0  0.41355  0.37781  0.97873  1.0000
  S   S196      1.0  0.13767  0.63075  0.75127  1.0000
  H   H1487     1.0  0.32831  0.34171  0.90965  1.0000
  H   H1488     1.0  0.05123  0.63667  0.94821  1.0000
  C   C836      1.0  0.06000  0.60538  0.92747  1.0000
  H   H1489     1.0  0.16193  0.49856  0.75274  1.0000
  S   S197      1.0  0.10468  0.66948  0.97219  1.0000
  H   H1490     1.0  0.36071  0.40737  0.95833  1.0000
  C   C837      1.0  0.22496  0.38158  0.77860  1.0000
  S   S198      1.0  0.14913  0.63517  0.82102  1.0000
  H   H1491     1.0  0.26746  0.61320  0.96946  1.0000
  H   H1492     1.0  0.25617  0.46514  0.80055  1.0000
  H   H1493     1.0  0.09574  0.52906  0.79949  1.0000
  H   H1494     1.0  0.22775  0.43863  0.79387  1.0000
  H   H1495     1.0  0.21890  0.52625  0.76076  1.0000
  S   S199      1.0  0.18325  0.65896  0.88876  1.0000
  C   C838      1.0  0.09462  0.53143  0.75301  1.0000
  N   N50       1.0  0.25312  0.40582  0.78820  1.0000
  H   H1496     1.0  0.09486  0.55611  0.80107  1.0000
  Fe  Fe100     1.0  0.15505  0.62572  0.76962  1.0000
  H   H1497     1.0  0.32938  0.42637  0.76116  1.0000
  C   C839      1.0  0.17992  0.65925  0.84872  1.0000
  H   H1498     1.0  0.11671  0.52522  0.77544  1.0000
  S   S200      1.0  0.23866  0.44792  0.74891  1.0000
  C   C840      1.0  0.37264  0.40182  0.95086  1.0000
  C   C841      1.0  0.27133  0.40903  0.77448  1.0000
  H   H1499     1.0  0.36602  0.66900  0.94140  1.0000
  H   H1500     1.0  0.27977  0.56793  0.74246  1.0000
  H   H1501     1.0  0.43359  0.35388  0.98091  1.0000
  C   C842      1.0  0.20812  0.66517  0.82621  1.0000
  H   H1502     1.0  0.14033  0.54423  0.77590  1.0000
  H   H1503     1.0  0.23910  0.39210  0.82045  1.0000
  H   H1504     1.0  0.28158  0.39802  0.98587  1.0000
  C   C843      1.0  0.14958  0.57323  0.75030  1.0000
  H   H1505     1.0  0.18161  0.35665  0.93455  1.0000
  C   C844      1.0  0.25394  0.38629  0.79970  1.0000
  C   C845      1.0  0.08375  0.61789  0.95914  1.0000
  C   C846      1.0  0.11606  0.61369  0.93324  1.0000
  C   C847      1.0  0.24419  0.45041  0.80881  1.0000
  C   C848      1.0  0.10237  0.63084  0.93292  1.0000
  H   H1506     1.0  0.05671  0.62795  0.97207  1.0000
  H   H1507     1.0  0.18277  0.35226  0.95332  1.0000
  H   H1508     1.0  0.04960  0.59938  0.97268  1.0000
  H   H1509     1.0  0.26890  0.42063  0.76500  1.0000
  H   H1510     1.0  0.19013  0.51419  0.74951  1.0000
  H   H1511     1.0  0.34011  0.35902  0.93183  1.0000
  H   H1512     1.0  0.07115  0.58915  0.94550  1.0000
  C   C849      1.0  0.04759  0.58291  0.92677  1.0000
  H   H1513     1.0  0.38286  0.60640  0.81672  1.0000
  C   C850      1.0  0.32419  0.57973  0.74085  1.0000
  H   H1514     1.0  0.36240  0.61982  0.81269  1.0000
  H   H1515     1.0  0.36326  0.38837  0.94737  1.0000
  H   H1516     1.0  0.22950  0.45539  0.81392  1.0000
  H   H1517     1.0  0.37836  0.65809  0.90222  1.0000
  C   C851      1.0  0.06475  0.60378  0.94255  1.0000
  C   C852      1.0  0.39210  0.66152  0.90694  1.0000
  C   C853      1.0  0.36837  0.59380  0.79494  1.0000
  H   H1518     1.0  0.37965  0.61027  0.93196  1.0000
  H   H1519     1.0  0.35089  0.59435  0.79856  1.0000
  C   C854      1.0  0.38932  0.39395  0.95845  1.0000
  H   H1520     1.0  0.07542  0.61135  0.91832  1.0000
  H   H1521     1.0  0.14794  0.63787  0.92173  1.0000
  S   S201      1.0  0.30536  0.37521  0.92225  1.0000
  H   H1522     1.0  0.20896  0.66249  0.94273  1.0000
  C   C855      1.0  0.20213  0.66729  0.84045  1.0000
  H   H1523     1.0  0.39897  0.40823  0.96108  1.0000
  C   C856      1.0  0.11382  0.55280  0.74862  1.0000
  H   H1524     1.0  0.38957  0.61585  0.86019  1.0000
  C   C857      1.0  0.38439  0.61551  0.79401  1.0000
  H   H1525     1.0  0.04162  0.66650  0.93232  1.0000
  H   H1526     1.0  0.27764  0.65020  0.80419  1.0000
  H   H1527     1.0  0.38191  0.62854  0.78545  1.0000
  C   C858      1.0  0.16978  0.64702  0.82850  1.0000
  C   C859      1.0  0.16375  0.64931  0.84271  1.0000
  S   S202      1.0  0.22809  0.34401  0.74373  1.0000
  C   C860      1.0  0.07458  0.53598  0.74802  1.0000
  H   H1528     1.0  0.38157  0.41582  0.94096  1.0000
  H   H1529     1.0  0.13405  0.62564  0.90996  1.0000
  H   H1530     1.0  0.36375  0.36346  0.97057  1.0000
  H   H1531     1.0  0.04384  0.58459  0.91600  1.0000
  H   H1532     1.0  0.22239  0.36620  0.78731  1.0000
  H   H1533     1.0  0.37101  0.57986  0.80276  1.0000
  H   H1534     1.0  0.25321  0.37171  0.79536  1.0000
  H   H1535     1.0  0.13189  0.51750  0.75431  1.0000
  H   H1536     1.0  0.36869  0.38333  0.98031  1.0000
  C   C861      1.0  0.13762  0.62242  0.92081  1.0000
  H   H1537     1.0  0.24116  0.56607  0.74810  1.0000
  H   H1538     1.0  0.08885  0.52390  0.76504  1.0000
  C   C862      1.0  0.39383  0.34341  0.97414  1.0000
  H   H1539     1.0  0.21606  0.66795  0.95885  1.0000
  H   H1540     1.0  0.34280  0.66200  0.86525  1.0000
  H   H1541     1.0  0.42229  0.36237  0.95481  1.0000
  C   C863      1.0  0.17330  0.34812  0.98707  1.0000
  H   H1542     1.0  0.14289  0.66093  0.95584  1.0000
  H   H1543     1.0  0.42332  0.64715  0.78157  1.0000
  S   S203      1.0  0.23796  0.65832  0.76352  1.0000
  H   H1544     1.0  0.45398  0.63256  0.78832  1.0000
  H   H1545     1.0  0.30124  0.66849  0.85611  1.0000
  H   H1546     1.0  0.23472  0.61367  0.75265  1.0000
  C   C864      1.0  0.26384  0.39772  0.98718  1.0000
  H   H1547     1.0  0.37023  0.65766  0.80239  1.0000
  H   H1548     1.0  0.06695  0.54606  0.75437  1.0000
  H   H1549     1.0  0.19948  0.36599  0.76979  1.0000
  C   C865      1.0  0.43178  0.65392  0.78903  1.0000
  H   H1550     1.0  0.17894  0.54860  0.74722  1.0000
  C   C866      1.0  0.45502  0.65040  0.78605  1.0000
  H   H1551     1.0  0.09123  0.66831  0.92323  1.0000
  H   H1552     1.0  0.27700  0.34554  0.97526  1.0000
  H   H1553     1.0  0.25927  0.39532  0.97713  1.0000
  C   C867      1.0  0.17155  0.35075  0.94614  1.0000
  H   H1554     1.0  0.06190  0.52025  0.75002  1.0000
  H   H1555     1.0  0.07602  0.65374  0.94942  1.0000
  H   H1556     1.0  0.46420  0.65857  0.77435  1.0000
  H   H1557     1.0  0.46447  0.65757  0.79299  1.0000
  C   C868      1.0  0.38852  0.66065  0.79998  1.0000
  H   H1558     1.0  0.39692  0.65889  0.82637  1.0000
  H   H1559     1.0  0.39380  0.66120  0.78826  1.0000
  S   S204      1.0  0.33307  0.66439  0.82114  1.0000
  S   S205      1.0  0.04377  0.66945  0.96821  1.0000
  H   H1560     1.0  0.27888  0.62131  0.74356  1.0000
  H   H1561     1.0  0.23423  0.60101  0.73815  1.0000
  H   H1562     1.0  0.04925  0.76218  0.03295  1.0000
  C   C869      1.0  0.00840  0.70994  0.03133  1.0000
  H   H1563     1.0  0.00660  0.80591  0.09832  1.0000
  H   H1564     1.0  0.03572  0.78921  0.08380  1.0000
  H   H1565     1.0  0.42710  0.86331  0.99231  1.0000
  H   H1566     1.0  0.04872  0.73105  0.06275  1.0000
  H   H1567     1.0  0.00445  0.73678  0.09159  1.0000
  H   H1568     1.0  0.03036  0.71804  0.08095  1.0000
  H   H1569     1.0  0.01615  0.95897  0.14672  1.0000
  H   H1570     1.0  0.44439  0.86878  0.01190  1.0000
  H   H1571     1.0  0.00925  0.97835  0.18475  1.0000
  C   C870      1.0  0.00457  0.98468  0.08475  1.0000
  N   N51       1.0  0.01451  0.76973  0.98965  1.0000
  H   H1572     1.0  0.04333  0.75905  0.07570  1.0000
  H   H1573     1.0  0.04090  0.79056  0.11296  1.0000
  C   C871      1.0  0.04555  0.72959  0.03016  1.0000
  H   H1574     1.0  0.45959  0.84958  0.00695  1.0000
  C   C872      1.0  0.03086  0.71083  0.02939  1.0000
  H   H1575     1.0  0.01685  0.82533  0.04772  1.0000
  C   C873      1.0  0.01514  0.74632  0.03505  1.0000
  C   C874      1.0  0.03668  0.77180  0.99303  1.0000
  H   H1576     1.0  0.03432  0.96650  0.20675  1.0000
  C   C875      1.0  0.07434  0.76369  0.98851  1.0000
  H   H1577     1.0  0.06111  0.99408  0.22221  1.0000
  H   H1578     1.0  0.05825  0.96205  0.21269  1.0000
  C   C876      1.0  0.05141  0.99322  0.21412  1.0000
  H   H1579     1.0  0.09000  0.92470  0.23522  1.0000
  C   C877      1.0  0.03368  0.80329  0.10762  1.0000
  H   H1580     1.0  0.02846  0.81244  0.11555  1.0000
  C   C878      1.0  0.01360  0.79267  0.10305  1.0000
  C   C879      1.0  0.03211  0.72923  0.07004  1.0000
  H   H1581     1.0  0.03285  0.95965  0.22601  1.0000
  S   S206      1.0  0.00710  0.92937  0.19573  1.0000
  C   C880      1.0  0.46240  0.87761  0.98874  1.0000
  H   H1582     1.0  0.03427  0.76781  0.00509  1.0000
  H   H1583     1.0  0.00561  0.83349  0.00416  1.0000
  H   H1584     1.0  0.07844  0.99939  0.19461  1.0000
  H   H1585     1.0  0.04313  0.73956  0.99427  1.0000
  C   C881      1.0  0.03778  0.74753  0.03266  1.0000
  C   C882      1.0  0.02009  0.77908  0.09227  1.0000
  C   C883      1.0  0.04376  0.96891  0.21486  1.0000
  C   C884      1.0  0.00493  0.98679  0.13778  1.0000
  H   H1586     1.0  0.01832  0.81906  0.07369  1.0000
  Fe  Fe101     1.0  0.03965  0.68061  0.00607  1.0000
  S   S207      1.0  0.01532  0.91042  0.23519  1.0000
  C   C885      1.0  0.02978  0.75178  0.07134  1.0000
  S   S208      1.0  0.01009  0.67636  0.99699  1.0000
  C   C886      1.0  0.00493  0.78695  0.07063  1.0000
  H   H1587     1.0  0.06293  0.73026  0.02877  1.0000
  H   H1588     1.0  0.01933  0.72179  0.06515  1.0000
  H   H1589     1.0  0.00461  0.98098  0.20318  1.0000
  S   S209      1.0  0.04007  0.68766  0.02760  1.0000
  H   H1590     1.0  0.07440  0.76271  0.00006  1.0000
  H   H1591     1.0  0.02120  0.78990  0.06265  1.0000
  H   H1592     1.0  0.01601  0.97538  0.08057  1.0000
  H   H1593     1.0  0.04657  0.81511  0.09793  1.0000
  C   C887      1.0  0.45986  0.86722  0.00495  1.0000
  H   H1594     1.0  0.04722  0.78898  0.98873  1.0000
  H   H1595     1.0  0.01082  0.73626  0.98840  1.0000
  H   H1596     1.0  0.03638  0.99886  0.21751  1.0000
  C   C888      1.0  0.00393  0.96438  0.14174  1.0000
  H   H1597     1.0  0.02478  0.76518  0.09879  1.0000
  C   C889      1.0  0.07534  0.93139  0.23709  1.0000
  H   H1598     1.0  0.02853  0.81072  0.99584  1.0000
  H   H1599     1.0  0.08121  0.94965  0.23331  1.0000
  H   H1600     1.0  0.01527  0.98313  0.10473  1.0000
  H   H1601     1.0  0.47416  0.87584  0.00818  1.0000
  H   H1602     1.0  0.06441  0.92588  0.23041  1.0000
  S   S210      1.0  0.00539  0.76879  0.03806  1.0000
  C   C890      1.0  0.01433  0.99569  0.09517  1.0000
  H   H1603     1.0  0.00272  0.00267  0.18858  1.0000
  H   H1604     1.0  0.00821  0.68420  0.06080  1.0000
  H   H1605     1.0  0.03231  0.76202  0.06005  1.0000
  C   C891      1.0  0.01106  0.80645  0.99539  1.0000
  C   C892      1.0  0.00658  0.74980  0.08138  1.0000
  H   H1606     1.0  0.01978  0.70883  0.23447  1.0000
  H   H1607     1.0  0.00435  0.99804  0.07543  1.0000
  C   C893      1.0  0.00328  0.81018  0.07132  1.0000
  N   N52       1.0  0.00288  0.77057  0.08493  1.0000
  H   H1608     1.0  0.03792  0.68569  0.30359  1.0000
  C   C894      1.0  0.49945  0.99164  0.43748  1.0000
  H   H1609     1.0  0.31172  0.75037  0.47887  1.0000
  H   H1610     1.0  0.07466  0.93005  0.25922  1.0000
  H   H1611     1.0  0.23640  0.67842  0.41092  1.0000
  H   H1612     1.0  0.03260  0.74821  0.25490  1.0000
  H   H1613     1.0  0.07785  0.92712  0.30315  1.0000
  C   C895      1.0  0.04590  0.85128  0.27198  1.0000
  H   H1614     1.0  0.04922  0.70620  0.31179  1.0000
  H   H1615     1.0  0.48104  0.81334  0.46586  1.0000
  S   S211      1.0  0.18351  0.71545  0.45278  1.0000
  S   S212      1.0  0.28123  0.70375  0.40408  1.0000
  C   C896      1.0  0.04817  0.68915  0.31111  1.0000
  S   S213      1.0  0.21233  0.69401  0.36569  1.0000
  H   H1616     1.0  0.32769  0.68511  0.33890  1.0000
  H   H1617     1.0  0.49855  0.82399  0.39816  1.0000
  C   C897      1.0  0.22558  0.68507  0.39127  1.0000
  S   S214      1.0  0.14659  0.68262  0.38343  1.0000
  H   H1618     1.0  0.01562  0.77159  0.31675  1.0000
  H   H1619     1.0  0.34201  0.68736  0.48091  1.0000
  C   C898      1.0  0.23148  0.69652  0.37640  1.0000
  H   H1620     1.0  0.26064  0.69201  0.34281  1.0000
  C   C899      1.0  0.24121  0.68723  0.39942  1.0000
  C   C900      1.0  0.26291  0.70081  0.39288  1.0000
  C   C901      1.0  0.26890  0.71236  0.37801  1.0000
  C   C902      1.0  0.25318  0.71032  0.36985  1.0000
  C   C903      1.0  0.37693  0.82543  0.46616  1.0000
  H   H1621     1.0  0.28552  0.72298  0.37285  1.0000
  H   H1622     1.0  0.25785  0.71945  0.35839  1.0000
  C   C904      1.0  0.16689  0.69754  0.44571  1.0000
  H   H1623     1.0  0.07933  0.69939  0.29474  1.0000
  C   C905      1.0  0.02990  0.86482  0.27698  1.0000
  C   C906      1.0  0.43475  0.68086  0.45554  1.0000
  C   C907      1.0  0.13595  0.68170  0.26077  1.0000
  Fe  Fe102     1.0  0.23252  0.70637  0.48649  1.0000
  C   C908      1.0  0.01416  0.76633  0.29553  1.0000
  H   H1624     1.0  0.29178  0.75002  0.44396  1.0000
  H   H1625     1.0  0.04905  0.93202  0.25455  1.0000
  C   C909      1.0  0.02969  0.97127  0.25781  1.0000
  C   C910      1.0  0.04681  0.97130  0.26466  1.0000
  H   H1626     1.0  0.00938  0.74055  0.24750  1.0000
  H   H1627     1.0  0.04716  0.95633  0.27207  1.0000
  H   H1628     1.0  0.01693  0.86310  0.27100  1.0000
  H   H1629     1.0  0.09273  0.91409  0.29132  1.0000
  H   H1630     1.0  0.46811  0.85236  0.47271  1.0000
  H   H1631     1.0  0.28495  0.69338  0.35572  1.0000
  C   C911      1.0  0.29576  0.68237  0.35395  1.0000
  H   H1632     1.0  0.30557  0.73811  0.45670  1.0000
  N   N53       1.0  0.29905  0.67772  0.44965  1.0000
  H   H1633     1.0  0.04354  0.89341  0.25179  1.0000
  H   H1634     1.0  0.37235  0.80833  0.47339  1.0000
  C   C912      1.0  0.28866  0.68110  0.47631  1.0000
  H   H1635     1.0  0.17924  0.71880  0.42359  1.0000
  H   H1636     1.0  0.06848  0.89206  0.25671  1.0000
  C   C913      1.0  0.07641  0.91249  0.29888  1.0000
  H   H1637     1.0  0.04273  0.91072  0.29867  1.0000
  H   H1638     1.0  0.43444  0.90522  0.44215  1.0000
  H   H1639     1.0  0.02104  0.85637  0.28872  1.0000
  H   H1640     1.0  0.04575  0.81743  0.27297  1.0000
  S   S215      1.0  0.22799  0.69358  0.46745  1.0000
  H   H1641     1.0  0.45271  0.88274  0.46796  1.0000
  H   H1642     1.0  0.02848  0.91710  0.27752  1.0000
  H   H1643     1.0  0.05204  0.85620  0.25982  1.0000
  H   H1644     1.0  0.01529  0.99130  0.24390  1.0000
  H   H1645     1.0  0.06034  0.85378  0.27661  1.0000
  C   C914      1.0  0.49289  0.82596  0.38807  1.0000
  H   H1646     1.0  0.04905  0.87631  0.29502  1.0000
  C   C915      1.0  0.15599  0.68868  0.42474  1.0000
  N   N54       1.0  0.04046  0.88888  0.27490  1.0000
  N   N55       1.0  0.43329  0.84891  0.47418  1.0000
  H   H1647     1.0  0.38488  0.83947  0.48285  1.0000
  H   H1648     1.0  0.30935  0.69770  0.33011  1.0000
  C   C916      1.0  0.45458  0.73727  0.48107  1.0000
  C   C917      1.0  0.31524  0.69465  0.34011  1.0000
  C   C918      1.0  0.05835  0.91127  0.29081  1.0000
  H   H1649     1.0  0.39901  0.68306  0.44390  1.0000
  C   C919      1.0  0.02190  0.89965  0.27800  1.0000
  H   H1650     1.0  0.47719  0.70548  0.44291  1.0000
  H   H1651     1.0  0.31968  0.74795  0.43736  1.0000
  N   N56       1.0  0.24507  0.76666  0.39645  1.0000
  C   C920      1.0  0.24229  0.78969  0.39396  1.0000
  C   C921      1.0  0.22865  0.75254  0.39087  1.0000
  C   C922      1.0  0.24012  0.75687  0.41281  1.0000
  C   C923      1.0  0.26859  0.76666  0.38959  1.0000
  C   C924      1.0  0.27749  0.77663  0.37279  1.0000
  C   C925      1.0  0.25744  0.80573  0.39974  1.0000
  C   C926      1.0  0.23661  0.73160  0.41810  1.0000
  C   C927      1.0  0.22214  0.76421  0.37727  1.0000
  C   C928      1.0  0.20959  0.74761  0.37093  1.0000
  C   C929      1.0  0.30219  0.77810  0.36758  1.0000
  C   C930      1.0  0.25340  0.82853  0.39619  1.0000
  C   C931      1.0  0.24293  0.72500  0.43235  1.0000
  H   H1652     1.0  0.22473  0.78891  0.39917  1.0000
  H   H1653     1.0  0.24527  0.79783  0.38215  1.0000
  H   H1654     1.0  0.23472  0.73842  0.38851  1.0000
  H   H1655     1.0  0.21252  0.74490  0.39950  1.0000
  H   H1656     1.0  0.22480  0.76021  0.41878  1.0000
  H   H1657     1.0  0.25372  0.76487  0.41693  1.0000
  H   H1658     1.0  0.28035  0.77503  0.39483  1.0000
  H   H1659     1.0  0.27042  0.74964  0.39178  1.0000
  H   H1660     1.0  0.27561  0.79346  0.36925  1.0000
  H   H1661     1.0  0.26863  0.76590  0.36722  1.0000
  H   H1662     1.0  0.25408  0.79986  0.41183  1.0000
  H   H1663     1.0  0.27525  0.80775  0.39460  1.0000
  H   H1664     1.0  0.24648  0.72544  0.41003  1.0000
  H   H1665     1.0  0.21892  0.72287  0.41998  1.0000
  H   H1666     1.0  0.21105  0.77444  0.38053  1.0000
  H   H1667     1.0  0.23674  0.77506  0.36838  1.0000
  H   H1668     1.0  0.22108  0.73915  0.36575  1.0000
  H   H1669     1.0  0.19553  0.73519  0.37958  1.0000
  H   H1670     1.0  0.20291  0.75623  0.36236  1.0000
  H   H1671     1.0  0.30815  0.78476  0.35546  1.0000
  H   H1672     1.0  0.31213  0.78917  0.37247  1.0000
  H   H1673     1.0  0.30505  0.76157  0.37067  1.0000
  H   H1674     1.0  0.23585  0.82759  0.40137  1.0000
  H   H1675     1.0  0.26431  0.83965  0.40052  1.0000
  H   H1676     1.0  0.25730  0.83571  0.38414  1.0000
  H   H1677     1.0  0.23232  0.72956  0.44116  1.0000
  H   H1678     1.0  0.24075  0.70698  0.43556  1.0000
  H   H1679     1.0  0.26056  0.73336  0.43087  1.0000
  H   H1680     1.0  0.07221  0.89757  0.30829  1.0000
  C   C932      1.0  0.05534  0.89063  0.28502  1.0000
  H   H1681     1.0  0.23282  0.68681  0.32898  1.0000
  H   H1682     1.0  0.02652  0.76683  0.28546  1.0000
  C   C933      1.0  0.02161  0.68922  0.25501  1.0000
  C   C934      1.0  0.01054  0.69883  0.24546  1.0000
  C   C935      1.0  0.30971  0.70219  0.44530  1.0000
  C   C936      1.0  0.28656  0.67324  0.43862  1.0000
  H   H1683     1.0  0.32806  0.67170  0.43692  1.0000
  H   H1684     1.0  0.44037  0.80497  0.47717  1.0000
  C   C937      1.0  0.29368  0.71697  0.44387  1.0000
  C   C938      1.0  0.44876  0.70921  0.46678  1.0000
  C   C939      1.0  0.30335  0.73966  0.44554  1.0000
  H   H1685     1.0  0.41436  0.70144  0.42618  1.0000
  H   H1686     1.0  0.48101  0.98678  0.44073  1.0000
  H   H1687     1.0  0.07215  0.88959  0.27965  1.0000
  Fe  Fe103     1.0  0.19418  0.69912  0.47219  1.0000
  H   H1688     1.0  0.48524  0.83992  0.38697  1.0000
  H   H1689     1.0  0.29077  0.71926  0.43284  1.0000
  H   H1690     1.0  0.27738  0.70946  0.45216  1.0000
  H   H1691     1.0  0.43088  0.70905  0.46902  1.0000
  H   H1692     1.0  0.03940  0.69180  0.25137  1.0000
  H   H1693     1.0  0.48419  0.98527  0.37685  1.0000
  C   C940      1.0  0.03406  0.82671  0.27685  1.0000
  H   H1694     1.0  0.47237  0.71270  0.48049  1.0000
  H   H1695     1.0  0.07611  0.99056  0.26795  1.0000
  H   H1696     1.0  0.06291  0.92676  0.28196  1.0000
  C   C941      1.0  0.06275  0.92398  0.25337  1.0000
  C   C942      1.0  0.47452  0.69208  0.45302  1.0000
  H   H1697     1.0  0.47230  0.79494  0.48417  1.0000
  H   H1698     1.0  0.41041  0.81724  0.47800  1.0000
  H   H1699     1.0  0.30326  0.68064  0.36333  1.0000
  H   H1700     1.0  0.38928  0.68443  0.47929  1.0000
  H   H1701     1.0  0.46301  0.91138  0.44302  1.0000
  S   S216      1.0  0.49139  0.96219  0.32767  1.0000
  C   C943      1.0  0.41536  0.68870  0.43558  1.0000
  H   H1702     1.0  0.12434  0.67537  0.25471  1.0000
  S   S217      1.0  0.47206  0.91216  0.36240  1.0000
  C   C944      1.0  0.32725  0.71692  0.34132  1.0000
  Fe  Fe104     1.0  0.48614  0.88510  0.35686  1.0000
  S   S218      1.0  0.47038  0.84990  0.35746  1.0000
  H   H1703     1.0  0.02795  0.82066  0.28899  1.0000
  H   H1704     1.0  0.47355  0.77951  0.41395  1.0000
  S   S219      1.0  0.40251  0.78004  0.46607  1.0000
  Fe  Fe105     1.0  0.35819  0.76086  0.38457  1.0000
  S   S220      1.0  0.33426  0.74500  0.40699  1.0000
  S   S221      1.0  0.36786  0.79815  0.37686  1.0000
  Fe  Fe106     1.0  0.36261  0.71670  0.38036  1.0000
  S   S222      1.0  0.33991  0.69781  0.40245  1.0000
  S   S223      1.0  0.38098  0.70004  0.36578  1.0000
  Fe  Fe107     1.0  0.31841  0.72002  0.39682  1.0000
  Fe  Fe108     1.0  0.35783  0.72443  0.41048  1.0000
  S   S224      1.0  0.36960  0.71419  0.43071  1.0000
  S   S225      1.0  0.34027  0.73757  0.37404  1.0000
  S   S226      1.0  0.38253  0.74158  0.38873  1.0000
  C   C945      1.0  0.44072  0.77659  0.39825  1.0000
  N   N57       1.0  0.45188  0.68823  0.46327  1.0000
  H   H1705     1.0  0.49659  0.71560  0.46014  1.0000
  C   C946      1.0  0.45167  0.76986  0.44204  1.0000
  H   H1706     1.0  0.31925  0.70685  0.45289  1.0000
  H   H1707     1.0  0.10832  0.69037  0.28369  1.0000
  H   H1708     1.0  0.13776  0.69958  0.25917  1.0000
  H   H1709     1.0  0.36150  0.83084  0.46658  1.0000
  H   H1710     1.0  0.45762  0.72365  0.45711  1.0000
  C   C947      1.0  0.48367  0.98041  0.36668  1.0000
  H   H1711     1.0  0.46081  0.95630  0.36060  1.0000
  H   H1712     1.0  0.14852  0.67776  0.31447  1.0000
  C   C948      1.0  0.39091  0.76121  0.45726  1.0000
  C   C949      1.0  0.38477  0.76909  0.44447  1.0000
  C   C950      1.0  0.37774  0.75480  0.43636  1.0000
  C   C951      1.0  0.37688  0.73251  0.44100  1.0000
  C   C952      1.0  0.38259  0.72455  0.45395  1.0000
  C   C953      1.0  0.38951  0.73881  0.46208  1.0000
  H   H1713     1.0  0.38558  0.78635  0.44078  1.0000
  H   H1714     1.0  0.37324  0.76108  0.42644  1.0000
  H   H1715     1.0  0.38180  0.70731  0.45766  1.0000
  H   H1716     1.0  0.39435  0.73259  0.47184  1.0000
  Fe  Fe109     1.0  0.17706  0.67149  0.37554  1.0000
  H   H1717     1.0  0.44756  0.96773  0.37437  1.0000
  H   H1718     1.0  0.44770  0.82524  0.38940  1.0000
  H   H1719     1.0  0.45400  0.75029  0.40882  1.0000
  C   C954      1.0  0.39635  0.81267  0.37120  1.0000
  C   C955      1.0  0.40266  0.83508  0.37057  1.0000
  C   C956      1.0  0.42528  0.84690  0.36623  1.0000
  C   C957      1.0  0.44170  0.83643  0.36225  1.0000
  C   C958      1.0  0.43535  0.81415  0.36268  1.0000
  C   C959      1.0  0.41283  0.80227  0.36722  1.0000
  H   H1720     1.0  0.39001  0.84327  0.37358  1.0000
  H   H1721     1.0  0.42997  0.86406  0.36597  1.0000
  H   H1722     1.0  0.44793  0.80598  0.35947  1.0000
  H   H1723     1.0  0.40820  0.78518  0.36738  1.0000
  H   H1724     1.0  0.47099  0.80470  0.41723  1.0000
  C   C960      1.0  0.05376  0.89861  0.25900  1.0000
  Fe  Fe110     1.0  0.49869  0.91828  0.37392  1.0000
  C   C961      1.0  0.00975  0.67625  0.26921  1.0000
  H   H1725     1.0  0.00719  0.73141  0.30298  1.0000
  C   C962      1.0  0.43357  0.73739  0.39630  1.0000
  H   H1726     1.0  0.43691  0.78176  0.38755  1.0000
  H   H1727     1.0  0.46169  0.78403  0.44455  1.0000
  H   H1728     1.0  0.41763  0.73260  0.40502  1.0000
  H   H1729     1.0  0.43039  0.74214  0.38539  1.0000
  H   H1730     1.0  0.44040  0.72290  0.39694  1.0000
  H   H1731     1.0  0.31563  0.72730  0.34289  1.0000
  H   H1732     1.0  0.45099  0.82565  0.40688  1.0000
  H   H1733     1.0  0.45605  0.90282  0.42781  1.0000
  H   H1734     1.0  0.41544  0.83379  0.41722  1.0000
  H   H1735     1.0  0.03993  0.67769  0.32223  1.0000
  H   H1736     1.0  0.38433  0.82554  0.45470  1.0000
  C   C963      1.0  0.06307  0.99081  0.26248  1.0000
  H   H1737     1.0  0.33475  0.71456  0.35066  1.0000
  C   C964      1.0  0.39315  0.84082  0.47133  1.0000
  H   H1738     1.0  0.41226  0.79513  0.41707  1.0000
  H   H1739     1.0  0.41895  0.67463  0.43166  1.0000
  H   H1740     1.0  0.28390  0.69675  0.47443  1.0000
  C   C965      1.0  0.44673  0.87634  0.44800  1.0000
  H   H1741     1.0  0.33932  0.68544  0.45815  1.0000
  H   H1742     1.0  0.43118  0.76334  0.42794  1.0000
  H   H1743     1.0  0.39596  0.85775  0.46436  1.0000
  H   H1744     1.0  0.42116  0.83201  0.45935  1.0000
  H   H1745     1.0  0.01317  0.90026  0.26923  1.0000
  H   H1746     1.0  0.01977  0.82350  0.27210  1.0000
  H   H1747     1.0  0.43416  0.86620  0.44421  1.0000
  H   H1748     1.0  0.15101  0.67317  0.46646  1.0000
  H   H1749     1.0  0.48036  0.99404  0.34503  1.0000
  H   H1750     1.0  0.25964  0.68683  0.31836  1.0000
  C   C966      1.0  0.44254  0.77790  0.42912  1.0000
  H   H1751     1.0  0.20167  0.67994  0.42997  1.0000
  H   H1752     1.0  0.47560  0.67731  0.44915  1.0000
  H   H1753     1.0  0.34084  0.72569  0.33113  1.0000
  H   H1754     1.0  0.08088  0.69069  0.31333  1.0000
  C   C967      1.0  0.25371  0.67525  0.34208  1.0000
  H   H1755     1.0  0.29794  0.67990  0.42731  1.0000
  H   H1756     1.0  0.46263  0.94786  0.37918  1.0000
  H   H1757     1.0  0.40249  0.67097  0.35460  1.0000
  N   N58       1.0  0.45527  0.79608  0.40092  1.0000
  H   H1758     1.0  0.45875  0.84052  0.45947  1.0000
  C   C968      1.0  0.46171  0.78982  0.41501  1.0000
  C   C969      1.0  0.43917  0.87246  0.46487  1.0000
  H   H1759     1.0  0.47212  0.80737  0.37767  1.0000
  H   H1760     1.0  0.43295  0.78945  0.43205  1.0000
  C   C970      1.0  0.45023  0.90042  0.43983  1.0000
  H   H1761     1.0  0.45968  0.67466  0.48356  1.0000
  C   C971      1.0  0.40972  0.82767  0.40850  1.0000
  C   C972      1.0  0.41835  0.80796  0.40648  1.0000
  H   H1762     1.0  0.46207  0.75873  0.43956  1.0000
  C   C973      1.0  0.47631  0.80445  0.38838  1.0000
  H   H1763     1.0  0.00600  0.77968  0.29310  1.0000
  C   C974      1.0  0.46232  0.96200  0.37040  1.0000
  C   C975      1.0  0.16833  0.70325  0.43068  1.0000
  H   H1764     1.0  0.46547  0.76044  0.38917  1.0000
  S   S227      1.0  0.26586  0.73061  0.48226  1.0000
  C   C976      1.0  0.47433  0.81202  0.47763  1.0000
  H   H1765     1.0  0.41086  0.80145  0.39847  1.0000
  H   H1766     1.0  0.42934  0.71283  0.44526  1.0000
  H   H1767     1.0  0.39127  0.82264  0.41175  1.0000
  H   H1768     1.0  0.42500  0.87972  0.46703  1.0000
  C   C977      1.0  0.44404  0.81452  0.40077  1.0000
  C   C978      1.0  0.45551  0.71414  0.48038  1.0000
  H   H1769     1.0  0.41556  0.84117  0.39810  1.0000
  H   H1770     1.0  0.03571  0.75814  0.30934  1.0000
  C   C979      1.0  0.01832  0.75320  0.25176  1.0000
  H   H1771     1.0  0.43773  0.76063  0.45193  1.0000
  H   H1772     1.0  0.42428  0.77038  0.40650  1.0000
  C   C980      1.0  0.45020  0.75638  0.39829  1.0000
  H   H1773     1.0  0.46280  0.87244  0.44464  1.0000
  H   H1774     1.0  0.03968  0.78715  0.30174  1.0000
  C   C981      1.0  0.41511  0.83411  0.47044  1.0000
  H   H1775     1.0  0.32238  0.70726  0.43450  1.0000
  H   H1776     1.0  0.15741  0.69304  0.41311  1.0000
  H   H1777     1.0  0.47981  0.93432  0.30832  1.0000
  H   H1778     1.0  0.01145  0.88309  0.30184  1.0000
  C   C982      1.0  0.45187  0.81728  0.48032  1.0000
  H   H1779     1.0  0.01112  0.77103  0.26740  1.0000
  H   H1780     1.0  0.27329  0.68195  0.43881  1.0000
  C   C983      1.0  0.02879  0.99114  0.24890  1.0000
  H   H1781     1.0  0.47647  0.95331  0.29288  1.0000
  C   C984      1.0  0.45385  0.84084  0.47108  1.0000
  C   C985      1.0  0.02702  0.77101  0.30656  1.0000
  H   H1782     1.0  0.20892  0.67469  0.39657  1.0000
  Fe  Fe111     1.0  0.49896  0.93457  0.34261  1.0000
  C   C986      1.0  0.48390  0.00030  0.35433  1.0000
  H   H1783     1.0  0.43779  0.73937  0.48106  1.0000
  H   H1784     1.0  0.30645  0.68519  0.47581  1.0000
  H   H1785     1.0  0.00880  0.72914  0.27946  1.0000
  H   H1786     1.0  0.44931  0.70422  0.43334  1.0000
  H   H1787     1.0  0.49769  0.97341  0.36342  1.0000
  C   C987      1.0  0.43345  0.69838  0.44213  1.0000
  C   C988      1.0  0.37060  0.67221  0.36661  1.0000
  H   H1788     1.0  0.41791  0.67479  0.46341  1.0000
  S   S228      1.0  0.49190  0.92283  0.39654  1.0000
  S   S229      1.0  0.00726  0.94738  0.26341  1.0000
  C   C989      1.0  0.07150  0.68680  0.30547  1.0000
  C   C990      1.0  0.15246  0.67752  0.45485  1.0000
  C   C991      1.0  0.49474  0.69872  0.45895  1.0000
  C   C992      1.0  0.24567  0.67761  0.32825  1.0000
  H   H1789     1.0  0.41737  0.68978  0.39158  1.0000
  C   C993      1.0  0.00390  0.88829  0.29285  1.0000
  H   H1790     1.0  0.48588  0.79199  0.38846  1.0000
  H   H1791     1.0  0.50148  0.98457  0.45970  1.0000
  C   C994      1.0  0.48282  0.93880  0.29622  1.0000
  H   H1792     1.0  0.41127  0.67114  0.38092  1.0000
  H   H1793     1.0  0.02474  0.76883  0.24278  1.0000
  H   H1794     1.0  0.46711  0.74988  0.47159  1.0000
  H   H1795     1.0  0.11455  0.68169  0.30671  1.0000
  H   H1796     1.0  0.15244  0.67939  0.25610  1.0000
  H   H1797     1.0  0.47344  0.92487  0.29315  1.0000
  H   H1798     1.0  0.48635  0.82339  0.48111  1.0000
  H   H1799     1.0  0.14002  0.67576  0.28244  1.0000
  C   C995      1.0  0.10485  0.67268  0.28405  1.0000
  H   H1800     1.0  0.49330  0.68715  0.46960  1.0000
  C   C996      1.0  0.41335  0.67216  0.39182  1.0000
  H   H1801     1.0  0.09394  0.67070  0.27663  1.0000
  C   C997      1.0  0.44775  0.67028  0.47725  1.0000
  H   H1802     1.0  0.44897  0.91785  0.63491  1.0000
  C   C998      1.0  0.48154  0.00273  0.58824  1.0000
  H   H1803     1.0  0.28079  0.73452  0.73236  1.0000
  H   H1804     1.0  0.04379  0.73417  0.68125  1.0000
  H   H1805     1.0  0.02893  0.71724  0.61205  1.0000
  H   H1806     1.0  0.41751  0.77806  0.62883  1.0000
  S   S230      1.0  0.44999  0.89968  0.69425  1.0000
  Fe  Fe112     1.0  0.40520  0.77980  0.51828  1.0000
  S   S231      1.0  0.42173  0.80884  0.52576  1.0000
  Fe  Fe113     1.0  0.35906  0.75164  0.51915  1.0000
  S   S232      1.0  0.32171  0.73853  0.52846  1.0000
  Fe  Fe114     1.0  0.39864  0.73275  0.51623  1.0000
  S   S233      1.0  0.40660  0.70036  0.52302  1.0000
  S   S234      1.0  0.38254  0.74733  0.53316  1.0000
  H   H1807     1.0  0.04042  0.95910  0.71703  1.0000
  C   C999      1.0  0.39906  0.68284  0.51247  1.0000
  Fe  Fe115     1.0  0.45831  0.87916  0.67925  1.0000
  H   H1808     1.0  0.12269  0.72245  0.56585  1.0000
  H   H1809     1.0  0.21763  0.76350  0.52528  1.0000
  Fe  Fe116     1.0  0.18598  0.68008  0.50472  1.0000
  C   C1000     1.0  0.34245  0.69809  0.55891  1.0000
  C   C1001     1.0  0.39671  0.69150  0.49857  1.0000
  N   N59       1.0  0.06563  0.69673  0.65325  1.0000
  N   N60       1.0  0.47102  0.94711  0.61819  1.0000
  C   C1002     1.0  0.30649  0.73521  0.51556  1.0000
  S   S235      1.0  0.44356  0.88021  0.66027  1.0000
  C   C1003     1.0  0.10750  0.69978  0.54139  1.0000
  H   H1810     1.0  0.32603  0.69634  0.51781  1.0000
  H   H1811     1.0  0.00772  0.69658  0.68394  1.0000
  C   C1004     1.0  0.31653  0.74446  0.50053  1.0000
  C   C1005     1.0  0.00457  0.98378  0.72801  1.0000
  C   C1006     1.0  0.39073  0.67755  0.49014  1.0000
  C   C1007     1.0  0.47565  0.80309  0.54145  1.0000
  Fe  Fe117     1.0  0.44859  0.87015  0.71218  1.0000
  H   H1812     1.0  0.49033  0.93840  0.60023  1.0000
  H   H1813     1.0  0.04339  0.71765  0.65560  1.0000
  H   H1814     1.0  0.41047  0.82879  0.58904  1.0000
  H   H1815     1.0  0.46830  0.98059  0.65609  1.0000
  C   C1008     1.0  0.45753  0.79853  0.53542  1.0000
  C   C1009     1.0  0.44430  0.81313  0.53385  1.0000
  C   C1010     1.0  0.44936  0.83218  0.53857  1.0000
  H   H1816     1.0  0.06891  0.67861  0.52874  1.0000
  H   H1817     1.0  0.43931  0.84363  0.53745  1.0000
  C   C1011     1.0  0.46926  0.83332  0.64776  1.0000
  C   C1012     1.0  0.46024  0.84566  0.65639  1.0000
  H   H1818     1.0  0.47449  0.81938  0.65280  1.0000
  H   H1819     1.0  0.45866  0.84127  0.66803  1.0000
  C   C1013     1.0  0.04571  0.93668  0.70440  1.0000
  H   H1820     1.0  0.07450  0.92887  0.73658  1.0000
  H   H1821     1.0  0.27760  0.67737  0.49952  1.0000
  H   H1822     1.0  0.29024  0.68006  0.52055  1.0000
  H   H1823     1.0  0.14990  0.72764  0.54203  1.0000
  C   C1014     1.0  0.02167  0.99884  0.71628  1.0000
  C   C1015     1.0  0.48284  0.77193  0.59155  1.0000
  S   S236      1.0  0.42306  0.76468  0.50228  1.0000
  H   H1824     1.0  0.35615  0.69823  0.53677  1.0000
  H   H1825     1.0  0.41193  0.93868  0.65004  1.0000
  C   C1016     1.0  0.46851  0.96892  0.61023  1.0000
  H   H1826     1.0  0.48914  0.97217  0.58805  1.0000
  H   H1827     1.0  0.35902  0.70482  0.56037  1.0000
  C   C1017     1.0  0.47367  0.93241  0.60829  1.0000
  C   C1018     1.0  0.45600  0.92930  0.59959  1.0000
  C   C1019     1.0  0.13535  0.69467  0.52196  1.0000
  H   H1828     1.0  0.48169  0.91771  0.63899  1.0000
  H   H1829     1.0  0.09359  0.70124  0.66258  1.0000
  C   C1020     1.0  0.43519  0.78418  0.62833  1.0000
  H   H1830     1.0  0.03513  0.69985  0.63801  1.0000
  C   C1021     1.0  0.45091  0.77872  0.61590  1.0000
  H   H1831     1.0  0.16114  0.72129  0.56626  1.0000
  H   H1832     1.0  0.47372  0.91593  0.61476  1.0000
  H   H1833     1.0  0.46289  0.94073  0.58834  1.0000
  S   S237      1.0  0.42012  0.85859  0.73295  1.0000
  C   C1022     1.0  0.48437  0.97931  0.65738  1.0000
  C   C1023     1.0  0.43915  0.81638  0.58259  1.0000
  H   H1834     1.0  0.16021  0.75808  0.51640  1.0000
  C   C1024     1.0  0.20938  0.71163  0.53345  1.0000
  H   H1835     1.0  0.45597  0.82330  0.57487  1.0000
  C   C1025     1.0  0.09271  0.67199  0.65591  1.0000
  H   H1836     1.0  0.44953  0.76078  0.61931  1.0000
  H   H1837     1.0  0.33386  0.75362  0.49667  1.0000
  H   H1838     1.0  0.11577  0.72102  0.61374  1.0000
  H   H1839     1.0  0.19998  0.76426  0.49028  1.0000
  H   H1840     1.0  0.10131  0.70729  0.60296  1.0000
  H   H1841     1.0  0.35679  0.76899  0.71723  1.0000
  N   N61       1.0  0.44832  0.78562  0.60053  1.0000
  H   H1842     1.0  0.02770  0.73908  0.63022  1.0000
  H   H1843     1.0  0.31433  0.68995  0.54263  1.0000
  C   C1026     1.0  0.20382  0.75857  0.53557  1.0000
  H   H1844     1.0  0.18769  0.77590  0.51300  1.0000
  C   C1027     1.0  0.41542  0.86486  0.49498  1.0000
  H   H1845     1.0  0.10827  0.68505  0.56334  1.0000
  C   C1028     1.0  0.21457  0.69194  0.54268  1.0000
  C   C1029     1.0  0.15851  0.73697  0.56054  1.0000
  C   C1030     1.0  0.34502  0.68614  0.54702  1.0000
  H   H1846     1.0  0.38036  0.81738  0.70136  1.0000
  H   H1847     1.0  0.39236  0.79459  0.70021  1.0000
  C   C1031     1.0  0.44096  0.80651  0.59821  1.0000
  H   H1848     1.0  0.31911  0.75631  0.71677  1.0000
  H   H1849     1.0  0.09356  0.73050  0.60774  1.0000
  H   H1850     1.0  0.08827  0.68528  0.62865  1.0000
  C   C1032     1.0  0.08243  0.70009  0.62561  1.0000
  C   C1033     1.0  0.08035  0.68769  0.66188  1.0000
  C   C1034     1.0  0.18213  0.76194  0.49558  1.0000
  H   H1851     1.0  0.20303  0.74856  0.55914  1.0000
  H   H1852     1.0  0.50052  0.93758  0.65233  1.0000
  S   S238      1.0  0.21923  0.67295  0.50257  1.0000
  S   S239      1.0  0.48726  0.82673  0.62160  1.0000
  H   H1853     1.0  0.48936  0.78688  0.67356  1.0000
  C   C1035     1.0  0.33184  0.67413  0.50450  1.0000
  H   H1854     1.0  0.27606  0.71624  0.53200  1.0000
  H   H1855     1.0  0.17702  0.77626  0.49009  1.0000
  H   H1856     1.0  0.06775  0.75762  0.67319  1.0000
  C   C1036     1.0  0.03689  0.92700  0.73220  1.0000
  C   C1037     1.0  0.29459  0.72667  0.73036  1.0000
  Fe  Fe118     1.0  0.49046  0.86268  0.69473  1.0000
  S   S240      1.0  0.49516  0.89095  0.67529  1.0000
  C   C1038     1.0  0.23033  0.77715  0.54801  1.0000
  H   H1857     1.0  0.49798  0.96111  0.54957  1.0000
  C   C1039     1.0  0.40678  0.85921  0.51166  1.0000
  H   H1858     1.0  0.44380  0.70239  0.49061  1.0000
  C   C1040     1.0  0.01313  0.97595  0.70051  1.0000
  C   C1041     1.0  0.38979  0.80671  0.70643  1.0000
  H   H1859     1.0  0.47273  0.75661  0.59040  1.0000
  H   H1860     1.0  0.22565  0.74390  0.54706  1.0000
  H   H1861     1.0  0.24339  0.78425  0.53738  1.0000
  H   H1862     1.0  0.40027  0.70905  0.49408  1.0000
  H   H1863     1.0  0.17436  0.70383  0.54377  1.0000
  C   C1042     1.0  0.21516  0.75539  0.54822  1.0000
  H   H1864     1.0  0.17206  0.74688  0.49402  1.0000
  C   C1043     1.0  0.14248  0.68153  0.53252  1.0000
  H   H1865     1.0  0.42060  0.85849  0.51683  1.0000
  H   H1866     1.0  0.46046  0.94138  0.65008  1.0000
  C   C1044     1.0  0.42686  0.84760  0.49037  1.0000
  H   H1867     1.0  0.42740  0.77899  0.65189  1.0000
  H   H1868     1.0  0.43411  0.75608  0.64599  1.0000
  C   C1045     1.0  0.05649  0.74411  0.67085  1.0000
  H   H1869     1.0  0.23860  0.77431  0.55693  1.0000
  H   H1870     1.0  0.42758  0.88134  0.49116  1.0000
  C   C1046     1.0  0.32211  0.67614  0.54486  1.0000
  C   C1047     1.0  0.01316  0.71762  0.61861  1.0000
  C   C1048     1.0  0.45337  0.86365  0.64992  1.0000
  C   C1049     1.0  0.18533  0.74043  0.52003  1.0000
  H   H1871     1.0  0.07039  0.67886  0.67341  1.0000
  H   H1872     1.0  0.47063  0.95333  0.67769  1.0000
  H   H1873     1.0  0.20556  0.70709  0.52372  1.0000
  C   C1050     1.0  0.49138  0.95144  0.62366  1.0000
  H   H1874     1.0  0.48587  0.79177  0.54244  1.0000
  H   H1875     1.0  0.16921  0.75098  0.56273  1.0000
  H   H1876     1.0  0.43895  0.80228  0.62657  1.0000
  H   H1877     1.0  0.37611  0.74064  0.60654  1.0000
  C   C1051     1.0  0.11783  0.70384  0.52642  1.0000
  C   C1052     1.0  0.18927  0.71732  0.54234  1.0000
  C   C1053     1.0  0.48567  0.96397  0.66966  1.0000
  H   H1878     1.0  0.45046  0.96306  0.64076  1.0000
  C   C1054     1.0  0.13446  0.73648  0.56733  1.0000
  H   H1879     1.0  0.25415  0.71212  0.51395  1.0000
  H   H1880     1.0  0.04803  0.75148  0.66293  1.0000
  S   S241      1.0  0.37375  0.73498  0.50338  1.0000
  S   S242      1.0  0.05986  0.69667  0.59057  1.0000
  C   C1055     1.0  0.05439  0.71039  0.66153  1.0000
  H   H1881     1.0  0.11204  0.71375  0.51830  1.0000
  H   H1882     1.0  0.42434  0.94124  0.66479  1.0000
  C   C1056     1.0  0.44801  0.94503  0.64418  1.0000
  C   C1057     1.0  0.04820  0.94533  0.71751  1.0000
  H   H1883     1.0  0.44049  0.93300  0.60456  1.0000
  H   H1884     1.0  0.40631  0.81728  0.70568  1.0000
  C   C1058     1.0  0.33310  0.68195  0.51833  1.0000
  H   H1885     1.0  0.06659  0.69494  0.62281  1.0000
  H   H1886     1.0  0.42191  0.91655  0.65898  1.0000
  H   H1887     1.0  0.19738  0.77331  0.53533  1.0000
  Fe  Fe119     1.0  0.48658  0.90928  0.69176  1.0000
  H   H1888     1.0  0.08257  0.74026  0.65435  1.0000
  H   H1889     1.0  0.34485  0.79081  0.71878  1.0000
  H   H1890     1.0  0.46953  0.79416  0.57830  1.0000
  H   H1891     1.0  0.46435  0.89972  0.59538  1.0000
  N   N62       1.0  0.18570  0.73925  0.53569  1.0000
  C   C1059     1.0  0.11524  0.68727  0.55181  1.0000
  H   H1892     1.0  0.33165  0.68662  0.56953  1.0000
  C   C1060     1.0  0.06985  0.72973  0.66454  1.0000
  C   C1061     1.0  0.17825  0.76019  0.51190  1.0000
  C   C1062     1.0  0.43837  0.77430  0.64330  1.0000
  C   C1063     1.0  0.30395  0.74257  0.49044  1.0000
  H   H1893     1.0  0.45273  0.81943  0.60080  1.0000
  H   H1894     1.0  0.07831  0.72344  0.67277  1.0000
  H   H1895     1.0  0.49034  0.96306  0.63049  1.0000
  C   C1064     1.0  0.45517  0.86905  0.63490  1.0000
  H   H1896     1.0  0.04338  0.69979  0.67230  1.0000
  C   C1065     1.0  0.16311  0.74019  0.54381  1.0000
  H   H1897     1.0  0.45231  0.96677  0.60753  1.0000
  H   H1898     1.0  0.33520  0.71200  0.55569  1.0000
  H   H1899     1.0  0.35106  0.68874  0.51708  1.0000
  H   H1900     1.0  0.35330  0.67320  0.55044  1.0000
  H   H1901     1.0  0.49564  0.81368  0.67650  1.0000
  H   H1902     1.0  0.07125  0.72458  0.63435  1.0000
  H   H1903     1.0  0.19094  0.71584  0.55360  1.0000
  S   S243      1.0  0.02592  0.67459  0.57349  1.0000
  C   C1066     1.0  0.47249  0.83972  0.63258  1.0000
  S   S244      1.0  0.38001  0.78544  0.50560  1.0000
  H   H1904     1.0  0.44177  0.84949  0.49469  1.0000
  C   C1067     1.0  0.13249  0.67802  0.54740  1.0000
  C   C1068     1.0  0.07907  0.71130  0.63814  1.0000
  H   H1905     1.0  0.39407  0.84304  0.51606  1.0000
  H   H1906     1.0  0.44937  0.88262  0.63004  1.0000
  H   H1907     1.0  0.45397  0.78384  0.53184  1.0000
  H   H1908     1.0  0.46754  0.86233  0.61441  1.0000
  C   C1069     1.0  0.48075  0.82217  0.54613  1.0000
  H   H1909     1.0  0.43517  0.93599  0.62698  1.0000
  C   C1070     1.0  0.27149  0.72106  0.51023  1.0000
  S   S245      1.0  0.08472  0.70994  0.54712  1.0000
  S   S246      1.0  0.48469  0.88174  0.71121  1.0000
  H   H1910     1.0  0.16016  0.75637  0.53936  1.0000
  C   C1071     1.0  0.09933  0.71580  0.61169  1.0000
  H   H1911     1.0  0.39905  0.87197  0.51470  1.0000
  C   C1072     1.0  0.46522  0.85744  0.62614  1.0000
  H   H1912     1.0  0.17402  0.72515  0.51959  1.0000
  H   H1913     1.0  0.20205  0.74124  0.51327  1.0000
  H   H1914     1.0  0.43821  0.89458  0.60883  1.0000
  H   H1915     1.0  0.44071  0.90543  0.58965  1.0000
  C   C1073     1.0  0.44950  0.90582  0.59830  1.0000
  H   H1916     1.0  0.33087  0.70520  0.49052  1.0000
  H   H1917     1.0  0.47110  0.85148  0.54812  1.0000
  H   H1918     1.0  0.46809  0.97999  0.61749  1.0000
  H   H1919     1.0  0.22057  0.78912  0.54975  1.0000
  S   S247      1.0  0.45412  0.84890  0.69721  1.0000
  C   C1074     1.0  0.42510  0.93470  0.65512  1.0000
  H   H1920     1.0  0.13082  0.75200  0.56226  1.0000
  C   C1075     1.0  0.48703  0.98207  0.59591  1.0000
  H   H1921     1.0  0.09576  0.72006  0.63856  1.0000
  C   C1076     1.0  0.46740  0.83667  0.54467  1.0000
  H   H1922     1.0  0.43432  0.77061  0.58555  1.0000
  C   C1077     1.0  0.28394  0.72342  0.52039  1.0000
  H   H1923     1.0  0.39923  0.72913  0.60239  1.0000
  C   C1078     1.0  0.37754  0.79502  0.72252  1.0000
  C   C1079     1.0  0.35416  0.78020  0.72413  1.0000
  C   C1080     1.0  0.45033  0.93566  0.63076  1.0000
  H   H1924     1.0  0.46792  0.78694  0.61614  1.0000
  H   H1925     1.0  0.33013  0.73491  0.72490  1.0000
  H   H1926     1.0  0.45584  0.78073  0.64341  1.0000
  H   H1927     1.0  0.29388  0.71982  0.72093  1.0000
  H   H1928     1.0  0.42941  0.80390  0.57858  1.0000
  H   H1929     1.0  0.40513  0.75490  0.61755  1.0000
  H   H1930     1.0  0.03832  0.69434  0.53775  1.0000
  S   S248      1.0  0.48700  0.85938  0.58189  1.0000
  H   H1931     1.0  0.01628  0.77042  0.69890  1.0000
  H   H1932     1.0  0.14323  0.69768  0.51042  1.0000
  H   H1933     1.0  0.22444  0.72576  0.52949  1.0000
  H   H1934     1.0  0.42467  0.80422  0.60598  1.0000
  C   C1081     1.0  0.43273  0.76726  0.59752  1.0000
  C   C1082     1.0  0.47085  0.79051  0.58977  1.0000
  C   C1083     1.0  0.42795  0.83508  0.58215  1.0000
  H   H1935     1.0  0.41596  0.83095  0.49690  1.0000
  H   H1936     1.0  0.45812  0.73990  0.49134  1.0000
  H   H1937     1.0  0.48225  0.80563  0.59045  1.0000
  C   C1084     1.0  0.49676  0.93077  0.63208  1.0000
  H   H1938     1.0  0.22835  0.68762  0.53593  1.0000
  H   H1939     1.0  0.13164  0.73452  0.57928  1.0000
  Fe  Fe120     1.0  0.39645  0.76797  0.49072  1.0000
  H   H1940     1.0  0.40126  0.86609  0.49033  1.0000
  H   H1941     1.0  0.43750  0.75165  0.60052  1.0000
  C   C1085     1.0  0.04769  0.67776  0.65287  1.0000
  H   H1942     1.0  0.38800  0.78515  0.72707  1.0000
  H   H1943     1.0  0.39541  0.75079  0.58853  1.0000
  C   C1086     1.0  0.39387  0.74453  0.60042  1.0000
  C   C1087     1.0  0.01245  0.72999  0.62884  1.0000
  H   H1944     1.0  0.43703  0.84813  0.58609  1.0000
  C   C1088     1.0  0.02867  0.68424  0.64690  1.0000
  H   H1945     1.0  0.42796  0.84248  0.57068  1.0000
  H   H1946     1.0  0.40134  0.77651  0.60364  1.0000
  C   C1089     1.0  0.40781  0.76185  0.60563  1.0000
  H   H1947     1.0  0.44026  0.82282  0.73049  1.0000
  H   H1948     1.0  0.06619  0.95197  0.71609  1.0000
  H   H1949     1.0  0.03231  0.68012  0.52451  1.0000
  H   H1950     1.0  0.01610  0.68656  0.65586  1.0000
  Fe  Fe121     1.0  0.06263  0.68824  0.56920  1.0000
  H   H1951     1.0  0.46600  0.99827  0.58494  1.0000
  S   S249      1.0  0.19977  0.71470  0.49006  1.0000
  H   H1952     1.0  0.19981  0.67742  0.54661  1.0000
  C   C1090     1.0  0.34134  0.69349  0.49066  1.0000
  H   H1953     1.0  0.05251  0.95045  0.69414  1.0000
  H   H1954     1.0  0.21964  0.69591  0.55222  1.0000
  H   H1955     1.0  0.01010  0.75225  0.68780  1.0000
  C   C1091     1.0  0.31704  0.74343  0.72704  1.0000
  Fe  Fe122     1.0  0.02350  0.67964  0.59577  1.0000
  H   H1956     1.0  0.05489  0.92403  0.70355  1.0000
  H   H1957     1.0  0.35851  0.70229  0.48989  1.0000
  H   H1958     1.0  0.37644  0.80801  0.72818  1.0000
  H   H1959     1.0  0.48634  0.76822  0.60240  1.0000
  C   C1092     1.0  0.28137  0.73101  0.49525  1.0000
  C   C1093     1.0  0.02572  0.99492  0.70253  1.0000
  H   H1960     1.0  0.36722  0.74209  0.72874  1.0000
  H   H1961     1.0  0.50234  0.78097  0.56873  1.0000
  H   H1962     1.0  0.28069  0.67612  0.53996  1.0000
  H   H1963     1.0  0.02793  0.92936  0.70544  1.0000
  C   C1094     1.0  0.03454  0.67792  0.53571  1.0000
  S   S250      1.0  0.49801  0.92137  0.56866  1.0000
  H   H1964     1.0  0.44570  0.81511  0.49225  1.0000
  H   H1965     1.0  0.11689  0.67483  0.66867  1.0000
  H   H1966     1.0  0.01861  0.92276  0.73346  1.0000
  H   H1967     1.0  0.04219  0.91220  0.73064  1.0000
  H   H1968     1.0  0.10572  0.68124  0.64555  1.0000
  H   H1969     1.0  0.01662  0.97299  0.68985  1.0000
  H   H1970     1.0  0.07418  0.95557  0.73791  1.0000
  H   H1971     1.0  0.04041  0.96589  0.73774  1.0000
  C   C1095     1.0  0.00268  0.75972  0.69621  1.0000
  H   H1972     1.0  0.16819  0.69392  0.86463  1.0000
  H   H1973     1.0  0.16498  0.71781  0.94109  1.0000
  C   C1096     1.0  0.33668  0.78459  0.74772  1.0000
  H   H1974     1.0  0.49931  0.90253  0.93329  1.0000
  H   H1975     1.0  0.36604  0.68989  0.87230  1.0000
  C   C1097     1.0  0.41075  0.78454  0.79794  1.0000
  H   H1976     1.0  0.49362  0.83644  0.90318  1.0000
  H   H1977     1.0  0.34717  0.71294  0.95294  1.0000
  C   C1098     1.0  0.29686  0.71044  0.86893  1.0000
  H   H1978     1.0  0.18291  0.72986  0.96620  1.0000
  H   H1979     1.0  0.32108  0.70727  0.85033  1.0000
  N   N63       1.0  0.32037  0.68217  0.86944  1.0000
  H   H1980     1.0  0.11709  0.71123  0.92095  1.0000
  H   H1981     1.0  0.41795  0.87324  0.77465  1.0000
  H   H1982     1.0  0.46420  0.89540  0.98709  1.0000
  H   H1983     1.0  0.40335  0.71832  0.79011  1.0000
  C   C1099     1.0  0.41243  0.83062  0.74299  1.0000
  H   H1984     1.0  0.43001  0.82921  0.77915  1.0000
  N   N64       1.0  0.44065  0.87719  0.96875  1.0000
  C   C1100     1.0  0.03049  0.87456  0.77265  1.0000
  C   C1101     1.0  0.35257  0.75344  0.74754  1.0000
  H   H1985     1.0  0.44379  0.74249  0.93308  1.0000
  Fe  Fe123     1.0  0.31128  0.73058  0.79751  1.0000
  S   S251      1.0  0.30880  0.71343  0.82071  1.0000
  S   S252      1.0  0.27986  0.73191  0.79070  1.0000
  Fe  Fe124     1.0  0.36173  0.74361  0.78889  1.0000
  S   S253      1.0  0.36345  0.72700  0.81139  1.0000
  Fe  Fe125     1.0  0.33575  0.69978  0.81084  1.0000
  H   H1986     1.0  0.43250  0.80680  0.80595  1.0000
  Fe  Fe126     1.0  0.33650  0.74213  0.81936  1.0000
  S   S254      1.0  0.33432  0.75843  0.83763  1.0000
  S   S255      1.0  0.33636  0.71482  0.78765  1.0000
  S   S256      1.0  0.33673  0.76084  0.79691  1.0000
  S   S257      1.0  0.21305  0.71038  0.87848  1.0000
  Fe  Fe127     1.0  0.23448  0.70023  0.89286  1.0000
  S   S258      1.0  0.26166  0.72912  0.89279  1.0000
  Fe  Fe128     1.0  0.36645  0.75447  0.92117  1.0000
  S   S259      1.0  0.38081  0.73543  0.90686  1.0000
  S   S260      1.0  0.32924  0.74066  0.93149  1.0000
  Fe  Fe129     1.0  0.41260  0.78431  0.91906  1.0000
  S   S261      1.0  0.42971  0.76691  0.90433  1.0000
  S   S262      1.0  0.43439  0.81441  0.92340  1.0000
  Fe  Fe130     1.0  0.40292  0.76815  0.89280  1.0000
  S   S263      1.0  0.41174  0.77358  0.86825  1.0000
  Fe  Fe131     1.0  0.40592  0.73557  0.91956  1.0000
  S   S264      1.0  0.41764  0.70561  0.92736  1.0000
  S   S265      1.0  0.38704  0.78781  0.90619  1.0000
  S   S266      1.0  0.39041  0.75259  0.93516  1.0000
  C   C1102     1.0  0.28181  0.73005  0.90277  1.0000
  C   C1103     1.0  0.30003  0.74875  0.89818  1.0000
  C   C1104     1.0  0.31538  0.75144  0.90648  1.0000
  C   C1105     1.0  0.31218  0.73583  0.91977  1.0000
  C   C1106     1.0  0.29419  0.71686  0.92426  1.0000
  C   C1107     1.0  0.27940  0.71368  0.91557  1.0000
  H   H1987     1.0  0.30214  0.76141  0.88823  1.0000
  H   H1988     1.0  0.32916  0.76610  0.90289  1.0000
  H   H1989     1.0  0.29174  0.70457  0.93445  1.0000
  H   H1990     1.0  0.26588  0.69888  0.91897  1.0000
  C   C1108     1.0  0.38709  0.80029  0.76334  1.0000
  H   H1991     1.0  0.37238  0.79413  0.77250  1.0000
  H   H1992     1.0  0.38310  0.83314  0.75750  1.0000
  C   C1109     1.0  0.38920  0.76644  0.86097  1.0000
  C   C1110     1.0  0.36835  0.76883  0.86721  1.0000
  C   C1111     1.0  0.35146  0.76591  0.86010  1.0000
  C   C1112     1.0  0.35513  0.76004  0.84693  1.0000
  C   C1113     1.0  0.37556  0.75644  0.84113  1.0000
  C   C1114     1.0  0.39265  0.75993  0.84803  1.0000
  H   H1993     1.0  0.36549  0.77374  0.87723  1.0000
  H   H1994     1.0  0.33557  0.76842  0.86476  1.0000
  H   H1995     1.0  0.37845  0.75166  0.83109  1.0000
  H   H1996     1.0  0.40869  0.75783  0.84326  1.0000
  H   H1997     1.0  0.16546  0.70384  0.96639  1.0000
  C   C1115     1.0  0.39318  0.82235  0.75483  1.0000
  H   H1998     1.0  0.49360  0.92672  0.93792  1.0000
  H   H1999     1.0  0.02336  0.88227  0.75176  1.0000
  C   C1116     1.0  0.41221  0.82785  0.84539  1.0000
  H   H2000     1.0  0.29075  0.72509  0.84834  1.0000
  H   H2001     1.0  0.17203  0.71870  0.87053  1.0000
  H   H2002     1.0  0.38711  0.68592  0.81157  1.0000
  H   H2003     1.0  0.40608  0.85072  0.80074  1.0000
  H   H2004     1.0  0.47382  0.72302  0.93089  1.0000
  H   H2005     1.0  0.10452  0.93946  0.76503  1.0000
  H   H2006     1.0  0.44521  0.86947  0.77480  1.0000
  H   H2007     1.0  0.07246  0.91463  0.76198  1.0000
  C   C1117     1.0  0.01653  0.77833  0.97351  1.0000
  H   H2008     1.0  0.25434  0.77722  0.93897  1.0000
  H   H2009     1.0  0.28276  0.67566  0.76420  1.0000
  C   C1118     1.0  0.28173  0.69954  0.77650  1.0000
  C   C1119     1.0  0.26828  0.71001  0.78422  1.0000
  C   C1120     1.0  0.24528  0.70378  0.78613  1.0000
  C   C1121     1.0  0.23573  0.68726  0.78035  1.0000
  H   H2010     1.0  0.36406  0.71172  0.85781  1.0000
  H   H2011     1.0  0.29946  0.70426  0.77488  1.0000
  H   H2012     1.0  0.23484  0.71179  0.79206  1.0000
  C   C1122     1.0  0.24923  0.67730  0.77225  1.0000
  C   C1123     1.0  0.47626  0.83167  0.95502  1.0000
  C   C1124     1.0  0.47969  0.84614  0.94117  1.0000
  C   C1125     1.0  0.46669  0.84060  0.93177  1.0000
  C   C1126     1.0  0.45042  0.82028  0.93581  1.0000
  C   C1127     1.0  0.44734  0.80563  0.94952  1.0000
  C   C1128     1.0  0.46006  0.81133  0.95904  1.0000
  H   H2013     1.0  0.22997  0.70130  0.92836  1.0000
  H   H2014     1.0  0.46930  0.85216  0.92123  1.0000
  H   H2015     1.0  0.43460  0.79020  0.95303  1.0000
  H   H2016     1.0  0.06265  0.68603  0.91683  1.0000
  H   H2017     1.0  0.39800  0.81474  0.85341  1.0000
  H   H2018     1.0  0.10198  0.96222  0.75155  1.0000
  H   H2019     1.0  0.47483  0.77267  0.94529  1.0000
  Fe  Fe132     1.0  0.18433  0.68857  0.89727  1.0000
  H   H2020     1.0  0.01306  0.87093  0.77923  1.0000
  H   H2021     1.0  0.18108  0.74943  0.91619  1.0000
  C   C1129     1.0  0.01008  0.70528  0.94489  1.0000
  H   H2022     1.0  0.43179  0.83620  0.82313  1.0000
  H   H2023     1.0  0.45324  0.91082  0.94166  1.0000
  H   H2024     1.0  0.01090  0.90968  0.75987  1.0000
  C   C1130     1.0  0.01827  0.99155  0.86554  1.0000
  H   H2025     1.0  0.03903  0.97297  0.85646  1.0000
  H   H2026     1.0  0.45197  0.92291  0.96750  1.0000
  H   H2027     1.0  0.39898  0.70245  0.85089  1.0000
  N   N65       1.0  0.04174  0.93224  0.74579  1.0000
  H   H2028     1.0  0.01761  0.76513  0.96801  1.0000
  H   H2029     1.0  0.44514  0.84940  0.98401  1.0000
  C   C1131     1.0  0.14108  0.69273  0.92333  1.0000
  C   C1132     1.0  0.41422  0.83770  0.79867  1.0000
  H   H2030     1.0  0.42372  0.75992  0.78973  1.0000
  H   H2031     1.0  0.39408  0.85368  0.97312  1.0000
  H   H2032     1.0  0.42492  0.75931  0.80814  1.0000
  S   S267      1.0  0.39325  0.75863  0.77038  1.0000
  S   S268      1.0  0.49039  0.83861  0.96812  1.0000
  C   C1133     1.0  0.39876  0.82558  0.96601  1.0000
  H   H2033     1.0  0.46446  0.71658  0.90829  1.0000
  H   H2034     1.0  0.33226  0.71770  0.86300  1.0000
  H   H2035     1.0  0.37077  0.70536  0.94381  1.0000
  H   H2036     1.0  0.45704  0.80001  0.96973  1.0000
  H   H2037     1.0  0.40988  0.88384  0.97825  1.0000
  C   C1134     1.0  0.42010  0.92868  0.97367  1.0000
  H   H2038     1.0  0.28723  0.69891  0.87978  1.0000
  H   H2039     1.0  0.33466  0.67044  0.79029  1.0000
  H   H2040     1.0  0.05173  0.89299  0.75123  1.0000
  H   H2041     1.0  0.49375  0.72441  0.89886  1.0000
  C   C1135     1.0  0.03435  0.89043  0.75755  1.0000
  Fe  Fe133     1.0  0.03507  0.69747  0.97588  1.0000
  H   H2042     1.0  0.39371  0.77323  0.80195  1.0000
  C   C1136     1.0  0.03682  0.79790  0.96421  1.0000
  H   H2043     1.0  0.03903  0.81166  0.96920  1.0000
  H   H2044     1.0  0.36766  0.76378  0.74900  1.0000
  H   H2045     1.0  0.19781  0.69942  0.95709  1.0000
  H   H2046     1.0  0.42668  0.82901  0.85003  1.0000
  H   H2047     1.0  0.44438  0.78079  0.79264  1.0000
  C   C1137     1.0  0.03687  0.96070  0.76054  1.0000
  H   H2048     1.0  0.35239  0.79296  0.74963  1.0000
  H   H2049     1.0  0.21252  0.75785  0.94154  1.0000
  H   H2050     1.0  0.02236  0.99339  0.79447  1.0000
  H   H2051     1.0  0.31055  0.74104  0.75036  1.0000
  C   C1138     1.0  0.11868  0.67912  0.95342  1.0000
  H   H2052     1.0  0.04907  0.95182  0.82167  1.0000
  C   C1139     1.0  0.40672  0.84428  0.97246  1.0000
  H   H2053     1.0  0.01952  0.81306  0.94939  1.0000
  C   C1140     1.0  0.49049  0.82588  0.89588  1.0000
  H   H2054     1.0  0.41936  0.93466  0.96220  1.0000
  C   C1141     1.0  0.16387  0.70980  0.86375  1.0000
  C   C1142     1.0  0.20133  0.70284  0.94500  1.0000
  H   H2055     1.0  0.04933  0.82035  0.94220  1.0000
  H   H2056     1.0  0.26083  0.75149  0.94572  1.0000
  C   C1143     1.0  0.02904  0.91248  0.75864  1.0000
  S   S269      1.0  0.15441  0.70087  0.90442  1.0000
  H   H2057     1.0  0.38034  0.80448  0.79610  1.0000
  H   H2058     1.0  0.27872  0.74054  0.82817  1.0000
  H   H2059     1.0  0.40789  0.84379  0.84387  1.0000
  H   H2060     1.0  0.09713  0.69898  0.94753  1.0000
  Fe  Fe134     1.0  0.07041  0.67383  0.97979  1.0000
  Fe  Fe135     1.0  0.21401  0.67999  0.87129  1.0000
  H   H2061     1.0  0.34538  0.70880  0.88317  1.0000
  C   C1144     1.0  0.09912  0.94407  0.75491  1.0000
  C   C1145     1.0  0.48133  0.71742  0.90976  1.0000
  H   H2062     1.0  0.49214  0.86176  0.93779  1.0000
  H   H2063     1.0  0.44083  0.76782  0.93670  1.0000
  H   H2064     1.0  0.33135  0.79776  0.74097  1.0000
  C   C1146     1.0  0.39732  0.81856  0.82467  1.0000
  C   C1147     1.0  0.05650  0.96974  0.81651  1.0000
  C   C1148     1.0  0.44724  0.75341  0.94004  1.0000
  H   H2065     1.0  0.20485  0.77090  0.89137  1.0000
  H   H2066     1.0  0.44084  0.67324  0.92440  1.0000
  C   C1149     1.0  0.03905  0.98209  0.82004  1.0000
  H   H2067     1.0  0.49358  0.79479  0.89300  1.0000
  H   H2068     1.0  0.06244  0.97251  0.80448  1.0000
  C   C1150     1.0  0.22365  0.69720  0.94039  1.0000
  H   H2069     1.0  0.31759  0.70954  0.89056  1.0000
  H   H2070     1.0  0.48209  0.70040  0.91446  1.0000
  C   C1151     1.0  0.46412  0.89958  0.94220  1.0000
  H   H2071     1.0  0.07077  0.97522  0.82084  1.0000
  C   C1152     1.0  0.41333  0.68412  0.91895  1.0000
  C   C1153     1.0  0.47242  0.76064  0.93877  1.0000
  H   H2072     1.0  0.33048  0.82440  0.80589  1.0000
  H   H2073     1.0  0.43874  0.72540  0.95941  1.0000
  H   H2074     1.0  0.37087  0.83927  0.80058  1.0000
  H   H2075     1.0  0.33249  0.79687  0.81270  1.0000
  H   H2076     1.0  0.39018  0.83270  0.82523  1.0000
  H   H2077     1.0  0.19814  0.74177  0.89344  1.0000
  H   H2078     1.0  0.38013  0.70005  0.78741  1.0000
  H   H2079     1.0  0.06514  0.93747  0.76703  1.0000
  C   C1154     1.0  0.14889  0.72908  0.96679  1.0000
  H   H2080     1.0  0.26675  0.71594  0.86378  1.0000
  H   H2081     1.0  0.02195  0.69568  0.94556  1.0000
  C   C1155     1.0  0.41794  0.82240  0.83076  1.0000
  C   C1156     1.0  0.33876  0.68379  0.94559  1.0000
  H   H2082     1.0  0.03379  0.85884  0.77136  1.0000
  H   H2083     1.0  0.00994  0.81499  0.98444  1.0000
  C   C1157     1.0  0.27224  0.68339  0.77041  1.0000
  H   H2084     1.0  0.46462  0.78734  0.91593  1.0000
  C   C1158     1.0  0.34144  0.81328  0.80486  1.0000
  C   C1159     1.0  0.03444  0.80672  0.94882  1.0000
  H   H2085     1.0  0.38465  0.69032  0.91230  1.0000
  H   H2086     1.0  0.36872  0.71904  0.75960  1.0000
  H   H2087     1.0  0.34367  0.68194  0.90629  1.0000
  C   C1160     1.0  0.42921  0.86267  0.77262  1.0000
  H   H2088     1.0  0.17703  0.74535  0.94059  1.0000
  H   H2089     1.0  0.47652  0.74593  0.94466  1.0000
  H   H2090     1.0  0.42946  0.78384  0.74540  1.0000
  S   S270      1.0  0.22286  0.67994  0.84755  1.0000
  C   C1161     1.0  0.48474  0.75506  0.91392  1.0000
  H   H2091     1.0  0.42677  0.94316  0.97732  1.0000
  C   C1162     1.0  0.43521  0.91329  0.97460  1.0000
  C   C1163     1.0  0.03833  0.98885  0.85803  1.0000
  C   C1164     1.0  0.48768  0.91308  0.93330  1.0000
  H   H2092     1.0  0.44085  0.84879  0.96063  1.0000
  H   H2093     1.0  0.15223  0.74725  0.96300  1.0000
  C   C1165     1.0  0.39731  0.70191  0.78848  1.0000
  H   H2094     1.0  0.43665  0.75110  0.96335  1.0000
  H   H2095     1.0  0.16211  0.67237  0.92933  1.0000
  C   C1166     1.0  0.37566  0.72592  0.74754  1.0000
  C   C1167     1.0  0.03281  0.95158  0.74764  1.0000
  H   H2096     1.0  0.42176  0.89796  0.95950  1.0000
  H   H2097     1.0  0.35535  0.69010  0.96239  1.0000
  H   H2098     1.0  0.43261  0.86298  0.76087  1.0000
  H   H2099     1.0  0.43091  0.84296  0.80038  1.0000
  H   H2100     1.0  0.40277  0.83321  0.77942  1.0000
  H   H2101     1.0  0.41273  0.79453  0.78670  1.0000
  H   H2102     1.0  0.41594  0.73630  0.95650  1.0000
  S   S271      1.0  0.20558  0.68023  0.91204  1.0000
  H   H2103     1.0  0.27701  0.69604  0.85590  1.0000
  C   C1168     1.0  0.11144  0.69334  0.94358  1.0000
  H   H2104     1.0  0.41019  0.78658  0.81941  1.0000
  C   C1169     1.0  0.34156  0.67894  0.86094  1.0000
  H   H2105     1.0  0.47271  0.82261  0.89593  1.0000
  C   C1170     1.0  0.41926  0.79455  0.74805  1.0000
  C   C1171     1.0  0.42972  0.85948  0.96274  1.0000
  H   H2106     1.0  0.39834  0.83215  0.95451  1.0000
  H   H2107     1.0  0.33775  0.69400  0.93505  1.0000
  H   H2108     1.0  0.10935  0.93908  0.74614  1.0000
  H   H2109     1.0  0.38193  0.69523  0.83921  1.0000
  N   N66       1.0  0.20563  0.74022  0.82474  1.0000
  C   C1172     1.0  0.19406  0.75776  0.82051  1.0000
  C   C1173     1.0  0.19632  0.72822  0.84093  1.0000
  C   C1174     1.0  0.22988  0.75176  0.82204  1.0000
  C   C1175     1.0  0.20436  0.72437  0.81550  1.0000
  C   C1176     1.0  0.18084  0.71186  0.81562  1.0000
  C   C1177     1.0  0.20185  0.77145  0.80416  1.0000
  C   C1178     1.0  0.24460  0.73730  0.82757  1.0000
  C   C1179     1.0  0.17099  0.72382  0.84780  1.0000
  H   H2110     1.0  0.31516  0.68184  0.91379  1.0000
  C   C1180     1.0  0.18158  0.70272  0.80238  1.0000
  C   C1181     1.0  0.18825  0.78792  0.80120  1.0000
  C   C1182     1.0  0.26837  0.75128  0.82460  1.0000
  H   H2111     1.0  0.19599  0.76942  0.82732  1.0000
  H   H2112     1.0  0.17590  0.75072  0.82301  1.0000
  H   H2113     1.0  0.20030  0.71213  0.84325  1.0000
  H   H2114     1.0  0.20446  0.73760  0.84757  1.0000
  H   H2115     1.0  0.23148  0.76553  0.82721  1.0000
  H   H2116     1.0  0.23799  0.75925  0.81011  1.0000
  H   H2117     1.0  0.21417  0.73291  0.80395  1.0000
  H   H2118     1.0  0.21259  0.71142  0.81908  1.0000
  H   H2119     1.0  0.16923  0.72229  0.81531  1.0000
  H   H2120     1.0  0.17387  0.69773  0.82567  1.0000
  H   H2121     1.0  0.21951  0.78101  0.80103  1.0000
  H   H2122     1.0  0.19977  0.76066  0.79687  1.0000
  H   H2123     1.0  0.24540  0.72430  0.82188  1.0000
  H   H2124     1.0  0.23832  0.72932  0.83956  1.0000
  H   H2125     1.0  0.16669  0.73956  0.84784  1.0000
  H   H2126     1.0  0.16100  0.71522  0.84177  1.0000
  H   H2127     1.0  0.40728  0.83669  0.98374  1.0000
  C   C1183     1.0  0.42699  0.77031  0.79711  1.0000
  C   C1184     1.0  0.07451  0.93255  0.75794  1.0000
  H   H2128     1.0  0.19399  0.69313  0.80142  1.0000
  H   H2129     1.0  0.16507  0.69164  0.80364  1.0000
  H   H2130     1.0  0.18598  0.71630  0.79212  1.0000
  H   H2131     1.0  0.19424  0.79761  0.78947  1.0000
  H   H2132     1.0  0.17041  0.77921  0.80359  1.0000
  H   H2133     1.0  0.19005  0.79947  0.80803  1.0000
  H   H2134     1.0  0.40993  0.81458  0.96618  1.0000
  H   H2135     1.0  0.27573  0.75960  0.81269  1.0000
  H   H2136     1.0  0.26881  0.76375  0.83080  1.0000
  H   H2137     1.0  0.01893  0.91439  0.89454  1.0000
  C   C1185     1.0  0.32894  0.69873  0.89046  1.0000
  C   C1186     1.0  0.40019  0.78636  0.75999  1.0000
  C   C1187     1.0  0.35394  0.69884  0.95161  1.0000
  H   H2138     1.0  0.14562  0.70624  0.86825  1.0000
  H   H2139     1.0  0.02479  0.97541  0.81618  1.0000
  H   H2140     1.0  0.03322  0.97836  0.83214  1.0000
  C   C1188     1.0  0.31858  0.70471  0.86236  1.0000
  H   H2141     1.0  0.04172  0.88163  0.77867  1.0000
  C   C1189     1.0  0.31808  0.75418  0.73973  1.0000
  N   N67       1.0  0.40127  0.81567  0.80938  1.0000
  H   H2142     1.0  0.42399  0.80743  0.83276  1.0000
  C   C1190     1.0  0.05054  0.75689  0.98744  1.0000
  H   H2143     1.0  0.34488  0.81180  0.79349  1.0000
  H   H2144     1.0  0.42704  0.86675  0.95198  1.0000
  C   C1191     1.0  0.36304  0.82264  0.80833  1.0000
  H   H2145     1.0  0.00516  0.99491  0.82861  1.0000
  C   C1192     1.0  0.33137  0.69173  0.90596  1.0000
  H   H2146     1.0  0.36995  0.79118  0.81503  1.0000
  C   C1193     1.0  0.37880  0.80752  0.80700  1.0000
  H   H2147     1.0  0.35841  0.82413  0.81966  1.0000
  C   C1194     1.0  0.28194  0.71181  0.85859  1.0000
  S   S272      1.0  0.02893  0.72717  0.96229  1.0000
  C   C1195     1.0  0.41842  0.83901  0.78220  1.0000
  C   C1196     1.0  0.43392  0.74082  0.95582  1.0000
  H   H2148     1.0  0.01038  0.87493  0.90711  1.0000
  H   H2149     1.0  0.46858  0.75390  0.91121  1.0000
  H   H2150     1.0  0.02352  0.82625  0.91621  1.0000
  H   H2151     1.0  0.03113  0.91537  0.76914  1.0000
  H   H2152     1.0  0.33719  0.70658  0.90944  1.0000
  H   H2153     1.0  0.18809  0.69067  0.94296  1.0000
  H   H2154     1.0  0.48300  0.80233  0.92379  1.0000
  C   C1197     1.0  0.31937  0.67839  0.88551  1.0000
  C   C1198     1.0  0.41439  0.79882  0.80855  1.0000
  H   H2155     1.0  0.24746  0.73757  0.92648  1.0000
  N   N68       1.0  0.48774  0.77037  0.92342  1.0000
  C   C1199     1.0  0.12276  0.70027  0.92856  1.0000
  H   H2156     1.0  0.22522  0.67172  0.81965  1.0000
  H   H2157     1.0  0.13537  0.72130  0.96254  1.0000
  H   H2158     1.0  0.01458  0.94733  0.74882  1.0000
  C   C1200     1.0  0.35921  0.73557  0.74067  1.0000
  C   C1201     1.0  0.49646  0.80431  0.90091  1.0000
  H   H2159     1.0  0.30141  0.72693  0.87080  1.0000
  C   C1202     1.0  0.44276  0.86610  0.98367  1.0000
  H   H2160     1.0  0.22553  0.75627  0.89362  1.0000
  C   C1203     1.0  0.31922  0.77583  0.76293  1.0000
  H   H2161     1.0  0.23626  0.70635  0.94470  1.0000
  C   C1204     1.0  0.31788  0.79420  0.77031  1.0000
  H   H2162     1.0  0.05229  0.79248  0.96293  1.0000
  H   H2163     1.0  0.45892  0.88688  0.93669  1.0000
  H   H2164     1.0  0.34226  0.74450  0.75887  1.0000
  H   H2165     1.0  0.38471  0.80387  0.83271  1.0000
  C   C1205     1.0  0.48200  0.79107  0.91666  1.0000
  H   H2166     1.0  0.32346  0.76269  0.77031  1.0000
  H   H2167     1.0  0.30235  0.76904  0.76196  1.0000
  H   H2168     1.0  0.24121  0.76264  0.91963  1.0000
  H   H2169     1.0  0.20747  0.76506  0.91669  1.0000
  H   H2170     1.0  0.02951  0.94797  0.77123  1.0000
  H   H2171     1.0  0.33427  0.80149  0.77180  1.0000
  H   H2172     1.0  0.31247  0.80729  0.76363  1.0000
  H   H2173     1.0  0.30560  0.78735  0.78127  1.0000
  N   N69       1.0  0.20065  0.72594  0.93806  1.0000
  C   C1206     1.0  0.20308  0.72905  0.92188  1.0000
  C   C1207     1.0  0.36360  0.69413  0.86115  1.0000
  C   C1208     1.0  0.17783  0.72814  0.94469  1.0000
  C   C1209     1.0  0.21806  0.74277  0.94106  1.0000
  C   C1210     1.0  0.24150  0.75097  0.92981  1.0000
  C   C1211     1.0  0.19916  0.75070  0.91357  1.0000
  C   C1212     1.0  0.16988  0.72198  0.96167  1.0000
  C   C1213     1.0  0.01003  0.72170  0.95211  1.0000
  H   H2174     1.0  0.27528  0.76888  0.92752  1.0000
  C   C1214     1.0  0.25895  0.76289  0.93596  1.0000
  C   C1215     1.0  0.20750  0.75514  0.89698  1.0000
  H   H2175     1.0  0.22010  0.73626  0.95216  1.0000
  H   H2176     1.0  0.19089  0.71544  0.92024  1.0000
  H   H2177     1.0  0.21955  0.72791  0.91610  1.0000
  H   H2178     1.0  0.47250  0.90170  0.96218  1.0000
  C   C1216     1.0  0.39575  0.67986  0.91258  1.0000
  H   H2179     1.0  0.21799  0.68268  0.78177  1.0000
  H   H2180     1.0  0.03293  0.79350  0.94321  1.0000
  H   H2181     1.0  0.40828  0.70124  0.77815  1.0000
  C   C1217     1.0  0.42537  0.81660  0.73956  1.0000
  S   S273      1.0  0.00826  0.92956  0.84725  1.0000
  C   C1218     1.0  0.46338  0.88871  0.95828  1.0000
  H   H2182     1.0  0.38177  0.81566  0.97262  1.0000
  H   H2183     1.0  0.38465  0.67408  0.85393  1.0000
  H   H2184     1.0  0.05493  0.96726  0.75894  1.0000
  C   C1219     1.0  0.42608  0.89260  0.96998  1.0000
  H   H2185     1.0  0.47369  0.87685  0.95800  1.0000
  C   C1220     1.0  0.02676  0.97995  0.76125  1.0000
  C   C1221     1.0  0.48612  0.73136  0.92008  1.0000
  H   H2186     1.0  0.26715  0.67146  0.81006  1.0000
  C   C1222     1.0  0.13730  0.67201  0.94825  1.0000
  C   C1223     1.0  0.39768  0.68392  0.80154  1.0000
  H   H2187     1.0  0.48786  0.92029  0.92178  1.0000
  C   C1224     1.0  0.38347  0.69123  0.85060  1.0000
  H   H2188     1.0  0.32172  0.67855  0.95302  1.0000
  H   H2189     1.0  0.14308  0.72373  0.97896  1.0000
  H   H2190     1.0  0.47813  0.87569  0.98240  1.0000
  H   H2191     1.0  0.43381  0.67193  0.78594  1.0000
  H   H2192     1.0  0.06432  0.68563  0.93510  1.0000
  H   H2193     1.0  0.34141  0.68071  0.84928  1.0000
  S   S274      1.0  0.23795  0.67161  0.88398  1.0000
  H   H2194     1.0  0.41492  0.68654  0.80252  1.0000
  H   H2195     1.0  0.05109  0.75753  0.97588  1.0000
  H   H2196     1.0  0.02992  0.98601  0.77061  1.0000
  H   H2197     1.0  0.01308  0.80828  0.90604  1.0000
  H   H2198     1.0  0.50079  0.83494  0.88454  1.0000
  C   C1225     1.0  0.05962  0.67514  0.92805  1.0000
  H   H2199     1.0  0.00857  0.97479  0.76285  1.0000
  H   H2200     1.0  0.03441  0.99372  0.75104  1.0000
  N   N70       1.0  0.34051  0.76770  0.73962  1.0000
  H   H2201     1.0  0.39150  0.73877  0.74517  1.0000
  H   H2202     1.0  0.30188  0.67146  0.89246  1.0000
  H   H2203     1.0  0.34422  0.72182  0.74275  1.0000
  H   H2204     1.0  0.29219  0.71286  0.74019  1.0000
  C   C1226     1.0  0.14832  0.67861  0.93323  1.0000
  H   H2205     1.0  0.08367  0.75240  0.98475  1.0000
  C   C1227     1.0  0.06655  0.93779  0.74383  1.0000
  C   C1228     1.0  0.00844  0.81482  0.91556  1.0000
  H   H2206     1.0  0.43572  0.90847  0.98618  1.0000
  H   H2207     1.0  0.40305  0.92013  0.98087  1.0000
  H   H2208     1.0  0.37931  0.71249  0.74288  1.0000
  H   H2209     1.0  0.08292  0.78070  0.98147  1.0000
  H   H2210     1.0  0.49746  0.76186  0.90313  1.0000
  H   H2211     1.0  0.30629  0.76461  0.73911  1.0000
  S   S275      1.0  0.06376  0.70382  0.98554  1.0000
  C   C1229     1.0  0.22130  0.67270  0.94668  1.0000
  C   C1230     1.0  0.01120  0.00351  0.79770  1.0000
  C   C1231     1.0  0.42738  0.67025  0.91939  1.0000
  Fe  Fe136     1.0  0.65477  0.22859  0.18453  1.0000
  S   S276      1.0  0.66929  0.24571  0.16046  1.0000
  S   S277      1.0  0.66135  0.19682  0.19538  1.0000
  Fe  Fe137     1.0  0.63010  0.26225  0.18962  1.0000
  S   S278      1.0  0.64205  0.28199  0.16616  1.0000
  S   S279      1.0  0.60648  0.27392  0.20457  1.0000
  Fe  Fe138     1.0  0.63521  0.24967  0.16105  1.0000
  S   S280      1.0  0.61558  0.24459  0.14484  1.0000
  Fe  Fe139     1.0  0.67515  0.27683  0.16745  1.0000
  S   S281      1.0  0.70588  0.30474  0.15509  1.0000
  S   S282      1.0  0.62017  0.23024  0.18455  1.0000
  S   S283      1.0  0.66374  0.25940  0.19156  1.0000
  H   H2212     1.0  0.92306  0.00579  0.14786  1.0000
  S   S284      1.0  0.53873  0.29827  0.16934  1.0000
  H   H2213     1.0  0.66078  0.10247  0.99917  1.0000
  S   S285      1.0  0.53070  0.28210  0.02704  1.0000
  Fe  Fe140     1.0  0.63820  0.21179  0.07528  1.0000
  S   S286      1.0  0.65976  0.21831  0.05254  1.0000
  S   S287      1.0  0.65433  0.20633  0.09377  1.0000
  Fe  Fe141     1.0  0.59856  0.21794  0.06399  1.0000
  S   S288      1.0  0.61730  0.22484  0.04033  1.0000
  S   S289      1.0  0.56308  0.21858  0.07218  1.0000
  Fe  Fe142     1.0  0.63061  0.19636  0.04875  1.0000
  S   S290      1.0  0.63725  0.16804  0.03976  1.0000
  Fe  Fe143     1.0  0.64440  0.24604  0.04656  1.0000
  S   S291      1.0  0.66562  0.28036  0.03316  1.0000
  S   S292      1.0  0.60994  0.18807  0.07209  1.0000
  S   S293      1.0  0.62476  0.24082  0.06962  1.0000
  C   C1232     1.0  0.66921  0.30006  0.12699  1.0000
  H   H2214     1.0  0.70818  0.23590  0.05460  1.0000
  C   C1233     1.0  0.79958  0.03770  0.21246  1.0000
  H   H2215     1.0  0.57100  0.22112  0.21095  1.0000
  H   H2216     1.0  0.72549  0.28712  0.11364  1.0000
  H   H2217     1.0  0.72275  0.31647  0.08751  1.0000
  H   H2218     1.0  0.59256  0.29444  0.06659  1.0000
  H   H2219     1.0  0.98810  0.10923  0.14335  1.0000
  H   H2220     1.0  0.62480  0.28461  0.00084  1.0000
  H   H2221     1.0  0.71619  0.08210  0.01568  1.0000
  S   S294      1.0  0.95868  0.06668  0.11962  1.0000
  Fe  Fe144     1.0  0.58928  0.07992  0.00377  1.0000
  S   S295      1.0  0.61700  0.06902  0.01112  1.0000
  S   S296      1.0  0.58126  0.11119  0.00765  1.0000
  C   C1234     1.0  0.99896  0.08630  0.22863  1.0000
  H   H2222     1.0  0.93910  0.02601  0.15452  1.0000
  C   C1235     1.0  0.67465  0.18761  0.00256  1.0000
  Fe  Fe145     1.0  0.59506  0.03486  0.01620  1.0000
  C   C1236     1.0  0.72343  0.08264  0.00411  1.0000
  H   H2223     1.0  0.51048  0.29696  0.14972  1.0000
  S   S297      1.0  0.56594  0.04564  0.01078  1.0000
  C   C1237     1.0  0.59808  0.15907  0.21385  1.0000
  H   H2224     1.0  0.58240  0.15730  0.21118  1.0000
  H   H2225     1.0  0.90492  0.03956  0.15202  1.0000
  H   H2226     1.0  0.63180  0.04091  0.03083  1.0000
  H   H2227     1.0  0.64611  0.31270  0.13981  1.0000
  H   H2228     1.0  0.69301  0.11442  0.01094  1.0000
  H   H2229     1.0  0.96604  0.10022  0.13555  1.0000
  C   C1238     1.0  0.52947  0.16593  0.06659  1.0000
  H   H2230     1.0  0.63362  0.14209  0.99043  1.0000
  H   H2231     1.0  0.68226  0.18276  0.01162  1.0000
  H   H2232     1.0  0.98750  0.14828  0.13371  1.0000
  C   C1239     1.0  0.92004  0.04158  0.11730  1.0000
  C   C1240     1.0  0.94322  0.04550  0.11411  1.0000
  C   C1241     1.0  0.95356  0.03285  0.10641  1.0000
  C   C1242     1.0  0.57039  0.20381  0.21583  1.0000
  H   H2233     1.0  0.51348  0.19093  0.05722  1.0000
  H   H2234     1.0  0.91191  0.05129  0.12321  1.0000
  H   H2235     1.0  0.97139  0.03567  0.10394  1.0000
  H   H2236     1.0  0.54149  0.14833  0.02573  1.0000
  C   C1243     1.0  0.62063  0.15239  0.03131  1.0000
  C   C1244     1.0  0.61005  0.16208  0.02148  1.0000
  C   C1245     1.0  0.59800  0.14927  0.01433  1.0000
  C   C1246     1.0  0.59671  0.12677  0.01676  1.0000
  C   C1247     1.0  0.60763  0.11719  0.02639  1.0000
  C   C1248     1.0  0.61969  0.12999  0.03352  1.0000
  H   H2237     1.0  0.61176  0.17955  0.01908  1.0000
  H   H2238     1.0  0.58996  0.15688  0.00666  1.0000
  H   H2239     1.0  0.60662  0.09986  0.02848  1.0000
  H   H2240     1.0  0.62816  0.12245  0.04092  1.0000
  C   C1249     1.0  0.53864  0.26368  0.03973  1.0000
  C   C1250     1.0  0.52840  0.25813  0.05478  1.0000
  C   C1251     1.0  0.53565  0.24386  0.06471  1.0000
  C   C1252     1.0  0.55369  0.23587  0.05965  1.0000
  C   C1253     1.0  0.56390  0.24156  0.04461  1.0000
  C   C1254     1.0  0.55609  0.25504  0.03466  1.0000
  C   C1255     1.0  0.50897  0.17497  0.06578  1.0000
  H   H2241     1.0  0.81275  0.01489  0.22521  1.0000
  H   H2242     1.0  0.57758  0.23530  0.04060  1.0000
  H   H2243     1.0  0.56391  0.25923  0.02302  1.0000
  H   H2244     1.0  0.65715  0.17317  0.98912  1.0000
  C   C1256     1.0  0.66416  0.30204  0.04128  1.0000
  C   C1257     1.0  0.64583  0.30020  0.05272  1.0000
  H   H2245     1.0  0.51566  0.26215  0.13329  1.0000
  H   H2246     1.0  0.63166  0.28602  0.05605  1.0000
  C   C1258     1.0  0.63751  0.17702  0.20747  1.0000
  H   H2247     1.0  0.59504  0.14359  0.06685  1.0000
  H   H2248     1.0  0.69600  0.32291  0.02753  1.0000
  H   H2249     1.0  0.72084  0.09710  0.99678  1.0000
  C   C1259     1.0  0.61700  0.17508  0.20435  1.0000
  C   C1260     1.0  0.96995  0.01125  0.22170  1.0000
  C   C1261     1.0  0.70823  0.30252  0.07181  1.0000
  H   H2250     1.0  0.61582  0.18558  0.19443  1.0000
  C   C1262     1.0  0.62604  0.23257  0.13136  1.0000
  C   C1263     1.0  0.61276  0.22604  0.12253  1.0000
  C   C1264     1.0  0.62124  0.21775  0.11101  1.0000
  C   C1265     1.0  0.64274  0.21518  0.10868  1.0000
  C   C1266     1.0  0.65554  0.22050  0.11804  1.0000
  C   C1267     1.0  0.64738  0.22960  0.12918  1.0000
  H   H2251     1.0  0.59611  0.22796  0.12439  1.0000
  H   H2252     1.0  0.61118  0.21336  0.10393  1.0000
  H   H2253     1.0  0.67205  0.21818  0.11638  1.0000
  H   H2254     1.0  0.65767  0.23450  0.13596  1.0000
  C   C1268     1.0  0.66571  0.16767  0.99749  1.0000
  C   C1269     1.0  0.62286  0.29866  0.01936  1.0000
  H   H2255     1.0  0.90702  0.10853  0.16624  1.0000
  H   H2256     1.0  0.63556  0.27147  0.01503  1.0000
  C   C1270     1.0  0.66291  0.09473  0.02680  1.0000
  C   C1271     1.0  0.58712  0.28039  0.19520  1.0000
  C   C1272     1.0  0.57937  0.29883  0.19607  1.0000
  C   C1273     1.0  0.56452  0.30447  0.18811  1.0000
  C   C1274     1.0  0.55715  0.29146  0.17947  1.0000
  C   C1275     1.0  0.56451  0.27272  0.17890  1.0000
  C   C1276     1.0  0.57974  0.26739  0.18657  1.0000
  H   H2257     1.0  0.58535  0.30906  0.20257  1.0000
  C   C1277     1.0  0.93966  0.01264  0.14917  1.0000
  H   H2258     1.0  0.92546  0.12765  0.17203  1.0000
  H   H2259     1.0  0.58568  0.25316  0.18582  1.0000
  H   H2260     1.0  0.90309  0.10890  0.19838  1.0000
  C   C1278     1.0  0.71215  0.06145  0.00121  1.0000
  H   H2261     1.0  0.53005  0.10975  0.02608  1.0000
  H   H2262     1.0  0.56433  0.33498  0.21405  1.0000
  Fe  Fe146     1.0  0.88222  0.01336  0.21037  1.0000
  H   H2263     1.0  0.55062  0.19823  0.04518  1.0000
  C   C1279     1.0  0.55433  0.18971  0.20983  1.0000
  N   N71       1.0  0.54206  0.16263  0.05257  1.0000
  H   H2264     1.0  0.66764  0.27857  0.07158  1.0000
  H   H2265     1.0  0.75400  0.00450  0.00242  1.0000
  C   C1280     1.0  0.63598  0.21290  0.22879  1.0000
  H   H2266     1.0  0.66323  0.28844  0.10132  1.0000
  H   H2267     1.0  0.66305  0.07998  0.02277  1.0000
  H   H2268     1.0  0.55200  0.33641  0.07809  1.0000
  C   C1281     1.0  0.54864  0.32330  0.22156  1.0000
  H   H2269     1.0  0.55326  0.13126  0.03765  1.0000
  H   H2270     1.0  0.60322  0.22932  0.22220  1.0000
  H   H2271     1.0  0.88775  0.12116  0.18683  1.0000
  H   H2272     1.0  0.97298  0.05460  0.19151  1.0000
  H   H2273     1.0  0.53350  0.18502  0.03581  1.0000
  H   H2274     1.0  0.58435  0.28600  0.04413  1.0000
  H   H2275     1.0  0.96575  0.13886  0.12550  1.0000
  H   H2276     1.0  0.68650  0.02513  0.00060  1.0000
  H   H2277     1.0  0.95139  0.01980  0.13808  1.0000
  H   H2278     1.0  0.89384  0.06249  0.14604  1.0000
  H   H2279     1.0  0.95711  0.02751  0.19264  1.0000
  H   H2280     1.0  0.59390  0.03852  0.23547  1.0000
  H   H2281     1.0  0.66431  0.30614  0.08392  1.0000
  S   S298      1.0  0.99533  0.05156  0.14426  1.0000
  H   H2282     1.0  0.88360  0.09184  0.19173  1.0000
  C   C1282     1.0  0.59878  0.32181  0.03888  1.0000
  H   H2283     1.0  0.73625  0.28605  0.08750  1.0000
  N   N72       1.0  0.55866  0.29315  0.11466  1.0000
  C   C1283     1.0  0.55544  0.26966  0.11393  1.0000
  C   C1284     1.0  0.53764  0.29580  0.12393  1.0000
  C   C1285     1.0  0.56298  0.30752  0.09920  1.0000
  C   C1286     1.0  0.57836  0.30077  0.12019  1.0000
  C   C1287     1.0  0.57799  0.28731  0.13556  1.0000
  C   C1288     1.0  0.57591  0.26408  0.10538  1.0000
  H   H2284     1.0  0.54956  0.32143  0.23303  1.0000
  H   H2285     1.0  0.65355  0.15522  0.00709  1.0000
  C   C1289     1.0  0.60004  0.29499  0.13898  1.0000
  C   C1290     1.0  0.56960  0.24082  0.10379  1.0000
  Fe  Fe147     1.0  0.91060  0.04494  0.22255  1.0000
  H   H2286     1.0  0.54142  0.26514  0.10909  1.0000
  H   H2287     1.0  0.55049  0.25793  0.12503  1.0000
  H   H2288     1.0  0.54156  0.31049  0.12806  1.0000
  C   C1291     1.0  0.60492  0.31023  0.01590  1.0000
  H   H2289     1.0  0.54972  0.30101  0.09424  1.0000
  H   H2290     1.0  0.57894  0.30729  0.09209  1.0000
  H   H2291     1.0  0.59402  0.30142  0.11226  1.0000
  H   H2292     1.0  0.58002  0.31793  0.12085  1.0000
  H   H2293     1.0  0.57500  0.26949  0.13655  1.0000
  H   H2294     1.0  0.56503  0.28994  0.14401  1.0000
  H   H2295     1.0  0.58328  0.27528  0.09417  1.0000
  H   H2296     1.0  0.58878  0.26491  0.11143  1.0000
  H   H2297     1.0  0.72513  0.30330  0.06532  1.0000
  H   H2298     1.0  0.57112  0.30895  0.06759  1.0000
  H   H2299     1.0  0.89427  0.07121  0.17005  1.0000
  C   C1292     1.0  0.70328  0.32263  0.17852  1.0000
  H   H2300     1.0  0.61378  0.29233  0.13103  1.0000
  H   H2301     1.0  0.60348  0.31264  0.13865  1.0000
  H   H2302     1.0  0.59926  0.28534  0.15016  1.0000
  H   H2303     1.0  0.58453  0.23710  0.09778  1.0000
  H   H2304     1.0  0.56272  0.22848  0.11471  1.0000
  H   H2305     1.0  0.55711  0.23935  0.09744  1.0000
  C   C1293     1.0  0.58018  0.30035  0.04727  1.0000
  H   H2306     1.0  0.60603  0.26651  0.01800  1.0000
  H   H2307     1.0  0.76299  0.00468  0.04076  1.0000
  C   C1294     1.0  0.75121  0.03529  0.98918  1.0000
  H   H2308     1.0  0.54711  0.30715  0.21919  1.0000
  C   C1295     1.0  0.71235  0.25353  0.04839  1.0000
  C   C1296     1.0  0.57013  0.20844  0.01506  1.0000
  H   H2309     1.0  0.54661  0.12261  0.06825  1.0000
  C   C1297     1.0  0.72360  0.27190  0.09586  1.0000
  H   H2310     1.0  0.71533  0.04743  0.00856  1.0000
  H   H2311     1.0  0.63853  0.21835  0.21675  1.0000
  H   H2312     1.0  0.96987  0.02882  0.21851  1.0000
  H   H2313     1.0  0.60921  0.31606  0.00375  1.0000
  H   H2314     1.0  0.67620  0.12987  0.01920  1.0000
  H   H2315     1.0  0.74152  0.08438  0.00232  1.0000
  Fe  Fe148     1.0  0.99333  0.06713  0.12175  1.0000
  C   C1298     1.0  0.68191  0.32119  0.03655  1.0000
  C   C1299     1.0  0.69928  0.26583  0.05714  1.0000
  H   H2316     1.0  0.55863  0.31872  0.18880  1.0000
  C   C1300     1.0  0.58090  0.12964  0.06776  1.0000
  C   C1301     1.0  0.98484  0.08130  0.21989  1.0000
  H   H2317     1.0  0.51097  0.19135  0.08294  1.0000
  N   N73       1.0  0.63464  0.15915  0.16447  1.0000
  C   C1302     1.0  0.65222  0.18085  0.15997  1.0000
  C   C1303     1.0  0.61162  0.16252  0.16861  1.0000
  C   C1304     1.0  0.63813  0.14481  0.17790  1.0000
  C   C1305     1.0  0.63664  0.14740  0.15269  1.0000
  C   C1306     1.0  0.63546  0.16016  0.13752  1.0000
  C   C1307     1.0  0.67669  0.17986  0.15545  1.0000
  C   C1308     1.0  0.61984  0.12283  0.18588  1.0000
  C   C1309     1.0  0.60808  0.18447  0.16046  1.0000
  C   C1310     1.0  0.58355  0.18406  0.16431  1.0000
  C   C1311     1.0  0.64062  0.14783  0.12608  1.0000
  C   C1312     1.0  0.69279  0.20277  0.15102  1.0000
  C   C1313     1.0  0.62447  0.11095  0.19990  1.0000
  H   H2318     1.0  0.65039  0.18879  0.16906  1.0000
  H   H2319     1.0  0.65004  0.19271  0.15061  1.0000
  H   H2320     1.0  0.59903  0.14874  0.16746  1.0000
  H   H2321     1.0  0.60665  0.16199  0.18039  1.0000
  H   H2322     1.0  0.63986  0.15416  0.18609  1.0000
  H   H2323     1.0  0.65393  0.14015  0.17510  1.0000
  H   H2324     1.0  0.65229  0.14219  0.15114  1.0000
  H   H2325     1.0  0.62316  0.13182  0.15615  1.0000
  H   H2326     1.0  0.64759  0.17656  0.13338  1.0000
  H   H2327     1.0  0.61848  0.16203  0.13817  1.0000
  H   H2328     1.0  0.68103  0.16973  0.16465  1.0000
  H   H2329     1.0  0.67970  0.17305  0.14593  1.0000
  H   H2330     1.0  0.61928  0.11165  0.17875  1.0000
  H   H2331     1.0  0.60313  0.12550  0.18913  1.0000
  H   H2332     1.0  0.61717  0.19834  0.16374  1.0000
  H   H2333     1.0  0.61406  0.18803  0.14843  1.0000
  H   H2334     1.0  0.57376  0.17109  0.16065  1.0000
  H   H2335     1.0  0.57690  0.18102  0.17631  1.0000
  H   H2336     1.0  0.58162  0.20019  0.15868  1.0000
  H   H2337     1.0  0.63929  0.15726  0.11539  1.0000
  H   H2338     1.0  0.65780  0.14608  0.12452  1.0000
  H   H2339     1.0  0.62866  0.13130  0.12941  1.0000
  H   H2340     1.0  0.71009  0.20172  0.14727  1.0000
  H   H2341     1.0  0.68921  0.21405  0.14194  1.0000
  H   H2342     1.0  0.69158  0.20961  0.16058  1.0000
  H   H2343     1.0  0.62452  0.12128  0.20762  1.0000
  H   H2344     1.0  0.61127  0.09530  0.20542  1.0000
  H   H2345     1.0  0.64075  0.10713  0.19736  1.0000
  C   C1314     1.0  0.71176  0.31995  0.08039  1.0000
  H   H2346     1.0  0.66260  0.25730  0.08794  1.0000
  H   H2347     1.0  0.57859  0.11648  0.07792  1.0000
  H   H2348     1.0  0.57326  0.15472  0.04530  1.0000
  H   H2349     1.0  0.76878  0.02377  0.02300  1.0000
  C   C1315     1.0  0.57686  0.29568  0.06378  1.0000
  C   C1316     1.0  0.55960  0.13690  0.06825  1.0000
  C   C1317     1.0  0.56349  0.19661  0.23287  1.0000
  H   H2350     1.0  0.58494  0.12294  0.05827  1.0000
  H   H2351     1.0  0.93470  0.05328  0.18919  1.0000
  H   H2352     1.0  0.71825  0.01448  0.99944  1.0000
  H   H2353     1.0  0.58869  0.29752  0.01917  1.0000
  H   H2354     1.0  0.69809  0.10598  0.22717  1.0000
  H   H2355     1.0  0.63211  0.31458  0.06931  1.0000
  C   C1318     1.0  0.97487  0.00512  0.23655  1.0000
  H   H2356     1.0  0.51280  0.14937  0.04624  1.0000
  H   H2357     1.0  0.67082  0.04016  0.02858  1.0000
  C   C1319     1.0  0.67584  0.11569  0.01451  1.0000
  H   H2358     1.0  0.68142  0.25860  0.05847  1.0000
  H   H2359     1.0  0.56093  0.19368  0.19774  1.0000
  H   H2360     1.0  0.69517  0.28424  0.10198  1.0000
  H   H2361     1.0  0.52762  0.23945  0.07634  1.0000
  H   H2362     1.0  0.69591  0.15773  0.99807  1.0000
  H   H2363     1.0  0.63974  0.31013  0.01451  1.0000
  H   H2364     1.0  0.62043  0.29232  0.03131  1.0000
  N   N74       1.0  0.60265  0.32894  0.02248  1.0000
  H   H2365     1.0  0.64543  0.09493  0.03101  1.0000
  H   H2366     1.0  0.90740  0.04985  0.17470  1.0000
  C   C1320     1.0  0.65938  0.28890  0.09078  1.0000
  H   H2367     1.0  0.61434  0.31982  0.04170  1.0000
  H   H2368     1.0  0.52331  0.15021  0.07554  1.0000
  C   C1321     1.0  0.91767  0.01324  0.10455  1.0000
  C   C1322     1.0  0.53787  0.13575  0.03635  1.0000
  Fe  Fe149     1.0  0.86014  0.03547  0.23172  1.0000
  H   H2369     1.0  0.51827  0.10151  0.04564  1.0000
  C   C1323     1.0  0.72717  0.27164  0.11095  1.0000
  H   H2370     1.0  0.70798  0.25458  0.03785  1.0000
  H   H2371     1.0  0.55590  0.20459  0.01037  1.0000
  H   H2372     1.0  0.84125  0.00508  0.19471  1.0000
  H   H2373     1.0  0.87811  0.04035  0.16207  1.0000
  H   H2374     1.0  0.94066  0.04326  0.17335  1.0000
  H   H2375     1.0  0.69397  0.05969  0.00414  1.0000
  N   N75       1.0  0.94251  0.09040  0.16473  1.0000
  C   C1324     1.0  0.92873  0.09406  0.17818  1.0000
  C   C1325     1.0  0.95840  0.07780  0.16934  1.0000
  C   C1326     1.0  0.95620  0.11273  0.15472  1.0000
  C   C1327     1.0  0.92872  0.07876  0.15644  1.0000
  C   C1328     1.0  0.90591  0.06241  0.16545  1.0000
  C   C1329     1.0  0.91464  0.11055  0.17525  1.0000
  C   C1330     1.0  0.97303  0.11275  0.14063  1.0000
  C   C1331     1.0  0.94787  0.05403  0.17950  1.0000
  C   C1332     1.0  0.96523  0.04436  0.18523  1.0000
  C   C1333     1.0  0.89513  0.05052  0.15576  1.0000
  C   C1334     1.0  0.89618  0.10790  0.18892  1.0000
  H   H2376     1.0  0.50693  0.29902  0.22882  1.0000
  H   H2377     1.0  0.93958  0.10019  0.18481  1.0000
  H   H2378     1.0  0.91752  0.07839  0.18563  1.0000
  H   H2379     1.0  0.96999  0.07620  0.15962  1.0000
  H   H2380     1.0  0.96907  0.08712  0.17484  1.0000
  H   H2381     1.0  0.96572  0.12215  0.16076  1.0000
  H   H2382     1.0  0.94516  0.12261  0.15099  1.0000
  H   H2383     1.0  0.92504  0.09088  0.14782  1.0000
  H   H2384     1.0  0.93841  0.06964  0.15029  1.0000
  H   H2385     1.0  0.71488  0.25746  0.11956  1.0000
  H   H2386     1.0  0.78801  0.03802  0.20543  1.0000
  C   C1335     1.0  0.54775  0.18397  0.04055  1.0000
  H   H2387     1.0  0.55887  0.26260  0.17224  1.0000
  C   C1336     1.0  0.62219  0.27915  0.01289  1.0000
  C   C1337     1.0  0.61985  0.14731  0.23002  1.0000
  H   H2388     1.0  0.62650  0.29276  0.09832  1.0000
  H   H2389     1.0  0.53302  0.26995  0.14453  1.0000
  H   H2390     1.0  0.64833  0.12087  0.00653  1.0000
  H   H2391     1.0  0.67070  0.09341  0.03601  1.0000
  C   C1338     1.0  0.66469  0.11849  0.00178  1.0000
  C   C1339     1.0  0.96176  0.07360  0.22596  1.0000
  H   H2392     1.0  0.54084  0.17736  0.07049  1.0000
  C   C1340     1.0  0.77632  0.01419  0.03057  1.0000
  C   C1341     1.0  0.67119  0.27503  0.08242  1.0000
  H   H2393     1.0  0.67625  0.29397  0.13610  1.0000
  H   H2394     1.0  0.56943  0.24106  0.22508  1.0000
  C   C1342     1.0  0.98018  0.13512  0.12915  1.0000
  H   H2395     1.0  0.73049  0.26096  0.04594  1.0000
  H   H2396     1.0  0.56402  0.27989  0.06955  1.0000
  C   C1343     1.0  0.68463  0.15844  0.99082  1.0000
  H   H2397     1.0  0.99183  0.08367  0.20830  1.0000
  C   C1344     1.0  0.63600  0.02546  0.03210  1.0000
  H   H2398     1.0  0.72191  0.26614  0.07055  1.0000
  H   H2399     1.0  0.62821  0.26483  0.10289  1.0000
  H   H2400     1.0  0.81650  0.04754  0.20562  1.0000
  C   C1345     1.0  0.63422  0.28067  0.09426  1.0000
  H   H2401     1.0  0.56794  0.18083  0.23584  1.0000
  H   H2402     1.0  0.68258  0.30572  0.11655  1.0000
  S   S299      1.0  0.52614  0.32254  0.05073  1.0000
  H   H2403     1.0  0.65597  0.28617  0.12668  1.0000
  H   H2404     1.0  0.57377  0.17155  0.05717  1.0000
  H   H2405     1.0  0.54985  0.33462  0.10464  1.0000
  H   H2406     1.0  0.74978  0.04317  0.99824  1.0000
  C   C1346     1.0  0.65944  0.31894  0.12942  1.0000
  H   H2407     1.0  0.68909  0.30876  0.18446  1.0000
  C   C1347     1.0  0.52721  0.14422  0.04911  1.0000
  H   H2408     1.0  0.57002  0.22341  0.01879  1.0000
  C   C1348     1.0  0.65807  0.02502  0.03089  1.0000
  H   H2409     1.0  0.68847  0.25653  0.10212  1.0000
  C   C1349     1.0  0.61937  0.00589  0.03527  1.0000
  H   H2410     1.0  0.53788  0.19322  0.21228  1.0000
  H   H2411     1.0  0.66075  0.19433  0.00678  1.0000
  N   N76       1.0  0.69586  0.27908  0.08062  1.0000
  C   C1350     1.0  0.56889  0.18904  0.02776  1.0000
  H   H2412     1.0  0.77990  0.02571  0.99410  1.0000
  H   H2413     1.0  0.72642  0.25652  0.09352  1.0000
  H   H2414     1.0  0.80565  0.00734  0.20992  1.0000
  C   C1351     1.0  0.71454  0.32448  0.16410  1.0000
  S   S300      1.0  0.88553  0.04865  0.20978  1.0000
  C   C1352     1.0  0.94085  0.01702  0.10147  1.0000
  H   H2415     1.0  0.58384  0.19338  0.03168  1.0000
  H   H2416     1.0  0.56966  0.17488  0.02337  1.0000
  H   H2417     1.0  0.51488  0.26478  0.05875  1.0000
  H   H2418     1.0  0.62893  0.27828  0.08446  1.0000
  H   H2419     1.0  0.56806  0.32197  0.02257  1.0000
  C   C1353     1.0  0.50665  0.31595  0.22940  1.0000
  H   H2420     1.0  0.64676  0.00720  0.99456  1.0000
  S   S301      1.0  0.94474  0.06887  0.21430  1.0000
  H   H2421     1.0  0.55212  0.17192  0.21475  1.0000
  C   C1354     1.0  0.52325  0.27601  0.13720  1.0000
  H   H2422     1.0  0.68945  0.33240  0.13490  1.0000
  C   C1355     1.0  0.66443  0.33478  0.05616  1.0000
  H   H2423     1.0  0.55475  0.14100  0.07877  1.0000
  H   H2424     1.0  0.79442  0.04546  0.22126  1.0000
  H   H2425     1.0  0.70393  0.28325  0.05051  1.0000
  C   C1356     1.0  0.90726  0.02530  0.11273  1.0000
  H   H2426     1.0  0.74411  0.27010  0.11100  1.0000
  H   H2427     1.0  0.69968  0.30851  0.06350  1.0000
  C   C1357     1.0  0.64598  0.31651  0.06010  1.0000
  H   H2428     1.0  0.58721  0.20182  0.21180  1.0000
  C   C1358     1.0  0.52206  0.11515  0.03548  1.0000
  H   H2429     1.0  0.65488  0.16410  0.22260  1.0000
  C   C1359     1.0  0.69970  0.27294  0.09560  1.0000
  C   C1360     1.0  0.63901  0.16274  0.22016  1.0000
  H   H2430     1.0  0.68714  0.20073  0.99334  1.0000
  H   H2431     1.0  0.64427  0.04271  0.22724  1.0000
  C   C1361     1.0  0.70369  0.26363  0.07241  1.0000
  C   C1362     1.0  0.50416  0.28211  0.14635  1.0000
  H   H2432     1.0  0.97841  0.04354  0.17605  1.0000
  H   H2433     1.0  0.56417  0.30157  0.04503  1.0000
  H   H2434     1.0  0.52611  0.29904  0.11710  1.0000
  H   H2435     1.0  0.51964  0.12987  0.05901  1.0000
  H   H2436     1.0  0.69583  0.24616  0.07907  1.0000
  Fe  Fe150     1.0  0.51154  0.30284  0.03717  1.0000
  H   H2437     1.0  0.50895  0.30746  0.20213  1.0000
  C   C1363     1.0  0.56299  0.15722  0.05517  1.0000
  H   H2438     1.0  0.59431  0.33485  0.04373  1.0000
  C   C1364     1.0  0.80000  0.01410  0.21906  1.0000
  H   H2439     1.0  0.50636  0.11857  0.03377  1.0000
  C   C1365     1.0  0.62961  0.04721  0.23287  1.0000
  H   H2440     1.0  0.88944  0.02258  0.11513  1.0000
  S   S302      1.0  0.90889  0.01038  0.22178  1.0000
  H   H2441     1.0  0.99218  0.01425  0.23515  1.0000
  H   H2442     1.0  0.94900  0.00780  0.09513  1.0000
  H   H2443     1.0  0.65160  0.32371  0.12050  1.0000
  H   H2444     1.0  0.78911  0.02582  0.03331  1.0000
  H   H2445     1.0  0.69600  0.32047  0.08747  1.0000
  S   S303      1.0  0.50535  0.33124  0.02210  1.0000
  S   S304      1.0  0.60904  0.03051  0.99420  1.0000
  H   H2446     1.0  0.60679  0.01647  0.23380  1.0000
  H   H2447     1.0  0.55175  0.33468  0.00268  1.0000
  C   C1366     1.0  0.69058  0.02932  0.98842  1.0000
  H   H2448     1.0  0.63172  0.06500  0.22793  1.0000
  H   H2449     1.0  0.99276  0.13484  0.11942  1.0000
  C   C1367     1.0  0.58294  0.33633  0.01917  1.0000
  C   C1368     1.0  0.56456  0.33228  0.09747  1.0000
  H   H2450     1.0  0.56328  0.27624  0.22917  1.0000
  H   H2451     1.0  0.63799  0.33256  0.18243  1.0000
  H   H2452     1.0  0.64870  0.33007  0.15658  1.0000
  H   H2453     1.0  0.61067  0.03894  0.21790  1.0000
  C   C1369     1.0  0.60893  0.03446  0.22987  1.0000
  H   H2454     1.0  0.79897  0.00883  0.01285  1.0000
  H   H2455     1.0  0.66469  0.07514  0.23337  1.0000
  H   H2456     1.0  0.58577  0.21191  0.00630  1.0000
  H   H2457     1.0  0.64509  0.20031  0.23121  1.0000
  C   C1370     1.0  0.59932  0.14551  0.22686  1.0000
  Fe  Fe151     1.0  0.54407  0.33464  0.16096  1.0000
  H   H2458     1.0  0.50399  0.33263  0.12867  1.0000
  H   H2459     1.0  0.64309  0.22715  0.23251  1.0000
  S   S305      1.0  0.59220  0.00681  0.03535  1.0000
  C   C1371     1.0  0.59852  0.22078  0.23415  1.0000
  H   H2460     1.0  0.98992  0.01104  0.12809  1.0000
  C   C1372     1.0  0.76382  0.01800  0.99240  1.0000
  C   C1373     1.0  0.66363  0.00504  0.03263  1.0000
  H   H2461     1.0  0.60494  0.18919  0.23242  1.0000
  H   H2462     1.0  0.54503  0.19222  0.23693  1.0000
  C   C1374     1.0  0.61126  0.20311  0.23661  1.0000
  C   C1375     1.0  0.52895  0.33207  0.21916  1.0000
  C   C1376     1.0  0.50514  0.33640  0.11709  1.0000
  H   H2463     1.0  0.98300  0.00879  0.21318  1.0000
  C   C1377     1.0  0.56426  0.23249  0.23696  1.0000
  H   H2464     1.0  0.52961  0.33498  0.20741  1.0000
  S   S306      1.0  0.69158  0.00507  0.02980  1.0000
  Fe  Fe152     1.0  0.58140  0.04347  0.98827  1.0000
  H   H2465     1.0  0.63138  0.11501  0.98840  1.0000
  Fe  Fe153     1.0  0.62820  0.06569  0.98848  1.0000
  H   H2466     1.0  0.71010  0.13198  0.98849  1.0000
  H   H2467     1.0  0.70222  0.33688  0.19666  1.0000
  C   C1378     1.0  0.72776  0.02465  0.98809  1.0000
  C   C1379     1.0  0.99004  0.08410  0.24349  1.0000
  Fe  Fe154     1.0  0.59891  0.18870  0.45084  1.0000
  S   S307      1.0  0.58267  0.17164  0.47470  1.0000
  S   S308      1.0  0.59982  0.17659  0.43074  1.0000
  Fe  Fe155     1.0  0.61041  0.23371  0.45577  1.0000
  H   H2468     1.0  0.75515  0.02507  0.27002  1.0000
  S   S309      1.0  0.62600  0.26924  0.44305  1.0000
  C   C1380     1.0  0.79396  0.06488  0.28559  1.0000
  H   H2469     1.0  0.67426  0.15309  0.45241  1.0000
  Fe  Fe156     1.0  0.56711  0.19969  0.47453  1.0000
  H   H2470     1.0  0.54663  0.01973  0.48423  1.0000
  S   S310      1.0  0.62933  0.20846  0.45476  1.0000
  S   S311      1.0  0.58099  0.21498  0.45046  1.0000
  Fe  Fe157     1.0  0.57947  0.06428  0.27899  1.0000
  S   S312      1.0  0.58801  0.07772  0.29709  1.0000
  S   S313      1.0  0.57607  0.02864  0.28014  1.0000
  Fe  Fe158     1.0  0.57951  0.10834  0.26018  1.0000
  S   S314      1.0  0.58744  0.12566  0.27659  1.0000
  H   H2471     1.0  0.61496  0.05127  0.25386  1.0000
  Fe  Fe159     1.0  0.61182  0.10580  0.27883  1.0000
  S   S315      1.0  0.64529  0.12466  0.27909  1.0000
  Fe  Fe160     1.0  0.56303  0.09644  0.29350  1.0000
  S   S316      1.0  0.53832  0.10250  0.31123  1.0000
  S   S317      1.0  0.60594  0.09067  0.26094  1.0000
  S   S318      1.0  0.55238  0.08072  0.27686  1.0000
  Fe  Fe161     1.0  0.57624  0.02881  0.39974  1.0000
  S   S319      1.0  0.58466  0.04654  0.37576  1.0000
  Fe  Fe162     1.0  0.59469  0.07015  0.40843  1.0000
  S   S320      1.0  0.60485  0.09163  0.38528  1.0000
  S   S321      1.0  0.59927  0.07938  0.42897  1.0000
  Fe  Fe163     1.0  0.57219  0.07298  0.38362  1.0000
  S   S322      1.0  0.54889  0.09097  0.37544  1.0000
  Fe  Fe164     1.0  0.61672  0.06378  0.37921  1.0000
  S   S323      1.0  0.64939  0.07241  0.36223  1.0000
  S   S324      1.0  0.56090  0.05375  0.40731  1.0000
  S   S325      1.0  0.60952  0.04385  0.40246  1.0000
  H   H2472     1.0  0.60840  0.03669  0.29594  1.0000
  H   H2473     1.0  0.60983  0.19689  0.24845  1.0000
  H   H2474     1.0  0.62635  0.15224  0.46716  1.0000
  S   S326      1.0  0.71472  0.06944  0.28386  1.0000
  C   C1381     1.0  0.77721  0.03055  0.30555  1.0000
  H   H2475     1.0  0.65141  0.17049  0.46791  1.0000
  C   C1382     1.0  0.96693  0.07626  0.24962  1.0000
  C   C1383     1.0  0.53370  0.00598  0.44531  1.0000
  H   H2476     1.0  0.55833  0.29865  0.43617  1.0000
  C   C1384     1.0  0.62715  0.04266  0.24957  1.0000
  H   H2477     1.0  0.57712  0.17200  0.25758  1.0000
  H   H2478     1.0  0.95993  0.07464  0.26108  1.0000
  C   C1385     1.0  0.63082  0.02526  0.28085  1.0000
  H   H2479     1.0  0.54609  0.17663  0.28504  1.0000
  H   H2480     1.0  0.54951  0.04156  0.33923  1.0000
  C   C1386     1.0  0.77078  0.02100  0.26726  1.0000
  C   C1387     1.0  0.65686  0.04953  0.35801  1.0000
  C   C1388     1.0  0.66871  0.05142  0.34370  1.0000
  C   C1389     1.0  0.67445  0.03315  0.34013  1.0000
  H   H2481     1.0  0.87076  0.05528  0.26956  1.0000
  H   H2482     1.0  0.79078  0.01552  0.32321  1.0000
  C   C1390     1.0  0.65134  0.02952  0.36885  1.0000
  H   H2483     1.0  0.67319  0.06691  0.33529  1.0000
  C   C1391     1.0  0.52986  0.10773  0.33859  1.0000
  H   H2484     1.0  0.64257  0.02817  0.37995  1.0000
  H   H2485     1.0  0.75990  0.09968  0.27944  1.0000
  H   H2486     1.0  0.81719  0.07760  0.30196  1.0000
  H   H2487     1.0  0.55576  0.15289  0.28350  1.0000
  C   C1392     1.0  0.56316  0.17782  0.26274  1.0000
  H   H2488     1.0  0.51401  0.06844  0.45542  1.0000
  H   H2489     1.0  0.93502  0.06507  0.24566  1.0000
  H   H2490     1.0  0.61153  0.02029  0.45177  1.0000
  H   H2491     1.0  0.67574  0.08715  0.26014  1.0000
  H   H2492     1.0  0.82017  0.02768  0.29967  1.0000
  H   H2493     1.0  0.61022  0.23631  0.41756  1.0000
  C   C1393     1.0  0.54212  0.09884  0.32889  1.0000
  C   C1394     1.0  0.55634  0.08680  0.33362  1.0000
  C   C1395     1.0  0.55803  0.08355  0.34813  1.0000
  C   C1396     1.0  0.54630  0.09318  0.35760  1.0000
  H   H2494     1.0  0.59202  0.28797  0.44444  1.0000
  H   H2495     1.0  0.51651  0.04806  0.35587  1.0000
  H   H2496     1.0  0.56574  0.07978  0.32620  1.0000
  H   H2497     1.0  0.56827  0.07357  0.35203  1.0000
  H   H2498     1.0  0.51418  0.25833  0.46249  1.0000
  C   C1397     1.0  0.64837  0.32080  0.45808  1.0000
  C   C1398     1.0  0.66423  0.10924  0.28175  1.0000
  C   C1399     1.0  0.68697  0.11969  0.27626  1.0000
  C   C1400     1.0  0.70248  0.10746  0.27740  1.0000
  C   C1401     1.0  0.69529  0.08488  0.28443  1.0000
  C   C1402     1.0  0.67267  0.07478  0.29089  1.0000
  C   C1403     1.0  0.65703  0.08679  0.28919  1.0000
  H   H2499     1.0  0.69259  0.13709  0.27060  1.0000
  H   H2500     1.0  0.72001  0.11539  0.27249  1.0000
  H   H2501     1.0  0.66729  0.05754  0.29664  1.0000
  H   H2502     1.0  0.63949  0.07866  0.29347  1.0000
  C   C1404     1.0  0.59783  0.14897  0.43100  1.0000
  C   C1405     1.0  0.59784  0.14311  0.41797  1.0000
  C   C1406     1.0  0.59772  0.12165  0.41737  1.0000
  C   C1407     1.0  0.59787  0.10595  0.42977  1.0000
  C   C1408     1.0  0.59765  0.11171  0.44289  1.0000
  C   C1409     1.0  0.59749  0.13317  0.44354  1.0000
  H   H2503     1.0  0.59809  0.15528  0.40824  1.0000
  H   H2504     1.0  0.59784  0.11737  0.40724  1.0000
  H   H2505     1.0  0.59778  0.09960  0.45251  1.0000
  H   H2506     1.0  0.59746  0.13757  0.45363  1.0000
  H   H2507     1.0  0.65193  0.20794  0.42397  1.0000
  H   H2508     1.0  0.60951  0.29384  0.41845  1.0000
  H   H2509     1.0  0.58317  0.21949  0.41856  1.0000
  H   H2510     1.0  0.53074  0.02348  0.39072  1.0000
  H   H2511     1.0  0.80688  0.09463  0.32185  1.0000
  C   C1410     1.0  0.52248  0.22886  0.47273  1.0000
  H   H2512     1.0  0.57717  0.03351  0.45530  1.0000
  H   H2513     1.0  0.80863  0.02822  0.28461  1.0000
  C   C1411     1.0  0.65945  0.07337  0.24533  1.0000
  C   C1412     1.0  0.77993  0.01036  0.31642  1.0000
  C   C1413     1.0  0.55265  0.01082  0.29379  1.0000
  H   H2514     1.0  0.76585  0.08018  0.26961  1.0000
  C   C1414     1.0  0.53218  0.01580  0.29600  1.0000
  N   N77       1.0  0.50473  0.01922  0.34876  1.0000
  C   C1415     1.0  0.98527  0.02267  0.26131  1.0000
  Fe  Fe165     1.0  0.61123  0.19412  0.47874  1.0000
  H   H2515     1.0  0.76408  0.03660  0.31149  1.0000
  H   H2516     1.0  0.54623  0.04412  0.46417  1.0000
  H   H2517     1.0  0.52250  0.04675  0.38180  1.0000
  H   H2518     1.0  0.95035  0.03243  0.27159  1.0000
  C   C1416     1.0  0.80026  0.07764  0.32932  1.0000
  C   C1417     1.0  0.80908  0.03077  0.25234  1.0000
  H   H2519     1.0  0.98219  0.03939  0.27867  1.0000
  H   H2520     1.0  0.54319  0.08119  0.45290  1.0000
  C   C1418     1.0  0.90524  0.01395  0.28384  1.0000
  H   H2521     1.0  0.95836  0.02825  0.24391  1.0000
  H   H2522     1.0  0.66485  0.28224  0.47991  1.0000
  H   H2523     1.0  0.56433  0.28162  0.24642  1.0000
  C   C1419     1.0  0.65738  0.28936  0.47169  1.0000
  S   S327      1.0  0.83126  0.04941  0.23809  1.0000
  C   C1420     1.0  0.78960  0.06198  0.32157  1.0000
  H   H2524     1.0  0.54559  0.27036  0.44070  1.0000
  H   H2525     1.0  0.56633  0.28216  0.40089  1.0000
  C   C1421     1.0  0.80698  0.06057  0.30818  1.0000
  C   C1422     1.0  0.56898  0.02338  0.44908  1.0000
  H   H2526     1.0  0.50727  0.31591  0.24077  1.0000
  H   H2527     1.0  0.54008  0.23509  0.46747  1.0000
  Fe  Fe166     1.0  0.51749  0.32729  0.44830  1.0000
  H   H2528     1.0  0.82730  0.00707  0.25766  1.0000
  H   H2529     1.0  0.64529  0.14132  0.47601  1.0000
  C   C1423     1.0  0.68046  0.08455  0.24919  1.0000
  H   H2530     1.0  0.57988  0.03147  0.32272  1.0000
  C   C1424     1.0  0.53097  0.07313  0.44784  1.0000
  H   H2531     1.0  0.69558  0.19292  0.42435  1.0000
  C   C1425     1.0  0.77599  0.07673  0.28986  1.0000
  H   H2532     1.0  0.55371  0.05877  0.43650  1.0000
  H   H2533     1.0  0.66108  0.18512  0.44074  1.0000
  N   N78       1.0  0.66715  0.16851  0.42381  1.0000
  C   C1426     1.0  0.65948  0.18327  0.41271  1.0000
  C   C1427     1.0  0.66109  0.14511  0.42279  1.0000
  C   C1428     1.0  0.65501  0.16883  0.43890  1.0000
  C   C1429     1.0  0.69170  0.17667  0.42206  1.0000
  C   C1430     1.0  0.70752  0.17851  0.40713  1.0000
  C   C1431     1.0  0.92143  0.00941  0.27161  1.0000
  C   C1432     1.0  0.66166  0.14185  0.40736  1.0000
  C   C1433     1.0  0.66025  0.11797  0.40746  1.0000
  C   C1434     1.0  0.73155  0.18943  0.40628  1.0000
  H   H2534     1.0  0.66486  0.22152  0.39032  1.0000
  H   H2535     1.0  0.64159  0.17606  0.41393  1.0000
  H   H2536     1.0  0.66795  0.18408  0.40133  1.0000
  H   H2537     1.0  0.67165  0.13561  0.42769  1.0000
  H   H2538     1.0  0.64368  0.13646  0.42942  1.0000
  H   H2539     1.0  0.63703  0.16664  0.43980  1.0000
  H   H2540     1.0  0.61149  0.02840  0.43278  1.0000
  C   C1435     1.0  0.81154  0.01094  0.26018  1.0000
  H   H2541     1.0  0.69682  0.16557  0.43040  1.0000
  H   H2542     1.0  0.70330  0.18849  0.39782  1.0000
  H   H2543     1.0  0.70699  0.16185  0.40581  1.0000
  H   H2544     1.0  0.92110  0.02020  0.26106  1.0000
  H   H2545     1.0  0.61739  0.01579  0.27748  1.0000
  H   H2546     1.0  0.64716  0.14600  0.40398  1.0000
  H   H2547     1.0  0.67681  0.15236  0.39881  1.0000
  H   H2548     1.0  0.64529  0.10669  0.41594  1.0000
  H   H2549     1.0  0.65907  0.11576  0.39662  1.0000
  H   H2550     1.0  0.67525  0.11345  0.40968  1.0000
  S   S328      1.0  0.70457  0.00976  0.27974  1.0000
  H   H2551     1.0  0.73334  0.20651  0.40714  1.0000
  H   H2552     1.0  0.73696  0.17988  0.41522  1.0000
  S   S329      1.0  0.66996  0.32747  0.47914  1.0000
  H   H2553     1.0  0.60507  0.28665  0.48047  1.0000
  H   H2554     1.0  0.64751  0.08351  0.24681  1.0000
  N   N79       1.0  0.62995  0.12144  0.32708  1.0000
  C   C1436     1.0  0.62160  0.09700  0.33429  1.0000
  C   C1437     1.0  0.62848  0.13304  0.33893  1.0000
  C   C1438     1.0  0.61581  0.12785  0.31713  1.0000
  C   C1439     1.0  0.65376  0.12773  0.31796  1.0000
  C   C1440     1.0  0.67063  0.12082  0.32613  1.0000
  C   C1441     1.0  0.62609  0.08203  0.32426  1.0000
  C   C1442     1.0  0.61871  0.15291  0.31122  1.0000
  C   C1443     1.0  0.60471  0.12911  0.34888  1.0000
  C   C1444     1.0  0.60469  0.14345  0.35939  1.0000
  C   C1445     1.0  0.69294  0.12376  0.31532  1.0000
  C   C1446     1.0  0.61536  0.05780  0.33259  1.0000
  C   C1447     1.0  0.60574  0.15755  0.29994  1.0000
  H   H2555     1.0  0.60344  0.09236  0.33916  1.0000
  H   H2556     1.0  0.62835  0.09224  0.34374  1.0000
  H   H2557     1.0  0.63839  0.12751  0.34644  1.0000
  H   H2558     1.0  0.63618  0.15105  0.33413  1.0000
  H   H2559     1.0  0.59786  0.11999  0.32265  1.0000
  H   H2560     1.0  0.61919  0.12133  0.30748  1.0000
  H   H2561     1.0  0.65495  0.12105  0.30832  1.0000
  H   H2562     1.0  0.66005  0.14584  0.31317  1.0000
  H   H2563     1.0  0.66479  0.10339  0.33269  1.0000
  H   H2564     1.0  0.67355  0.13108  0.33363  1.0000
  H   H2565     1.0  0.61919  0.08600  0.31480  1.0000
  H   H2566     1.0  0.64414  0.08403  0.32010  1.0000
  H   H2567     1.0  0.63634  0.16199  0.30580  1.0000
  H   H2568     1.0  0.61245  0.15982  0.32024  1.0000
  H   H2569     1.0  0.59293  0.13280  0.34245  1.0000
  H   H2570     1.0  0.59816  0.11169  0.35561  1.0000
  H   H2571     1.0  0.58766  0.13949  0.36678  1.0000
  H   H2572     1.0  0.61614  0.14028  0.36624  1.0000
  H   H2573     1.0  0.60977  0.16114  0.35320  1.0000
  H   H2574     1.0  0.70493  0.11944  0.32144  1.0000
  H   H2575     1.0  0.69097  0.11268  0.30818  1.0000
  H   H2576     1.0  0.69980  0.14105  0.30836  1.0000
  H   H2577     1.0  0.61881  0.04745  0.32515  1.0000
  H   H2578     1.0  0.62230  0.05296  0.34198  1.0000
  H   H2579     1.0  0.59712  0.05473  0.33677  1.0000
  H   H2580     1.0  0.61332  0.15339  0.28989  1.0000
  H   H2581     1.0  0.58803  0.14786  0.30443  1.0000
  H   H2582     1.0  0.60647  0.17531  0.29685  1.0000
  H   H2583     1.0  0.57589  0.25138  0.40283  1.0000
  H   H2584     1.0  0.51879  0.03010  0.46535  1.0000
  H   H2585     1.0  0.65605  0.23753  0.40231  1.0000
  H   H2586     1.0  0.70669  0.11503  0.24182  1.0000
  C   C1448     1.0  0.60602  0.01444  0.44290  1.0000
  H   H2587     1.0  0.57270  0.28017  0.47080  1.0000
  H   H2588     1.0  0.77004  0.02423  0.29733  1.0000
  C   C1449     1.0  0.54570  0.02881  0.33356  1.0000
  H   H2589     1.0  0.56311  0.24644  0.42932  1.0000
  H   H2590     1.0  0.83483  0.06276  0.26996  1.0000
  H   H2591     1.0  0.74265  0.19015  0.39561  1.0000
  H   H2592     1.0  0.68342  0.03470  0.32903  1.0000
  C   C1450     1.0  0.66224  0.20735  0.41341  1.0000
  C   C1451     1.0  0.99042  0.02699  0.27550  1.0000
  H   H2593     1.0  0.88842  0.01054  0.28206  1.0000
  H   H2594     1.0  0.67575  0.03642  0.25762  1.0000
  H   H2595     1.0  0.57542  0.17824  0.28197  1.0000
  H   H2596     1.0  0.61154  0.00984  0.30344  1.0000
  H   H2597     1.0  0.56687  0.24403  0.25654  1.0000
  H   H2598     1.0  0.84991  0.03000  0.27256  1.0000
  C   C1452     1.0  0.66888  0.01310  0.35096  1.0000
  H   H2599     1.0  0.60410  0.23085  0.40128  1.0000
  H   H2600     1.0  0.78802  0.10306  0.26923  1.0000
  C   C1453     1.0  0.64249  0.04826  0.26991  1.0000
  C   C1454     1.0  0.59702  0.23408  0.41180  1.0000
  C   C1455     1.0  0.53212  0.10512  0.35282  1.0000
  H   H2601     1.0  0.50520  0.20708  0.43616  1.0000
  C   C1456     1.0  0.69214  0.10728  0.23846  1.0000
  N   N80       1.0  0.57362  0.21287  0.24019  1.0000
  Fe  Fe167     1.0  0.70164  0.03290  0.29368  1.0000
  H   H2602     1.0  0.91045  0.03144  0.28380  1.0000
  C   C1457     1.0  0.53612  0.03539  0.45815  1.0000
  C   C1458     1.0  0.56448  0.28518  0.46215  1.0000
  C   C1459     1.0  0.55994  0.17110  0.27932  1.0000
  C   C1460     1.0  0.95839  0.01083  0.24831  1.0000
  H   H2603     1.0  0.52286  0.11244  0.36014  1.0000
  C   C1461     1.0  0.62046  0.02666  0.29621  1.0000
  H   H2604     1.0  0.63684  0.21282  0.40234  1.0000
  H   H2605     1.0  0.67984  0.21571  0.41207  1.0000
  H   H2606     1.0  0.69252  0.07449  0.24916  1.0000
  C   C1462     1.0  0.63814  0.28542  0.45307  1.0000
  H   H2607     1.0  0.64725  0.25910  0.46608  1.0000
  C   C1463     1.0  0.53692  0.05298  0.44415  1.0000
  C   C1464     1.0  0.65784  0.01148  0.36537  1.0000
  C   C1465     1.0  0.81554  0.03880  0.29103  1.0000
  H   H2608     1.0  0.81862  0.05247  0.31288  1.0000
  H   H2609     1.0  0.78670  0.05112  0.24986  1.0000
  H   H2610     1.0  0.51794  0.29004  0.40852  1.0000
  H   H2611     1.0  0.55093  0.20603  0.26181  1.0000
  S   S330      1.0  0.71988  0.01828  0.30877  1.0000
  H   H2612     1.0  0.63208  0.05963  0.27205  1.0000
  C   C1466     1.0  0.52248  0.02128  0.37046  1.0000
  C   C1467     1.0  0.56541  0.01900  0.33095  1.0000
  H   H2613     1.0  0.77568  0.06769  0.31849  1.0000
  C   C1468     1.0  0.66444  0.03606  0.25035  1.0000
  H   H2614     1.0  0.67561  0.04349  0.23900  1.0000
  H   H2615     1.0  0.54038  0.02759  0.36443  1.0000
  H   H2616     1.0  0.58903  0.25898  0.24022  1.0000
  H   H2617     1.0  0.57311  0.03459  0.43783  1.0000
  H   H2618     1.0  0.54644  0.27719  0.46656  1.0000
  H   H2619     1.0  0.78151  0.08809  0.29616  1.0000
  C   C1469     1.0  0.95282  0.07078  0.24092  1.0000
  C   C1470     1.0  0.83750  0.05514  0.28066  1.0000
  H   H2620     1.0  0.60060  0.30288  0.40265  1.0000
  C   C1471     1.0  0.65676  0.15141  0.45218  1.0000
  C   C1472     1.0  0.55158  0.30542  0.40839  1.0000
  H   H2621     1.0  0.81395  0.07217  0.33308  1.0000
  H   H2622     1.0  0.80930  0.07829  0.27946  1.0000
  C   C1473     1.0  0.64735  0.27622  0.46394  1.0000
  C   C1474     1.0  0.57858  0.25985  0.42323  1.0000
  C   C1475     1.0  0.58866  0.25464  0.40879  1.0000
  H   H2623     1.0  0.57372  0.26079  0.45220  1.0000
  H   H2624     1.0  0.98956  0.09594  0.32775  1.0000
  C   C1476     1.0  0.56697  0.20307  0.25670  1.0000
  H   H2625     1.0  0.54786  0.16889  0.26065  1.0000
  C   C1477     1.0  0.78866  0.03577  0.25589  1.0000
  H   H2626     1.0  0.62100  0.13692  0.24005  1.0000
  H   H2627     1.0  0.78939  0.05633  0.27750  1.0000
  C   C1478     1.0  0.64417  0.15408  0.46665  1.0000
  S   S331      1.0  0.59455  0.22106  0.47995  1.0000
  H   H2628     1.0  0.59048  0.25823  0.42994  1.0000
  H   H2629     1.0  0.64946  0.13443  0.45191  1.0000
  H   H2630     1.0  0.78235  0.04557  0.32971  1.0000
  H   H2631     1.0  0.54323  0.26978  0.41670  1.0000
  H   H2632     1.0  0.61865  0.02502  0.25485  1.0000
  C   C1479     1.0  0.55858  0.28375  0.41183  1.0000
  C   C1480     1.0  0.56209  0.28274  0.43661  1.0000
  H   H2633     1.0  0.98766  0.03911  0.25363  1.0000
  H   H2634     1.0  0.65771  0.05379  0.27324  1.0000
  C   C1481     1.0  0.59584  0.29968  0.41479  1.0000
  S   S332      1.0  0.66790  0.01308  0.30812  1.0000
  C   C1482     1.0  0.63878  0.30778  0.45008  1.0000
  C   C1483     1.0  0.57098  0.25072  0.24446  1.0000
  N   N81       1.0  0.57399  0.28212  0.42157  1.0000
  C   C1484     1.0  0.57443  0.27849  0.44862  1.0000
  C   C1485     1.0  0.50795  0.24197  0.46997  1.0000
  H   H2635     1.0  0.60286  0.26844  0.40149  1.0000
  H   H2636     1.0  0.56726  0.30329  0.45942  1.0000
  H   H2637     1.0  0.63158  0.31496  0.44173  1.0000
  H   H2638     1.0  0.57937  0.21152  0.26153  1.0000
  N   N82       1.0  0.54413  0.01580  0.45571  1.0000
  H   H2639     1.0  0.53974  0.01752  0.43407  1.0000
  C   C1486     1.0  0.53270  0.30304  0.40107  1.0000
  H   H2640     1.0  0.52513  0.04634  0.43834  1.0000
  C   C1487     1.0  0.85556  0.04337  0.27746  1.0000
  H   H2641     1.0  0.54396  0.03679  0.32264  1.0000
  C   C1488     1.0  0.65454  0.22056  0.40131  1.0000
  H   H2642     1.0  0.84376  0.06835  0.28548  1.0000
  C   C1489     1.0  0.55900  0.26858  0.24119  1.0000
  H   H2643     1.0  0.59542  0.32040  0.42985  1.0000
  H   H2644     1.0  0.78761  0.07785  0.33905  1.0000
  H   H2645     1.0  0.53074  0.03106  0.28949  1.0000
  C   C1490     1.0  0.65785  0.31166  0.46885  1.0000
  S   S333      1.0  0.88550  0.03513  0.24444  1.0000
  C   C1491     1.0  0.51414  0.20779  0.48265  1.0000
  H   H2646     1.0  0.64335  0.01593  0.28177  1.0000
  H   H2647     1.0  0.51597  0.05099  0.33236  1.0000
  H   H2648     1.0  0.54571  0.31055  0.41831  1.0000
  S   S334      1.0  0.57491  0.12677  0.23901  1.0000
  C   C1492     1.0  0.77232  0.09075  0.27616  1.0000
  H   H2649     1.0  0.75977  0.06495  0.29631  1.0000
  H   H2650     1.0  0.53148  0.08525  0.43760  1.0000
  H   H2651     1.0  0.63331  0.03401  0.30100  1.0000
  N   N83       1.0  0.64836  0.04952  0.25380  1.0000
  N   N84       1.0  0.79819  0.04889  0.29789  1.0000
  C   C1493     1.0  0.59728  0.32221  0.41808  1.0000
  H   H2652     1.0  0.53783  0.29884  0.39061  1.0000
  H   H2653     1.0  0.56138  0.00462  0.32664  1.0000
  H   H2654     1.0  0.56574  0.31876  0.40055  1.0000
  H   H2655     1.0  0.51874  0.11692  0.33503  1.0000
  C   C1494     1.0  0.94541  0.01428  0.27336  1.0000
  C   C1495     1.0  0.51917  0.02861  0.38447  1.0000
  H   H2656     1.0  0.54576  0.22692  0.24005  1.0000
  H   H2657     1.0  0.63341  0.33207  0.41296  1.0000
  H   H2658     1.0  0.98448  0.01191  0.28486  1.0000
  H   H2659     1.0  0.54072  0.26159  0.24554  1.0000
  C   C1496     1.0  0.50825  0.03011  0.36064  1.0000
  H   H2660     1.0  0.60560  0.23336  0.23921  1.0000
  H   H2661     1.0  0.74893  0.00507  0.33313  1.0000
  H   H2662     1.0  0.50477  0.23168  0.44183  1.0000
  C   C1497     1.0  0.65430  0.01161  0.25140  1.0000
  H   H2663     1.0  0.58433  0.32972  0.41512  1.0000
  N   N85       1.0  0.96264  0.00765  0.26322  1.0000
  H   H2664     1.0  0.52801  0.31878  0.39867  1.0000
  H   H2665     1.0  0.63587  0.22985  0.48738  1.0000
  H   H2666     1.0  0.85981  0.03628  0.28766  1.0000
  H   H2667     1.0  0.64581  0.01036  0.24268  1.0000
  C   C1498     1.0  0.52403  0.01088  0.34266  1.0000
  H   H2668     1.0  0.56994  0.01380  0.34134  1.0000
  H   H2669     1.0  0.94455  0.00674  0.28501  1.0000
  H   H2670     1.0  0.56816  0.00764  0.47749  1.0000
  C   C1499     1.0  0.58079  0.00508  0.44741  1.0000
  H   H2671     1.0  0.61629  0.00439  0.32921  1.0000
  H   H2672     1.0  0.50545  0.00533  0.42716  1.0000
  H   H2673     1.0  0.77497  0.00753  0.23889  1.0000
  H   H2674     1.0  0.68071  0.11806  0.23854  1.0000
  H   H2675     1.0  0.68476  0.00719  0.23870  1.0000
  H   H2676     1.0  0.99814  0.12512  0.32546  1.0000
  H   H2677     1.0  0.99863  0.01608  0.25611  1.0000
  S   S335      1.0  0.53149  0.19144  0.48771  1.0000
  C   C1500     1.0  0.54994  0.00469  0.48163  1.0000
  H   H2678     1.0  0.57784  0.20308  0.61865  1.0000
  H   H2679     1.0  0.98278  0.01998  0.71730  1.0000
  Fe  Fe168     1.0  0.65688  0.26492  0.57314  1.0000
  S   S336      1.0  0.62892  0.27500  0.56541  1.0000
  S   S337      1.0  0.68860  0.29163  0.56897  1.0000
  Fe  Fe169     1.0  0.63329  0.21583  0.58058  1.0000
  S   S338      1.0  0.60390  0.22253  0.57321  1.0000
  S   S339      1.0  0.63317  0.18076  0.59087  1.0000
  Fe  Fe170     1.0  0.62884  0.24822  0.55423  1.0000
  S   S340      1.0  0.62520  0.25522  0.53128  1.0000
  Fe  Fe171     1.0  0.60669  0.24828  0.58509  1.0000
  S   S341      1.0  0.57490  0.24836  0.60023  1.0000
  S   S342      1.0  0.65834  0.23975  0.56049  1.0000
  S   S343      1.0  0.63454  0.24015  0.59391  1.0000
  H   H2680     1.0  0.66980  0.05538  0.61722  1.0000
  C   C1501     1.0  0.53427  0.32346  0.52243  1.0000
  H   H2681     1.0  0.53143  0.15202  0.51326  1.0000
  H   H2682     1.0  0.57381  0.03502  0.53015  1.0000
  C   C1502     1.0  0.58514  0.18968  0.61659  1.0000
  H   H2683     1.0  0.60706  0.03104  0.56976  1.0000
  S   S344      1.0  0.87742  0.03943  0.69588  1.0000
  C   C1503     1.0  0.51383  0.22919  0.51545  1.0000
  Fe  Fe172     1.0  0.55615  0.07301  0.59091  1.0000
  S   S345      1.0  0.57918  0.05914  0.57734  1.0000
  S   S346      1.0  0.55734  0.10870  0.58232  1.0000
  Fe  Fe173     1.0  0.53216  0.02816  0.61266  1.0000
  Fe  Fe174     1.0  0.58116  0.03938  0.59878  1.0000
  C   C1504     1.0  0.53361  0.12517  0.62558  1.0000
  Fe  Fe175     1.0  0.54963  0.03138  0.58057  1.0000
  H   H2684     1.0  0.60052  0.33102  0.65698  1.0000
  S   S347      1.0  0.56056  0.05564  0.61239  1.0000
  S   S348      1.0  0.52607  0.04693  0.59223  1.0000
  H   H2685     1.0  0.61458  0.20343  0.62269  1.0000
  H   H2686     1.0  0.83067  0.08231  0.68483  1.0000
  H   H2687     1.0  0.56168  0.16035  0.63219  1.0000
  H   H2688     1.0  0.86881  0.06444  0.64742  1.0000
  H   H2689     1.0  0.53382  0.27866  0.54922  1.0000
  H   H2690     1.0  0.59520  0.02536  0.55535  1.0000
  H   H2691     1.0  0.54750  0.12517  0.63071  1.0000
  C   C1505     1.0  0.82782  0.07566  0.65854  1.0000
  C   C1506     1.0  0.93000  0.05016  0.72123  1.0000
  C   C1507     1.0  0.93574  0.05935  0.70601  1.0000
  C   C1508     1.0  0.91957  0.05601  0.69828  1.0000
  C   C1509     1.0  0.89772  0.04318  0.70565  1.0000
  C   C1510     1.0  0.89220  0.03377  0.72079  1.0000
  C   C1511     1.0  0.90816  0.03742  0.72854  1.0000
  H   H2692     1.0  0.95247  0.06934  0.70027  1.0000
  H   H2693     1.0  0.92401  0.06342  0.68656  1.0000
  H   H2694     1.0  0.87549  0.02400  0.72661  1.0000
  C   C1512     1.0  0.53981  0.12406  0.52560  1.0000
  C   C1513     1.0  0.61305  0.16044  0.58786  1.0000
  C   C1514     1.0  0.60255  0.16574  0.57688  1.0000
  C   C1515     1.0  0.58548  0.14973  0.57527  1.0000
  C   C1516     1.0  0.57955  0.12804  0.58416  1.0000
  C   C1517     1.0  0.59044  0.12249  0.59491  1.0000
  C   C1518     1.0  0.60699  0.13875  0.59686  1.0000
  H   H2695     1.0  0.60767  0.18213  0.56951  1.0000
  H   H2696     1.0  0.57698  0.15418  0.56703  1.0000
  H   H2697     1.0  0.58567  0.10584  0.60196  1.0000
  H   H2698     1.0  0.61488  0.13467  0.60548  1.0000
  C   C1519     1.0  0.69479  0.30885  0.58017  1.0000
  C   C1520     1.0  0.68234  0.30443  0.59473  1.0000
  H   H2699     1.0  0.78647  0.02917  0.64239  1.0000
  H   H2700     1.0  0.64408  0.11120  0.57244  1.0000
  H   H2701     1.0  0.59199  0.12973  0.52484  1.0000
  H   H2702     1.0  0.50631  0.32500  0.51411  1.0000
  H   H2703     1.0  0.66842  0.28994  0.59950  1.0000
  C   C1521     1.0  0.71311  0.32746  0.57421  1.0000
  S   S349      1.0  0.62552  0.18266  0.49748  1.0000
  C   C1522     1.0  0.52980  0.28272  0.57909  1.0000
  C   C1523     1.0  0.55267  0.28912  0.57239  1.0000
  C   C1524     1.0  0.56645  0.27736  0.57814  1.0000
  C   C1525     1.0  0.55755  0.26019  0.59115  1.0000
  C   C1526     1.0  0.53465  0.25377  0.59778  1.0000
  C   C1527     1.0  0.52074  0.26464  0.59152  1.0000
  H   H2704     1.0  0.55966  0.30289  0.56262  1.0000
  H   H2705     1.0  0.58407  0.28228  0.57287  1.0000
  H   H2706     1.0  0.52249  0.25551  0.53397  1.0000
  H   H2707     1.0  0.60295  0.12125  0.55456  1.0000
  C   C1528     1.0  0.62972  0.20319  0.50666  1.0000
  C   C1529     1.0  0.62757  0.19753  0.52180  1.0000
  C   C1530     1.0  0.62726  0.21360  0.52947  1.0000
  C   C1531     1.0  0.62931  0.23538  0.52194  1.0000
  C   C1532     1.0  0.63299  0.24121  0.50670  1.0000
  C   C1533     1.0  0.63332  0.22522  0.49910  1.0000
  H   H2708     1.0  0.62510  0.18059  0.52771  1.0000
  H   H2709     1.0  0.62462  0.20898  0.54123  1.0000
  H   H2710     1.0  0.63494  0.25805  0.50081  1.0000
  C   C1534     1.0  0.67653  0.04811  0.63816  1.0000
  N   N86       1.0  0.63799  0.08217  0.62300  1.0000
  C   C1535     1.0  0.64737  0.08404  0.60701  1.0000
  C   C1536     1.0  0.64597  0.06529  0.63253  1.0000
  C   C1537     1.0  0.61295  0.07412  0.62664  1.0000
  C   C1538     1.0  0.64353  0.10412  0.62620  1.0000
  C   C1539     1.0  0.66840  0.11669  0.62188  1.0000
  C   C1540     1.0  0.63915  0.09926  0.59589  1.0000
  C   C1541     1.0  0.60014  0.06761  0.64318  1.0000
  C   C1542     1.0  0.67122  0.13977  0.62390  1.0000
  C   C1543     1.0  0.57515  0.05904  0.64552  1.0000
  H   H2711     1.0  0.64362  0.06747  0.60526  1.0000
  H   H2712     1.0  0.66575  0.08974  0.60361  1.0000
  C   C1544     1.0  0.66961  0.06302  0.62640  1.0000
  H   H2713     1.0  0.66872  0.10721  0.57755  1.0000
  H   H2714     1.0  0.60816  0.05965  0.62248  1.0000
  H   H2715     1.0  0.60600  0.08687  0.62097  1.0000
  H   H2716     1.0  0.63469  0.11524  0.62084  1.0000
  H   H2717     1.0  0.63727  0.10211  0.63812  1.0000
  H   H2718     1.0  0.67674  0.11877  0.61025  1.0000
  H   H2719     1.0  0.67699  0.10795  0.62907  1.0000
  H   H2720     1.0  0.62105  0.09297  0.59750  1.0000
  H   H2721     1.0  0.64289  0.11625  0.59693  1.0000
  H   H2722     1.0  0.60278  0.08199  0.64762  1.0000
  H   H2723     1.0  0.60542  0.05440  0.64982  1.0000
  H   H2724     1.0  0.66347  0.14962  0.61661  1.0000
  H   H2725     1.0  0.66357  0.13892  0.63547  1.0000
  H   H2726     1.0  0.68918  0.14837  0.62101  1.0000
  H   H2727     1.0  0.57139  0.04382  0.64200  1.0000
  H   H2728     1.0  0.56642  0.05496  0.65735  1.0000
  H   H2729     1.0  0.56865  0.07166  0.63932  1.0000
  H   H2730     1.0  0.51470  0.10251  0.61617  1.0000
  S   S350      1.0  0.55328  0.01029  0.60099  1.0000
  H   H2731     1.0  0.54782  0.13428  0.53176  1.0000
  H   H2732     1.0  0.63491  0.04844  0.63470  1.0000
  H   H2733     1.0  0.59443  0.14454  0.54562  1.0000
  C   C1545     1.0  0.52143  0.08708  0.55877  1.0000
  H   H2734     1.0  0.89166  0.05156  0.66314  1.0000
  H   H2735     1.0  0.79699  0.04963  0.71272  1.0000
  H   H2736     1.0  0.61466  0.29210  0.61344  1.0000
  H   H2737     1.0  0.52475  0.15961  0.63536  1.0000
  H   H2738     1.0  0.56785  0.11433  0.51453  1.0000
  H   H2739     1.0  0.59496  0.26857  0.63893  1.0000
  H   H2740     1.0  0.62157  0.28620  0.63765  1.0000
  H   H2741     1.0  0.57236  0.06664  0.54060  1.0000
  H   H2742     1.0  0.53053  0.08629  0.56729  1.0000
  H   H2743     1.0  0.55621  0.21321  0.50511  1.0000
  H   H2744     1.0  0.61858  0.31689  0.56402  1.0000
  H   H2745     1.0  0.96005  0.00922  0.69391  1.0000
  H   H2746     1.0  0.66026  0.32489  0.54894  1.0000
  S   S351      1.0  0.61520  0.03612  0.59873  1.0000
  C   C1546     1.0  0.60312  0.13185  0.54381  1.0000
  H   H2747     1.0  0.56968  0.09281  0.55409  1.0000
  H   H2748     1.0  0.78549  0.05225  0.65966  1.0000
  H   H2749     1.0  0.72157  0.29003  0.52204  1.0000
  H   H2750     1.0  0.72313  0.33079  0.56308  1.0000
  C   C1547     1.0  0.60564  0.29931  0.62144  1.0000
  H   H2751     1.0  0.65004  0.01902  0.60629  1.0000
  C   C1548     1.0  0.55537  0.05903  0.52456  1.0000
  C   C1549     1.0  0.82249  0.06527  0.69189  1.0000
  C   C1550     1.0  0.84606  0.04819  0.66932  1.0000
  H   H2752     1.0  0.53419  0.06165  0.55294  1.0000
  C   C1551     1.0  0.60449  0.28595  0.63679  1.0000
  C   C1552     1.0  0.51650  0.30165  0.61440  1.0000
  H   H2753     1.0  0.58325  0.08549  0.52270  1.0000
  H   H2754     1.0  0.51375  0.28363  0.61620  1.0000
  H   H2755     1.0  0.50439  0.33163  0.53132  1.0000
  H   H2756     1.0  0.67780  0.05552  0.64730  1.0000
  H   H2757     1.0  0.55169  0.06734  0.51445  1.0000
  H   H2758     1.0  0.69298  0.04586  0.63333  1.0000
  H   H2759     1.0  0.82696  0.11185  0.63714  1.0000
  H   H2760     1.0  0.68231  0.07905  0.62222  1.0000
  C   C1553     1.0  0.55458  0.18419  0.59892  1.0000
  C   C1554     1.0  0.53607  0.18630  0.59110  1.0000
  C   C1555     1.0  0.54502  0.20450  0.57657  1.0000
  H   H2761     1.0  0.56803  0.18025  0.59146  1.0000
  H   H2762     1.0  0.56203  0.20094  0.59946  1.0000
  C   C1556     1.0  0.53904  0.31182  0.61646  1.0000
  H   H2763     1.0  0.55226  0.14246  0.60304  1.0000
  H   H2764     1.0  0.52940  0.17083  0.58851  1.0000
  H   H2765     1.0  0.59466  0.19482  0.60486  1.0000
  H   H2766     1.0  0.61011  0.17476  0.62352  1.0000
  H   H2767     1.0  0.55162  0.22063  0.57845  1.0000
  H   H2768     1.0  0.55844  0.20074  0.56901  1.0000
  H   H2769     1.0  0.53145  0.20583  0.57126  1.0000
  H   H2770     1.0  0.75969  0.02070  0.65570  1.0000
  C   C1557     1.0  0.52884  0.17151  0.62435  1.0000
  C   C1558     1.0  0.61675  0.02037  0.61539  1.0000
  H   H2771     1.0  0.56022  0.27234  0.54693  1.0000
  H   H2772     1.0  0.52766  0.24067  0.60788  1.0000
  S   S352      1.0  0.81399  0.00916  0.71882  1.0000
  H   H2773     1.0  0.57691  0.15651  0.61583  1.0000
  H   H2774     1.0  0.59317  0.18321  0.63758  1.0000
  H   H2775     1.0  0.54495  0.19628  0.63357  1.0000
  H   H2776     1.0  0.52437  0.14386  0.60784  1.0000
  N   N87       1.0  0.55532  0.24004  0.51495  1.0000
  C   C1559     1.0  0.53745  0.24496  0.50784  1.0000
  H   H2777     1.0  0.97096  0.03785  0.70604  1.0000
  C   C1560     1.0  0.55488  0.21629  0.51604  1.0000
  C   C1561     1.0  0.55205  0.24324  0.53011  1.0000
  N   N88       1.0  0.54762  0.16758  0.61383  1.0000
  H   H2778     1.0  0.84007  0.10429  0.62138  1.0000
  C   C1562     1.0  0.57299  0.20799  0.52218  1.0000
  H   H2779     1.0  0.56879  0.28538  0.49769  1.0000
  H   H2780     1.0  0.61545  0.31636  0.61956  1.0000
  C   C1563     1.0  0.86213  0.04765  0.65511  1.0000
  C   C1564     1.0  0.56865  0.18310  0.52508  1.0000
  C   C1565     1.0  0.64006  0.33299  0.52118  1.0000
  H   H2781     1.0  0.53646  0.26206  0.50691  1.0000
  H   H2782     1.0  0.59128  0.25037  0.50963  1.0000
  H   H2783     1.0  0.50301  0.30449  0.62245  1.0000
  H   H2784     1.0  0.51877  0.12535  0.63384  1.0000
  H   H2785     1.0  0.53871  0.20513  0.52325  1.0000
  S   S353      1.0  0.94901  0.05404  0.73187  1.0000
  H   H2786     1.0  0.56837  0.24689  0.53271  1.0000
  C   C1566     1.0  0.54247  0.26596  0.54742  1.0000
  H   H2787     1.0  0.54736  0.27684  0.52429  1.0000
  C   C1567     1.0  0.53286  0.19452  0.62699  1.0000
  C   C1568     1.0  0.88208  0.04006  0.65835  1.0000
  H   H2788     1.0  0.57395  0.21215  0.53253  1.0000
  H   H2789     1.0  0.58930  0.21543  0.51402  1.0000
  C   C1569     1.0  0.56739  0.16745  0.62006  1.0000
  H   H2790     1.0  0.84256  0.07000  0.63724  1.0000
  H   H2791     1.0  0.61192  0.30709  0.52145  1.0000
  H   H2792     1.0  0.61085  0.33475  0.51350  1.0000
  H   H2793     1.0  0.85545  0.11028  0.63416  1.0000
  H   H2794     1.0  0.52269  0.08943  0.63188  1.0000
  C   C1570     1.0  0.97891  0.02415  0.70658  1.0000
  C   C1571     1.0  0.54043  0.26115  0.53307  1.0000
  H   H2795     1.0  0.56976  0.17870  0.51460  1.0000
  H   H2796     1.0  0.58140  0.17750  0.52993  1.0000
  H   H2797     1.0  0.55206  0.17444  0.53286  1.0000
  N   N89       1.0  0.58135  0.31623  0.60647  1.0000
  C   C1572     1.0  0.58219  0.29878  0.61940  1.0000
  C   C1573     1.0  0.55838  0.31040  0.60436  1.0000
  C   C1574     1.0  0.59762  0.31525  0.59297  1.0000
  H   H2798     1.0  0.70219  0.31351  0.53398  1.0000
  H   H2799     1.0  0.77919  0.00459  0.65756  1.0000
  H   H2800     1.0  0.51217  0.21421  0.51155  1.0000
  H   H2801     1.0  0.58352  0.32526  0.57449  1.0000
  C   C1575     1.0  0.68853  0.31842  0.60325  1.0000
  H   H2802     1.0  0.53198  0.13032  0.50450  1.0000
  H   H2803     1.0  0.87652  0.02329  0.66613  1.0000
  H   H2804     1.0  0.92847  0.01229  0.68863  1.0000
  H   H2805     1.0  0.57524  0.28206  0.61837  1.0000
  H   H2806     1.0  0.57137  0.29935  0.62977  1.0000
  H   H2807     1.0  0.52152  0.10443  0.55458  1.0000
  H   H2808     1.0  0.55439  0.29352  0.60313  1.0000
  H   H2809     1.0  0.59443  0.29821  0.59188  1.0000
  C   C1576     1.0  0.65479  0.31714  0.52388  1.0000
  C   C1577     1.0  0.55164  0.10622  0.52294  1.0000
  H   H2810     1.0  0.64679  0.08371  0.57842  1.0000
  C   C1578     1.0  0.78698  0.03531  0.66350  1.0000
  H   H2811     1.0  0.89326  0.03960  0.64804  1.0000
  H   H2812     1.0  0.53840  0.31807  0.53294  1.0000
  C   C1579     1.0  0.54026  0.13952  0.51110  1.0000
  H   H2813     1.0  0.64482  0.06821  0.64350  1.0000
  H   H2814     1.0  0.58044  0.25064  0.49422  1.0000
  H   H2815     1.0  0.81070  0.01840  0.66975  1.0000
  H   H2816     1.0  0.54007  0.32934  0.61589  1.0000
  C   C1580     1.0  0.68596  0.30781  0.53180  1.0000
  H   H2817     1.0  0.67940  0.31451  0.61463  1.0000
  H   H2818     1.0  0.61485  0.31941  0.59404  1.0000
  H   H2819     1.0  0.53479  0.25094  0.55682  1.0000
  C   C1581     1.0  0.62197  0.32376  0.51448  1.0000
  C   C1582     1.0  0.57764  0.25421  0.50502  1.0000
  H   H2820     1.0  0.59650  0.29305  0.64522  1.0000
  N   N90       1.0  0.82417  0.05267  0.66818  1.0000
  C   C1583     1.0  0.81135  0.03503  0.66297  1.0000
  H   H2821     1.0  0.56060  0.03182  0.51591  1.0000
  C   C1584     1.0  0.65046  0.10036  0.58012  1.0000
  H   H2822     1.0  0.52044  0.07316  0.54042  1.0000
  C   C1585     1.0  0.83068  0.07845  0.64188  1.0000
  C   C1586     1.0  0.53955  0.14511  0.61175  1.0000
  H   H2823     1.0  0.58544  0.05387  0.51191  1.0000
  C   C1587     1.0  0.60170  0.18754  0.62570  1.0000
  H   H2824     1.0  0.54175  0.24415  0.49626  1.0000
  N   N91       1.0  0.55475  0.09145  0.53629  1.0000
  C   C1588     1.0  0.50925  0.32024  0.52502  1.0000
  H   H2825     1.0  0.58374  0.01873  0.62748  1.0000
  H   H2826     1.0  0.51064  0.22378  0.52754  1.0000
  H   H2827     1.0  0.81985  0.03571  0.65163  1.0000
  H   H2828     1.0  0.52228  0.19051  0.59797  1.0000
  C   C1589     1.0  0.53254  0.07760  0.54669  1.0000
  H   H2829     1.0  0.80600  0.03339  0.69045  1.0000
  C   C1590     1.0  0.80593  0.06640  0.70541  1.0000
  C   C1591     1.0  0.58173  0.27943  0.50205  1.0000
  Fe  Fe176     1.0  0.98657  0.06596  0.72727  1.0000
  H   H2830     1.0  0.81459  0.07153  0.63989  1.0000
  C   C1592     1.0  0.83878  0.10273  0.63316  1.0000
  H   H2831     1.0  0.62962  0.32280  0.50335  1.0000
  H   H2832     1.0  0.83527  0.05814  0.69576  1.0000
  H   H2833     1.0  0.60271  0.10735  0.53237  1.0000
  H   H2834     1.0  0.84299  0.03235  0.67775  1.0000
  H   H2835     1.0  0.51496  0.21421  0.63763  1.0000
  H   H2836     1.0  0.62066  0.14034  0.53754  1.0000
  H   H2837     1.0  0.66430  0.03164  0.64259  1.0000
  H   H2838     1.0  0.69425  0.30245  0.50971  1.0000
  H   H2839     1.0  0.81494  0.07571  0.71166  1.0000
  H   H2840     1.0  0.85405  0.03621  0.64969  1.0000
  H   H2841     1.0  0.54195  0.22773  0.53865  1.0000
  C   C1593     1.0  0.56976  0.04408  0.52038  1.0000
  H   H2842     1.0  0.79497  0.05504  0.68322  1.0000
  H   H2843     1.0  0.99476  0.02976  0.69774  1.0000
  H   H2844     1.0  0.53920  0.30298  0.62756  1.0000
  H   H2845     1.0  0.84258  0.08700  0.65975  1.0000
  S   S354      1.0  0.54446  0.02094  0.56085  1.0000
  C   C1594     1.0  0.52819  0.10338  0.62173  1.0000
  H   H2846     1.0  0.55967  0.11570  0.54848  1.0000
  C   C1595     1.0  0.96373  0.00418  0.70455  1.0000
  H   H2847     1.0  0.54030  0.31402  0.51493  1.0000
  H   H2848     1.0  0.81369  0.08249  0.66223  1.0000
  H   H2849     1.0  0.55753  0.32123  0.59407  1.0000
  H   H2850     1.0  0.54150  0.09637  0.51750  1.0000
  C   C1596     1.0  0.68842  0.29283  0.52144  1.0000
  C   C1597     1.0  0.70452  0.27917  0.52460  1.0000
  H   H2851     1.0  0.53903  0.20784  0.61659  1.0000
  H   H2852     1.0  0.64447  0.30273  0.53325  1.0000
  H   H2853     1.0  0.65773  0.31054  0.51419  1.0000
  H   H2854     1.0  0.58246  0.28417  0.51225  1.0000
  C   C1598     1.0  0.60792  0.02231  0.56115  1.0000
  H   H2855     1.0  0.54314  0.10147  0.61445  1.0000
  C   C1599     1.0  0.59207  0.11815  0.53512  1.0000
  H   H2856     1.0  0.67204  0.28122  0.52310  1.0000
  H   H2857     1.0  0.85579  0.06086  0.67327  1.0000
  H   H2858     1.0  0.70476  0.26764  0.51769  1.0000
  H   H2859     1.0  0.69924  0.26944  0.53630  1.0000
  N   N92       1.0  0.67662  0.32678  0.52667  1.0000
  H   H2860     1.0  0.52209  0.11625  0.53163  1.0000
  C   C1600     1.0  0.56819  0.10430  0.54416  1.0000
  C   C1601     1.0  0.56751  0.07606  0.53125  1.0000
  H   H2861     1.0  0.55765  0.14824  0.50470  1.0000
  C   C1602     1.0  0.59899  0.01430  0.62802  1.0000
  H   H2862     1.0  0.62460  0.02909  0.55314  1.0000
  H   H2863     1.0  0.67502  0.29688  0.54259  1.0000
  H   H2864     1.0  0.79365  0.07490  0.70212  1.0000
  H   H2865     1.0  0.53954  0.04830  0.53243  1.0000
  H   H2866     1.0  0.60607  0.30960  0.48807  1.0000
  C   C1603     1.0  0.81087  0.05077  0.68349  1.0000
  C   C1604     1.0  0.59829  0.33109  0.57821  1.0000
  C   C1605     1.0  0.63629  0.01431  0.61606  1.0000
  H   H2867     1.0  0.51336  0.16818  0.62078  1.0000
  H   H2868     1.0  0.50439  0.28509  0.52873  1.0000
  H   H2869     1.0  0.77629  0.02822  0.67494  1.0000
  H   H2870     1.0  0.61789  0.28801  0.49521  1.0000
  C   C1606     1.0  0.77759  0.02162  0.65419  1.0000
  H   H2871     1.0  0.51542  0.30908  0.60321  1.0000
  C   C1607     1.0  0.61873  0.33309  0.56602  1.0000
  H   H2872     1.0  0.72202  0.33178  0.50878  1.0000
  H   H2873     1.0  0.93530  0.00832  0.71928  1.0000
  S   S355      1.0  0.51222  0.29680  0.57193  1.0000
  C   C1608     1.0  0.60402  0.29157  0.49077  1.0000
  Fe  Fe177     1.0  0.84790  0.00927  0.70631  1.0000
  Fe  Fe178     1.0  0.52586  0.33351  0.56557  1.0000
  C   C1609     1.0  0.51144  0.19776  0.63562  1.0000
  H   H2874     1.0  0.56417  0.33390  0.62979  1.0000
  H   H2875     1.0  0.50456  0.18502  0.64638  1.0000
  H   H2876     1.0  0.63157  0.33527  0.53174  1.0000
  H   H2877     1.0  0.62035  0.00359  0.58435  1.0000
  H   H2878     1.0  0.59222  0.33507  0.63010  1.0000
  H   H2879     1.0  0.50304  0.25965  0.59669  1.0000
  C   C1610     1.0  0.99175  0.14104  0.83157  1.0000
  H   H2880     1.0  0.96448  0.03152  0.77361  1.0000
  S   S356      1.0  0.88938  0.06081  0.81163  1.0000
  H   H2881     1.0  0.64189  0.03539  0.91166  1.0000
  Fe  Fe179     1.0  0.90735  0.03855  0.82238  1.0000
  S   S357      1.0  0.94376  0.05361  0.81888  1.0000
  Fe  Fe180     1.0  0.86078  0.04316  0.83141  1.0000
  S   S358      1.0  0.83979  0.06160  0.84265  1.0000
  S   S359      1.0  0.66432  0.08001  0.97624  1.0000
  S   S360      1.0  0.99828  0.04223  0.74244  1.0000
  H   H2882     1.0  0.66647  0.12565  0.97046  1.0000
  H   H2883     1.0  0.92833  0.04287  0.85106  1.0000
  C   C1611     1.0  0.68616  0.06331  0.93326  1.0000
  C   C1612     1.0  0.69048  0.08522  0.93364  1.0000
  C   C1613     1.0  0.68392  0.09024  0.94693  1.0000
  C   C1614     1.0  0.67178  0.07345  0.95968  1.0000
  C   C1615     1.0  0.66698  0.05156  0.95925  1.0000
  C   C1616     1.0  0.67508  0.04647  0.94616  1.0000
  H   H2884     1.0  0.68772  0.10718  0.94722  1.0000
  H   H2885     1.0  0.65734  0.03856  0.96903  1.0000
  H   H2886     1.0  0.61552  0.03410  0.90857  1.0000
  H   H2887     1.0  0.80149  0.07001  0.85996  1.0000
  H   H2888     1.0  0.94595  0.03232  0.76190  1.0000
  H   H2889     1.0  0.94029  0.08287  0.88522  1.0000
  H   H2890     1.0  0.89126  0.07491  0.84592  1.0000
  H   H2891     1.0  0.95725  0.11090  0.80824  1.0000
  C   C1617     1.0  0.92726  0.12404  0.84571  1.0000
  C   C1618     1.0  0.71222  0.14412  0.96574  1.0000
  Fe  Fe181     1.0  0.70646  0.02773  0.91770  1.0000
  C   C1619     1.0  0.62584  0.02361  0.91270  1.0000
  H   H2892     1.0  0.76368  0.04565  0.87357  1.0000
  C   C1620     1.0  0.91948  0.09906  0.84712  1.0000
  C   C1621     1.0  0.95544  0.06204  0.83217  1.0000
  C   C1622     1.0  0.97665  0.07664  0.82733  1.0000
  C   C1623     1.0  0.94727  0.03147  0.77318  1.0000
  C   C1624     1.0  0.97756  0.07448  0.85237  1.0000
  C   C1625     1.0  0.95591  0.06033  0.85734  1.0000
  C   C1626     1.0  0.94477  0.05418  0.84723  1.0000
  H   H2893     1.0  0.98455  0.08339  0.81572  1.0000
  C   C1627     1.0  0.79705  0.05312  0.85960  1.0000
  H   H2894     1.0  0.94789  0.05400  0.86898  1.0000
  C   C1628     1.0  0.95697  0.07301  0.76820  1.0000
  C   C1629     1.0  0.85832  0.02162  0.77340  1.0000
  H   H2895     1.0  0.98388  0.01529  0.85274  1.0000
  H   H2896     1.0  0.59544  0.01676  0.94774  1.0000
  H   H2897     1.0  0.94019  0.15609  0.85719  1.0000
  C   C1630     1.0  0.90521  0.09275  0.74842  1.0000
  C   C1631     1.0  0.85637  0.02689  0.75904  1.0000
  C   C1632     1.0  0.62604  0.04267  0.93972  1.0000
  H   H2898     1.0  0.98719  0.02428  0.81989  1.0000
  C   C1633     1.0  0.84131  0.01236  0.75465  1.0000
  H   H2899     1.0  0.98874  0.12034  0.77449  1.0000
  C   C1634     1.0  0.78427  0.02631  0.76606  1.0000
  C   C1635     1.0  0.61831  0.06176  0.94390  1.0000
  C   C1636     1.0  0.79776  0.03954  0.80601  1.0000
  H   H2900     1.0  0.96470  0.11457  0.83254  1.0000
  C   C1637     1.0  0.69844  0.13041  0.98157  1.0000
  H   H2901     1.0  0.92539  0.13290  0.83504  1.0000
  H   H2902     1.0  0.79318  0.04149  0.90234  1.0000
  H   H2903     1.0  0.63185  0.12866  0.96222  1.0000
  H   H2904     1.0  0.94120  0.13189  0.87760  1.0000
  H   H2905     1.0  0.77809  0.00897  0.76598  1.0000
  C   C1638     1.0  0.98762  0.08284  0.83735  1.0000
  H   H2906     1.0  0.63233  0.03541  0.88235  1.0000
  C   C1639     1.0  0.99013  0.11838  0.76332  1.0000
  C   C1640     1.0  0.94752  0.09308  0.78609  1.0000
  H   H2907     1.0  0.64059  0.04986  0.92998  1.0000
  H   H2908     1.0  0.97175  0.20104  0.84046  1.0000
  H   H2909     1.0  0.93081  0.09432  0.83883  1.0000
  C   C1641     1.0  0.82145  0.04838  0.79525  1.0000
  H   H2910     1.0  0.81682  0.00642  0.91170  1.0000
  H   H2911     1.0  0.73832  0.07032  0.98097  1.0000
  H   H2912     1.0  0.79950  0.04063  0.81701  1.0000
  H   H2913     1.0  0.59784  0.03565  0.93098  1.0000
  H   H2914     1.0  0.93381  0.07884  0.79341  1.0000
  C   C1642     1.0  0.68103  0.00784  0.98472  1.0000
  H   H2915     1.0  0.77691  0.03681  0.75890  1.0000
  H   H2916     1.0  0.96286  0.14035  0.82305  1.0000
  H   H2917     1.0  0.98828  0.01881  0.78835  1.0000
  H   H2918     1.0  0.61274  0.07108  0.93498  1.0000
  H   H2919     1.0  0.60457  0.05564  0.95413  1.0000
  H   H2920     1.0  0.63228  0.07313  0.94581  1.0000
  H   H2921     1.0  0.68084  0.04106  0.98525  1.0000
  C   C1643     1.0  0.94318  0.09939  0.88714  1.0000
  H   H2922     1.0  0.76539  0.02823  0.83241  1.0000
  H   H2923     1.0  0.75949  0.02408  0.78549  1.0000
  C   C1644     1.0  0.95428  0.17335  0.83427  1.0000
  C   C1645     1.0  0.95625  0.19576  0.83727  1.0000
  C   C1646     1.0  0.94090  0.05065  0.77799  1.0000
  C   C1647     1.0  0.77568  0.03937  0.86729  1.0000
  H   H2924     1.0  0.81491  0.05821  0.88621  1.0000
  H   H2925     1.0  0.92797  0.09705  0.81336  1.0000
  H   H2926     1.0  0.93695  0.12663  0.80885  1.0000
  H   H2927     1.0  0.83119  0.03627  0.79675  1.0000
  H   H2928     1.0  0.92597  0.11516  0.78838  1.0000
  C   C1648     1.0  0.89628  0.09280  0.84492  1.0000
  C   C1649     1.0  0.83434  0.06951  0.79748  1.0000
  C   C1650     1.0  0.80696  0.02296  0.85146  1.0000
  H   H2929     1.0  0.95517  0.12895  0.78336  1.0000
  H   H2930     1.0  0.85108  0.07544  0.78952  1.0000
  C   C1651     1.0  0.93873  0.11591  0.87495  1.0000
  H   H2931     1.0  0.78440  0.04600  0.78110  1.0000
  H   H2932     1.0  0.96313  0.02039  0.84355  1.0000
  H   H2933     1.0  0.67040  0.15424  0.96852  1.0000
  H   H2934     1.0  0.95677  0.20823  0.82720  1.0000
  H   H2935     1.0  0.92353  0.04954  0.77772  1.0000
  H   H2936     1.0  0.92453  0.10934  0.76637  1.0000
  C   C1652     1.0  0.95379  0.15556  0.84808  1.0000
  H   H2937     1.0  0.95998  0.07293  0.75652  1.0000
  H   H2938     1.0  0.95414  0.10172  0.85865  1.0000
  H   H2939     1.0  0.71925  0.16148  0.96536  1.0000
  N   N93       1.0  0.71519  0.03999  0.98173  1.0000
  S   S361      1.0  0.87661  0.04081  0.77865  1.0000
  H   H2940     1.0  0.97311  0.07325  0.77068  1.0000
  H   H2941     1.0  0.65895  0.03592  0.88613  1.0000
  H   H2942     1.0  0.96874  0.17526  0.82498  1.0000
  H   H2943     1.0  0.99930  0.15392  0.75357  1.0000
  H   H2944     1.0  0.97020  0.11220  0.74862  1.0000
  N   N94       1.0  0.94987  0.09311  0.77035  1.0000
  C   C1653     1.0  0.94226  0.11365  0.79006  1.0000
  H   H2945     1.0  0.63132  0.03398  0.94899  1.0000
  H   H2946     1.0  0.94174  0.19509  0.84616  1.0000
  S   S362      1.0  0.56463  0.02766  0.97350  1.0000
  H   H2947     1.0  0.94157  0.04830  0.78952  1.0000
  H   H2948     1.0  0.71537  0.02801  0.96257  1.0000
  N   N95       1.0  0.95062  0.13245  0.84669  1.0000
  H   H2949     1.0  0.70215  0.14390  0.95779  1.0000
  H   H2950     1.0  0.96929  0.16092  0.85130  1.0000
  H   H2951     1.0  0.92311  0.06926  0.75428  1.0000
  H   H2952     1.0  0.96090  0.12824  0.75972  1.0000
  H   H2953     1.0  0.82067  0.05206  0.78370  1.0000
  H   H2954     1.0  0.71246  0.07334  0.97863  1.0000
  C   C1654     1.0  0.71991  0.04380  0.96533  1.0000
  S   S363      1.0  0.87959  0.02295  0.84311  1.0000
  H   H2955     1.0  0.81912  0.01605  0.84615  1.0000
  C   C1655     1.0  0.60739  0.02605  0.93688  1.0000
  H   H2956     1.0  0.72522  0.11768  0.96000  1.0000
  H   H2957     1.0  0.82186  0.04714  0.90287  1.0000
  C   C1656     1.0  0.74428  0.05479  0.95613  1.0000
  C   C1657     1.0  0.74598  0.06072  0.93973  1.0000
  H   H2958     1.0  0.93188  0.09805  0.89789  1.0000
  H   H2959     1.0  0.83650  0.06640  0.80873  1.0000
  H   H2960     1.0  0.92110  0.11000  0.87514  1.0000
  C   C1658     1.0  0.81052  0.04376  0.89597  1.0000
  H   H2961     1.0  0.86646  0.04234  0.75127  1.0000
  C   C1659     1.0  0.81267  0.02334  0.89100  1.0000
  H   H2962     1.0  0.70945  0.05395  0.96103  1.0000
  C   C1660     1.0  0.73156  0.13484  0.96038  1.0000
  C   C1661     1.0  0.66420  0.13780  0.97677  1.0000
  H   H2963     1.0  0.83002  0.02681  0.88427  1.0000
  C   C1662     1.0  0.92541  0.08718  0.75270  1.0000
  C   C1663     1.0  0.95471  0.11837  0.85989  1.0000
  H   H2964     1.0  0.78826  0.05154  0.80287  1.0000
  H   H2965     1.0  0.82553  0.08252  0.79569  1.0000
  H   H2966     1.0  0.97178  0.12494  0.86070  1.0000
  C   C1664     1.0  0.96670  0.13177  0.83307  1.0000
  C   C1665     1.0  0.92784  0.09300  0.76703  1.0000
  H   H2967     1.0  0.75142  0.07020  0.95859  1.0000
  H   H2968     1.0  0.75455  0.04316  0.95817  1.0000
  H   H2969     1.0  0.73631  0.07266  0.93691  1.0000
  H   H2970     1.0  0.76363  0.06817  0.93333  1.0000
  H   H2971     1.0  0.73967  0.04578  0.93647  1.0000
  S   S364      1.0  0.99142  0.08346  0.86467  1.0000
  H   H2972     1.0  0.96063  0.10475  0.88762  1.0000
  C   C1666     1.0  0.97732  0.01310  0.84333  1.0000
  H   H2973     1.0  0.67182  0.02961  0.94585  1.0000
  C   C1667     1.0  0.96713  0.11339  0.76005  1.0000
  H   H2974     1.0  0.74269  0.13504  0.96771  1.0000
  H   H2975     1.0  0.99549  0.15771  0.83313  1.0000
  Fe  Fe182     1.0  0.87743  0.03343  0.80223  1.0000
  C   C1668     1.0  0.64288  0.02510  0.88628  1.0000
  C   C1669     1.0  0.81279  0.04483  0.85179  1.0000
  H   H2976     1.0  0.69907  0.09830  0.92366  1.0000
  H   H2977     1.0  0.88389  0.09629  0.85337  1.0000
  C   C1670     1.0  0.94105  0.11194  0.80613  1.0000
  S   S365      1.0  0.74259  0.03328  0.90676  1.0000
  H   H2978     1.0  0.76147  0.04800  0.97900  1.0000
  C   C1671     1.0  0.73144  0.00962  0.83766  1.0000
  S   S366      1.0  0.69320  0.05732  0.91643  1.0000
  H   H2979     1.0  0.91872  0.08890  0.85813  1.0000
  H   H2980     1.0  0.89607  0.10190  0.83385  1.0000
  H   H2981     1.0  0.91383  0.08129  0.77616  1.0000
  H   H2982     1.0  0.96256  0.09040  0.78945  1.0000
  H   H2983     1.0  0.91497  0.12771  0.85416  1.0000
  H   H2984     1.0  0.74136  0.14499  0.94914  1.0000
  H   H2985     1.0  0.93890  0.16905  0.83081  1.0000
  H   H2986     1.0  0.93566  0.01593  0.78067  1.0000
  C   C1672     1.0  0.76992  0.01756  0.86673  1.0000
  H   H2987     1.0  0.72837  0.00970  0.84933  1.0000
  H   H2988     1.0  0.83969  0.01672  0.74361  1.0000
  C   C1673     1.0  0.99535  0.02438  0.82887  1.0000
  H   H2989     1.0  0.80150  0.02113  0.88392  1.0000
  S   S367      1.0  0.84718  0.01793  0.82094  1.0000
  H   H2990     1.0  0.99712  0.13004  0.83980  1.0000
  H   H2991     1.0  0.99812  0.10500  0.76239  1.0000
  H   H2992     1.0  0.90349  0.03036  0.74031  1.0000
  H   H2993     1.0  0.60958  0.13377  0.97468  1.0000
  H   H2994     1.0  0.63380  0.15608  0.96435  1.0000
  H   H2995     1.0  0.88987  0.08448  0.75754  1.0000
  S   S368      1.0  0.60192  0.07879  0.98054  1.0000
  H   H2996     1.0  0.90743  0.11080  0.74552  1.0000
  C   C1674     1.0  0.62791  0.13822  0.97014  1.0000
  H   H2997     1.0  0.80262  0.03165  0.76143  1.0000
  H   H2998     1.0  0.94023  0.09606  0.74335  1.0000
  S   S369      1.0  0.89752  0.01235  0.81140  1.0000
  C   C1675     1.0  0.77790  0.02850  0.78164  1.0000
  H   H2999     1.0  0.69459  0.17122  0.98049  1.0000
  H   H3000     1.0  0.75450  0.02570  0.80915  1.0000
  C   C1676     1.0  0.72031  0.06201  0.98489  1.0000
  H   H3001     1.0  0.58315  0.00833  0.91189  1.0000
  C   C1677     1.0  0.99997  0.00897  0.78550  1.0000
  Fe  Fe183     1.0  0.74167  0.00846  0.92718  1.0000
  C   C1678     1.0  0.75616  0.01256  0.83113  1.0000
  H   H3002     1.0  0.69430  0.11282  0.98162  1.0000
  H   H3003     1.0  0.64638  0.01501  0.87866  1.0000
  H   H3004     1.0  0.72592  0.02328  0.83170  1.0000
  H   H3005     1.0  0.64715  0.01412  0.93306  1.0000
  N   N96       1.0  0.78528  0.01645  0.80702  1.0000
  C   C1679     1.0  0.63859  0.13280  0.98264  1.0000
  C   C1680     1.0  0.63108  0.01000  0.90174  1.0000
  H   H3006     1.0  0.67987  0.01154  0.97324  1.0000
  N   N97       1.0  0.61501  0.01064  0.92854  1.0000
  H   H3007     1.0  0.56921  0.00971  0.92969  1.0000
  H   H3008     1.0  0.72933  0.01245  0.98175  1.0000
  C   C1681     1.0  0.78701  0.01306  0.79201  1.0000
  H   H3009     1.0  0.80452  0.01454  0.78637  1.0000
  S   S370      1.0  0.77011  0.01267  0.93729  1.0000
  C   C1682     1.0  0.76118  0.01267  0.81477  1.0000
  C   C1683     1.0  0.78541  0.00961  0.85848  1.0000
  H   H3010     1.0  0.76732  0.01101  0.98300  1.0000
  H   H3011     1.0  0.79727  0.00450  0.82569  1.0000
  H   H3012     1.0  0.90320  0.08691  0.73875  1.0000
  H   H3013     1.0  0.00189  0.04165  0.82880  1.0000
  S   S371      1.0  0.70641  0.00502  0.93882  1.0000
  Fe  Fe184     1.0  0.73083  0.00427  0.89878  1.0000
  H   H3014     1.0  0.00222  0.01410  0.87385  1.0000
  N   N98       1.0  0.67759  0.13650  0.98789  1.0000
  H   H3015     1.0  0.00245  0.15466  0.80775  1.0000
  Fe  Fe185     1.0  0.57708  0.37893  0.14954  1.0000
  H   H3016     1.0  0.73237  0.53459  0.00803  1.0000
  S   S372      1.0  0.61328  0.39643  0.14242  1.0000
  Fe  Fe186     1.0  0.53948  0.36877  0.13547  1.0000
  S   S373      1.0  0.52977  0.37821  0.11451  1.0000
  S   S374      1.0  0.55191  0.39653  0.14441  1.0000
  C   C1684     1.0  0.65622  0.35979  0.16289  1.0000
  Fe  Fe187     1.0  0.73789  0.41071  0.17730  1.0000
  S   S375      1.0  0.72392  0.42957  0.19215  1.0000
  S   S376      1.0  0.73901  0.37596  0.18680  1.0000
  Fe  Fe188     1.0  0.74167  0.44568  0.14957  1.0000
  S   S377      1.0  0.72800  0.46726  0.16214  1.0000
  S   S378      1.0  0.75162  0.45395  0.12468  1.0000
  Fe  Fe189     1.0  0.75033  0.45931  0.17667  1.0000
  S   S379      1.0  0.76845  0.48841  0.18348  1.0000
  Fe  Fe190     1.0  0.70314  0.43586  0.17656  1.0000
  S   S380      1.0  0.66602  0.43073  0.18444  1.0000
  S   S381      1.0  0.76593  0.43991  0.16280  1.0000
  S   S382      1.0  0.71529  0.41491  0.16299  1.0000
  Fe  Fe191     1.0  0.67702  0.42610  0.07443  1.0000
  S   S383      1.0  0.70331  0.41006  0.06685  1.0000
  S   S384      1.0  0.67256  0.43658  0.09527  1.0000
  Fe  Fe192     1.0  0.65807  0.42435  0.04805  1.0000
  S   S385      1.0  0.68403  0.40947  0.03793  1.0000
  S   S386      1.0  0.63185  0.43355  0.03738  1.0000
  Fe  Fe193     1.0  0.67673  0.38788  0.06086  1.0000
  S   S387      1.0  0.50959  0.38958  0.18093  1.0000
  Fe  Fe194     1.0  0.70808  0.43346  0.04479  1.0000
  S   S388      1.0  0.74286  0.45312  0.03092  1.0000
  S   S389      1.0  0.64977  0.40186  0.07058  1.0000
  S   S390      1.0  0.68277  0.45045  0.05270  1.0000
  H   H3017     1.0  0.73221  0.53049  0.03706  1.0000
  C   C1685     1.0  0.61191  0.48684  0.13935  1.0000
  C   C1686     1.0  0.75961  0.55953  0.99052  1.0000
  S   S391      1.0  0.54193  0.38413  0.02725  1.0000
  H   H3018     1.0  0.69638  0.35164  0.04080  1.0000
  H   H3019     1.0  0.56633  0.36009  0.98866  1.0000
  H   H3020     1.0  0.66215  0.36117  0.10909  1.0000
  S   S392      1.0  0.84025  0.49820  0.22040  1.0000
  H   H3021     1.0  0.76155  0.44294  0.23654  1.0000
  C   C1687     1.0  0.65150  0.34809  0.17917  1.0000
  H   H3022     1.0  0.64505  0.40125  0.01695  1.0000
  S   S393      1.0  0.88768  0.60660  0.21573  1.0000
  H   H3023     1.0  0.72498  0.55267  0.04363  1.0000
  S   S394      1.0  0.88773  0.54478  0.22768  1.0000
  H   H3024     1.0  0.98715  0.58468  0.03730  1.0000
  H   H3025     1.0  0.62569  0.42920  0.11259  1.0000
  H   H3026     1.0  0.89549  0.63711  0.07109  1.0000
  H   H3027     1.0  0.78820  0.52572  0.00320  1.0000
  H   H3028     1.0  0.77296  0.48241  0.22525  1.0000
  H   H3029     1.0  0.59952  0.44283  0.17529  1.0000
  Fe  Fe195     1.0  0.84835  0.59172  0.00525  1.0000
  S   S395      1.0  0.87575  0.60865  0.01308  1.0000
  Fe  Fe196     1.0  0.82308  0.56032  0.03539  1.0000
  S   S396      1.0  0.84829  0.57509  0.04597  1.0000
  S   S397      1.0  0.79118  0.53464  0.04944  1.0000
  Fe  Fe197     1.0  0.84828  0.60771  0.03198  1.0000
  S   S398      1.0  0.84824  0.63934  0.03773  1.0000
  Fe  Fe198     1.0  0.87369  0.57480  0.02610  1.0000
  S   S399      1.0  0.90326  0.56200  0.02828  1.0000
  S   S400      1.0  0.82081  0.59322  0.02321  1.0000
  S   S401      1.0  0.84849  0.55749  0.01654  1.0000
  C   C1688     1.0  0.56373  0.35101  0.00028  1.0000
  C   C1689     1.0  0.95876  0.61226  0.00528  1.0000
  C   C1690     1.0  0.93638  0.60054  0.01257  1.0000
  C   C1691     1.0  0.93046  0.57754  0.01800  1.0000
  C   C1692     1.0  0.94676  0.56636  0.01571  1.0000
  C   C1693     1.0  0.72287  0.34294  0.06986  1.0000
  C   C1694     1.0  0.96868  0.57787  0.00780  1.0000
  H   H3030     1.0  0.92382  0.60925  0.01433  1.0000
  H   H3031     1.0  0.94236  0.54862  0.01986  1.0000
  H   H3032     1.0  0.52403  0.42380  0.05265  1.0000
  C   C1695     1.0  0.87151  0.64966  0.04339  1.0000
  C   C1696     1.0  0.50835  0.34590  0.08700  1.0000
  Fe  Fe199     1.0  0.51760  0.35027  0.03691  1.0000
  H   H3033     1.0  0.74765  0.45606  0.21512  1.0000
  C   C1697     1.0  0.88130  0.62754  0.22319  1.0000
  C   C1698     1.0  0.87664  0.64527  0.21437  1.0000
  C   C1699     1.0  0.56626  0.34432  0.08165  1.0000
  H   H3034     1.0  0.64789  0.39106  0.00105  1.0000
  C   C1700     1.0  0.75047  0.56342  0.02287  1.0000
  H   H3035     1.0  0.94216  0.62809  0.02886  1.0000
  H   H3036     1.0  0.51690  0.40321  0.07005  1.0000
  C   C1701     1.0  0.58702  0.51024  0.13127  1.0000
  C   C1702     1.0  0.58581  0.34823  0.00285  1.0000
  N   N99       1.0  0.61675  0.46470  0.14323  1.0000
  C   C1703     1.0  0.75582  0.47641  0.03566  1.0000
  C   C1704     1.0  0.77763  0.48860  0.02767  1.0000
  C   C1705     1.0  0.78864  0.50665  0.03166  1.0000
  C   C1706     1.0  0.77788  0.51263  0.04365  1.0000
  C   C1707     1.0  0.75607  0.50048  0.05157  1.0000
  C   C1708     1.0  0.74509  0.48245  0.04763  1.0000
  H   H3037     1.0  0.62418  0.49770  0.12899  1.0000
  H   H3038     1.0  0.80552  0.51576  0.02555  1.0000
  H   H3039     1.0  0.74763  0.50488  0.06091  1.0000
  H   H3040     1.0  0.72843  0.47305  0.05401  1.0000
  C   C1709     1.0  0.60811  0.41715  0.03453  1.0000
  C   C1710     1.0  0.59691  0.39541  0.04304  1.0000
  C   C1711     1.0  0.57671  0.38443  0.04087  1.0000
  C   C1712     1.0  0.56786  0.39524  0.03017  1.0000
  C   C1713     1.0  0.57949  0.41662  0.02161  1.0000
  C   C1714     1.0  0.59927  0.42746  0.02381  1.0000
  H   H3041     1.0  0.60346  0.38736  0.05148  1.0000
  H   H3042     1.0  0.56775  0.36795  0.04764  1.0000
  H   H3043     1.0  0.57287  0.42513  0.01337  1.0000
  H   H3044     1.0  0.60765  0.44420  0.01723  1.0000
  S   S402      1.0  0.51572  0.34782  0.15671  1.0000
  C   C1715     1.0  0.99484  0.61513  0.04364  1.0000
  Fe  Fe200     1.0  0.52981  0.37449  0.16608  1.0000
  C   C1716     1.0  0.94965  0.60677  0.07356  1.0000
  C   C1717     1.0  0.84946  0.41030  0.05454  1.0000
  C   C1718     1.0  0.78888  0.49083  0.19343  1.0000
  C   C1719     1.0  0.79720  0.47325  0.19880  1.0000
  C   C1720     1.0  0.81307  0.47593  0.20684  1.0000
  C   C1721     1.0  0.82079  0.49614  0.20971  1.0000
  C   C1722     1.0  0.81251  0.51374  0.20430  1.0000
  C   C1723     1.0  0.79668  0.51107  0.19623  1.0000
  H   H3045     1.0  0.79143  0.45759  0.19675  1.0000
  H   H3046     1.0  0.81936  0.46220  0.21090  1.0000
  H   H3047     1.0  0.81834  0.52943  0.20630  1.0000
  H   H3048     1.0  0.79044  0.52481  0.19213  1.0000
  C   C1724     1.0  0.72977  0.45008  0.11631  1.0000
  C   C1725     1.0  0.70874  0.45166  0.12291  1.0000
  C   C1726     1.0  0.69153  0.44798  0.11612  1.0000
  C   C1727     1.0  0.69505  0.44223  0.10291  1.0000
  C   C1728     1.0  0.71619  0.44092  0.09621  1.0000
  C   C1729     1.0  0.73350  0.44498  0.10288  1.0000
  H   H3049     1.0  0.70579  0.45579  0.13320  1.0000
  H   H3050     1.0  0.67531  0.44927  0.12123  1.0000
  H   H3051     1.0  0.71917  0.43676  0.08595  1.0000
  H   H3052     1.0  0.74969  0.44358  0.09791  1.0000
  H   H3053     1.0  0.62890  0.47196  0.16132  1.0000
  H   H3054     1.0  0.62034  0.34997  0.11579  1.0000
  H   H3055     1.0  0.55266  0.43579  0.17074  1.0000
  H   H3056     1.0  0.52798  0.37794  0.08563  1.0000
  C   C1730     1.0  0.62757  0.40307  0.15506  1.0000
  C   C1731     1.0  0.61660  0.40063  0.16966  1.0000
  C   C1732     1.0  0.62854  0.40869  0.17881  1.0000
  C   C1733     1.0  0.65148  0.41874  0.17348  1.0000
  C   C1734     1.0  0.66240  0.42045  0.15904  1.0000
  C   C1735     1.0  0.65047  0.41267  0.14989  1.0000
  H   H3057     1.0  0.59888  0.39321  0.17374  1.0000
  H   H3058     1.0  0.62001  0.40736  0.18998  1.0000
  H   H3059     1.0  0.67988  0.42863  0.15470  1.0000
  H   H3060     1.0  0.65892  0.41450  0.13864  1.0000
  H   H3061     1.0  0.96198  0.60816  0.04033  1.0000
  H   H3062     1.0  0.79565  0.55163  0.22626  1.0000
  H   H3063     1.0  0.57596  0.48040  0.14881  1.0000
  H   H3064     1.0  0.56980  0.50988  0.13071  1.0000
  H   H3065     1.0  0.97173  0.66405  0.02928  1.0000
  H   H3066     1.0  0.52756  0.39678  0.05337  1.0000
  H   H3067     1.0  0.96139  0.61547  0.07860  1.0000
  H   H3068     1.0  0.98097  0.56890  0.00578  1.0000
  C   C1736     1.0  0.79668  0.53688  0.99211  1.0000
  C   C1737     1.0  0.58825  0.48693  0.13786  1.0000
  C   C1738     1.0  0.92823  0.59454  0.08570  1.0000
  H   H3069     1.0  0.99657  0.66024  0.04465  1.0000
  H   H3070     1.0  0.85677  0.42402  0.04427  1.0000
  H   H3071     1.0  0.64626  0.35896  0.18580  1.0000
  H   H3072     1.0  0.63480  0.34529  0.13703  1.0000
  C   C1739     1.0  0.84759  0.64240  0.98816  1.0000
  H   H3073     1.0  0.82934  0.53667  0.99531  1.0000
  N   N100      1.0  0.66935  0.35508  0.13683  1.0000
  H   H3074     1.0  0.65982  0.38065  0.01560  1.0000
  C   C1740     1.0  0.87638  0.63694  0.05532  1.0000
  H   H3075     1.0  0.79755  0.58941  0.08682  1.0000
  H   H3076     1.0  0.78611  0.48392  0.01847  1.0000
  C   C1741     1.0  0.98227  0.64997  0.05410  1.0000
  H   H3077     1.0  0.84598  0.39443  0.05174  1.0000
  H   H3078     1.0  0.86701  0.61991  0.06023  1.0000
  N   N101      1.0  0.78906  0.41753  0.06246  1.0000
  C   C1742     1.0  0.77507  0.41902  0.05175  1.0000
  C   C1743     1.0  0.79519  0.43915  0.06615  1.0000
  C   C1744     1.0  0.81040  0.41333  0.05497  1.0000
  C   C1745     1.0  0.77783  0.39876  0.07623  1.0000
  C   C1746     1.0  0.75382  0.39753  0.08436  1.0000
  C   C1747     1.0  0.76858  0.39819  0.04652  1.0000
  C   C1748     1.0  0.82825  0.41336  0.06359  1.0000
  C   C1749     1.0  0.77816  0.45298  0.06654  1.0000
  C   C1750     1.0  0.78508  0.47218  0.07281  1.0000
  C   C1751     1.0  0.74404  0.37685  0.09738  1.0000
  C   C1752     1.0  0.75247  0.40039  0.03709  1.0000
  H   H3079     1.0  0.96352  0.63000  0.00157  1.0000
  H   H3080     1.0  0.78390  0.43311  0.04179  1.0000
  H   H3081     1.0  0.75937  0.42287  0.05634  1.0000
  H   H3082     1.0  0.79937  0.43646  0.07685  1.0000
  H   H3083     1.0  0.81053  0.45051  0.05789  1.0000
  H   H3084     1.0  0.81817  0.42579  0.04407  1.0000
  H   H3085     1.0  0.80709  0.39703  0.05274  1.0000
  H   H3086     1.0  0.77767  0.38270  0.07385  1.0000
  H   H3087     1.0  0.78755  0.39937  0.08442  1.0000
  H   H3088     1.0  0.74268  0.39699  0.07708  1.0000
  H   H3089     1.0  0.75365  0.41175  0.08886  1.0000
  H   H3090     1.0  0.78340  0.39542  0.03967  1.0000
  H   H3091     1.0  0.76044  0.38342  0.05597  1.0000
  H   H3092     1.0  0.82213  0.39968  0.07389  1.0000
  H   H3093     1.0  0.83290  0.42904  0.06643  1.0000
  H   H3094     1.0  0.77751  0.46002  0.05522  1.0000
  H   H3095     1.0  0.76121  0.44319  0.07300  1.0000
  H   H3096     1.0  0.78768  0.46632  0.08378  1.0000
  H   H3097     1.0  0.80058  0.48412  0.06527  1.0000
  H   H3098     1.0  0.77181  0.48078  0.07405  1.0000
  H   H3099     1.0  0.74442  0.36178  0.09380  1.0000
  H   H3100     1.0  0.75346  0.37742  0.10572  1.0000
  H   H3101     1.0  0.72649  0.37582  0.10258  1.0000
  H   H3102     1.0  0.73693  0.40278  0.04334  1.0000
  H   H3103     1.0  0.76019  0.41455  0.02710  1.0000
  H   H3104     1.0  0.74808  0.38522  0.03361  1.0000
  H   H3105     1.0  0.71822  0.51289  0.99273  1.0000
  H   H3106     1.0  0.62204  0.36510  0.03283  1.0000
  C   C1753     1.0  0.97453  0.66538  0.06308  1.0000
  H   H3107     1.0  0.99101  0.60652  0.05545  1.0000
  C   C1754     1.0  0.72887  0.35688  0.17776  1.0000
  H   H3108     1.0  0.61432  0.49559  0.14778  1.0000
  C   C1755     1.0  0.65255  0.36953  0.11582  1.0000
  H   H3109     1.0  0.56569  0.41435  0.17651  1.0000
  H   H3110     1.0  0.87643  0.64560  0.20323  1.0000
  C   C1756     1.0  0.68761  0.37619  0.13217  1.0000
  H   H3111     1.0  0.89374  0.65541  0.98917  1.0000
  H   H3112     1.0  0.63798  0.34179  0.01894  1.0000
  H   H3113     1.0  0.95643  0.59425  0.06940  1.0000
  C   C1757     1.0  0.70868  0.37439  0.13722  1.0000
  C   C1758     1.0  0.00129  0.59943  0.03491  1.0000
  H   H3114     1.0  0.93551  0.63339  0.06577  1.0000
  H   H3115     1.0  0.98132  0.63213  0.02789  1.0000
  C   C1759     1.0  0.72667  0.39612  0.13110  1.0000
  H   H3116     1.0  0.63295  0.37388  0.10034  1.0000
  Fe  Fe201     1.0  0.85248  0.52478  0.23124  1.0000
  H   H3117     1.0  0.55973  0.43196  0.18793  1.0000
  H   H3118     1.0  0.59214  0.33898  0.99537  1.0000
  H   H3119     1.0  0.68149  0.38931  0.13605  1.0000
  H   H3120     1.0  0.69298  0.38274  0.12000  1.0000
  C   C1760     1.0  0.51852  0.36197  0.09282  1.0000
  H   H3121     1.0  0.98186  0.66484  0.22946  1.0000
  H   H3122     1.0  0.98940  0.63898  0.06108  1.0000
  H   H3123     1.0  0.76531  0.53812  0.01710  1.0000
  H   H3124     1.0  0.72916  0.43104  0.22786  1.0000
  H   H3125     1.0  0.57811  0.34740  0.02581  1.0000
  H   H3126     1.0  0.71571  0.36177  0.13340  1.0000
  H   H3127     1.0  0.70484  0.37015  0.14935  1.0000
  C   C1761     1.0  0.59659  0.44652  0.15286  1.0000
  C   C1762     1.0  0.93900  0.64266  0.03202  1.0000
  H   H3128     1.0  0.59756  0.36485  0.99957  1.0000
  C   C1763     1.0  0.64933  0.36005  0.13251  1.0000
  H   H3129     1.0  0.56589  0.36159  0.08084  1.0000
  C   C1764     1.0  0.89237  0.64672  0.06150  1.0000
  H   H3130     1.0  0.53152  0.34831  0.22142  1.0000
  H   H3131     1.0  0.95016  0.66423  0.04415  1.0000
  H   H3132     1.0  0.73210  0.40079  0.11896  1.0000
  H   H3133     1.0  0.72018  0.40918  0.13462  1.0000
  H   H3134     1.0  0.74125  0.39479  0.13536  1.0000
  N   N102      1.0  0.57676  0.44287  0.07139  1.0000
  C   C1765     1.0  0.55392  0.43191  0.07063  1.0000
  C   C1766     1.0  0.57488  0.45615  0.08242  1.0000
  C   C1767     1.0  0.58923  0.45859  0.05645  1.0000
  C   C1768     1.0  0.58990  0.42655  0.07494  1.0000
  C   C1769     1.0  0.57907  0.40764  0.08918  1.0000
  C   C1770     1.0  0.55275  0.41767  0.05983  1.0000
  C   C1771     1.0  0.61243  0.47343  0.05525  1.0000
  C   C1772     1.0  0.55365  0.44807  0.09565  1.0000
  C   C1773     1.0  0.55592  0.46057  0.10707  1.0000
  C   C1774     1.0  0.59450  0.39313  0.09213  1.0000
  C   C1775     1.0  0.52887  0.40993  0.05900  1.0000
  C   C1776     1.0  0.62259  0.48948  0.03991  1.0000
  H   H3135     1.0  0.54503  0.44463  0.06775  1.0000
  H   H3136     1.0  0.54363  0.42067  0.08146  1.0000
  H   H3137     1.0  0.58971  0.45800  0.08674  1.0000
  H   H3138     1.0  0.57496  0.47327  0.07697  1.0000
  H   H3139     1.0  0.57902  0.46951  0.05267  1.0000
  H   H3140     1.0  0.59238  0.44953  0.04813  1.0000
  H   H3141     1.0  0.59383  0.41906  0.06577  1.0000
  H   H3142     1.0  0.60629  0.43497  0.07593  1.0000
  H   H3143     1.0  0.56369  0.39711  0.08831  1.0000
  H   H3144     1.0  0.57545  0.41408  0.09877  1.0000
  H   H3145     1.0  0.56285  0.42686  0.04854  1.0000
  H   H3146     1.0  0.55862  0.40296  0.06352  1.0000
  H   H3147     1.0  0.62415  0.46338  0.05717  1.0000
  H   H3148     1.0  0.61152  0.48326  0.06323  1.0000
  H   H3149     1.0  0.53911  0.45094  0.09175  1.0000
  H   H3150     1.0  0.54970  0.43033  0.10131  1.0000
  H   H3151     1.0  0.56008  0.47860  0.10199  1.0000
  H   H3152     1.0  0.53998  0.45550  0.11580  1.0000
  H   H3153     1.0  0.56898  0.45663  0.11223  1.0000
  H   H3154     1.0  0.60973  0.40274  0.09392  1.0000
  H   H3155     1.0  0.58589  0.37934  0.10221  1.0000
  H   H3156     1.0  0.59925  0.38623  0.08282  1.0000
  H   H3157     1.0  0.62447  0.48035  0.03150  1.0000
  H   H3158     1.0  0.61204  0.50066  0.03749  1.0000
  H   H3159     1.0  0.63933  0.49954  0.03921  1.0000
  H   H3160     1.0  0.58286  0.47670  0.13091  1.0000
  H   H3161     1.0  0.62061  0.37713  0.11788  1.0000
  H   H3162     1.0  0.78400  0.56037  0.01919  1.0000
  H   H3163     1.0  0.66600  0.49144  0.16145  1.0000
  C   C1777     1.0  0.64551  0.38640  0.01310  1.0000
  C   C1778     1.0  0.97484  0.60082  0.00263  1.0000
  C   C1779     1.0  0.51708  0.35728  0.10780  1.0000
  C   C1780     1.0  0.97496  0.62301  0.03980  1.0000
  C   C1781     1.0  0.75944  0.47664  0.23568  1.0000
  H   H3164     1.0  0.67541  0.46832  0.15766  1.0000
  C   C1782     1.0  0.95730  0.65316  0.03848  1.0000
  N   N103      1.0  0.79309  0.52097  0.10178  1.0000
  C   C1783     1.0  0.77494  0.51041  0.09584  1.0000
  C   C1784     1.0  0.81357  0.51367  0.09654  1.0000
  C   C1785     1.0  0.78544  0.51211  0.11833  1.0000
  C   C1786     1.0  0.79818  0.54580  0.09764  1.0000
  C   C1787     1.0  0.79559  0.55747  0.08252  1.0000
  C   C1788     1.0  0.75146  0.51270  0.10233  1.0000
  C   C1789     1.0  0.80234  0.51932  0.12681  1.0000
  C   C1790     1.0  0.82460  0.52103  0.07979  1.0000
  C   C1791     1.0  0.84286  0.50978  0.07581  1.0000
  C   C1792     1.0  0.80565  0.58234  0.07841  1.0000
  C   C1793     1.0  0.73613  0.50801  0.09267  1.0000
  C   C1794     1.0  0.79130  0.51223  0.14333  1.0000
  H   H3165     1.0  0.77333  0.49243  0.09799  1.0000
  H   H3166     1.0  0.77912  0.51673  0.08374  1.0000
  H   H3167     1.0  0.82695  0.52018  0.10131  1.0000
  H   H3168     1.0  0.80967  0.49537  0.10045  1.0000
  H   H3169     1.0  0.78051  0.49381  0.12163  1.0000
  H   H3170     1.0  0.77033  0.51703  0.12283  1.0000
  H   H3171     1.0  0.78725  0.55118  0.10589  1.0000
  H   H3172     1.0  0.81539  0.55302  0.09800  1.0000
  H   H3173     1.0  0.77776  0.55453  0.08282  1.0000
  H   H3174     1.0  0.80364  0.55153  0.07354  1.0000
  H   H3175     1.0  0.74378  0.50062  0.11332  1.0000
  H   H3176     1.0  0.75217  0.52939  0.10363  1.0000
  H   H3177     1.0  0.80942  0.53743  0.12329  1.0000
  H   H3178     1.0  0.81608  0.51137  0.12510  1.0000
  H   H3179     1.0  0.81259  0.51710  0.07349  1.0000
  H   H3180     1.0  0.83258  0.53901  0.07614  1.0000
  H   H3181     1.0  0.83579  0.49168  0.07879  1.0000
  H   H3182     1.0  0.85082  0.51585  0.06379  1.0000
  H   H3183     1.0  0.85583  0.51361  0.08153  1.0000
  H   H3184     1.0  0.72233  0.45678  0.22733  1.0000
  H   H3185     1.0  0.82380  0.58624  0.07728  1.0000
  H   H3186     1.0  0.96894  0.60038  0.23396  1.0000
  H   H3187     1.0  0.74213  0.52080  0.08192  1.0000
  H   H3188     1.0  0.73544  0.49160  0.09082  1.0000
  H   H3189     1.0  0.71906  0.50813  0.09813  1.0000
  H   H3190     1.0  0.77780  0.52023  0.14602  1.0000
  H   H3191     1.0  0.78425  0.49408  0.14740  1.0000
  H   H3192     1.0  0.80375  0.51701  0.14925  1.0000
  H   H3193     1.0  0.76898  0.55691  0.23114  1.0000
  S   S403      1.0  0.56672  0.35299  0.13858  1.0000
  H   H3194     1.0  0.59458  0.44014  0.12682  1.0000
  H   H3195     1.0  0.66952  0.37522  0.16040  1.0000
  H   H3196     1.0  0.75079  0.54657  0.04482  1.0000
  C   C1795     1.0  0.58807  0.44755  0.16879  1.0000
  H   H3197     1.0  0.74849  0.57068  0.99030  1.0000
  H   H3198     1.0  0.73782  0.56492  0.01677  1.0000
  H   H3199     1.0  0.68947  0.49567  0.14606  1.0000
  H   H3200     1.0  0.75422  0.37266  0.15740  1.0000
  H   H3201     1.0  0.60882  0.43964  0.10175  1.0000
  C   C1796     1.0  0.93823  0.57681  0.23698  1.0000
  C   C1797     1.0  0.74387  0.53583  0.99739  1.0000
  N   N104      1.0  0.96499  0.63695  0.04864  1.0000
  H   H3202     1.0  0.93310  0.61260  0.05675  1.0000
  H   H3203     1.0  0.68751  0.34718  0.11794  1.0000
  Fe  Fe202     1.0  0.87250  0.57231  0.23072  1.0000
  H   H3204     1.0  0.75698  0.57972  0.02454  1.0000
  C   C1798     1.0  0.66299  0.34491  0.15323  1.0000
  H   H3205     1.0  0.94669  0.62082  0.22255  1.0000
  H   H3206     1.0  0.64413  0.37251  0.13759  1.0000
  H   H3207     1.0  0.58246  0.44547  0.14793  1.0000
  H   H3208     1.0  0.51792  0.38577  0.21539  1.0000
  H   H3209     1.0  0.64082  0.36393  0.16128  1.0000
  H   H3210     1.0  0.90611  0.58698  0.99483  1.0000
  H   H3211     1.0  0.95953  0.65646  0.07230  1.0000
  H   H3212     1.0  0.66170  0.38726  0.11226  1.0000
  H   H3213     1.0  0.71300  0.34722  0.06209  1.0000
  C   C1799     1.0  0.67758  0.33894  0.12951  1.0000
  H   H3214     1.0  0.91595  0.58499  0.08135  1.0000
  H   H3215     1.0  0.80321  0.59021  0.06770  1.0000
  C   C1800     1.0  0.62377  0.36852  0.02089  1.0000
  H   H3216     1.0  0.59163  0.52104  0.13817  1.0000
  H   H3217     1.0  0.50987  0.34961  0.07536  1.0000
  C   C1801     1.0  0.79848  0.56119  0.99170  1.0000
  H   H3218     1.0  0.93188  0.58293  0.09457  1.0000
  H   H3219     1.0  0.60612  0.46810  0.11489  1.0000
  C   C1802     1.0  0.78275  0.59138  0.99517  1.0000
  C   C1803     1.0  0.94501  0.62289  0.06099  1.0000
  H   H3220     1.0  0.57955  0.34040  0.10022  1.0000
  H   H3221     1.0  0.95292  0.66369  0.00959  1.0000
  C   C1804     1.0  0.97678  0.64651  0.23206  1.0000
  H   H3222     1.0  0.76791  0.59634  0.00005  1.0000
  H   H3223     1.0  0.92087  0.60633  0.09048  1.0000
  H   H3224     1.0  0.59833  0.51726  0.11999  1.0000
  C   C1805     1.0  0.63018  0.36745  0.11231  1.0000
  S   S404      1.0  0.66685  0.35079  0.06852  1.0000
  H   H3225     1.0  0.66668  0.34432  0.18160  1.0000
  H   H3226     1.0  0.93548  0.64961  0.21266  1.0000
  C   C1806     1.0  0.76991  0.55634  0.01434  1.0000
  H   H3227     1.0  0.93955  0.57972  0.22509  1.0000
  C   C1807     1.0  0.93725  0.65874  0.01855  1.0000
  S   S405      1.0  0.83805  0.55322  0.23231  1.0000
  H   H3228     1.0  0.92262  0.63723  0.04031  1.0000
  C   C1808     1.0  0.87179  0.66237  0.21999  1.0000
  C   C1809     1.0  0.73990  0.35886  0.16326  1.0000
  H   H3229     1.0  0.98146  0.64288  0.22132  1.0000
  C   C1810     1.0  0.56515  0.43144  0.17640  1.0000
  H   H3230     1.0  0.63566  0.45688  0.10032  1.0000
  H   H3231     1.0  0.84455  0.63340  0.99949  1.0000
  H   H3232     1.0  0.86188  0.41019  0.06096  1.0000
  H   H3233     1.0  0.61004  0.37535  0.01847  1.0000
  C   C1811     1.0  0.73895  0.54722  0.03800  1.0000
  H   H3234     1.0  0.58708  0.46437  0.16903  1.0000
  S   S406      1.0  0.55636  0.35953  0.17219  1.0000
  C   C1812     1.0  0.62605  0.45842  0.12958  1.0000
  C   C1813     1.0  0.63431  0.46631  0.15147  1.0000
  C   C1814     1.0  0.65759  0.48192  0.14269  1.0000
  C   C1815     1.0  0.61004  0.45296  0.12024  1.0000
  C   C1816     1.0  0.62078  0.44419  0.10798  1.0000
  C   C1817     1.0  0.67296  0.48448  0.15262  1.0000
  H   H3235     1.0  0.60011  0.43032  0.15366  1.0000
  H   H3236     1.0  0.64043  0.47182  0.12196  1.0000
  H   H3237     1.0  0.63270  0.44395  0.13257  1.0000
  H   H3238     1.0  0.63659  0.44978  0.15574  1.0000
  H   H3239     1.0  0.65635  0.49848  0.13738  1.0000
  H   H3240     1.0  0.66577  0.47517  0.13413  1.0000
  H   H3241     1.0  0.75293  0.52322  0.99951  1.0000
  H   H3242     1.0  0.55658  0.36046  0.00735  1.0000
  H   H3243     1.0  0.82746  0.65864  0.06907  1.0000
  C   C1818     1.0  0.62380  0.34733  0.01594  1.0000
  H   H3244     1.0  0.81110  0.56646  0.99744  1.0000
  C   C1819     1.0  0.81505  0.60376  0.23646  1.0000
  H   H3245     1.0  0.79562  0.59697  0.00065  1.0000
  C   C1820     1.0  0.77945  0.54627  0.23474  1.0000
  C   C1821     1.0  0.90346  0.66916  0.05573  1.0000
  H   H3246     1.0  0.58204  0.34446  0.07412  1.0000
  H   H3247     1.0  0.96295  0.66644  0.21036  1.0000
  N   N105      1.0  0.77726  0.56664  0.99793  1.0000
  C   C1822     1.0  0.88160  0.62720  0.23758  1.0000
  H   H3248     1.0  0.83652  0.66719  0.08376  1.0000
  H   H3249     1.0  0.62822  0.35184  0.00375  1.0000
  C   C1823     1.0  0.73618  0.44886  0.22634  1.0000
  C   C1824     1.0  0.71065  0.33863  0.18540  1.0000
  H   H3250     1.0  0.81235  0.58925  0.23214  1.0000
  C   C1825     1.0  0.94268  0.61729  0.23468  1.0000
  H   H3251     1.0  0.72399  0.35531  0.07611  1.0000
  H   H3252     1.0  0.92353  0.65053  0.01467  1.0000
  H   H3253     1.0  0.99606  0.66202  0.07759  1.0000
  H   H3254     1.0  0.51687  0.42243  0.13869  1.0000
  H   H3255     1.0  0.76704  0.52112  0.22532  1.0000
  C   C1826     1.0  0.94122  0.65512  0.23321  1.0000
  H   H3256     1.0  0.80179  0.61205  0.23511  1.0000
  H   H3257     1.0  0.83144  0.61519  0.22989  1.0000
  H   H3258     1.0  0.79644  0.50898  0.23384  1.0000
  H   H3259     1.0  0.74672  0.48542  0.23364  1.0000
  C   C1827     1.0  0.94517  0.66265  0.21633  1.0000
  S   S407      1.0  0.00250  0.61399  0.99210  1.0000
  H   H3260     1.0  0.74189  0.34398  0.14545  1.0000
  H   H3261     1.0  0.50529  0.39228  0.23175  1.0000
  H   H3262     1.0  0.73982  0.34381  0.06353  1.0000
  H   H3263     1.0  0.67663  0.33876  0.15664  1.0000
  C   C1828     1.0  0.87275  0.66241  0.23421  1.0000
  C   C1829     1.0  0.68207  0.33755  0.04398  1.0000
  C   C1830     1.0  0.73296  0.34255  0.15654  1.0000
  C   C1831     1.0  0.74858  0.45194  0.23786  1.0000
  H   H3264     1.0  0.94693  0.66994  0.23685  1.0000
  H   H3265     1.0  0.92301  0.64968  0.23777  1.0000
  C   C1832     1.0  0.76804  0.52232  0.23640  1.0000
  H   H3266     1.0  0.85673  0.66870  0.06737  1.0000
  Fe  Fe203     1.0  0.82860  0.54175  0.36743  1.0000
  S   S408      1.0  0.80698  0.56344  0.37316  1.0000
  S   S409      1.0  0.85898  0.53783  0.37468  1.0000
  Fe  Fe204     1.0  0.79962  0.52192  0.35045  1.0000
  S   S410      1.0  0.77507  0.54148  0.35460  1.0000
  S   S411      1.0  0.79949  0.49726  0.33765  1.0000
  Fe  Fe205     1.0  0.80546  0.56957  0.34979  1.0000
  S   S412      1.0  0.80730  0.60279  0.33547  1.0000
  Fe  Fe206     1.0  0.77849  0.53366  0.37757  1.0000
  S   S413      1.0  0.75026  0.52439  0.39817  1.0000
  S   S414      1.0  0.82967  0.55060  0.34365  1.0000
  S   S415      1.0  0.80035  0.51151  0.37379  1.0000
  H   H3267     1.0  0.85167  0.59867  0.33585  1.0000
  Fe  Fe207     1.0  0.83499  0.54289  0.25637  1.0000
  S   S416      1.0  0.80313  0.54143  0.27216  1.0000
  S   S417      1.0  0.93789  0.62395  0.34315  1.0000
  S   S418      1.0  0.97677  0.58572  0.33372  1.0000
  H   H3268     1.0  0.83363  0.62866  0.25165  1.0000
  S   S419      1.0  0.86793  0.56493  0.25498  1.0000
  H   H3269     1.0  0.83032  0.46010  0.42851  1.0000
  Fe  Fe208     1.0  0.67223  0.36365  0.47292  1.0000
  S   S420      1.0  0.66825  0.38258  0.45191  1.0000
  H   H3270     1.0  0.88399  0.50307  0.41100  1.0000
  H   H3271     1.0  0.72782  0.36172  0.48694  1.0000
  S   S421      1.0  0.67664  0.42600  0.46436  1.0000
  H   H3272     1.0  0.94474  0.50744  0.34672  1.0000
  Fe  Fe209     1.0  0.64778  0.39850  0.46562  1.0000
  C   C1833     1.0  0.61725  0.40253  0.41511  1.0000
  Fe  Fe210     1.0  0.69733  0.40852  0.45205  1.0000
  S   S422      1.0  0.72237  0.42255  0.42989  1.0000
  H   H3273     1.0  0.82309  0.66811  0.29029  1.0000
  S   S423      1.0  0.70317  0.38832  0.47220  1.0000
  H   H3274     1.0  0.64938  0.45323  0.44501  1.0000
  S   S424      1.0  0.84771  0.51345  0.25562  1.0000
  H   H3275     1.0  0.65658  0.36013  0.42762  1.0000
  H   H3276     1.0  0.89741  0.65524  0.34567  1.0000
  C   C1834     1.0  0.91853  0.62254  0.28027  1.0000
  H   H3277     1.0  0.66254  0.45965  0.38293  1.0000
  C   C1835     1.0  0.81459  0.59640  0.25262  1.0000
  H   H3278     1.0  0.90103  0.61425  0.28659  1.0000
  H   H3279     1.0  0.86618  0.49852  0.42907  1.0000
  S   S425      1.0  0.90223  0.66728  0.30219  1.0000
  H   H3280     1.0  0.92626  0.54751  0.33911  1.0000
  C   C1836     1.0  0.81336  0.45949  0.26325  1.0000
  H   H3281     1.0  0.61198  0.46299  0.47729  1.0000
  C   C1837     1.0  0.60526  0.36851  0.45371  1.0000
  C   C1838     1.0  0.59830  0.38612  0.45733  1.0000
  C   C1839     1.0  0.57719  0.38822  0.45650  1.0000
  C   C1840     1.0  0.56320  0.37291  0.45191  1.0000
  H   H3282     1.0  0.92043  0.57241  0.24314  1.0000
  H   H3283     1.0  0.86076  0.48172  0.30761  1.0000
  H   H3284     1.0  0.57171  0.40182  0.45925  1.0000
  H   H3285     1.0  0.54709  0.37483  0.45109  1.0000
  C   C1841     1.0  0.92243  0.53603  0.27444  1.0000
  C   C1842     1.0  0.93512  0.52310  0.28029  1.0000
  C   C1843     1.0  0.94909  0.53055  0.28846  1.0000
  C   C1844     1.0  0.92384  0.55678  0.27696  1.0000
  H   H3286     1.0  0.93416  0.50707  0.27849  1.0000
  H   H3287     1.0  0.95865  0.52013  0.29289  1.0000
  C   C1845     1.0  0.74109  0.49602  0.40689  1.0000
  C   C1846     1.0  0.73072  0.48834  0.42201  1.0000
  C   C1847     1.0  0.72440  0.46569  0.42921  1.0000
  C   C1848     1.0  0.72815  0.45073  0.42122  1.0000
  C   C1849     1.0  0.73775  0.45839  0.40604  1.0000
  C   C1850     1.0  0.74441  0.48099  0.39891  1.0000
  H   H3288     1.0  0.72806  0.49996  0.42820  1.0000
  H   H3289     1.0  0.71706  0.45988  0.44094  1.0000
  H   H3290     1.0  0.74049  0.44684  0.39980  1.0000
  H   H3291     1.0  0.75207  0.48678  0.38721  1.0000
  C   C1851     1.0  0.88083  0.56193  0.36653  1.0000
  C   C1852     1.0  0.87648  0.58175  0.36050  1.0000
  C   C1853     1.0  0.89401  0.60093  0.35378  1.0000
  C   C1854     1.0  0.91604  0.60012  0.35251  1.0000
  C   C1855     1.0  0.92037  0.58024  0.35851  1.0000
  C   C1856     1.0  0.90276  0.56125  0.36573  1.0000
  H   H3292     1.0  0.85958  0.58225  0.36103  1.0000
  H   H3293     1.0  0.89055  0.61618  0.34909  1.0000
  H   H3294     1.0  0.93728  0.57957  0.35777  1.0000
  H   H3295     1.0  0.90616  0.54597  0.37047  1.0000
  C   C1857     1.0  0.80085  0.50997  0.31948  1.0000
  C   C1858     1.0  0.78724  0.52370  0.31639  1.0000
  C   C1859     1.0  0.78777  0.53304  0.30181  1.0000
  C   C1860     1.0  0.80258  0.52946  0.29031  1.0000
  C   C1861     1.0  0.81667  0.51630  0.29341  1.0000
  C   C1862     1.0  0.81550  0.50621  0.30799  1.0000
  H   H3296     1.0  0.77586  0.52659  0.32526  1.0000
  H   H3297     1.0  0.77674  0.54303  0.29943  1.0000
  H   H3298     1.0  0.82821  0.51352  0.28462  1.0000
  H   H3299     1.0  0.82609  0.49567  0.31037  1.0000
  C   C1863     1.0  0.83400  0.61937  0.32534  1.0000
  C   C1864     1.0  0.83608  0.63898  0.31491  1.0000
  C   C1865     1.0  0.85712  0.65311  0.30705  1.0000
  C   C1866     1.0  0.87614  0.64812  0.31011  1.0000
  C   C1867     1.0  0.87414  0.62839  0.32043  1.0000
  C   C1868     1.0  0.85310  0.61381  0.32785  1.0000
  H   H3300     1.0  0.82130  0.64331  0.31303  1.0000
  H   H3301     1.0  0.93950  0.58044  0.28696  1.0000
  H   H3302     1.0  0.88887  0.62454  0.32282  1.0000
  H   H3303     1.0  0.91244  0.52231  0.35339  1.0000
  H   H3304     1.0  0.62108  0.43885  0.47821  1.0000
  H   H3305     1.0  0.88699  0.49596  0.29411  1.0000
  C   C1869     1.0  0.92393  0.52944  0.34222  1.0000
  C   C1870     1.0  0.78103  0.50640  0.24263  1.0000
  C   C1871     1.0  0.83751  0.48048  0.36107  1.0000
  H   H3306     1.0  0.83927  0.48868  0.36981  1.0000
  H   H3307     1.0  0.78724  0.51212  0.25130  1.0000
  H   H3308     1.0  0.90647  0.49014  0.31395  1.0000
  H   H3309     1.0  0.51190  0.35852  0.47868  1.0000
  H   H3310     1.0  0.81968  0.47593  0.36133  1.0000
  C   C1872     1.0  0.87891  0.48342  0.30483  1.0000
  H   H3311     1.0  0.88170  0.46744  0.30375  1.0000
  H   H3312     1.0  0.74486  0.45950  0.26763  1.0000
  H   H3313     1.0  0.99099  0.64576  0.25076  1.0000
  H   H3314     1.0  0.79518  0.64163  0.28383  1.0000
  H   H3315     1.0  0.64825  0.33781  0.45599  1.0000
  C   C1873     1.0  0.87606  0.50261  0.34523  1.0000
  H   H3316     1.0  0.83252  0.60689  0.37697  1.0000
  C   C1874     1.0  0.55147  0.43136  0.47775  1.0000
  H   H3317     1.0  0.76799  0.49225  0.27522  1.0000
  H   H3318     1.0  0.71165  0.47778  0.38157  1.0000
  C   C1875     1.0  0.86874  0.49203  0.41937  1.0000
  H   H3319     1.0  0.84304  0.46522  0.36326  1.0000
  H   H3320     1.0  0.82775  0.58777  0.25322  1.0000
  H   H3321     1.0  0.93641  0.66699  0.34672  1.0000
  H   H3322     1.0  0.95216  0.64899  0.25808  1.0000
  H   H3323     1.0  0.98814  0.62074  0.24535  1.0000
  H   H3324     1.0  0.54885  0.42357  0.46896  1.0000
  H   H3325     1.0  0.55252  0.44911  0.47382  1.0000
  C   C1876     1.0  0.99233  0.63889  0.24120  1.0000
  C   C1877     1.0  0.94647  0.63329  0.25543  1.0000
  H   H3326     1.0  0.92248  0.63962  0.28121  1.0000
  H   H3327     1.0  0.78265  0.46423  0.27401  1.0000
  S   S426      1.0  0.96858  0.55847  0.30192  1.0000
  C   C1878     1.0  0.88864  0.48991  0.31677  1.0000
  H   H3328     1.0  0.95560  0.62221  0.26036  1.0000
  H   H3329     1.0  0.69604  0.49048  0.37054  1.0000
  Fe  Fe211     1.0  0.88124  0.53634  0.25227  1.0000
  H   H3330     1.0  0.69324  0.44165  0.40046  1.0000
  C   C1879     1.0  0.92178  0.62257  0.26423  1.0000
  H   H3331     1.0  0.87728  0.50921  0.35475  1.0000
  H   H3332     1.0  0.58677  0.43592  0.47149  1.0000
  H   H3333     1.0  0.73389  0.46472  0.29235  1.0000
  C   C1880     1.0  0.57279  0.42828  0.48158  1.0000
  S   S427      1.0  0.00163  0.63900  0.32347  1.0000
  H   H3334     1.0  0.92947  0.61380  0.28521  1.0000
  C   C1881     1.0  0.63889  0.46287  0.48695  1.0000
  Fe  Fe212     1.0  0.97947  0.58843  0.30981  1.0000
  C   C1882     1.0  0.67607  0.46177  0.38840  1.0000
  C   C1883     1.0  0.59155  0.35354  0.44881  1.0000
  H   H3335     1.0  0.82092  0.46165  0.27228  1.0000
  C   C1884     1.0  0.73346  0.48151  0.28674  1.0000
  C   C1885     1.0  0.74909  0.47721  0.26147  1.0000
  C   C1886     1.0  0.78419  0.46867  0.25080  1.0000
  H   H3336     1.0  0.74851  0.43141  0.45069  1.0000
  C   C1887     1.0  0.67777  0.43908  0.39680  1.0000
  Fe  Fe213     1.0  0.96688  0.61727  0.32880  1.0000
  H   H3337     1.0  0.88532  0.61361  0.24440  1.0000
  N   N106      1.0  0.89114  0.51900  0.33118  1.0000
  C   C1888     1.0  0.91483  0.51927  0.33095  1.0000
  C   C1889     1.0  0.88719  0.54121  0.33089  1.0000
  C   C1890     1.0  0.88640  0.51292  0.31786  1.0000
  C   C1891     1.0  0.90223  0.56065  0.31769  1.0000
  C   C1892     1.0  0.94636  0.52534  0.34297  1.0000
  C   C1893     1.0  0.89977  0.58255  0.32016  1.0000
  H   H3338     1.0  0.91674  0.50225  0.33292  1.0000
  H   H3339     1.0  0.92624  0.52810  0.31988  1.0000
  H   H3340     1.0  0.88859  0.54539  0.34121  1.0000
  H   H3341     1.0  0.86990  0.54085  0.33058  1.0000
  H   H3342     1.0  0.86962  0.51435  0.31704  1.0000
  H   H3343     1.0  0.89810  0.52484  0.30765  1.0000
  H   H3344     1.0  0.89740  0.55941  0.30754  1.0000
  H   H3345     1.0  0.92002  0.56117  0.31591  1.0000
  C   C1894     1.0  0.81186  0.64927  0.27596  1.0000
  H   H3346     1.0  0.95870  0.53245  0.33207  1.0000
  H   H3347     1.0  0.95263  0.53330  0.35084  1.0000
  H   H3348     1.0  0.88211  0.58285  0.32248  1.0000
  H   H3349     1.0  0.90624  0.58525  0.32948  1.0000
  H   H3350     1.0  0.90960  0.59623  0.31033  1.0000
  H   H3351     1.0  0.63894  0.42772  0.43016  1.0000
  H   H3352     1.0  0.58393  0.38457  0.41638  1.0000
  C   C1895     1.0  0.69771  0.47444  0.37655  1.0000
  H   H3353     1.0  0.87857  0.64482  0.25398  1.0000
  H   H3354     1.0  0.86591  0.63793  0.36675  1.0000
  H   H3355     1.0  0.94490  0.56263  0.24061  1.0000
  H   H3356     1.0  0.91660  0.60528  0.26388  1.0000
  H   H3357     1.0  0.57096  0.41031  0.48489  1.0000
  H   H3358     1.0  0.68534  0.46085  0.41647  1.0000
  H   H3359     1.0  0.67732  0.43717  0.43216  1.0000
  H   H3360     1.0  0.94968  0.59317  0.25190  1.0000
  C   C1896     1.0  0.67119  0.44975  0.42564  1.0000
  H   H3361     1.0  0.71699  0.48082  0.28461  1.0000
  H   H3362     1.0  0.67223  0.48226  0.47428  1.0000
  H   H3363     1.0  0.73580  0.49208  0.29415  1.0000
  H   H3364     1.0  0.84792  0.48736  0.33772  1.0000
  H   H3365     1.0  0.73378  0.47940  0.25832  1.0000
  H   H3366     1.0  0.65793  0.47710  0.42917  1.0000
  H   H3367     1.0  0.91385  0.56674  0.27267  1.0000
  Fe  Fe214     1.0  0.67985  0.40357  0.48464  1.0000
  H   H3368     1.0  0.67913  0.41103  0.42093  1.0000
  H   H3369     1.0  0.79754  0.47184  0.24051  1.0000
  N   N107      1.0  0.76832  0.48236  0.24798  1.0000
  S   S428      1.0  0.90528  0.52468  0.26433  1.0000
  C   C1897     1.0  0.93830  0.56450  0.28506  1.0000
  C   C1898     1.0  0.66337  0.46363  0.43542  1.0000
  H   H3370     1.0  0.59389  0.41103  0.40289  1.0000
  H   H3371     1.0  0.67280  0.47221  0.39578  1.0000
  H   H3372     1.0  0.75151  0.50820  0.26767  1.0000
  C   C1899     1.0  0.67168  0.36872  0.41834  1.0000
  H   H3373     1.0  0.60415  0.38807  0.39943  1.0000
  H   H3374     1.0  0.65977  0.46188  0.46647  1.0000
  H   H3375     1.0  0.84449  0.51060  0.34423  1.0000
  C   C1900     1.0  0.95093  0.55125  0.29089  1.0000
  H   H3376     1.0  0.85855  0.66827  0.29909  1.0000
  H   H3377     1.0  0.65065  0.39682  0.42788  1.0000
  H   H3378     1.0  0.88143  0.48723  0.34754  1.0000
  C   C1901     1.0  0.65197  0.43859  0.42015  1.0000
  H   H3379     1.0  0.68614  0.37324  0.42272  1.0000
  N   N108      1.0  0.65799  0.42565  0.40951  1.0000
  H   H3380     1.0  0.62076  0.38709  0.42035  1.0000
  H   H3381     1.0  0.64431  0.45142  0.41541  1.0000
  H   H3382     1.0  0.87997  0.47688  0.32717  1.0000
  C   C1902     1.0  0.79518  0.47150  0.26319  1.0000
  C   C1903     1.0  0.85101  0.49599  0.34604  1.0000
  N   N109      1.0  0.81931  0.61169  0.27476  1.0000
  C   C1904     1.0  0.82709  0.63364  0.27760  1.0000
  C   C1905     1.0  0.83585  0.59834  0.27652  1.0000
  C   C1906     1.0  0.81820  0.61638  0.25900  1.0000
  C   C1907     1.0  0.79640  0.59887  0.28444  1.0000
  C   C1908     1.0  0.79337  0.59344  0.30120  1.0000
  H   H3383     1.0  0.68364  0.39678  0.39946  1.0000
  H   H3384     1.0  0.85255  0.48538  0.40308  1.0000
  C   C1909     1.0  0.84763  0.60007  0.28881  1.0000
  C   C1910     1.0  0.85883  0.58153  0.29193  1.0000
  C   C1911     1.0  0.76884  0.58499  0.30973  1.0000
  H   H3385     1.0  0.92420  0.61231  0.23846  1.0000
  H   H3386     1.0  0.62133  0.36651  0.45450  1.0000
  H   H3387     1.0  0.84388  0.64261  0.27006  1.0000
  H   H3388     1.0  0.82938  0.63164  0.28872  1.0000
  H   H3389     1.0  0.82781  0.58063  0.27817  1.0000
  H   H3390     1.0  0.84966  0.60330  0.26626  1.0000
  H   H3391     1.0  0.82666  0.46634  0.25271  1.0000
  H   H3392     1.0  0.59734  0.34020  0.44591  1.0000
  H   H3393     1.0  0.78385  0.60749  0.28176  1.0000
  H   H3394     1.0  0.79136  0.58274  0.28216  1.0000
  H   H3395     1.0  0.80046  0.60801  0.30455  1.0000
  H   H3396     1.0  0.80136  0.58024  0.30466  1.0000
  H   H3397     1.0  0.80445  0.62393  0.25759  1.0000
  H   H3398     1.0  0.78207  0.54846  0.24531  1.0000
  C   C1912     1.0  0.85008  0.64070  0.36487  1.0000
  H   H3399     1.0  0.77670  0.43113  0.38999  1.0000
  H   H3400     1.0  0.86063  0.61601  0.28532  1.0000
  H   H3401     1.0  0.83618  0.59933  0.29927  1.0000
  H   H3402     1.0  0.86691  0.58310  0.30080  1.0000
  H   H3403     1.0  0.84635  0.56523  0.29561  1.0000
  H   H3404     1.0  0.87167  0.58235  0.28198  1.0000
  H   H3405     1.0  0.76738  0.58019  0.32168  1.0000
  H   H3406     1.0  0.76023  0.59805  0.30742  1.0000
  H   H3407     1.0  0.76055  0.57036  0.30683  1.0000
  H   H3408     1.0  0.81842  0.62002  0.36483  1.0000
  H   H3409     1.0  0.79821  0.58454  0.25856  1.0000
  H   H3410     1.0  0.67493  0.35715  0.41179  1.0000
  H   H3411     1.0  0.63307  0.43375  0.39898  1.0000
  H   H3412     1.0  0.68075  0.42989  0.38851  1.0000
  H   H3413     1.0  0.75086  0.51820  0.24354  1.0000
  H   H3414     1.0  0.67729  0.47110  0.43943  1.0000
  C   C1913     1.0  0.66382  0.40581  0.41749  1.0000
  S   S429      1.0  0.96751  0.61866  0.30536  1.0000
  N   N110      1.0  0.80658  0.47317  0.41893  1.0000
  C   C1914     1.0  0.82710  0.47627  0.42439  1.0000
  C   C1915     1.0  0.78640  0.46270  0.43193  1.0000
  C   C1916     1.0  0.80874  0.45886  0.40869  1.0000
  C   C1917     1.0  0.80427  0.49488  0.41072  1.0000
  C   C1918     1.0  0.80335  0.51217  0.41946  1.0000
  C   C1919     1.0  0.84890  0.49132  0.41294  1.0000
  C   C1920     1.0  0.78816  0.45159  0.40318  1.0000
  C   C1921     1.0  0.78414  0.43875  0.44058  1.0000
  C   C1922     1.0  0.76393  0.43053  0.45401  1.0000
  C   C1923     1.0  0.80604  0.53485  0.40939  1.0000
  H   H3415     1.0  0.62037  0.35418  0.41276  1.0000
  C   C1924     1.0  0.79145  0.43546  0.39414  1.0000
  H   H3416     1.0  0.84196  0.64669  0.37385  1.0000
  H   H3417     1.0  0.82458  0.48284  0.43408  1.0000
  H   H3418     1.0  0.78628  0.47256  0.43995  1.0000
  H   H3419     1.0  0.77088  0.46301  0.42854  1.0000
  H   H3420     1.0  0.81311  0.44378  0.41386  1.0000
  H   H3421     1.0  0.82270  0.46757  0.39867  1.0000
  H   H3422     1.0  0.81783  0.50223  0.40030  1.0000
  H   H3423     1.0  0.78866  0.49244  0.40725  1.0000
  H   H3424     1.0  0.81659  0.51392  0.42514  1.0000
  H   H3425     1.0  0.78703  0.50738  0.42780  1.0000
  H   H3426     1.0  0.87126  0.47535  0.42261  1.0000
  H   H3427     1.0  0.84784  0.50850  0.40935  1.0000
  H   H3428     1.0  0.78517  0.46600  0.39609  1.0000
  H   H3429     1.0  0.77310  0.44319  0.41242  1.0000
  H   H3430     1.0  0.78198  0.42738  0.43368  1.0000
  H   H3431     1.0  0.79900  0.43760  0.44451  1.0000
  C   C1925     1.0  0.59875  0.39625  0.40793  1.0000
  H   H3432     1.0  0.76216  0.41311  0.45973  1.0000
  H   H3433     1.0  0.76583  0.44050  0.46181  1.0000
  H   H3434     1.0  0.79272  0.53421  0.40374  1.0000
  H   H3435     1.0  0.80484  0.54681  0.41591  1.0000
  H   H3436     1.0  0.82246  0.54073  0.40107  1.0000
  C   C1926     1.0  0.87792  0.64493  0.24296  1.0000
  C   C1927     1.0  0.83493  0.61845  0.36608  1.0000
  C   C1928     1.0  0.63831  0.41901  0.40369  1.0000
  H   H3437     1.0  0.79329  0.42011  0.40099  1.0000
  H   H3438     1.0  0.84246  0.61141  0.35751  1.0000
  H   H3439     1.0  0.80632  0.44290  0.38459  1.0000
  H   H3440     1.0  0.99182  0.58103  0.36923  1.0000
  C   C1929     1.0  0.57053  0.35572  0.44780  1.0000
  C   C1930     1.0  0.66833  0.38920  0.40868  1.0000
  H   H3441     1.0  0.65438  0.38364  0.40417  1.0000
  S   S430      1.0  0.61612  0.40619  0.46222  1.0000
  H   H3442     1.0  0.53689  0.42339  0.48749  1.0000
  H   H3443     1.0  0.64291  0.41207  0.39435  1.0000
  H   H3444     1.0  0.61067  0.40980  0.42385  1.0000
  H   H3445     1.0  0.70172  0.46502  0.36857  1.0000
  C   C1931     1.0  0.75202  0.49112  0.27242  1.0000
  H   H3446     1.0  0.91036  0.63127  0.26002  1.0000
  H   H3447     1.0  0.77564  0.45084  0.25399  1.0000
  H   H3448     1.0  0.97749  0.66254  0.28466  1.0000
  H   H3449     1.0  0.80281  0.48898  0.26200  1.0000
  S   S431      1.0  0.55494  0.33818  0.43994  1.0000
  C   C1932     1.0  0.00091  0.59402  0.37322  1.0000
  H   H3450     1.0  0.81006  0.65357  0.26466  1.0000
  S   S432      1.0  0.64924  0.37737  0.48675  1.0000
  H   H3451     1.0  0.80639  0.44163  0.26492  1.0000
  H   H3452     1.0  0.73666  0.44428  0.24888  1.0000
  H   H3453     1.0  0.65094  0.48672  0.46532  1.0000
  N   N111      1.0  0.95191  0.63754  0.23897  1.0000
  C   C1933     1.0  0.65649  0.47412  0.47234  1.0000
  H   H3454     1.0  0.98868  0.59836  0.38127  1.0000
  C   C1934     1.0  0.85443  0.65714  0.34960  1.0000
  C   C1935     1.0  0.61693  0.45027  0.48474  1.0000
  H   H3455     1.0  0.62235  0.34188  0.39780  1.0000
  H   H3456     1.0  0.86387  0.65069  0.34131  1.0000
  C   C1936     1.0  0.95125  0.59715  0.23999  1.0000
  H   H3457     1.0  0.91697  0.66163  0.36426  1.0000
  H   H3458     1.0  0.96533  0.66056  0.31359  1.0000
  H   H3459     1.0  0.83810  0.65609  0.34712  1.0000
  C   C1937     1.0  0.61980  0.33853  0.40983  1.0000
  H   H3460     1.0  0.50309  0.35306  0.23805  1.0000
  Fe  Fe215     1.0  0.56406  0.37408  0.56065  1.0000
  S   S433      1.0  0.60131  0.38493  0.55698  1.0000
  Fe  Fe216     1.0  0.72622  0.39108  0.59495  1.0000
  S   S434      1.0  0.71604  0.41601  0.60589  1.0000
  S   S435      1.0  0.71427  0.35500  0.60773  1.0000
  Fe  Fe217     1.0  0.74030  0.42347  0.56459  1.0000
  S   S436      1.0  0.73058  0.45035  0.57345  1.0000
  S   S437      1.0  0.75229  0.42760  0.54011  1.0000
  Fe  Fe218     1.0  0.74779  0.44028  0.59102  1.0000
  S   S438      1.0  0.76687  0.46880  0.59832  1.0000
  Fe  Fe219     1.0  0.69994  0.42382  0.58768  1.0000
  S   S439      1.0  0.66365  0.42474  0.59286  1.0000
  S   S440      1.0  0.75932  0.41459  0.58114  1.0000
  S   S441      1.0  0.70882  0.39802  0.57765  1.0000
  H   H3461     1.0  0.57517  0.45570  0.49109  1.0000
  H   H3462     1.0  0.84938  0.63395  0.61721  1.0000
  C   C1938     1.0  0.97851  0.60588  0.65829  1.0000
  S   S442      1.0  0.95905  0.56735  0.70913  1.0000
  Fe  Fe220     1.0  0.86024  0.52339  0.63830  1.0000
  S   S443      1.0  0.86004  0.55835  0.62908  1.0000
  S   S444      1.0  0.83845  0.49299  0.63424  1.0000
  Fe  Fe221     1.0  0.90221  0.53899  0.64919  1.0000
  S   S445      1.0  0.90508  0.57470  0.63979  1.0000
  S   S446      1.0  0.93018  0.53045  0.65854  1.0000
  Fe  Fe222     1.0  0.86826  0.56500  0.64939  1.0000
  S   S447      1.0  0.85148  0.58572  0.66167  1.0000
  Fe  Fe223     1.0  0.89688  0.56498  0.62047  1.0000
  S   S448      1.0  0.91232  0.58246  0.59653  1.0000
  S   S449      1.0  0.86529  0.52920  0.65978  1.0000
  S   S450      1.0  0.89725  0.53006  0.62880  1.0000
  C   C1939     1.0  0.86285  0.61331  0.66142  1.0000
  C   C1940     1.0  0.88565  0.62274  0.65900  1.0000
  H   H3463     1.0  0.61868  0.34469  0.55573  1.0000
  C   C1941     1.0  0.99451  0.55281  0.63062  1.0000
  H   H3464     1.0  0.63304  0.41489  0.49961  1.0000
  C   C1942     1.0  0.84809  0.62607  0.66401  1.0000
  H   H3465     1.0  0.89712  0.61283  0.65740  1.0000
  H   H3466     1.0  0.66229  0.34133  0.62218  1.0000
  H   H3467     1.0  0.95358  0.63922  0.57706  1.0000
  H   H3468     1.0  0.83047  0.61898  0.66597  1.0000
  C   C1943     1.0  0.95172  0.55805  0.69455  1.0000
  C   C1944     1.0  0.96578  0.54937  0.68574  1.0000
  C   C1945     1.0  0.95855  0.54018  0.67518  1.0000
  C   C1946     1.0  0.93794  0.54102  0.67256  1.0000
  C   C1947     1.0  0.92402  0.54996  0.68124  1.0000
  C   C1948     1.0  0.93063  0.55780  0.69247  1.0000
  H   H3469     1.0  0.96907  0.53264  0.66883  1.0000
  H   H3470     1.0  0.90792  0.55022  0.67953  1.0000
  H   H3471     1.0  0.91934  0.56363  0.69959  1.0000
  H   H3472     1.0  0.58245  0.40488  0.51245  1.0000
  H   H3473     1.0  0.97708  0.64822  0.66404  1.0000
  H   H3474     1.0  0.59662  0.46650  0.50619  1.0000
  S   S451      1.0  0.53378  0.38767  0.51740  1.0000
  C   C1949     1.0  0.68367  0.36329  0.63911  1.0000
  H   H3475     1.0  0.93246  0.65187  0.69378  1.0000
  H   H3476     1.0  0.66317  0.35035  0.53595  1.0000
  H   H3477     1.0  0.70164  0.36441  0.53409  1.0000
  C   C1950     1.0  0.52145  0.37114  0.49586  1.0000
  C   C1951     1.0  0.95321  0.59659  0.60116  1.0000
  C   C1952     1.0  0.94146  0.59011  0.59156  1.0000
  C   C1953     1.0  0.95307  0.59044  0.57755  1.0000
  C   C1954     1.0  0.97632  0.59709  0.57317  1.0000
  H   H3478     1.0  0.64162  0.34060  0.64930  1.0000
  H   H3479     1.0  0.94437  0.59556  0.61216  1.0000
  H   H3480     1.0  0.94412  0.58515  0.57018  1.0000
  H   H3481     1.0  0.56989  0.44399  0.54637  1.0000
  H   H3482     1.0  0.67051  0.36440  0.59669  1.0000
  C   C1955     1.0  0.67173  0.33743  0.53889  1.0000
  C   C1956     1.0  0.78646  0.47479  0.60870  1.0000
  C   C1957     1.0  0.79795  0.45994  0.61394  1.0000
  C   C1958     1.0  0.81363  0.46580  0.62170  1.0000
  C   C1959     1.0  0.81832  0.48665  0.62431  1.0000
  C   C1960     1.0  0.80678  0.50148  0.61910  1.0000
  C   C1961     1.0  0.79101  0.49557  0.61142  1.0000
  H   H3483     1.0  0.79479  0.44390  0.61202  1.0000
  H   H3484     1.0  0.82223  0.45404  0.62572  1.0000
  H   H3485     1.0  0.80972  0.51739  0.62122  1.0000
  H   H3486     1.0  0.78221  0.50722  0.60758  1.0000
  H   H3487     1.0  0.73265  0.35635  0.57764  1.0000
  C   C1962     1.0  0.61721  0.39421  0.56828  1.0000
  C   C1963     1.0  0.63967  0.39451  0.56483  1.0000
  C   C1964     1.0  0.65387  0.40357  0.57238  1.0000
  C   C1965     1.0  0.64573  0.41227  0.58367  1.0000
  C   C1966     1.0  0.62300  0.41138  0.58751  1.0000
  C   C1967     1.0  0.60872  0.40231  0.57986  1.0000
  H   H3488     1.0  0.64620  0.38808  0.55599  1.0000
  H   H3489     1.0  0.67120  0.40418  0.56922  1.0000
  H   H3490     1.0  0.61651  0.41808  0.59623  1.0000
  H   H3491     1.0  0.59139  0.40220  0.58260  1.0000
  C   C1968     1.0  0.70017  0.41447  0.51489  1.0000
  C   C1969     1.0  0.72281  0.41988  0.50763  1.0000
  C   C1970     1.0  0.73879  0.42316  0.51551  1.0000
  C   C1971     1.0  0.73220  0.42100  0.53064  1.0000
  C   C1972     1.0  0.70957  0.41491  0.53785  1.0000
  C   C1973     1.0  0.69372  0.41169  0.53001  1.0000
  H   H3492     1.0  0.75629  0.42793  0.50983  1.0000
  H   H3493     1.0  0.70426  0.41336  0.54938  1.0000
  H   H3494     1.0  0.67630  0.40747  0.53566  1.0000
  H   H3495     1.0  0.65018  0.34927  0.51377  1.0000
  H   H3496     1.0  0.72626  0.38111  0.49780  1.0000
  C   C1974     1.0  0.97393  0.49574  0.72706  1.0000
  H   H3497     1.0  0.64575  0.45171  0.49403  1.0000
  C   C1975     1.0  0.87852  0.65781  0.66105  1.0000
  C   C1976     1.0  0.98445  0.50955  0.71081  1.0000
  H   H3498     1.0  0.96138  0.65784  0.59579  1.0000
  C   C1977     1.0  0.95246  0.66495  0.58814  1.0000
  H   H3499     1.0  0.75628  0.50123  0.51707  1.0000
  C   C1978     1.0  0.92697  0.65712  0.59524  1.0000
  H   H3500     1.0  0.00223  0.48624  0.70465  1.0000
  H   H3501     1.0  0.98759  0.49667  0.73252  1.0000
  S   S452      1.0  0.50268  0.35339  0.55964  1.0000
  H   H3502     1.0  0.53900  0.37617  0.49023  1.0000
  H   H3503     1.0  0.98499  0.59264  0.63321  1.0000
  C   C1979     1.0  0.69191  0.34941  0.54311  1.0000
  H   H3504     1.0  0.59842  0.45810  0.53680  1.0000
  H   H3505     1.0  0.93838  0.59741  0.73511  1.0000
  N   N112      1.0  0.59785  0.43802  0.49834  1.0000
  C   C1980     1.0  0.99742  0.59726  0.65144  1.0000
  C   C1981     1.0  0.96834  0.53936  0.61624  1.0000
  H   H3506     1.0  0.92362  0.66016  0.63074  1.0000
  H   H3507     1.0  0.67820  0.34793  0.66268  1.0000
  H   H3508     1.0  0.72625  0.36664  0.64302  1.0000
  C   C1982     1.0  0.92155  0.58676  0.73656  1.0000
  H   H3509     1.0  0.64595  0.42392  0.53689  1.0000
  H   H3510     1.0  0.71739  0.35180  0.66222  1.0000
  H   H3511     1.0  0.98934  0.63952  0.72100  1.0000
  C   C1983     1.0  0.58603  0.36648  0.62308  1.0000
  N   N113      1.0  0.90887  0.61986  0.70159  1.0000
  C   C1984     1.0  0.89243  0.62992  0.70946  1.0000
  C   C1985     1.0  0.92117  0.60972  0.71179  1.0000
  C   C1986     1.0  0.92972  0.63176  0.62502  1.0000
  C   C1987     1.0  0.89782  0.60327  0.69489  1.0000
  C   C1988     1.0  0.87913  0.58341  0.70559  1.0000
  H   H3512     1.0  0.94500  0.61008  0.63746  1.0000
  C   C1989     1.0  0.94587  0.63216  0.68074  1.0000
  H   H3513     1.0  0.95076  0.66451  0.56603  1.0000
  H   H3514     1.0  0.99327  0.57016  0.60878  1.0000
  C   C1990     1.0  0.86669  0.57017  0.69723  1.0000
  H   H3515     1.0  0.56380  0.43364  0.52428  1.0000
  H   H3516     1.0  0.84958  0.63587  0.71784  1.0000
  H   H3517     1.0  0.87984  0.61748  0.71892  1.0000
  H   H3518     1.0  0.92795  0.59702  0.70775  1.0000
  H   H3519     1.0  0.93600  0.62233  0.71181  1.0000
  H   H3520     1.0  0.98547  0.61013  0.60375  1.0000
  H   H3521     1.0  0.67390  0.36832  0.55473  1.0000
  H   H3522     1.0  0.89108  0.61144  0.68622  1.0000
  H   H3523     1.0  0.91019  0.59622  0.68907  1.0000
  H   H3524     1.0  0.86663  0.58854  0.71286  1.0000
  H   H3525     1.0  0.88638  0.57226  0.71237  1.0000
  C   C1991     1.0  0.87949  0.64211  0.70008  1.0000
  H   H3526     1.0  0.94009  0.47848  0.71691  1.0000
  H   H3527     1.0  0.94042  0.62073  0.67445  1.0000
  H   H3528     1.0  0.95481  0.62436  0.68811  1.0000
  H   H3529     1.0  0.89157  0.61826  0.61730  1.0000
  C   C1992     1.0  0.60234  0.34574  0.66116  1.0000
  C   C1993     1.0  0.57645  0.43846  0.49419  1.0000
  H   H3530     1.0  0.60377  0.37533  0.61754  1.0000
  H   H3531     1.0  0.95580  0.52841  0.62642  1.0000
  H   H3532     1.0  0.87832  0.56529  0.68914  1.0000
  H   H3533     1.0  0.85458  0.55505  0.70502  1.0000
  H   H3534     1.0  0.85737  0.58006  0.69137  1.0000
  N   N114      1.0  0.95506  0.50248  0.73553  1.0000
  C   C1994     1.0  0.97647  0.60459  0.59644  1.0000
  C   C1995     1.0  0.89371  0.65362  0.61526  1.0000
  S   S453      1.0  0.54362  0.39700  0.55445  1.0000
  H   H3535     1.0  0.97280  0.50629  0.70409  1.0000
  C   C1996     1.0  0.93048  0.65627  0.62047  1.0000
  H   H3536     1.0  0.65802  0.44629  0.63367  1.0000
  C   C1997     1.0  0.69098  0.36082  0.65350  1.0000
  C   C1998     1.0  0.91489  0.49290  0.71103  1.0000
  H   H3537     1.0  0.95503  0.66050  0.66144  1.0000
  H   H3538     1.0  0.64203  0.40730  0.63570  1.0000
  Fe  Fe224     1.0  0.51626  0.37332  0.57341  1.0000
  C   C1999     1.0  0.69181  0.34346  0.51273  1.0000
  C   C2000     1.0  0.64414  0.35768  0.65032  1.0000
  H   H3539     1.0  0.94162  0.63323  0.64427  1.0000
  H   H3540     1.0  0.91872  0.66360  0.58687  1.0000
  H   H3541     1.0  0.72802  0.42233  0.49592  1.0000
  H   H3542     1.0  0.90574  0.61287  0.73336  1.0000
  H   H3543     1.0  0.68837  0.35982  0.51190  1.0000
  H   H3544     1.0  0.61913  0.36848  0.64006  1.0000
  H   H3545     1.0  0.92465  0.51074  0.73317  1.0000
  H   H3546     1.0  0.64691  0.34134  0.60118  1.0000
  H   H3547     1.0  0.96297  0.59241  0.66364  1.0000
  H   H3548     1.0  0.96864  0.47819  0.72718  1.0000
  H   H3549     1.0  0.62921  0.38325  0.52008  1.0000
  H   H3550     1.0  0.97208  0.53720  0.72829  1.0000
  H   H3551     1.0  0.98870  0.52737  0.70977  1.0000
  Fe  Fe225     1.0  0.53206  0.37468  0.54131  1.0000
  H   H3552     1.0  0.60972  0.37548  0.50994  1.0000
  H   H3553     1.0  0.58690  0.35116  0.66172  1.0000
  H   H3554     1.0  0.87041  0.63123  0.69472  1.0000
  H   H3555     1.0  0.66575  0.39358  0.65327  1.0000
  C   C2001     1.0  0.94588  0.62785  0.63419  1.0000
  C   C2002     1.0  0.93863  0.50609  0.72681  1.0000
  C   C2003     1.0  0.85863  0.62240  0.62147  1.0000
  H   H3556     1.0  0.68040  0.34664  0.63745  1.0000
  H   H3557     1.0  0.60023  0.38108  0.52723  1.0000
  H   H3558     1.0  0.57635  0.46778  0.53092  1.0000
  H   H3559     1.0  0.58478  0.42273  0.53059  1.0000
  H   H3560     1.0  0.69387  0.37644  0.65659  1.0000
  N   N115      1.0  0.69196  0.47591  0.54319  1.0000
  C   C2004     1.0  0.71587  0.47544  0.53840  1.0000
  C   C2005     1.0  0.68509  0.47149  0.55967  1.0000
  C   C2006     1.0  0.67802  0.45705  0.53957  1.0000
  C   C2007     1.0  0.68792  0.49718  0.53560  1.0000
  C   C2008     1.0  0.70726  0.51850  0.53140  1.0000
  C   C2009     1.0  0.72469  0.47663  0.52197  1.0000
  C   C2010     1.0  0.65247  0.45352  0.54430  1.0000
  C   C2011     1.0  0.69608  0.48957  0.56595  1.0000
  C   C2012     1.0  0.68891  0.48251  0.58272  1.0000
  C   C2013     1.0  0.69934  0.53900  0.52675  1.0000
  C   C2014     1.0  0.75004  0.48403  0.51680  1.0000
  H   H3561     1.0  0.70277  0.33866  0.54552  1.0000
  H   H3562     1.0  0.71825  0.45996  0.54485  1.0000
  H   H3563     1.0  0.72712  0.48874  0.54090  1.0000
  H   H3564     1.0  0.66693  0.46915  0.56382  1.0000
  H   H3565     1.0  0.68820  0.45572  0.56496  1.0000
  H   H3566     1.0  0.68121  0.44130  0.54478  1.0000
  H   H3567     1.0  0.68278  0.45908  0.52756  1.0000
  H   H3568     1.0  0.68375  0.49611  0.52517  1.0000
  H   H3569     1.0  0.67298  0.49988  0.54248  1.0000
  H   H3570     1.0  0.72077  0.51872  0.52204  1.0000
  H   H3571     1.0  0.71474  0.52011  0.54048  1.0000
  H   H3572     1.0  0.71927  0.46012  0.52037  1.0000
  H   H3573     1.0  0.71815  0.48789  0.51472  1.0000
  H   H3574     1.0  0.90114  0.64186  0.71436  1.0000
  H   H3575     1.0  0.64569  0.44478  0.55617  1.0000
  H   H3576     1.0  0.71444  0.49347  0.56241  1.0000
  H   H3577     1.0  0.69075  0.50467  0.56244  1.0000
  H   H3578     1.0  0.69613  0.49622  0.58686  1.0000
  H   H3579     1.0  0.67053  0.47804  0.58695  1.0000
  H   H3580     1.0  0.69493  0.46820  0.58709  1.0000
  H   H3581     1.0  0.92640  0.50472  0.70076  1.0000
  H   H3582     1.0  0.98235  0.54020  0.64040  1.0000
  C   C2015     1.0  0.00102  0.66734  0.70179  1.0000
  H   H3583     1.0  0.91283  0.62212  0.63178  1.0000
  S   S454      1.0  0.53754  0.35202  0.58067  1.0000
  H   H3584     1.0  0.95943  0.54476  0.60805  1.0000
  H   H3585     1.0  0.62278  0.37882  0.65537  1.0000
  H   H3586     1.0  0.97447  0.56960  0.64888  1.0000
  H   H3587     1.0  0.75575  0.48315  0.50538  1.0000
  H   H3588     1.0  0.96943  0.56818  0.62342  1.0000
  H   H3589     1.0  0.62272  0.43518  0.54055  1.0000
  S   S455      1.0  0.55431  0.35323  0.54621  1.0000
  H   H3590     1.0  0.88852  0.65255  0.62717  1.0000
  N   N116      1.0  0.66418  0.37290  0.63853  1.0000
  C   C2016     1.0  0.66088  0.37488  0.62338  1.0000
  C   C2017     1.0  0.67012  0.39529  0.64127  1.0000
  H   H3591     1.0  0.91573  0.47333  0.73174  1.0000
  C   C2018     1.0  0.65233  0.35301  0.61980  1.0000
  C   C2019     1.0  0.66018  0.41326  0.63388  1.0000
  C   C2020     1.0  0.66472  0.43351  0.63951  1.0000
  H   H3592     1.0  0.59780  0.40618  0.49474  1.0000
  H   H3593     1.0  0.67665  0.38423  0.61491  1.0000
  H   H3594     1.0  0.64893  0.38452  0.62124  1.0000
  H   H3595     1.0  0.68844  0.40285  0.63733  1.0000
  H   H3596     1.0  0.98312  0.61331  0.66682  1.0000
  C   C2021     1.0  0.88332  0.63087  0.61331  1.0000
  H   H3597     1.0  0.97703  0.66312  0.56958  1.0000
  C   C2022     1.0  0.96260  0.65270  0.66977  1.0000
  H   H3598     1.0  0.64296  0.36836  0.60050  1.0000
  H   H3599     1.0  0.66817  0.41875  0.62189  1.0000
  H   H3600     1.0  0.68288  0.44050  0.63743  1.0000
  H   H3601     1.0  0.65655  0.42923  0.65145  1.0000
  C   C2023     1.0  0.85587  0.64818  0.66353  1.0000
  H   H3602     1.0  0.74873  0.36829  0.49623  1.0000
  C   C2024     1.0  0.90837  0.59954  0.72825  1.0000
  H   H3603     1.0  0.91787  0.64537  0.68098  1.0000
  H   H3604     1.0  0.89085  0.65688  0.69153  1.0000
  H   H3605     1.0  0.88465  0.63232  0.60154  1.0000
  C   C2025     1.0  0.65314  0.35709  0.60357  1.0000
  H   H3606     1.0  0.91104  0.65231  0.65683  1.0000
  H   H3607     1.0  0.90642  0.47823  0.70823  1.0000
  H   H3608     1.0  0.69931  0.36603  0.55920  1.0000
  C   C2026     1.0  0.86236  0.65005  0.70957  1.0000
  C   C2027     1.0  0.68448  0.35704  0.55669  1.0000
  H   H3609     1.0  0.57549  0.37425  0.61702  1.0000
  N   N117      1.0  0.86565  0.53488  0.57946  1.0000
  C   C2028     1.0  0.85127  0.53031  0.56943  1.0000
  C   C2029     1.0  0.88901  0.54824  0.57061  1.0000
  C   C2030     1.0  0.86696  0.51292  0.58811  1.0000
  C   C2031     1.0  0.85594  0.54625  0.59020  1.0000
  C   C2032     1.0  0.85102  0.56813  0.58355  1.0000
  C   C2033     1.0  0.82683  0.51672  0.57701  1.0000
  C   C2034     1.0  0.88240  0.51379  0.59839  1.0000
  C   C2035     1.0  0.89168  0.56492  0.55570  1.0000
  C   C2036     1.0  0.91499  0.58069  0.54976  1.0000
  C   C2037     1.0  0.83921  0.57677  0.59553  1.0000
  C   C2038     1.0  0.81380  0.51433  0.56573  1.0000
  C   C2039     1.0  0.88470  0.49090  0.60498  1.0000
  H   H3610     1.0  0.85887  0.52149  0.56194  1.0000
  H   H3611     1.0  0.85042  0.54574  0.56215  1.0000
  H   H3612     1.0  0.89733  0.55730  0.57731  1.0000
  H   H3613     1.0  0.89950  0.53722  0.56780  1.0000
  H   H3614     1.0  0.87237  0.50323  0.58054  1.0000
  H   H3615     1.0  0.85036  0.50286  0.59539  1.0000
  H   H3616     1.0  0.84050  0.53498  0.59825  1.0000
  H   H3617     1.0  0.86739  0.55022  0.59697  1.0000
  H   H3618     1.0  0.84022  0.56616  0.57617  1.0000
  H   H3619     1.0  0.86681  0.58089  0.57748  1.0000
  H   H3620     1.0  0.82583  0.49984  0.58331  1.0000
  H   H3621     1.0  0.81832  0.52490  0.58448  1.0000
  H   H3622     1.0  0.87517  0.51987  0.60759  1.0000
  H   H3623     1.0  0.89932  0.52472  0.59266  1.0000
  H   H3624     1.0  0.88891  0.55586  0.54750  1.0000
  H   H3625     1.0  0.87976  0.57501  0.55648  1.0000
  H   H3626     1.0  0.92781  0.57146  0.54908  1.0000
  H   H3627     1.0  0.91693  0.59125  0.53862  1.0000
  H   H3628     1.0  0.91761  0.59152  0.55698  1.0000
  H   H3629     1.0  0.82359  0.56436  0.60252  1.0000
  H   H3630     1.0  0.85022  0.58089  0.60249  1.0000
  H   H3631     1.0  0.83502  0.59196  0.59047  1.0000
  H   H3632     1.0  0.79640  0.50455  0.57148  1.0000
  H   H3633     1.0  0.81348  0.53069  0.55930  1.0000
  H   H3634     1.0  0.82122  0.50558  0.55819  1.0000
  H   H3635     1.0  0.89494  0.49181  0.61283  1.0000
  H   H3636     1.0  0.86814  0.47934  0.61105  1.0000
  H   H3637     1.0  0.89289  0.48441  0.59626  1.0000
  H   H3638     1.0  0.92238  0.63903  0.59704  1.0000
  C   C2040     1.0  0.92574  0.63825  0.68933  1.0000
  H   H3639     1.0  0.98196  0.54920  0.68734  1.0000
  C   C2041     1.0  0.61814  0.41028  0.50910  1.0000
  C   C2042     1.0  0.58099  0.43801  0.52523  1.0000
  N   N118      1.0  0.91863  0.66320  0.60915  1.0000
  C   C2043     1.0  0.61403  0.38601  0.51704  1.0000
  C   C2044     1.0  0.58153  0.45293  0.53540  1.0000
  H   H3640     1.0  0.68652  0.54026  0.53600  1.0000
  H   H3641     1.0  0.61453  0.45180  0.51282  1.0000
  C   C2045     1.0  0.98526  0.65305  0.71446  1.0000
  H   H3642     1.0  0.64784  0.46926  0.54229  1.0000
  H   H3643     1.0  0.56184  0.42947  0.50363  1.0000
  H   H3644     1.0  0.62168  0.41971  0.51688  1.0000
  H   H3645     1.0  0.96876  0.66474  0.67550  1.0000
  H   H3646     1.0  0.94648  0.52032  0.71691  1.0000
  H   H3647     1.0  0.97559  0.61867  0.64982  1.0000
  C   C2046     1.0  0.62220  0.36434  0.65098  1.0000
  S   S456      1.0  0.67936  0.41377  0.50550  1.0000
  H   H3648     1.0  0.69842  0.37362  0.62997  1.0000
  H   H3649     1.0  0.57955  0.34998  0.60125  1.0000
  H   H3650     1.0  0.90214  0.50066  0.71563  1.0000
  H   H3651     1.0  0.85616  0.62042  0.63337  1.0000
  Fe  Fe226     1.0  0.99533  0.58175  0.70779  1.0000
  C   C2047     1.0  0.89347  0.64493  0.65896  1.0000
  C   C2048     1.0  0.59836  0.44959  0.51019  1.0000
  C   C2049     1.0  0.64099  0.43950  0.53594  1.0000
  H   H3652     1.0  0.85165  0.60611  0.61999  1.0000
  H   H3653     1.0  0.60558  0.34710  0.60331  1.0000
  H   H3654     1.0  0.96319  0.63705  0.62772  1.0000
  H   H3655     1.0  0.69232  0.53850  0.51728  1.0000
  H   H3656     1.0  0.64545  0.44861  0.52415  1.0000
  H   H3657     1.0  0.71357  0.55392  0.52343  1.0000
  C   C2050     1.0  0.96428  0.65659  0.71891  1.0000
  H   H3658     1.0  0.63487  0.34502  0.62634  1.0000
  H   H3659     1.0  0.92326  0.57227  0.73254  1.0000
  C   C2051     1.0  0.59797  0.41432  0.50365  1.0000
  H   H3660     1.0  0.93429  0.62565  0.61541  1.0000
  H   H3661     1.0  0.58190  0.36823  0.63437  1.0000
  H   H3662     1.0  0.64685  0.35655  0.66135  1.0000
  C   C2052     1.0  0.71260  0.35389  0.65178  1.0000
  H   H3663     1.0  0.59877  0.34775  0.57932  1.0000
  C   C2053     1.0  0.98804  0.60445  0.58253  1.0000
  H   H3664     1.0  0.72267  0.35003  0.52001  1.0000
  C   C2054     1.0  0.98158  0.55950  0.61934  1.0000
  H   H3665     1.0  0.75718  0.47313  0.52387  1.0000
  C   C2055     1.0  0.71860  0.34196  0.58247  1.0000
  H   H3666     1.0  0.98523  0.59687  0.56244  1.0000
  H   H3667     1.0  0.94816  0.66590  0.61669  1.0000
  C   C2056     1.0  0.92770  0.48608  0.72207  1.0000
  H   H3668     1.0  0.63612  0.47619  0.49200  1.0000
  C   C2057     1.0  0.73076  0.36568  0.49702  1.0000
  C   C2058     1.0  0.71725  0.34670  0.51049  1.0000
  C   C2059     1.0  0.99001  0.58219  0.64199  1.0000
  H   H3669     1.0  0.89195  0.58823  0.72985  1.0000
  H   H3670     1.0  0.95212  0.64547  0.72867  1.0000
  H   H3671     1.0  0.97955  0.53004  0.61176  1.0000
  C   C2060     1.0  0.51421  0.37437  0.50970  1.0000
  C   C2061     1.0  0.95873  0.65746  0.57435  1.0000
  C   C2062     1.0  0.58173  0.34212  0.62368  1.0000
  H   H3672     1.0  0.63416  0.33959  0.56894  1.0000
  H   H3673     1.0  0.60437  0.34123  0.67242  1.0000
  C   C2063     1.0  0.50612  0.36112  0.48929  1.0000
  H   H3674     1.0  0.85398  0.65942  0.70251  1.0000
  H   H3675     1.0  0.88490  0.66481  0.60990  1.0000
  C   C2064     1.0  0.58741  0.33932  0.60800  1.0000
  H   H3676     1.0  0.68825  0.33903  0.50287  1.0000
  H   H3677     1.0  0.54306  0.34116  0.51724  1.0000
  C   C2065     1.0  0.70654  0.33740  0.59707  1.0000
  H   H3678     1.0  0.67516  0.34274  0.56632  1.0000
  H   H3679     1.0  0.87056  0.66108  0.71526  1.0000
  H   H3680     1.0  0.84422  0.65799  0.66492  1.0000
  H   H3681     1.0  0.71055  0.33804  0.64891  1.0000
  C   C2066     1.0  0.85007  0.63170  0.97717  1.0000
  H   H3682     1.0  0.92767  0.48771  0.75520  1.0000
  C   C2067     1.0  0.85384  0.64361  0.96255  1.0000
  C   C2068     1.0  0.94321  0.48446  0.74954  1.0000
  H   H3683     1.0  0.95111  0.64053  0.95263  1.0000
  C   C2069     1.0  0.96672  0.65226  0.96805  1.0000
  H   H3684     1.0  0.97424  0.55200  0.75548  1.0000
  H   H3685     1.0  0.88958  0.65947  0.93511  1.0000
  C   C2070     1.0  0.92109  0.60939  0.97280  1.0000
  H   H3686     1.0  0.94092  0.52009  0.75982  1.0000
  C   C2071     1.0  0.91278  0.64395  0.94420  1.0000
  S   S457      1.0  0.84877  0.60354  0.98164  1.0000
  H   H3687     1.0  0.93819  0.60944  0.97348  1.0000
  N   N119      1.0  0.92700  0.65204  0.96620  1.0000
  H   H3688     1.0  0.85544  0.63531  0.95404  1.0000
  H   H3689     1.0  0.93795  0.44608  0.77150  1.0000
  C   C2072     1.0  0.91488  0.62963  0.97682  1.0000
  H   H3690     1.0  0.93764  0.46857  0.74706  1.0000
  C   C2073     1.0  0.85630  0.66643  0.95886  1.0000
  H   H3691     1.0  0.92032  0.60922  0.96158  1.0000
  C   C2074     1.0  0.95705  0.48020  0.76065  1.0000
  H   H3692     1.0  0.92855  0.46597  0.77996  1.0000
  H   H3693     1.0  0.96263  0.49501  0.76425  1.0000
  C   C2075     1.0  0.95050  0.65345  0.95835  1.0000
  C   C2076     1.0  0.79099  0.60544  0.97885  1.0000
  H   H3694     1.0  0.95364  0.45889  0.78214  1.0000
  C   C2077     1.0  0.94338  0.46163  0.77438  1.0000
  H   H3695     1.0  0.71950  0.54140  0.98535  1.0000
  H   H3696     1.0  0.90009  0.62804  0.95004  1.0000
  C   C2078     1.0  0.98695  0.64549  0.96100  1.0000
  H   H3697     1.0  0.82895  0.54390  0.97632  1.0000
  H   H3698     1.0  0.95833  0.64020  0.97886  1.0000
  C   C2079     1.0  0.90537  0.65534  0.93126  1.0000
  H   H3699     1.0  0.80589  0.57042  0.97996  1.0000
  C   C2080     1.0  0.94822  0.53211  0.74884  1.0000
  H   H3700     1.0  0.77544  0.63183  0.98143  1.0000
  H   H3701     1.0  0.93456  0.53527  0.74407  1.0000
  H   H3702     1.0  0.93645  0.66521  0.98332  1.0000
  H   H3703     1.0  0.94809  0.55894  0.75881  1.0000
  C   C2081     1.0  0.95991  0.55376  0.75102  1.0000
  H   H3704     1.0  0.79960  0.63958  0.96594  1.0000
  H   H3705     1.0  0.90284  0.64431  0.92417  1.0000
  H   H3706     1.0  0.80295  0.63605  0.98414  1.0000
  C   C2082     1.0  0.79225  0.62966  0.97758  1.0000
  H   H3707     1.0  0.91275  0.58084  0.74844  1.0000
  H   H3708     1.0  0.97193  0.47534  0.75574  1.0000
  H   H3709     1.0  0.99514  0.65623  0.94967  1.0000
  C   C2083     1.0  0.84908  0.66495  0.98455  1.0000
  H   H3710     1.0  0.89661  0.62687  0.97860  1.0000
  H   H3711     1.0  0.89751  0.65752  0.96029  1.0000
  H   H3712     1.0  0.88823  0.58633  0.98274  1.0000
  H   H3713     1.0  0.98202  0.62811  0.96077  1.0000
  H   H3714     1.0  0.80791  0.60479  0.97362  1.0000
  H   H3715     1.0  0.76752  0.56134  0.97878  1.0000
  H   H3716     1.0  0.91081  0.57371  0.98051  1.0000
  C   C2084     1.0  0.91482  0.65827  0.95490  1.0000
  H   H3717     1.0  0.77979  0.59977  0.97239  1.0000
  H   H3718     1.0  0.92864  0.64071  0.93944  1.0000
  H   H3719     1.0  0.78748  0.53227  0.98430  1.0000
  H   H3720     1.0  0.97265  0.66865  0.96979  1.0000
  C   C2085     1.0  0.92793  0.66911  0.97462  1.0000
  H   H3721     1.0  0.99909  0.64697  0.96754  1.0000
  H   H3722     1.0  0.74028  0.52958  0.97678  1.0000
  C   C2086     1.0  0.90556  0.58785  0.98339  1.0000
  H   H3723     1.0  0.93800  0.66262  0.76488  1.0000
  H   H3724     1.0  0.95867  0.66937  0.74760  1.0000
  H   H3725     1.0  0.95761  0.66909  0.94945  1.0000
  C   C2087     1.0  0.72963  0.52965  0.98740  1.0000
  C   C2088     1.0  0.81965  0.53314  0.98751  1.0000
  H   H3726     1.0  0.81787  0.51572  0.98750  1.0000
  H   H3727     1.0  0.96585  0.56684  0.74043  1.0000
  H   H3728     1.0  0.97891  0.52264  0.74338  1.0000
  H   H3729     1.0  0.91766  0.62883  0.98782  1.0000
  C   C2089     1.0  0.96467  0.52376  0.73865  1.0000
  H   H3730     1.0  0.85550  0.92355  0.20125  1.0000
  C   C2090     1.0  0.77473  0.71248  0.05222  1.0000
  C   C2091     1.0  0.83363  0.92256  0.18637  1.0000
  H   H3731     1.0  0.85288  0.70544  0.06755  1.0000
  H   H3732     1.0  0.00141  0.73842  0.00634  1.0000
  Fe  Fe227     1.0  0.81806  0.97412  0.10353  1.0000
  S   S458      1.0  0.80288  0.95028  0.12592  1.0000
  S   S459      1.0  0.79831  0.98491  0.08748  1.0000
  Fe  Fe228     1.0  0.83101  0.93538  0.12001  1.0000
  S   S460      1.0  0.82181  0.89851  0.12465  1.0000
  Fe  Fe229     1.0  0.95952  0.86240  0.15176  1.0000
  S   S461      1.0  0.97506  0.85089  0.16972  1.0000
  Fe  Fe230     1.0  0.91448  0.85811  0.14591  1.0000
  S   S462      1.0  0.92861  0.88228  0.12378  1.0000
  S   S463      1.0  0.87784  0.84277  0.15498  1.0000
  Fe  Fe231     1.0  0.95527  0.86492  0.12096  1.0000
  S   S464      1.0  0.96535  0.85954  0.09853  1.0000
  H   H3733     1.0  0.66037  0.83073  0.02720  1.0000
  S   S465      1.0  0.93955  0.83887  0.14247  1.0000
  S   S466      1.0  0.93271  0.87897  0.15723  1.0000
  H   H3734     1.0  0.81328  0.73174  0.03214  1.0000
  H   H3735     1.0  0.70712  0.90749  0.99580  1.0000
  H   H3736     1.0  0.89063  0.95913  0.22128  1.0000
  Fe  Fe232     1.0  0.93021  0.75853  0.06989  1.0000
  S   S467      1.0  0.94724  0.78273  0.04783  1.0000
  S   S468      1.0  0.92140  0.76672  0.09140  1.0000
  Fe  Fe233     1.0  0.92914  0.71863  0.05768  1.0000
  S   S469      1.0  0.94582  0.73962  0.03461  1.0000
  H   H3737     1.0  0.88899  0.98840  0.16394  1.0000
  Fe  Fe234     1.0  0.96804  0.75919  0.04490  1.0000
  H   H3738     1.0  0.98982  0.79032  0.22285  1.0000
  Fe  Fe235     1.0  0.92330  0.76074  0.03987  1.0000
  S   S470      1.0  0.90276  0.77195  0.02509  1.0000
  S   S471      1.0  0.95286  0.73674  0.06755  1.0000
  S   S472      1.0  0.90459  0.73807  0.06225  1.0000
  H   H3739     1.0  0.87911  0.79856  0.22546  1.0000
  Fe  Fe236     1.0  0.70871  0.93450  0.05040  1.0000
  S   S473      1.0  0.72795  0.96515  0.03265  1.0000
  S   S474      1.0  0.72282  0.92312  0.06962  1.0000
  Fe  Fe237     1.0  0.67321  0.92442  0.03341  1.0000
  S   S475      1.0  0.69072  0.95445  0.01445  1.0000
  S   S476      1.0  0.64160  0.89895  0.03478  1.0000
  Fe  Fe238     1.0  0.72198  0.94547  0.01703  1.0000
  C   C2092     1.0  0.99793  0.81558  0.00656  1.0000
  Fe  Fe239     1.0  0.69495  0.97094  0.03204  1.0000
  S   S477      1.0  0.75219  0.94671  0.99975  1.0000
  S   S478      1.0  0.70445  0.91405  0.03469  1.0000
  S   S479      1.0  0.67553  0.94164  0.05108  1.0000
  H   H3740     1.0  0.65830  0.98937  0.00608  1.0000
  C   C2093     1.0  0.90830  0.93719  0.10829  1.0000
  H   H3741     1.0  0.95570  0.76117  0.12336  1.0000
  H   H3742     1.0  0.88437  0.72333  0.00153  1.0000
  H   H3743     1.0  0.85094  0.97306  0.99085  1.0000
  C   C2094     1.0  0.53550  0.94877  0.04349  1.0000
  C   C2095     1.0  0.98591  0.87276  0.17639  1.0000
  C   C2096     1.0  0.54265  0.91707  0.02786  1.0000
  H   H3744     1.0  0.65114  0.96987  0.03741  1.0000
  H   H3745     1.0  0.94644  0.98143  0.15233  1.0000
  C   C2097     1.0  0.52564  0.95493  0.98986  1.0000
  H   H3746     1.0  0.90811  0.69880  0.03874  1.0000
  H   H3747     1.0  0.84042  0.94993  0.06001  1.0000
  C   C2098     1.0  0.91878  0.81833  0.19930  1.0000
  H   H3748     1.0  0.81936  0.92464  0.06271  1.0000
  N   N120      1.0  0.96983  0.95656  0.08366  1.0000
  C   C2099     1.0  0.66333  0.87801  0.00007  1.0000
  C   C2100     1.0  0.62291  0.89256  0.02421  1.0000
  C   C2101     1.0  0.62216  0.90699  0.01125  1.0000
  C   C2102     1.0  0.60759  0.89968  0.00306  1.0000
  C   C2103     1.0  0.59397  0.87788  0.00781  1.0000
  C   C2104     1.0  0.59457  0.86398  0.02089  1.0000
  C   C2105     1.0  0.60854  0.87132  0.02909  1.0000
  H   H3749     1.0  0.63280  0.92359  0.00756  1.0000
  H   H3750     1.0  0.76951  0.70060  0.04612  1.0000
  H   H3751     1.0  0.58428  0.84717  0.02467  1.0000
  H   H3752     1.0  0.60870  0.86009  0.03912  1.0000
  H   H3753     1.0  0.78422  0.90254  0.15500  1.0000
  H   H3754     1.0  0.86478  0.70819  0.99415  1.0000
  H   H3755     1.0  0.00125  0.84049  0.05734  1.0000
  H   H3756     1.0  0.86726  0.77947  0.04951  1.0000
  C   C2106     1.0  0.90432  0.80799  0.17867  1.0000
  C   C2107     1.0  0.91923  0.80360  0.18871  1.0000
  C   C2108     1.0  0.00138  0.78134  0.99862  1.0000
  C   C2109     1.0  0.85358  0.72805  0.02480  1.0000
  C   C2110     1.0  0.97269  0.97849  0.12862  1.0000
  H   H3757     1.0  0.77526  0.72928  0.04597  1.0000
  H   H3758     1.0  0.93813  0.74461  0.11528  1.0000
  C   C2111     1.0  0.91551  0.77575  0.00650  1.0000
  C   C2112     1.0  0.90252  0.77190  0.99696  1.0000
  C   C2113     1.0  0.90735  0.68648  0.99247  1.0000
  H   H3759     1.0  0.88302  0.78145  0.21357  1.0000
  H   H3760     1.0  0.97793  0.97889  0.17303  1.0000
  C   C2114     1.0  0.93860  0.78282  0.00111  1.0000
  H   H3761     1.0  0.88465  0.76715  0.00097  1.0000
  C   C2115     1.0  0.89940  0.68155  0.04335  1.0000
  H   H3762     1.0  0.94856  0.78611  0.00843  1.0000
  H   H3763     1.0  0.86152  0.94843  0.18652  1.0000
  S   S480      1.0  0.51973  0.87132  0.99159  1.0000
  C   C2116     1.0  0.85024  0.71151  0.01557  1.0000
  H   H3764     1.0  0.83318  0.68520  0.04569  1.0000
  H   H3765     1.0  0.88032  0.68140  0.02764  1.0000
  C   C2117     1.0  0.80969  0.95467  0.05525  1.0000
  H   H3766     1.0  0.00159  0.88245  0.20624  1.0000
  C   C2118     1.0  0.84820  0.93461  0.19450  1.0000
  S   S481      1.0  0.83963  0.99832  0.11183  1.0000
  H   H3767     1.0  0.82544  0.95447  0.19893  1.0000
  C   C2119     1.0  0.95354  0.83359  0.09658  1.0000
  C   C2120     1.0  0.94305  0.81546  0.10883  1.0000
  C   C2121     1.0  0.93374  0.79494  0.10703  1.0000
  C   C2122     1.0  0.93474  0.79239  0.09301  1.0000
  C   C2123     1.0  0.94530  0.81047  0.08071  1.0000
  C   C2124     1.0  0.95468  0.83104  0.08251  1.0000
  H   H3768     1.0  0.94220  0.81717  0.11970  1.0000
  H   H3769     1.0  0.92553  0.78100  0.11657  1.0000
  H   H3770     1.0  0.94590  0.80873  0.06986  1.0000
  H   H3771     1.0  0.96273  0.84503  0.07299  1.0000
  H   H3772     1.0  0.89668  0.94612  0.11278  1.0000
  H   H3773     1.0  0.99802  0.80740  0.01786  1.0000
  H   H3774     1.0  0.99848  0.92865  0.16805  1.0000
  H   H3775     1.0  0.64453  0.85051  0.02856  1.0000
  H   H3776     1.0  0.55806  0.88949  0.02804  1.0000
  H   H3777     1.0  0.84103  0.88484  0.19717  1.0000
  C   C2125     1.0  0.86712  0.72032  0.00048  1.0000
  C   C2126     1.0  0.77645  0.96740  0.08342  1.0000
  C   C2127     1.0  0.76582  0.97675  0.07336  1.0000
  C   C2128     1.0  0.74932  0.96345  0.06911  1.0000
  C   C2129     1.0  0.74312  0.94058  0.07496  1.0000
  C   C2130     1.0  0.75345  0.93123  0.08524  1.0000
  C   C2131     1.0  0.77005  0.94453  0.08943  1.0000
  H   H3778     1.0  0.85083  0.74330  0.01847  1.0000
  H   H3779     1.0  0.74126  0.97090  0.06141  1.0000
  H   H3780     1.0  0.74870  0.91357  0.08991  1.0000
  H   H3781     1.0  0.77801  0.93707  0.09721  1.0000
  C   C2132     1.0  0.75918  0.90837  0.03730  1.0000
  H   H3782     1.0  0.83003  0.94373  0.01382  1.0000
  H   H3783     1.0  0.93941  0.93076  0.08805  1.0000
  H   H3784     1.0  0.77477  0.93657  0.20652  1.0000
  C   C2133     1.0  0.98941  0.99383  0.13108  1.0000
  H   H3785     1.0  0.90069  0.92821  0.10133  1.0000
  C   C2134     1.0  0.83763  0.88398  0.13351  1.0000
  C   C2135     1.0  0.85953  0.89392  0.13288  1.0000
  C   C2136     1.0  0.87206  0.88144  0.13953  1.0000
  C   C2137     1.0  0.86251  0.85909  0.14700  1.0000
  C   C2138     1.0  0.84033  0.84947  0.14813  1.0000
  C   C2139     1.0  0.82804  0.86180  0.14120  1.0000
  H   H3786     1.0  0.86677  0.91115  0.12715  1.0000
  H   H3787     1.0  0.88891  0.88924  0.13913  1.0000
  H   H3788     1.0  0.83278  0.83233  0.15409  1.0000
  H   H3789     1.0  0.81096  0.85423  0.14188  1.0000
  C   C2140     1.0  0.90750  0.83489  0.22646  1.0000
  H   H3790     1.0  0.76213  0.70797  0.06297  1.0000
  H   H3791     1.0  0.80396  0.97767  0.00683  1.0000
  H   H3792     1.0  0.98695  0.74574  0.11381  1.0000
  H   H3793     1.0  0.83695  0.73375  0.05929  1.0000
  C   C2141     1.0  0.98078  0.96942  0.09262  1.0000
  H   H3794     1.0  0.96920  0.72972  0.10578  1.0000
  H   H3795     1.0  0.86476  0.73579  0.99416  1.0000
  H   H3796     1.0  0.92706  0.96472  0.09005  1.0000
  H   H3797     1.0  0.90638  0.79864  0.17042  1.0000
  H   H3798     1.0  0.86079  0.69984  0.04388  1.0000
  H   H3799     1.0  0.76184  0.94543  0.22980  1.0000
  H   H3800     1.0  0.96554  0.00192  0.15676  1.0000
  H   H3801     1.0  0.79850  0.97015  0.20922  1.0000
  S   S482      1.0  0.97756  0.88715  0.12989  1.0000
  H   H3802     1.0  0.97219  0.95539  0.19989  1.0000
  C   C2142     1.0  0.78114  0.96968  0.20924  1.0000
  C   C2143     1.0  0.96720  0.97281  0.07080  1.0000
  C   C2144     1.0  0.77372  0.95317  0.20103  1.0000
  C   C2145     1.0  0.76570  0.96351  0.22496  1.0000
  C   C2146     1.0  0.93040  0.95369  0.09930  1.0000
  H   H3803     1.0  0.93951  0.68789  0.19978  1.0000
  C   C2147     1.0  0.57963  0.92785  0.03281  1.0000
  H   H3804     1.0  0.91594  0.77470  0.22054  1.0000
  C   C2148     1.0  0.97776  0.73998  0.99348  1.0000
  S   S483      1.0  0.94908  0.93736  0.13072  1.0000
  C   C2149     1.0  0.87260  0.99028  0.16768  1.0000
  H   H3805     1.0  0.98299  0.72599  0.03669  1.0000
  H   H3806     1.0  0.60747  0.91057  0.99288  1.0000
  C   C2150     1.0  0.62476  0.98579  0.03756  1.0000
  C   C2151     1.0  0.99264  0.67517  0.06959  1.0000
  H   H3807     1.0  0.64555  0.87799  0.00273  1.0000
  H   H3808     1.0  0.91063  0.92527  0.11760  1.0000
  H   H3809     1.0  0.93605  0.96349  0.10646  1.0000
  C   C2152     1.0  0.64695  0.98537  0.03609  1.0000
  C   C2153     1.0  0.98708  0.94897  0.13934  1.0000
  C   C2154     1.0  0.84002  0.67073  0.07166  1.0000
  C   C2155     1.0  0.97125  0.95604  0.13301  1.0000
  Fe  Fe240     1.0  0.94910  0.90194  0.13482  1.0000
  H   H3810     1.0  0.96727  0.76076  0.08822  1.0000
  H   H3811     1.0  0.96975  0.70594  0.00665  1.0000
  H   H3812     1.0  0.59210  0.97714  0.00969  1.0000
  C   C2156     1.0  0.82234  0.94161  0.06386  1.0000
  N   N121      1.0  0.87353  0.82712  0.10568  1.0000
  C   C2157     1.0  0.85197  0.83140  0.11260  1.0000
  C   C2158     1.0  0.89216  0.84753  0.10281  1.0000
  C   C2159     1.0  0.87183  0.82138  0.09169  1.0000
  C   C2160     1.0  0.87813  0.80822  0.11570  1.0000
  C   C2161     1.0  0.87784  0.81016  0.13133  1.0000
  C   C2162     1.0  0.83109  0.81142  0.11776  1.0000
  C   C2163     1.0  0.89310  0.81775  0.08258  1.0000
  C   C2164     1.0  0.89287  0.86764  0.09037  1.0000
  C   C2165     1.0  0.91180  0.88743  0.08897  1.0000
  C   C2166     1.0  0.88245  0.79015  0.14060  1.0000
  C   C2167     1.0  0.81068  0.81709  0.12569  1.0000
  C   C2168     1.0  0.89045  0.81464  0.06787  1.0000
  H   H3813     1.0  0.84821  0.84454  0.10477  1.0000
  H   H3814     1.0  0.85343  0.83813  0.12203  1.0000
  H   H3815     1.0  0.89121  0.85316  0.11289  1.0000
  H   H3816     1.0  0.90863  0.84393  0.10033  1.0000
  H   H3817     1.0  0.86639  0.83402  0.08457  1.0000
  H   H3818     1.0  0.85871  0.80577  0.09413  1.0000
  H   H3819     1.0  0.86649  0.79228  0.11662  1.0000
  H   H3820     1.0  0.89484  0.80652  0.11092  1.0000
  H   H3821     1.0  0.86150  0.81143  0.13722  1.0000
  H   H3822     1.0  0.89091  0.82483  0.13076  1.0000
  H   H3823     1.0  0.82723  0.80632  0.10823  1.0000
  H   H3824     1.0  0.83337  0.79715  0.12545  1.0000
  H   H3825     1.0  0.89631  0.80259  0.08858  1.0000
  H   H3826     1.0  0.90787  0.83174  0.08033  1.0000
  H   H3827     1.0  0.89566  0.86401  0.07962  1.0000
  H   H3828     1.0  0.87719  0.87259  0.09257  1.0000
  H   H3829     1.0  0.90891  0.89280  0.09911  1.0000
  H   H3830     1.0  0.92795  0.88323  0.08700  1.0000
  H   H3831     1.0  0.91260  0.90133  0.07963  1.0000
  H   H3832     1.0  0.88164  0.79194  0.15178  1.0000
  H   H3833     1.0  0.86991  0.77482  0.14153  1.0000
  H   H3834     1.0  0.89931  0.78888  0.13572  1.0000
  H   H3835     1.0  0.81241  0.81934  0.13640  1.0000
  H   H3836     1.0  0.80835  0.83233  0.11900  1.0000
  H   H3837     1.0  0.79562  0.80340  0.12782  1.0000
  H   H3838     1.0  0.90572  0.81144  0.06183  1.0000
  H   H3839     1.0  0.87618  0.80033  0.06958  1.0000
  H   H3840     1.0  0.88792  0.82966  0.06107  1.0000
  H   H3841     1.0  0.51744  0.87301  0.03879  1.0000
  H   H3842     1.0  0.85369  0.76885  0.02933  1.0000
  S   S484      1.0  0.92176  0.68169  0.06439  1.0000
  H   H3843     1.0  0.87145  0.73219  0.02469  1.0000
  H   H3844     1.0  0.89055  0.68671  0.99834  1.0000
  S   S485      1.0  0.85456  0.00033  0.23117  1.0000
  H   H3845     1.0  0.98370  0.98245  0.06321  1.0000
  H   H3846     1.0  0.74965  0.96631  0.22358  1.0000
  H   H3847     1.0  0.98620  0.93168  0.14252  1.0000
  H   H3848     1.0  0.98173  0.95790  0.10271  1.0000
  H   H3849     1.0  0.99212  0.78017  0.06544  1.0000
  H   H3850     1.0  0.94853  0.73157  0.12974  1.0000
  C   C2169     1.0  0.66054  0.84818  0.02295  1.0000
  H   H3851     1.0  0.90181  0.82043  0.20228  1.0000
  H   H3852     1.0  0.95030  0.93070  0.10317  1.0000
  H   H3853     1.0  0.91556  0.68030  0.00079  1.0000
  H   H3854     1.0  0.99404  0.93815  0.08678  1.0000
  H   H3855     1.0  0.82342  0.69626  0.07074  1.0000
  H   H3856     1.0  0.84693  0.67300  0.99316  1.0000
  H   H3857     1.0  0.97569  0.77953  0.09772  1.0000
  C   C2170     1.0  0.95372  0.96312  0.06119  1.0000
  H   H3858     1.0  0.91382  0.78585  0.19475  1.0000
  H   H3859     1.0  0.85216  0.69532  0.02099  1.0000
  H   H3860     1.0  0.82964  0.95076  0.23677  1.0000
  H   H3861     1.0  0.54731  0.97450  0.05332  1.0000
  H   H3862     1.0  0.74547  0.90367  0.99215  1.0000
  H   H3863     1.0  0.75643  0.95229  0.20044  1.0000
  H   H3864     1.0  0.88660  0.80276  0.18510  1.0000
  H   H3865     1.0  0.86184  0.98085  0.14991  1.0000
  H   H3866     1.0  0.99309  0.80636  0.20439  1.0000
  H   H3867     1.0  0.96205  0.92255  0.06937  1.0000
  N   N122      1.0  0.84383  0.90930  0.17719  1.0000
  C   C2171     1.0  0.85340  0.89373  0.18638  1.0000
  C   C2172     1.0  0.82514  0.89561  0.17311  1.0000
  C   C2173     1.0  0.86069  0.92418  0.16325  1.0000
  C   C2174     1.0  0.88512  0.93183  0.16372  1.0000
  C   C2175     1.0  0.86076  0.87600  0.17960  1.0000
  C   C2176     1.0  0.81180  0.90856  0.16454  1.0000
  C   C2177     1.0  0.89939  0.94871  0.14935  1.0000
  C   C2178     1.0  0.87432  0.86432  0.18827  1.0000
  C   C2179     1.0  0.79229  0.89293  0.16218  1.0000
  H   H3868     1.0  0.86802  0.90285  0.18901  1.0000
  H   H3869     1.0  0.81317  0.88341  0.18312  1.0000
  H   H3870     1.0  0.83164  0.88584  0.16595  1.0000
  H   H3871     1.0  0.86139  0.91605  0.15428  1.0000
  H   H3872     1.0  0.85531  0.93914  0.15926  1.0000
  H   H3873     1.0  0.89259  0.91777  0.16522  1.0000
  H   H3874     1.0  0.88654  0.93932  0.17272  1.0000
  H   H3875     1.0  0.84604  0.86323  0.17976  1.0000
  H   H3876     1.0  0.87096  0.88342  0.16809  1.0000
  H   H3877     1.0  0.82268  0.91890  0.15364  1.0000
  H   H3878     1.0  0.78474  0.95844  0.18965  1.0000
  H   H3879     1.0  0.89328  0.96363  0.14729  1.0000
  H   H3880     1.0  0.91680  0.95373  0.14986  1.0000
  H   H3881     1.0  0.89929  0.94154  0.14000  1.0000
  H   H3882     1.0  0.86457  0.85650  0.19989  1.0000
  H   H3883     1.0  0.87878  0.85130  0.18345  1.0000
  H   H3884     1.0  0.88994  0.87611  0.18781  1.0000
  H   H3885     1.0  0.98052  0.81321  0.00595  1.0000
  H   H3886     1.0  0.77979  0.88381  0.17281  1.0000
  H   H3887     1.0  0.87230  0.93581  0.21899  1.0000
  N   N123      1.0  0.94239  0.96913  0.18355  1.0000
  C   C2180     1.0  0.92747  0.96304  0.19899  1.0000
  C   C2181     1.0  0.96605  0.98051  0.18272  1.0000
  C   C2182     1.0  0.93387  0.98533  0.17398  1.0000
  C   C2183     1.0  0.94183  0.94948  0.17762  1.0000
  C   C2184     1.0  0.94733  0.92975  0.18698  1.0000
  C   C2185     1.0  0.90309  0.94984  0.20147  1.0000
  H   H3888     1.0  0.65027  0.98189  0.99087  1.0000
  C   C2186     1.0  0.97464  0.97337  0.19626  1.0000
  C   C2187     1.0  0.94194  0.90967  0.18135  1.0000
  C   C2188     1.0  0.84301  0.76145  0.04074  1.0000
  H   H3889     1.0  0.92713  0.97822  0.20256  1.0000
  H   H3890     1.0  0.93396  0.95293  0.20698  1.0000
  H   H3891     1.0  0.67282  0.92265  0.99776  1.0000
  H   H3892     1.0  0.52812  0.86464  0.02284  1.0000
  H   H3893     1.0  0.52052  0.94315  0.03984  1.0000
  H   H3894     1.0  0.91683  0.97770  0.17368  1.0000
  H   H3895     1.0  0.92544  0.94364  0.17563  1.0000
  H   H3896     1.0  0.95399  0.95411  0.16663  1.0000
  H   H3897     1.0  0.93790  0.92490  0.19868  1.0000
  H   H3898     1.0  0.96533  0.93388  0.18610  1.0000
  H   H3899     1.0  0.89443  0.95939  0.19488  1.0000
  H   H3900     1.0  0.90235  0.93417  0.19853  1.0000
  C   C2189     1.0  0.88579  0.78459  0.22388  1.0000
  C   C2190     1.0  0.84314  0.69954  0.04815  1.0000
  H   H3901     1.0  0.96571  0.97829  0.20556  1.0000
  C   C2191     1.0  0.81520  0.71720  0.03988  1.0000
  H   H3902     1.0  0.92395  0.90451  0.18222  1.0000
  H   H3903     1.0  0.95154  0.91360  0.16970  1.0000
  H   H3904     1.0  0.94651  0.89581  0.18792  1.0000
  H   H3905     1.0  0.89665  0.93252  0.22447  1.0000
  H   H3906     1.0  0.98239  0.89457  0.06763  1.0000
  C   C2192     1.0  0.57156  0.91823  0.04965  1.0000
  C   C2193     1.0  0.59454  0.96424  0.00417  1.0000
  N   N124      1.0  0.80262  0.96507  0.02973  1.0000
  C   C2194     1.0  0.00032  0.90761  0.18798  1.0000
  C   C2195     1.0  0.78057  0.94804  0.03333  1.0000
  C   C2196     1.0  0.78067  0.92346  0.03773  1.0000
  C   C2197     1.0  0.00200  0.82377  0.05665  1.0000
  C   C2198     1.0  0.84565  0.99961  0.18504  1.0000
  H   H3907     1.0  0.80154  0.72360  0.06097  1.0000
  H   H3908     1.0  0.96493  0.99327  0.04305  1.0000
  H   H3909     1.0  0.94149  0.84362  0.21273  1.0000
  H   H3910     1.0  0.76818  0.94994  0.04261  1.0000
  H   H3911     1.0  0.77312  0.95079  0.02395  1.0000
  H   H3912     1.0  0.53328  0.98269  0.03957  1.0000
  H   H3913     1.0  0.92947  0.83508  0.19272  1.0000
  H   H3914     1.0  0.80522  0.94078  0.00746  1.0000
  H   H3915     1.0  0.93741  0.95171  0.06777  1.0000
  Fe  Fe241     1.0  0.86530  0.97993  0.10735  1.0000
  H   H3916     1.0  0.96416  0.90873  0.08702  1.0000
  H   H3917     1.0  0.74474  0.91044  0.04496  1.0000
  H   H3918     1.0  0.75708  0.91206  0.02605  1.0000
  H   H3919     1.0  0.82547  0.76029  0.04077  1.0000
  C   C2199     1.0  0.91085  0.78911  0.22320  1.0000
  C   C2200     1.0  0.83489  0.96168  0.99155  1.0000
  S   S486      1.0  0.84505  0.95794  0.09718  1.0000
  H   H3920     1.0  0.77048  0.99442  0.06875  1.0000
  H   H3921     1.0  0.97076  0.98015  0.09646  1.0000
  H   H3922     1.0  0.83351  0.70892  0.01369  1.0000
  H   H3923     1.0  0.58345  0.90323  0.06769  1.0000
  H   H3924     1.0  0.98844  0.80952  0.07981  1.0000
  H   H3925     1.0  0.83451  0.96972  0.03452  1.0000
  C   C2201     1.0  0.52655  0.96754  0.99984  1.0000
  S   S487      1.0  0.85356  0.95557  0.12965  1.0000
  Fe  Fe242     1.0  0.82671  0.97265  0.13375  1.0000
  C   C2202     1.0  0.53331  0.96896  0.04876  1.0000
  C   C2203     1.0  0.88995  0.94406  0.21753  1.0000
  H   H3926     1.0  0.80879  0.97714  0.22778  1.0000
  H   H3927     1.0  0.57072  0.96402  0.03363  1.0000
  C   C2204     1.0  0.94780  0.99472  0.15775  1.0000
  H   H3928     1.0  0.78218  0.91860  0.04909  1.0000
  H   H3929     1.0  0.82850  0.93573  0.17947  1.0000
  H   H3930     1.0  0.81355  0.99683  0.18072  1.0000
  C   C2205     1.0  0.58908  0.90910  0.05553  1.0000
  H   H3931     1.0  0.79455  0.92000  0.03051  1.0000
  H   H3932     1.0  0.81037  0.70323  0.03527  1.0000
  H   H3933     1.0  0.99873  0.77356  0.01048  1.0000
  H   H3934     1.0  0.98546  0.89788  0.15792  1.0000
  C   C2206     1.0  0.95262  0.74583  0.11991  1.0000
  H   H3935     1.0  0.58599  0.91563  0.02799  1.0000
  C   C2207     1.0  0.88362  0.67171  0.03710  1.0000
  H   H3936     1.0  0.53100  0.92347  0.02211  1.0000
  C   C2208     1.0  0.81782  0.95761  0.03854  1.0000
  H   H3937     1.0  0.75956  0.89094  0.04074  1.0000
  C   C2209     1.0  0.54658  0.89679  0.02274  1.0000
  N   N125      1.0  0.92628  0.81047  0.21276  1.0000
  C   C2210     1.0  0.57397  0.94395  0.00919  1.0000
  H   H3938     1.0  0.98706  0.68686  0.07537  1.0000
  H   H3939     1.0  0.82100  0.94200  0.03703  1.0000
  C   C2211     1.0  0.97364  0.92069  0.07622  1.0000
  H   H3940     1.0  0.59461  0.94171  0.03061  1.0000
  H   H3941     1.0  0.55378  0.96645  0.02150  1.0000
  H   H3942     1.0  0.93646  0.80724  0.18167  1.0000
  C   C2212     1.0  0.99649  0.91190  0.17412  1.0000
  C   C2213     1.0  0.99091  0.86851  0.18992  1.0000
  N   N126      1.0  0.56305  0.93555  0.02547  1.0000
  H   H3943     1.0  0.99389  0.74307  0.07612  1.0000
  H   H3944     1.0  0.79175  0.94614  0.05959  1.0000
  H   H3945     1.0  0.56869  0.93137  0.05485  1.0000
  H   H3946     1.0  0.98454  0.77916  0.99715  1.0000
  H   H3947     1.0  0.86779  0.67582  0.21319  1.0000
  C   C2214     1.0  0.92887  0.82849  0.22032  1.0000
  C   C2215     1.0  0.93746  0.68332  0.21179  1.0000
  H   H3948     1.0  0.86385  0.74080  0.04732  1.0000
  H   H3949     1.0  0.56157  0.94801  0.00329  1.0000
  H   H3950     1.0  0.94971  0.78810  0.22943  1.0000
  H   H3951     1.0  0.90882  0.82579  0.17282  1.0000
  N   N127      1.0  0.83902  0.72072  0.04041  1.0000
  C   C2216     1.0  0.94770  0.94188  0.09356  1.0000
  H   H3952     1.0  0.98685  0.81594  0.05391  1.0000
  C   C2217     1.0  0.81444  0.97123  0.01359  1.0000
  H   H3953     1.0  0.94789  0.79339  0.20238  1.0000
  H   H3954     1.0  0.91966  0.68038  0.21747  1.0000
  H   H3955     1.0  0.60514  0.92199  0.05224  1.0000
  C   C2218     1.0  0.85713  0.98578  0.15976  1.0000
  H   H3956     1.0  0.81819  0.91176  0.19479  1.0000
  C   C2219     1.0  0.99091  0.91054  0.06892  1.0000
  C   C2220     1.0  0.52482  0.87883  0.02672  1.0000
  H   H3957     1.0  0.77345  0.98745  0.02075  1.0000
  H   H3958     1.0  0.67426  0.85878  0.02563  1.0000
  H   H3959     1.0  0.93991  0.97412  0.04321  1.0000
  H   H3960     1.0  0.53554  0.93565  0.05298  1.0000
  H   H3961     1.0  0.67955  0.85081  0.00119  1.0000
  C   C2221     1.0  0.83941  0.69424  0.06504  1.0000
  H   H3962     1.0  0.79797  0.88097  0.15677  1.0000
  H   H3963     1.0  0.80456  0.91930  0.17044  1.0000
  H   H3964     1.0  0.84569  0.95531  0.20921  1.0000
  H   H3965     1.0  0.57992  0.93107  0.00490  1.0000
  C   C2222     1.0  0.55670  0.95444  0.03059  1.0000
  C   C2223     1.0  0.83451  0.94445  0.20488  1.0000
  C   C2224     1.0  0.00046  0.72731  0.03465  1.0000
  C   C2225     1.0  0.94897  0.80698  0.20768  1.0000
  H   H3966     1.0  0.82240  0.93125  0.21423  1.0000
  H   H3967     1.0  0.96020  0.82180  0.19906  1.0000
  C   C2226     1.0  0.00197  0.74563  0.99474  1.0000
  C   C2227     1.0  0.96096  0.80132  0.21975  1.0000
  C   C2228     1.0  0.79742  0.71180  0.05465  1.0000
  C   C2229     1.0  0.66376  0.85392  0.00638  1.0000
  H   H3968     1.0  0.65001  0.84249  0.00428  1.0000
  H   H3969     1.0  0.78054  0.98602  0.20295  1.0000
  S   S488      1.0  0.90247  0.99434  0.09727  1.0000
  H   H3970     1.0  0.00070  0.92156  0.05791  1.0000
  H   H3971     1.0  0.99783  0.95274  0.06827  1.0000
  S   S489      1.0  0.96792  0.88554  0.23037  1.0000
  C   C2230     1.0  0.97938  0.76503  0.09450  1.0000
  H   H3972     1.0  0.53330  0.91063  0.03961  1.0000
  C   C2231     1.0  0.65765  0.99591  0.99467  1.0000
  H   H3973     1.0  0.60923  0.95906  0.00648  1.0000
  H   H3974     1.0  0.76390  0.00337  0.22412  1.0000
  H   H3975     1.0  0.84769  0.79384  0.04428  1.0000
  S   S490      1.0  0.81535  0.97987  0.15562  1.0000
  C   C2232     1.0  0.53922  0.98968  0.99506  1.0000
  S   S491      1.0  0.57774  0.86581  0.99744  1.0000
  H   H3976     1.0  0.82986  0.98483  0.01100  1.0000
  H   H3977     1.0  0.89854  0.83883  0.21810  1.0000
  H   H3978     1.0  0.00227  0.90736  0.07584  1.0000
  C   C2233     1.0  0.83564  0.98761  0.16461  1.0000
  C   C2234     1.0  0.97312  0.74555  0.10860  1.0000
  H   H3979     1.0  0.97082  0.67938  0.05604  1.0000
  H   H3980     1.0  0.55611  0.90464  0.05309  1.0000
  H   H3981     1.0  0.61193  0.97064  0.04010  1.0000
  H   H3982     1.0  0.78798  0.98156  0.04473  1.0000
  H   H3983     1.0  0.79558  0.69486  0.06127  1.0000
  H   H3984     1.0  0.55339  0.90121  0.01067  1.0000
  C   C2235     1.0  0.98481  0.94287  0.07857  1.0000
  H   H3985     1.0  0.96834  0.99857  0.18084  1.0000
  H   H3986     1.0  0.96045  0.98405  0.12370  1.0000
  H   H3987     1.0  0.85431  0.76090  0.23641  1.0000
  H   H3988     1.0  0.93078  0.94248  0.23745  1.0000
  H   H3989     1.0  0.59177  0.89501  0.05131  1.0000
  C   C2236     1.0  0.83001  0.99485  0.17716  1.0000
  H   H3990     1.0  0.87784  0.74956  0.23516  1.0000
  C   C2237     1.0  0.98125  0.79354  0.21411  1.0000
  H   H3991     1.0  0.81643  0.94053  0.07567  1.0000
  H   H3992     1.0  0.67079  0.88823  0.00645  1.0000
  H   H3993     1.0  0.81234  0.97102  0.05743  1.0000
  C   C2238     1.0  0.82057  0.95257  0.00745  1.0000
  C   C2239     1.0  0.84960  0.77748  0.04946  1.0000
  H   H3994     1.0  0.93881  0.99024  0.05610  1.0000
  H   H3995     1.0  0.51752  0.96480  0.05750  1.0000
  C   C2240     1.0  0.78665  0.99867  0.02334  1.0000
  H   H3996     1.0  0.96701  0.81609  0.22331  1.0000
  C   C2241     1.0  0.79834  0.98567  0.03324  1.0000
  C   C2242     1.0  0.99788  0.88588  0.19577  1.0000
  H   H3997     1.0  0.81418  0.99738  0.03272  1.0000
  C   C2243     1.0  0.91286  0.85516  0.23196  1.0000
  H   H3998     1.0  0.93274  0.99950  0.17858  1.0000
  S   S492      1.0  0.50990  0.92717  0.99589  1.0000
  H   H3999     1.0  0.83891  0.77151  0.06094  1.0000
  H   H4000     1.0  0.98926  0.85184  0.19597  1.0000
  H   H4001     1.0  0.95965  0.98529  0.07461  1.0000
  C   C2244     1.0  0.84602  0.73854  0.04752  1.0000
  H   H4002     1.0  0.96337  0.95436  0.05479  1.0000
  H   H4003     1.0  0.97618  0.77805  0.21109  1.0000
  H   H4004     1.0  0.70803  0.87958  0.99980  1.0000
  H   H4005     1.0  0.93358  0.67357  0.02133  1.0000
  H   H4006     1.0  0.53992  0.99934  0.00278  1.0000
  H   H4007     1.0  0.96660  0.74459  0.00199  1.0000
  N   N128      1.0  0.77374  0.97558  0.23525  1.0000
  H   H4008     1.0  0.93530  0.82370  0.22996  1.0000
  H   H4009     1.0  0.95117  0.71158  0.99560  1.0000
  C   C2245     1.0  0.94914  0.98137  0.05022  1.0000
  H   H4010     1.0  0.00092  0.78190  0.11319  1.0000
  H   H4011     1.0  0.92358  0.86962  0.22283  1.0000
  C   C2246     1.0  0.96878  0.71529  0.99584  1.0000
  H   H4012     1.0  0.51280  0.88509  0.02137  1.0000
  S   S493      1.0  0.88692  0.00135  0.19014  1.0000
  H   H4013     1.0  0.94744  0.69729  0.21452  1.0000
  C   C2247     1.0  0.71155  0.89476  0.99074  1.0000
  Fe  Fe243     1.0  0.99399  0.91755  0.22018  1.0000
  C   C2248     1.0  0.86693  0.99698  0.18039  1.0000
  H   H4014     1.0  0.89636  0.82128  0.23598  1.0000
  S   S494      1.0  0.97619  0.93660  0.23310  1.0000
  C   C2249     1.0  0.99936  0.98459  0.19296  1.0000
  H   H4015     1.0  0.91234  0.78795  0.23452  1.0000
  C   C2250     1.0  0.98902  0.89450  0.16843  1.0000
  C   C2251     1.0  0.77700  0.00011  0.22956  1.0000
  H   H4016     1.0  0.99702  0.69561  0.03066  1.0000
  H   H4017     1.0  0.95358  0.00078  0.22211  1.0000
  H   H4018     1.0  0.51756  0.96017  0.01127  1.0000
  H   H4019     1.0  0.89727  0.85914  0.23661  1.0000
  C   C2252     1.0  0.87204  0.76423  0.23642  1.0000
  H   H4020     1.0  0.79002  0.93664  0.23739  1.0000
  Fe  Fe244     1.0  0.90591  0.68953  0.28003  1.0000
  Fe  Fe245     1.0  0.94024  0.70904  0.25064  1.0000
  S   S495      1.0  0.93468  0.71963  0.27114  1.0000
  S   S496      1.0  0.56902  0.90947  0.34560  1.0000
  H   H4021     1.0  0.53904  0.87996  0.29671  1.0000
  C   C2253     1.0  0.85339  0.69606  0.32514  1.0000
  Fe  Fe246     1.0  0.95200  0.90360  0.24475  1.0000
  H   H4022     1.0  0.94168  0.00094  0.24889  1.0000
  C   C2254     1.0  0.51365  0.93952  0.41436  1.0000
  C   C2255     1.0  0.93193  0.79023  0.26127  1.0000
  H   H4023     1.0  0.95699  0.74927  0.28335  1.0000
  S   S497      1.0  0.64303  0.97191  0.28906  1.0000
  C   C2256     1.0  0.98674  0.67282  0.27380  1.0000
  S   S498      1.0  0.68848  0.96998  0.31089  1.0000
  C   C2257     1.0  0.97579  0.68335  0.26450  1.0000
  C   C2258     1.0  0.55128  0.91442  0.29673  1.0000
  Fe  Fe247     1.0  0.67239  0.98830  0.29572  1.0000
  C   C2259     1.0  0.50762  0.94442  0.28860  1.0000
  C   C2260     1.0  0.60370  0.96552  0.39938  1.0000
  S   S499      1.0  0.87588  0.97373  0.26281  1.0000
  C   C2261     1.0  0.53991  0.97798  0.39277  1.0000
  C   C2262     1.0  0.97199  0.80359  0.25619  1.0000
  H   H4024     1.0  0.98807  0.76006  0.26106  1.0000
  S   S500      1.0  0.67499  0.98977  0.34657  1.0000
  H   H4025     1.0  0.52949  0.89866  0.27822  1.0000
  S   S501      1.0  0.90765  0.76904  0.26468  1.0000
  C   C2263     1.0  0.93009  0.81137  0.26138  1.0000
  C   C2264     1.0  0.52510  0.96195  0.38916  1.0000
  H   H4026     1.0  0.78758  0.00009  0.31020  1.0000
  H   H4027     1.0  0.93258  0.77880  0.30906  1.0000
  C   C2265     1.0  0.55498  0.95021  0.28040  1.0000
  C   C2266     1.0  0.88710  0.95238  0.25942  1.0000
  C   C2267     1.0  0.87662  0.93093  0.26830  1.0000
  C   C2268     1.0  0.88524  0.91356  0.26576  1.0000
  C   C2269     1.0  0.90487  0.91772  0.25474  1.0000
  S   S502      1.0  0.51100  0.90713  0.33598  1.0000
  C   C2270     1.0  0.90651  0.95654  0.24818  1.0000
  H   H4028     1.0  0.86161  0.92769  0.27699  1.0000
  H   H4029     1.0  0.87683  0.89690  0.27246  1.0000
  H   H4030     1.0  0.83364  0.68606  0.35523  1.0000
  H   H4031     1.0  0.95290  0.71117  0.29511  1.0000
  H   H4032     1.0  0.52849  0.89852  0.25210  1.0000
  C   C2271     1.0  0.54090  0.91557  0.27386  1.0000
  C   C2272     1.0  0.91575  0.93926  0.24608  1.0000
  H   H4033     1.0  0.79568  0.98083  0.27753  1.0000
  Fe  Fe248     1.0  0.99536  0.92683  0.24911  1.0000
  C   C2273     1.0  0.53344  0.92700  0.26074  1.0000
  H   H4034     1.0  0.63203  0.95991  0.37206  1.0000
  H   H4035     1.0  0.66444  0.98203  0.25008  1.0000
  H   H4036     1.0  0.80045  0.98060  0.24540  1.0000
  H   H4037     1.0  0.84607  0.74072  0.36283  1.0000
  H   H4038     1.0  0.89527  0.69962  0.35179  1.0000
  C   C2274     1.0  0.58916  0.92728  0.32987  1.0000
  C   C2275     1.0  0.61116  0.92615  0.32778  1.0000
  C   C2276     1.0  0.62776  0.94016  0.31541  1.0000
  C   C2277     1.0  0.62231  0.95485  0.30478  1.0000
  C   C2278     1.0  0.60023  0.95580  0.30672  1.0000
  C   C2279     1.0  0.58369  0.94230  0.31940  1.0000
  H   H4039     1.0  0.61541  0.91437  0.33575  1.0000
  H   H4040     1.0  0.64471  0.93915  0.31392  1.0000
  H   H4041     1.0  0.59612  0.96728  0.29853  1.0000
  H   H4042     1.0  0.56678  0.94342  0.32109  1.0000
  H   H4043     1.0  0.76286  0.97170  0.25866  1.0000
  C   C2280     1.0  0.95293  0.78637  0.25857  1.0000
  H   H4044     1.0  0.88261  0.68501  0.32534  1.0000
  C   C2281     1.0  0.97010  0.82478  0.25622  1.0000
  C   C2282     1.0  0.94912  0.82864  0.25874  1.0000
  H   H4045     1.0  0.97351  0.98721  0.23958  1.0000
  H   H4046     1.0  0.91476  0.97310  0.24140  1.0000
  H   H4047     1.0  0.61511  0.98621  0.37695  1.0000
  H   H4048     1.0  0.98793  0.69535  0.29496  1.0000
  H   H4049     1.0  0.55336  0.89370  0.40301  1.0000
  C   C2283     1.0  0.59086  0.97883  0.26545  1.0000
  H   H4050     1.0  0.54042  0.86265  0.32166  1.0000
  C   C2284     1.0  0.73471  0.97534  0.25045  1.0000
  C   C2285     1.0  0.51499  0.98069  0.31460  1.0000
  H   H4051     1.0  0.74685  0.98896  0.32021  1.0000
  H   H4052     1.0  0.94748  0.84490  0.25883  1.0000
  H   H4053     1.0  0.91388  0.81445  0.26345  1.0000
  C   C2286     1.0  0.53874  0.88991  0.30463  1.0000
  H   H4054     1.0  0.55008  0.99283  0.38444  1.0000
  S   S503      1.0  0.51035  0.88922  0.37029  1.0000
  H   H4055     1.0  0.58634  0.98050  0.38485  1.0000
  C   C2287     1.0  0.54971  0.88011  0.31607  1.0000
  C   C2288     1.0  0.85798  0.71520  0.35510  1.0000
  H   H4056     1.0  0.82457  0.71937  0.36107  1.0000
  H   H4057     1.0  0.52373  0.96456  0.37807  1.0000
  H   H4058     1.0  0.51589  0.95945  0.29112  1.0000
  H   H4059     1.0  0.97915  0.77065  0.28315  1.0000
  H   H4060     1.0  0.53699  0.96075  0.31923  1.0000
  H   H4061     1.0  0.55293  0.92298  0.30535  1.0000
  H   H4062     1.0  0.83682  0.71416  0.37623  1.0000
  H   H4063     1.0  0.51892  0.71083  0.43740  1.0000
  C   C2289     1.0  0.96539  0.71563  0.30109  1.0000
  H   H4064     1.0  0.54247  0.94467  0.25620  1.0000
  H   H4065     1.0  0.51533  0.92523  0.26418  1.0000
  C   C2290     1.0  0.75758  0.99572  0.32663  1.0000
  Fe  Fe249     1.0  0.53418  0.91295  0.34983  1.0000
  H   H4066     1.0  0.58725  0.95744  0.40752  1.0000
  H   H4067     1.0  0.51671  0.92504  0.30575  1.0000
  H   H4068     1.0  0.96450  0.76363  0.31059  1.0000
  H   H4069     1.0  0.95443  0.77019  0.25819  1.0000
  C   C2291     1.0  0.51362  0.83226  0.37513  1.0000
  H   H4070     1.0  0.98755  0.74190  0.31301  1.0000
  C   C2292     1.0  0.95406  0.75815  0.30364  1.0000
  Fe  Fe250     1.0  0.68645  0.99646  0.32214  1.0000
  H   H4071     1.0  0.52214  0.81894  0.37579  1.0000
  H   H4072     1.0  0.82100  0.95425  0.25488  1.0000
  S   S504      1.0  0.75135  0.98243  0.28947  1.0000
  C   C2293     1.0  0.54804  0.89992  0.39309  1.0000
  H   H4073     1.0  0.70141  0.96858  0.26469  1.0000
  H   H4074     1.0  0.53056  0.70435  0.45262  1.0000
  C   C2294     1.0  0.85037  0.69004  0.35717  1.0000
  C   C2295     1.0  0.99424  0.73548  0.27813  1.0000
  Fe  Fe251     1.0  0.91112  0.73609  0.26219  1.0000
  S   S505      1.0  0.91352  0.67743  0.26024  1.0000
  C   C2296     1.0  0.87273  0.69335  0.33203  1.0000
  H   H4075     1.0  0.81051  0.68192  0.27745  1.0000
  C   C2297     1.0  0.51172  0.94282  0.40005  1.0000
  H   H4076     1.0  0.57632  0.99779  0.43879  1.0000
  S   S506      1.0  0.91910  0.72818  0.24067  1.0000
  H   H4077     1.0  0.88222  0.67425  0.36534  1.0000
  C   C2298     1.0  0.84022  0.72273  0.36441  1.0000
  C   C2299     1.0  0.97569  0.69605  0.30467  1.0000
  C   C2300     1.0  0.57667  0.93648  0.38692  1.0000
  H   H4078     1.0  0.84751  0.68209  0.36903  1.0000
  H   H4079     1.0  0.87329  0.76687  0.24715  1.0000
  H   H4080     1.0  0.84873  0.71071  0.30401  1.0000
  H   H4081     1.0  0.95576  0.71615  0.31189  1.0000
  S   S507      1.0  0.91497  0.89561  0.25167  1.0000
  H   H4082     1.0  0.99252  0.87339  0.29199  1.0000
  H   H4083     1.0  0.95814  0.68132  0.26832  1.0000
  H   H4084     1.0  0.61403  0.95374  0.39999  1.0000
  C   C2301     1.0  0.96833  0.75424  0.28993  1.0000
  H   H4085     1.0  0.56841  0.91443  0.29125  1.0000
  C   C2302     1.0  0.57945  0.95423  0.27165  1.0000
  H   H4086     1.0  0.84186  0.70360  0.33121  1.0000
  H   H4087     1.0  0.65424  0.99619  0.37378  1.0000
  C   C2303     1.0  0.64128  0.92751  0.35943  1.0000
  H   H4088     1.0  0.50916  0.83556  0.36457  1.0000
  H   H4089     1.0  0.51843  0.00317  0.37381  1.0000
  C   C2304     1.0  0.60033  0.97270  0.38382  1.0000
  C   C2305     1.0  0.99715  0.74346  0.30166  1.0000
  H   H4090     1.0  0.62419  0.98575  0.35233  1.0000
  H   H4091     1.0  0.53156  0.92439  0.23914  1.0000
  H   H4092     1.0  0.55559  0.91809  0.24401  1.0000
  Fe  Fe252     1.0  0.89166  0.69716  0.25209  1.0000
  H   H4093     1.0  0.98372  0.72289  0.27449  1.0000
  H   H4094     1.0  0.54035  0.98265  0.46875  1.0000
  C   C2306     1.0  0.55433  0.99097  0.30220  1.0000
  H   H4095     1.0  0.93104  0.77076  0.29266  1.0000
  H   H4096     1.0  0.54961  0.88917  0.32451  1.0000
  H   H4097     1.0  0.81528  0.92718  0.25227  1.0000
  C   C2307     1.0  0.00247  0.75639  0.26477  1.0000
  H   H4098     1.0  0.58051  0.94707  0.26227  1.0000
  H   H4099     1.0  0.87521  0.70474  0.30305  1.0000
  H   H4100     1.0  0.87337  0.71961  0.35854  1.0000
  H   H4101     1.0  0.73827  0.99276  0.25073  1.0000
  H   H4102     1.0  0.72155  0.96267  0.27425  1.0000
  S   S508      1.0  0.99398  0.84625  0.25325  1.0000
  N   N129      1.0  0.54105  0.92660  0.28597  1.0000
  H   H4103     1.0  0.94494  0.67393  0.32014  1.0000
  H   H4104     1.0  0.55755  0.91317  0.26962  1.0000
  C   C2308     1.0  0.53784  0.99858  0.47028  1.0000
  H   H4105     1.0  0.51974  0.99484  0.47561  1.0000
  H   H4106     1.0  0.98095  0.90797  0.28868  1.0000
  C   C2309     1.0  0.61489  0.98507  0.40401  1.0000
  H   H4107     1.0  0.72825  0.97430  0.24087  1.0000
  H   H4108     1.0  0.86115  0.72480  0.34354  1.0000
  C   C2310     1.0  0.96335  0.98438  0.26964  1.0000
  C   C2311     1.0  0.94187  0.96602  0.27254  1.0000
  C   C2312     1.0  0.53558  0.97599  0.31269  1.0000
  H   H4109     1.0  0.78143  0.93975  0.25559  1.0000
  Fe  Fe253     1.0  0.98764  0.87955  0.24649  1.0000
  H   H4110     1.0  0.75054  0.94883  0.25320  1.0000
  C   C2313     1.0  0.94604  0.94326  0.27566  1.0000
  H   H4111     1.0  0.55523  0.95727  0.28980  1.0000
  H   H4112     1.0  0.53033  0.95214  0.42893  1.0000
  N   N130      1.0  0.86606  0.68070  0.34801  1.0000
  C   C2314     1.0  0.75602  0.96714  0.24980  1.0000
  C   C2315     1.0  0.54166  0.97451  0.40718  1.0000
  H   H4113     1.0  0.58911  0.94716  0.27876  1.0000
  H   H4114     1.0  0.90430  0.00308  0.29467  1.0000
  S   S509      1.0  0.96954  0.89501  0.26188  1.0000
  H   H4115     1.0  0.97719  0.98040  0.26257  1.0000
  H   H4116     1.0  0.96740  0.98258  0.28031  1.0000
  H   H4117     1.0  0.93507  0.96795  0.26299  1.0000
  H   H4118     1.0  0.92924  0.96630  0.28225  1.0000
  H   H4119     1.0  0.56716  0.88083  0.31082  1.0000
  H   H4120     1.0  0.53398  0.90707  0.39614  1.0000
  H   H4121     1.0  0.56263  0.94343  0.39061  1.0000
  C   C2316     1.0  0.52881  0.95507  0.41784  1.0000
  C   C2317     1.0  0.50795  0.99877  0.44970  1.0000
  C   C2318     1.0  0.71609  0.96188  0.26425  1.0000
  H   H4122     1.0  0.94956  0.67110  0.30178  1.0000
  C   C2319     1.0  0.86240  0.71079  0.30938  1.0000
  C   C2320     1.0  0.51624  0.69908  0.44827  1.0000
  H   H4123     1.0  0.95330  0.94033  0.28509  1.0000
  H   H4124     1.0  0.93012  0.93043  0.27827  1.0000
  H   H4125     1.0  0.95750  0.94168  0.26586  1.0000
  H   H4126     1.0  0.61335  0.97999  0.41594  1.0000
  H   H4127     1.0  0.64525  0.92256  0.34916  1.0000
  H   H4128     1.0  0.58105  0.92902  0.39700  1.0000
  S   S510      1.0  0.88155  0.70672  0.27276  1.0000
  H   H4129     1.0  0.71097  0.94442  0.26423  1.0000
  H   H4130     1.0  0.54761  0.96065  0.27325  1.0000
  C   C2321     1.0  0.94248  0.77596  0.29914  1.0000
  H   H4131     1.0  0.94078  0.74307  0.31029  1.0000
  H   H4132     1.0  0.61309  0.97541  0.33181  1.0000
  H   H4133     1.0  0.95481  0.79173  0.29244  1.0000
  H   H4134     1.0  0.91186  0.68237  0.33389  1.0000
  N   N131      1.0  0.59620  0.95460  0.37644  1.0000
  C   C2322     1.0  0.59005  0.96377  0.36264  1.0000
  H   H4135     1.0  0.86998  0.72799  0.30915  1.0000
  C   C2323     1.0  0.61689  0.94657  0.37347  1.0000
  C   C2324     1.0  0.62206  0.93813  0.35970  1.0000
  H   H4136     1.0  0.91503  0.99217  0.27167  1.0000
  C   C2325     1.0  0.56733  0.91709  0.38121  1.0000
  C   C2326     1.0  0.98770  0.69630  0.25028  1.0000
  Fe  Fe254     1.0  0.72047  0.99357  0.29597  1.0000
  H   H4137     1.0  0.57363  0.96740  0.36545  1.0000
  H   H4138     1.0  0.58750  0.95134  0.35650  1.0000
  H   H4139     1.0  0.98424  0.69747  0.31335  1.0000
  H   H4140     1.0  0.63676  0.91265  0.36891  1.0000
  H   H4141     1.0  0.58881  0.98547  0.33529  1.0000
  C   C2327     1.0  0.79399  0.94675  0.24478  1.0000
  H   H4142     1.0  0.62711  0.95195  0.34954  1.0000
  H   H4143     1.0  0.60761  0.92593  0.35914  1.0000
  S   S511      1.0  0.52456  0.94248  0.35458  1.0000
  H   H4144     1.0  0.61646  0.93330  0.38312  1.0000
  H   H4145     1.0  0.56085  0.92284  0.37178  1.0000
  H   H4146     1.0  0.58017  0.90865  0.37809  1.0000
  H   H4147     1.0  0.65638  0.93937  0.35971  1.0000
  H   H4148     1.0  0.54219  0.88580  0.38890  1.0000
  H   H4149     1.0  0.57024  0.98737  0.30073  1.0000
  H   H4150     1.0  0.88408  0.70991  0.33009  1.0000
  C   C2328     1.0  0.81636  0.94469  0.24729  1.0000
  S   S512      1.0  0.55997  0.99334  0.41259  1.0000
  H   H4151     1.0  0.60831  0.98127  0.25928  1.0000
  N   N132      1.0  0.98161  0.73770  0.29261  1.0000
  H   H4152     1.0  0.98824  0.80066  0.25402  1.0000
  C   C2329     1.0  0.88666  0.68216  0.35331  1.0000
  C   C2330     1.0  0.53756  0.91628  0.24827  1.0000
  H   H4153     1.0  0.68051  0.99916  0.25838  1.0000
  H   H4154     1.0  0.59082  0.98672  0.27447  1.0000
  H   H4155     1.0  0.57640  0.99170  0.45773  1.0000
  H   H4156     1.0  0.52542  0.84741  0.37525  1.0000
  C   C2331     1.0  0.51331  0.00063  0.30627  1.0000
  C   C2332     1.0  0.98978  0.90341  0.29708  1.0000
  C   C2333     1.0  0.77328  0.00117  0.27509  1.0000
  C   C2334     1.0  0.92325  0.67280  0.35292  1.0000
  H   H4157     1.0  0.51573  0.68241  0.44690  1.0000
  H   H4158     1.0  0.53916  0.99109  0.44412  1.0000
  H   H4159     1.0  0.64205  0.00285  0.26207  1.0000
  C   C2335     1.0  0.82156  0.67095  0.27893  1.0000
  C   C2336     1.0  0.60689  0.98523  0.35199  1.0000
  C   C2337     1.0  0.51761  0.92530  0.29416  1.0000
  H   H4160     1.0  0.93080  0.68973  0.35319  1.0000
  H   H4161     1.0  0.58230  0.98692  0.25791  1.0000
  C   C2338     1.0  0.60611  0.98775  0.33612  1.0000
  H   H4162     1.0  0.52118  0.88794  0.31034  1.0000
  H   H4163     1.0  0.63279  0.99114  0.39805  1.0000
  H   H4164     1.0  0.52806  0.99945  0.35137  1.0000
  H   H4165     1.0  0.97718  0.89480  0.30774  1.0000
  H   H4166     1.0  0.76024  0.98167  0.33434  1.0000
  H   H4167     1.0  0.84369  0.67984  0.32495  1.0000
  H   H4168     1.0  0.51942  0.00075  0.33540  1.0000
  S   S513      1.0  0.86674  0.68406  0.24098  1.0000
  C   C2339     1.0  0.79364  0.99613  0.27147  1.0000
  H   H4169     1.0  0.61415  0.00148  0.44074  1.0000
  H   H4170     1.0  0.50525  0.97734  0.43541  1.0000
  H   H4171     1.0  0.50349  0.92476  0.42279  1.0000
  Fe  Fe255     1.0  0.88156  0.00081  0.24253  1.0000
  C   C2340     1.0  0.90444  0.67247  0.34551  1.0000
  H   H4172     1.0  0.60696  0.99864  0.40173  1.0000
  C   C2341     1.0  0.95775  0.67415  0.31039  1.0000
  H   H4173     1.0  0.50591  0.90954  0.29474  1.0000
  H   H4174     1.0  0.83815  0.67942  0.27110  1.0000
  H   H4175     1.0  0.92138  0.85209  0.24073  1.0000
  H   H4176     1.0  0.50974  0.94857  0.27665  1.0000
  C   C2342     1.0  0.67220  0.99936  0.24947  1.0000
  H   H4177     1.0  0.60299  0.99968  0.35527  1.0000
  S   S514      1.0  0.97456  0.71008  0.23858  1.0000
  H   H4178     1.0  0.00030  0.91864  0.29813  1.0000
  C   C2343     1.0  0.79495  0.97111  0.23798  1.0000
  Fe  Fe256     1.0  0.83441  0.96000  0.71106  1.0000
  S   S515      1.0  0.84880  0.93361  0.70469  1.0000
  S   S516      1.0  0.79960  0.95547  0.72438  1.0000
  C   C2344     1.0  0.61125  0.86599  0.64947  1.0000
  C   C2345     1.0  0.90605  0.84991  0.68822  1.0000
  S   S517      1.0  0.93526  0.88315  0.72315  1.0000
  C   C2346     1.0  0.51646  0.88216  0.63661  1.0000
  H   H4179     1.0  0.57661  0.93118  0.72264  1.0000
  S   S518      1.0  0.95994  0.83120  0.72133  1.0000
  H   H4180     1.0  0.99070  0.75639  0.72743  1.0000
  C   C2347     1.0  0.97478  0.68868  0.69801  1.0000
  Fe  Fe257     1.0  0.54990  0.87419  0.57996  1.0000
  S   S519      1.0  0.52526  0.88438  0.59530  1.0000
  S   S520      1.0  0.58643  0.88096  0.57964  1.0000
  H   H4181     1.0  0.55135  0.95765  0.70514  1.0000
  H   H4182     1.0  0.97378  0.76627  0.71670  1.0000
  N   N133      1.0  0.55358  0.92386  0.70996  1.0000
  H   H4183     1.0  0.52388  0.95252  0.63674  1.0000
  H   H4184     1.0  0.95767  0.69770  0.62404  1.0000
  S   S521      1.0  0.93233  0.67790  0.71527  1.0000
  C   C2348     1.0  0.57691  0.93074  0.71124  1.0000
  S   S522      1.0  0.53741  0.88466  0.56009  1.0000
  S   S523      1.0  0.52922  0.83936  0.58510  1.0000
  H   H4185     1.0  0.90570  0.89584  0.63858  1.0000
  H   H4186     1.0  0.62593  0.91436  0.70585  1.0000
  H   H4187     1.0  0.91430  0.83444  0.66092  1.0000
  S   S524      1.0  0.97853  0.87938  0.73561  1.0000
  C   C2349     1.0  0.62018  0.99295  0.57685  1.0000
  H   H4188     1.0  0.87371  0.90179  0.70508  1.0000
  H   H4189     1.0  0.90257  0.87063  0.70331  1.0000
  C   C2350     1.0  0.96870  0.87661  0.68177  1.0000
  C   C2351     1.0  0.65845  0.97173  0.58364  1.0000
  H   H4190     1.0  0.92553  0.80132  0.65744  1.0000
  C   C2352     1.0  0.51952  0.80972  0.65833  1.0000
  Fe  Fe258     1.0  0.68172  0.93959  0.65623  1.0000
  S   S525      1.0  0.65203  0.93835  0.67381  1.0000
  S   S526      1.0  0.71669  0.94312  0.65979  1.0000
  Fe  Fe259     1.0  0.65194  0.92805  0.63578  1.0000
  S   S527      1.0  0.62069  0.92649  0.65196  1.0000
  S   S528      1.0  0.65249  0.92010  0.61404  1.0000
  Fe  Fe260     1.0  0.64094  0.95656  0.65548  1.0000
  Fe  Fe261     1.0  0.50392  0.85017  0.59929  1.0000
  Fe  Fe262     1.0  0.63448  0.90839  0.66875  1.0000
  S   S529      1.0  0.61531  0.87760  0.68690  1.0000
  S   S530      1.0  0.67173  0.95998  0.63788  1.0000
  S   S531      1.0  0.66473  0.90788  0.65240  1.0000
  Fe  Fe263     1.0  0.92916  0.70104  0.69539  1.0000
  S   S532      1.0  0.89691  0.70711  0.69280  1.0000
  C   C2353     1.0  0.53999  0.88072  0.71683  1.0000
  Fe  Fe264     1.0  0.95563  0.73202  0.66572  1.0000
  S   S533      1.0  0.92559  0.74121  0.66065  1.0000
  S   S534      1.0  0.99062  0.74399  0.65109  1.0000
  Fe  Fe265     1.0  0.91663  0.74272  0.68409  1.0000
  S   S535      1.0  0.90319  0.76830  0.69303  1.0000
  Fe  Fe266     1.0  0.90885  0.70473  0.66983  1.0000
  C   C2354     1.0  0.51916  0.98731  0.55447  1.0000
  S   S536      1.0  0.94804  0.73653  0.68821  1.0000
  S   S537      1.0  0.93951  0.69576  0.67327  1.0000
  H   H4191     1.0  0.99878  0.73135  0.71392  1.0000
  H   H4192     1.0  0.59161  0.81394  0.61532  1.0000
  H   H4193     1.0  0.97088  0.70239  0.69148  1.0000
  H   H4194     1.0  0.73292  0.92153  0.73031  1.0000
  H   H4195     1.0  0.97371  0.88805  0.67060  1.0000
  C   C2355     1.0  0.99196  0.73016  0.63749  1.0000
  H   H4196     1.0  0.56840  0.81590  0.60762  1.0000
  H   H4197     1.0  0.93482  0.94175  0.68587  1.0000
  H   H4198     1.0  0.71689  0.89546  0.66282  1.0000
  H   H4199     1.0  0.56682  0.94356  0.62548  1.0000
  H   H4200     1.0  0.65981  0.95577  0.58162  1.0000
  C   C2356     1.0  0.92399  0.82743  0.66794  1.0000
  H   H4201     1.0  0.94596  0.95424  0.71632  1.0000
  C   C2357     1.0  0.53263  0.99290  0.56335  1.0000
  S   S538      1.0  0.99301  0.68955  0.60477  1.0000
  H   H4202     1.0  0.72967  0.99325  0.69080  1.0000
  H   H4203     1.0  0.52536  0.93733  0.71106  1.0000
  C   C2358     1.0  0.94233  0.99449  0.71749  1.0000
  N   N134      1.0  0.92463  0.97599  0.71625  1.0000
  H   H4204     1.0  0.55095  0.99096  0.50393  1.0000
  C   C2359     1.0  0.54048  0.90229  0.72137  1.0000
  C   C2360     1.0  0.74229  0.91874  0.72019  1.0000
  H   H4205     1.0  0.97334  0.99185  0.70402  1.0000
  C   C2361     1.0  0.54125  0.85031  0.69195  1.0000
  C   C2362     1.0  0.55254  0.87133  0.68257  1.0000
  C   C2363     1.0  0.57552  0.87954  0.68050  1.0000
  C   C2364     1.0  0.58709  0.86701  0.68803  1.0000
  C   C2365     1.0  0.57581  0.84584  0.69711  1.0000
  C   C2366     1.0  0.55307  0.83740  0.69888  1.0000
  H   H4206     1.0  0.54353  0.88133  0.67708  1.0000
  H   H4207     1.0  0.58415  0.89582  0.67349  1.0000
  H   H4208     1.0  0.58463  0.83597  0.70290  1.0000
  H   H4209     1.0  0.54446  0.82106  0.70605  1.0000
  C   C2367     1.0  0.67604  0.97889  0.59133  1.0000
  C   C2368     1.0  0.93523  0.96042  0.70965  1.0000
  H   H4210     1.0  0.91210  0.81723  0.72463  1.0000
  H   H4211     1.0  0.71101  0.87804  0.69566  1.0000
  Fe  Fe267     1.0  0.96294  0.90597  0.72767  1.0000
  H   H4212     1.0  0.63587  0.98218  0.59887  1.0000
  C   C2369     1.0  0.59045  0.84807  0.65096  1.0000
  H   H4213     1.0  0.93214  0.90966  0.64032  1.0000
  C   C2370     1.0  0.53639  0.97625  0.57376  1.0000
  Fe  Fe268     1.0  0.51354  0.85070  0.56707  1.0000
  H   H4214     1.0  0.93994  0.74698  0.71743  1.0000
  C   C2371     1.0  0.52567  0.86585  0.64581  1.0000
  H   H4215     1.0  0.54668  0.98051  0.58071  1.0000
  C   C2372     1.0  0.54207  0.98620  0.49599  1.0000
  H   H4216     1.0  0.65331  0.99757  0.62984  1.0000
  H   H4217     1.0  0.64035  0.83879  0.73410  1.0000
  H   H4218     1.0  0.66016  0.88602  0.73476  1.0000
  H   H4219     1.0  0.54631  0.90069  0.73146  1.0000
  H   H4220     1.0  0.97505  0.90345  0.69177  1.0000
  C   C2373     1.0  0.57310  0.85817  0.64498  1.0000
  C   C2374     1.0  0.60295  0.89133  0.59047  1.0000
  C   C2375     1.0  0.59476  0.89806  0.60289  1.0000
  C   C2376     1.0  0.60940  0.90632  0.61074  1.0000
  C   C2377     1.0  0.63227  0.90821  0.60598  1.0000
  C   C2378     1.0  0.64014  0.90161  0.59357  1.0000
  C   C2379     1.0  0.62568  0.89313  0.58600  1.0000
  H   H4221     1.0  0.57730  0.89714  0.60630  1.0000
  H   H4222     1.0  0.60315  0.91166  0.62020  1.0000
  H   H4223     1.0  0.65770  0.90308  0.58971  1.0000
  H   H4224     1.0  0.63228  0.88810  0.57645  1.0000
  C   C2380     1.0  0.94359  0.81340  0.71397  1.0000
  C   C2381     1.0  0.95423  0.80283  0.70460  1.0000
  C   C2382     1.0  0.94197  0.78853  0.69844  1.0000
  C   C2383     1.0  0.91890  0.78465  0.70160  1.0000
  C   C2384     1.0  0.90821  0.79502  0.71112  1.0000
  C   C2385     1.0  0.92049  0.80933  0.71732  1.0000
  H   H4225     1.0  0.97210  0.80592  0.70195  1.0000
  H   H4226     1.0  0.95047  0.78102  0.69093  1.0000
  H   H4227     1.0  0.99256  0.76986  0.69146  1.0000
  H   H4228     1.0  0.69263  0.97912  0.58478  1.0000
  C   C2386     1.0  0.75552  0.97673  0.68771  1.0000
  C   C2387     1.0  0.76326  0.96186  0.68087  1.0000
  C   C2388     1.0  0.75135  0.95207  0.67222  1.0000
  C   C2389     1.0  0.73145  0.95679  0.67034  1.0000
  C   C2390     1.0  0.72379  0.97177  0.67711  1.0000
  Fe  Fe269     1.0  0.80011  0.98531  0.70701  1.0000
  H   H4229     1.0  0.77844  0.95791  0.68223  1.0000
  H   H4230     1.0  0.75754  0.94059  0.66702  1.0000
  C   C2391     1.0  0.63927  0.85427  0.73698  1.0000
  C   C2392     1.0  0.85687  0.91829  0.71893  1.0000
  N   N135      1.0  0.95690  0.73557  0.73357  1.0000
  H   H4231     1.0  0.71214  0.88245  0.71866  1.0000
  C   C2393     1.0  0.91325  0.69765  0.61758  1.0000
  C   C2394     1.0  0.87724  0.89234  0.72702  1.0000
  C   C2395     1.0  0.86951  0.90377  0.71599  1.0000
  C   C2396     1.0  0.92356  0.68801  0.60526  1.0000
  H   H4232     1.0  0.58341  0.83908  0.66278  1.0000
  H   H4233     1.0  0.88722  0.88135  0.72471  1.0000
  H   H4234     1.0  0.90429  0.94401  0.70527  1.0000
  C   C2397     1.0  0.55333  0.92223  0.69474  1.0000
  S   S539      1.0  0.98309  0.93603  0.70924  1.0000
  H   H4235     1.0  0.94459  0.92543  0.69948  1.0000
  C   C2398     1.0  0.59208  0.91592  0.70750  1.0000
  C   C2399     1.0  0.56586  0.94317  0.68180  1.0000
  H   H4236     1.0  0.67354  0.86426  0.73667  1.0000
  H   H4237     1.0  0.91829  0.69223  0.62771  1.0000
  C   C2400     1.0  0.61531  0.92510  0.70885  1.0000
  C   C2401     1.0  0.56400  0.93925  0.66711  1.0000
  H   H4238     1.0  0.94687  0.96884  0.69866  1.0000
  H   H4239     1.0  0.56074  0.90916  0.69222  1.0000
  C   C2402     1.0  0.95896  0.67425  0.71054  1.0000
  H   H4240     1.0  0.91769  0.69429  0.59555  1.0000
  H   H4241     1.0  0.62292  0.85855  0.65453  1.0000
  H   H4242     1.0  0.59385  0.91470  0.69614  1.0000
  C   C2403     1.0  0.92979  0.92994  0.69697  1.0000
  H   H4243     1.0  0.55894  0.95724  0.68278  1.0000
  H   H4244     1.0  0.58377  0.94796  0.68125  1.0000
  H   H4245     1.0  0.56724  0.86757  0.65258  1.0000
  H   H4246     1.0  0.55675  0.87946  0.71195  1.0000
  H   H4247     1.0  0.90662  0.90796  0.65348  1.0000
  H   H4248     1.0  0.91778  0.91486  0.69697  1.0000
  H   H4249     1.0  0.62287  0.94198  0.70133  1.0000
  H   H4250     1.0  0.61467  0.92553  0.72028  1.0000
  C   C2404     1.0  0.63467  0.96902  0.59318  1.0000
  H   H4251     1.0  0.57139  0.92588  0.66503  1.0000
  H   H4252     1.0  0.54633  0.93489  0.66695  1.0000
  H   H4253     1.0  0.57306  0.95447  0.65810  1.0000
  H   H4254     1.0  0.58757  0.99842  0.65131  1.0000
  H   H4255     1.0  0.52873  0.84514  0.63131  1.0000
  H   H4256     1.0  0.94680  0.80670  0.66661  1.0000
  H   H4257     1.0  0.91306  0.92742  0.71922  1.0000
  C   C2405     1.0  0.93716  0.81456  0.65979  1.0000
  H   H4258     1.0  0.97519  0.86212  0.68118  1.0000
  H   H4259     1.0  0.89483  0.69259  0.62050  1.0000
  H   H4260     1.0  0.60690  0.87819  0.65513  1.0000
  C   C2406     1.0  0.50892  0.96526  0.55620  1.0000
  C   C2407     1.0  0.93952  0.84513  0.67238  1.0000
  C   C2408     1.0  0.56118  0.82820  0.63375  1.0000
  C   C2409     1.0  0.52579  0.97686  0.66133  1.0000
  C   C2410     1.0  0.91901  0.99483  0.69104  1.0000
  C   C2411     1.0  0.53920  0.94460  0.72845  1.0000
  H   H4261     1.0  0.53948  0.00208  0.64059  1.0000
  H   H4262     1.0  0.62681  0.86078  0.73225  1.0000
  H   H4263     1.0  0.94820  0.98883  0.72731  1.0000
  H   H4264     1.0  0.90626  0.83552  0.69685  1.0000
  C   C2412     1.0  0.98815  0.74152  0.70988  1.0000
  H   H4265     1.0  0.95642  0.71913  0.64192  1.0000
  H   H4266     1.0  0.95409  0.85409  0.66275  1.0000
  H   H4267     1.0  0.67242  0.96728  0.60237  1.0000
  H   H4268     1.0  0.66265  0.98404  0.57285  1.0000
  C   C2413     1.0  0.97300  0.70656  0.62534  1.0000
  C   C2414     1.0  0.50370  0.99282  0.64675  1.0000
  H   H4269     1.0  0.50798  0.95357  0.72957  1.0000
  H   H4270     1.0  0.55552  0.95186  0.73002  1.0000
  H   H4271     1.0  0.53256  0.97663  0.72229  1.0000
  H   H4272     1.0  0.87175  0.83654  0.71426  1.0000
  H   H4273     1.0  0.51620  0.00008  0.54644  1.0000
  C   C2415     1.0  0.92073  0.72277  0.61276  1.0000
  H   H4274     1.0  0.75740  0.93281  0.71503  1.0000
  H   H4275     1.0  0.52995  0.89715  0.63004  1.0000
  C   C2416     1.0  0.99581  0.68537  0.69372  1.0000
  H   H4276     1.0  0.54660  0.81797  0.63159  1.0000
  H   H4277     1.0  0.53504  0.83724  0.66567  1.0000
  H   H4278     1.0  0.51063  0.81628  0.65053  1.0000
  H   H4279     1.0  0.96691  0.70662  0.73020  1.0000
  H   H4280     1.0  0.51359  0.76529  0.58162  1.0000
  C   C2417     1.0  0.97228  0.71865  0.63558  1.0000
  H   H4281     1.0  0.94180  0.69573  0.60200  1.0000
  H   H4282     1.0  0.54562  0.97083  0.49408  1.0000
  C   C2418     1.0  0.52448  0.99161  0.64872  1.0000
  C   C2419     1.0  0.91056  0.96308  0.73160  1.0000
  H   H4283     1.0  0.51135  0.85297  0.65391  1.0000
  H   H4284     1.0  0.89907  0.86736  0.66170  1.0000
  H   H4285     1.0  0.97538  0.73084  0.70663  1.0000
  C   C2420     1.0  0.93812  0.73214  0.72644  1.0000
  C   C2421     1.0  0.90954  0.98482  0.70787  1.0000
  C   C2422     1.0  0.89360  0.86403  0.69599  1.0000
  S   S540      1.0  0.50811  0.94381  0.68718  1.0000
  H   H4286     1.0  0.60537  0.99008  0.55881  1.0000
  C   C2423     1.0  0.91406  0.72679  0.73640  1.0000
  S   S541      1.0  0.50413  0.82722  0.55342  1.0000
  Fe  Fe270     1.0  0.94945  0.85609  0.73265  1.0000
  H   H4287     1.0  0.69878  0.89960  0.72685  1.0000
  N   N136      1.0  0.61676  0.96935  0.58524  1.0000
  C   C2424     1.0  0.59457  0.96018  0.59666  1.0000
  C   C2425     1.0  0.61906  0.95501  0.57498  1.0000
  H   H4288     1.0  0.93899  0.71892  0.72096  1.0000
  H   H4289     1.0  0.91547  0.72938  0.60289  1.0000
  H   H4290     1.0  0.53105  0.92891  0.73719  1.0000
  C   C2426     1.0  0.59058  0.97192  0.60884  1.0000
  H   H4291     1.0  0.88822  0.00245  0.68847  1.0000
  C   C2427     1.0  0.59774  0.94445  0.57106  1.0000
  C   C2428     1.0  0.60351  0.93602  0.55764  1.0000
  H   H4292     1.0  0.89145  0.97716  0.68463  1.0000
  C   C2429     1.0  0.56786  0.96083  0.61985  1.0000
  H   H4293     1.0  0.58551  0.89927  0.71533  1.0000
  H   H4294     1.0  0.59246  0.94257  0.60217  1.0000
  H   H4295     1.0  0.58060  0.96028  0.59162  1.0000
  H   H4296     1.0  0.63222  0.96430  0.56461  1.0000
  H   H4297     1.0  0.62484  0.94072  0.57987  1.0000
  Fe  Fe271     1.0  0.51138  0.89259  0.57601  1.0000
  H   H4298     1.0  0.89914  0.73116  0.71818  1.0000
  C   C2430     1.0  0.58351  0.82542  0.60958  1.0000
  H   H4299     1.0  0.55045  0.81811  0.66357  1.0000
  H   H4300     1.0  0.60309  0.97147  0.61514  1.0000
  H   H4301     1.0  0.89528  0.84287  0.68195  1.0000
  H   H4302     1.0  0.89863  0.70300  0.72635  1.0000
  S   S542      1.0  0.76997  0.99004  0.69854  1.0000
  H   H4303     1.0  0.52396  0.98300  0.50094  1.0000
  H   H4304     1.0  0.67655  0.99564  0.59251  1.0000
  H   H4305     1.0  0.58711  0.93026  0.58040  1.0000
  H   H4306     1.0  0.58739  0.95578  0.56880  1.0000
  H   H4307     1.0  0.61231  0.94997  0.54769  1.0000
  H   H4308     1.0  0.61418  0.92468  0.55926  1.0000
  H   H4309     1.0  0.58802  0.92685  0.55590  1.0000
  C   C2431     1.0  0.52680  0.95396  0.57507  1.0000
  C   C2432     1.0  0.91637  0.87728  0.65601  1.0000
  H   H4310     1.0  0.67458  0.86092  0.71262  1.0000
  H   H4311     1.0  0.55447  0.96101  0.61424  1.0000
  H   H4312     1.0  0.52773  0.84535  0.72616  1.0000
  H   H4313     1.0  0.56531  0.96987  0.62826  1.0000
  N   N137      1.0  0.55364  0.84218  0.64326  1.0000
  H   H4314     1.0  0.56866  0.81608  0.63955  1.0000
  H   H4315     1.0  0.59332  0.85074  0.61961  1.0000
  C   C2433     1.0  0.91521  0.89907  0.64654  1.0000
  C   C2434     1.0  0.67086  0.87638  0.71436  1.0000
  H   H4316     1.0  0.52964  0.94105  0.58306  1.0000
  H   H4317     1.0  0.91308  0.72910  0.62177  1.0000
  C   C2435     1.0  0.99230  0.96435  0.72610  1.0000
  C   C2436     1.0  0.73578  0.98167  0.68567  1.0000
  H   H4318     1.0  0.58195  0.87089  0.63441  1.0000
  C   C2437     1.0  0.98035  0.88833  0.69118  1.0000
  C   C2438     1.0  0.57758  0.84101  0.61853  1.0000
  H   H4319     1.0  0.59524  0.83518  0.59876  1.0000
  C   C2439     1.0  0.66193  0.87124  0.73125  1.0000
  H   H4320     1.0  0.86150  0.86048  0.71081  1.0000
  S   S543      1.0  0.88736  0.68668  0.65806  1.0000
  H   H4321     1.0  0.53045  0.87997  0.70860  1.0000
  H   H4322     1.0  0.92524  0.89397  0.67179  1.0000
  S   S544      1.0  0.85078  0.98111  0.72316  1.0000
  C   C2440     1.0  0.97749  0.75094  0.72216  1.0000
  H   H4323     1.0  0.86053  0.84317  0.69873  1.0000
  H   H4324     1.0  0.59107  0.98925  0.60401  1.0000
  N   N138      1.0  0.69096  0.89584  0.70665  1.0000
  C   C2441     1.0  0.70686  0.89789  0.71605  1.0000
  C   C2442     1.0  0.70310  0.89162  0.69283  1.0000
  C   C2443     1.0  0.68400  0.91665  0.70220  1.0000
  C   C2444     1.0  0.67321  0.92539  0.71474  1.0000
  C   C2445     1.0  0.72818  0.91738  0.70941  1.0000
  C   C2446     1.0  0.68893  0.88572  0.68242  1.0000
  C   C2447     1.0  0.67232  0.94905  0.70890  1.0000
  H   H4325     1.0  0.97958  0.95244  0.73523  1.0000
  C   C2448     1.0  0.70290  0.88082  0.66931  1.0000
  C   C2449     1.0  0.99685  0.96033  0.71234  1.0000
  H   H4326     1.0  0.65688  0.87820  0.70944  1.0000
  H   H4327     1.0  0.71688  0.90632  0.68604  1.0000
  H   H4328     1.0  0.69831  0.92999  0.69454  1.0000
  H   H4329     1.0  0.67176  0.91437  0.69574  1.0000
  H   H4330     1.0  0.68244  0.92542  0.72314  1.0000
  H   H4331     1.0  0.65587  0.91515  0.72001  1.0000
  H   H4332     1.0  0.73875  0.91547  0.69940  1.0000
  H   H4333     1.0  0.72399  0.93329  0.70665  1.0000
  H   H4334     1.0  0.68236  0.89960  0.67811  1.0000
  H   H4335     1.0  0.94754  0.88922  0.65995  1.0000
  H   H4336     1.0  0.68936  0.96034  0.70487  1.0000
  H   H4337     1.0  0.66431  0.95061  0.69981  1.0000
  C   C2450     1.0  0.54216  0.94125  0.71289  1.0000
  H   H4338     1.0  0.58620  0.99152  0.57507  1.0000
  S   S545      1.0  0.62354  0.98246  0.65885  1.0000
  H   H4339     1.0  0.70961  0.86671  0.67302  1.0000
  H   H4340     1.0  0.69245  0.87657  0.66205  1.0000
  N   N139      1.0  0.92942  0.86129  0.67872  1.0000
  H   H4341     1.0  0.00170  0.67031  0.63861  1.0000
  H   H4342     1.0  0.90406  0.99802  0.71199  1.0000
  C   C2451     1.0  0.94303  0.86925  0.68841  1.0000
  H   H4343     1.0  0.53587  0.91709  0.69421  1.0000
  H   H4344     1.0  0.89374  0.97192  0.71009  1.0000
  S   S546      1.0  0.51242  0.83959  0.69545  1.0000
  H   H4345     1.0  0.70862  0.97572  0.67574  1.0000
  H   H4346     1.0  0.57001  0.85226  0.61213  1.0000
  C   C2452     1.0  0.54004  0.85530  0.63600  1.0000
  H   H4347     1.0  0.92443  0.86894  0.64843  1.0000
  C   C2453     1.0  0.54018  0.82736  0.65821  1.0000
  H   H4348     1.0  0.94007  0.77159  0.73329  1.0000
  H   H4349     1.0  0.63686  0.99949  0.56886  1.0000
  H   H4350     1.0  0.63029  0.95334  0.60206  1.0000
  H   H4351     1.0  0.53528  0.87477  0.65193  1.0000
  H   H4352     1.0  0.94605  0.83532  0.68060  1.0000
  H   H4353     1.0  0.93955  0.85616  0.69888  1.0000
  H   H4354     1.0  0.93823  0.88341  0.69162  1.0000
  H   H4355     1.0  0.54185  0.97611  0.66292  1.0000
  H   H4356     1.0  0.89036  0.79212  0.71361  1.0000
  C   C2454     1.0  0.93024  0.88120  0.66685  1.0000
  H   H4357     1.0  0.93908  0.72873  0.61035  1.0000
  H   H4358     1.0  0.95866  0.68313  0.58493  1.0000
  H   H4359     1.0  0.66267  0.95419  0.71783  1.0000
  H   H4360     1.0  0.59592  0.83662  0.64498  1.0000
  H   H4361     1.0  0.55104  0.86880  0.62633  1.0000
  H   H4362     1.0  0.91193  0.81543  0.67790  1.0000
  C   C2455     1.0  0.99334  0.70573  0.61700  1.0000
  C   C2456     1.0  0.91889  0.94002  0.70842  1.0000
  C   C2457     1.0  0.60350  0.99764  0.56800  1.0000
  H   H4363     1.0  0.58538  0.94789  0.70427  1.0000
  H   H4364     1.0  0.89150  0.87794  0.68787  1.0000
  H   H4365     1.0  0.61986  0.87459  0.63773  1.0000
  H   H4366     1.0  0.67469  0.87098  0.68802  1.0000
  C   C2458     1.0  0.87046  0.85016  0.70550  1.0000
  H   H4367     1.0  0.92995  0.98603  0.68581  1.0000
  H   H4368     1.0  0.51974  0.92365  0.64496  1.0000
  H   H4369     1.0  0.51126  0.86059  0.73491  1.0000
  H   H4370     1.0  0.51132  0.79455  0.68194  1.0000
  H   H4371     1.0  0.74760  0.90345  0.72309  1.0000
  H   H4372     1.0  0.97656  0.87733  0.70244  1.0000
  H   H4373     1.0  0.50646  0.96008  0.61439  1.0000
  H   H4374     1.0  0.89630  0.95018  0.73122  1.0000
  H   H4375     1.0  0.50351  0.88678  0.64393  1.0000
  C   C2459     1.0  0.85136  0.92084  0.73305  1.0000
  S   S547      1.0  0.83408  0.98824  0.69300  1.0000
  Fe  Fe272     1.0  0.81611  0.97947  0.73498  1.0000
  C   C2460     1.0  0.51277  0.94853  0.56639  1.0000
  C   C2461     1.0  0.90034  0.99441  0.68351  1.0000
  C   C2462     1.0  0.51118  0.93654  0.64205  1.0000
  H   H4376     1.0  0.94869  0.82555  0.64925  1.0000
  C   C2463     1.0  0.50637  0.96273  0.67169  1.0000
  C   C2464     1.0  0.62069  0.99662  0.64210  1.0000
  C   C2465     1.0  0.89694  0.71871  0.72865  1.0000
  C   C2466     1.0  0.52485  0.96038  0.73059  1.0000
  H   H4377     1.0  0.51597  0.79391  0.58032  1.0000
  H   H4378     1.0  0.87992  0.71589  0.73571  1.0000
  H   H4379     1.0  0.50590  0.92378  0.62402  1.0000
  H   H4380     1.0  0.52481  0.79579  0.65512  1.0000
  C   C2467     1.0  0.63813  0.00212  0.62936  1.0000
  H   H4381     1.0  0.89121  0.98675  0.73585  1.0000
  H   H4382     1.0  0.52260  0.90192  0.72496  1.0000
  H   H4383     1.0  0.84130  0.93175  0.73546  1.0000
  C   C2468     1.0  0.50502  0.77849  0.57983  1.0000
  C   C2469     1.0  0.52852  0.86042  0.72991  1.0000
  H   H4384     1.0  0.90733  0.00327  0.67168  1.0000
  H   H4385     1.0  0.50871  0.87475  0.62907  1.0000
  H   H4386     1.0  0.99861  0.89313  0.68631  1.0000
  H   H4387     1.0  0.96673  0.78149  0.73605  1.0000
  H   H4388     1.0  0.50316  0.98753  0.59828  1.0000
  C   C2470     1.0  0.50302  0.80065  0.67354  1.0000
  C   C2471     1.0  0.60114  0.00280  0.64146  1.0000
  H   H4389     1.0  0.92034  0.95396  0.73765  1.0000
  Fe  Fe273     1.0  0.88920  0.72671  0.94938  1.0000
  S   S548      1.0  0.92086  0.72594  0.95550  1.0000
  H   H4390     1.0  0.86834  0.95619  0.87901  1.0000
  Fe  Fe274     1.0  0.91264  0.76245  0.92089  1.0000
  S   S549      1.0  0.94626  0.76472  0.92453  1.0000
  S   S550      1.0  0.90840  0.78568  0.90130  1.0000
  Fe  Fe275     1.0  0.93498  0.72794  0.93196  1.0000
  Fe  Fe276     1.0  0.92964  0.76263  0.94769  1.0000
  H   H4391     1.0  0.93923  0.84158  0.81010  1.0000
  S   S551      1.0  0.90244  0.72546  0.92632  1.0000
  S   S552      1.0  0.89674  0.76363  0.94356  1.0000
  H   H4392     1.0  0.60172  0.96228  0.98173  1.0000
  Fe  Fe277     1.0  0.94381  0.91482  0.85798  1.0000
  S   S553      1.0  0.90683  0.90196  0.86431  1.0000
  S   S554      1.0  0.96275  0.89756  0.84445  1.0000
  S   S555      1.0  0.96257  0.91169  0.87490  1.0000
  C   C2472     1.0  0.94517  0.83329  0.92557  1.0000
  S   S556      1.0  0.84992  0.96330  0.84117  1.0000
  S   S557      1.0  0.96468  0.94857  0.84493  1.0000
  H   H4393     1.0  0.53658  0.95499  0.96732  1.0000
  S   S558      1.0  0.73347  0.97985  0.91819  1.0000
  H   H4394     1.0  0.90259  0.77000  0.97503  1.0000
  H   H4395     1.0  0.66594  0.85640  0.97906  1.0000
  H   H4396     1.0  0.94595  0.86376  0.87861  1.0000
  H   H4397     1.0  0.75101  0.94373  0.89532  1.0000
  H   H4398     1.0  0.70662  0.90359  0.96894  1.0000
  H   H4399     1.0  0.76078  0.99886  0.83779  1.0000
  Fe  Fe278     1.0  0.69815  0.97841  0.92795  1.0000
  S   S559      1.0  0.67590  0.94508  0.94098  1.0000
  H   H4400     1.0  0.97630  0.81454  0.91272  1.0000
  Fe  Fe279     1.0  0.91711  0.87927  0.74643  1.0000
  S   S560      1.0  0.96778  0.86815  0.77839  1.0000
  Fe  Fe280     1.0  0.55666  0.90816  0.95434  1.0000
  S   S561      1.0  0.57946  0.92976  0.93276  1.0000
  H   H4401     1.0  0.81262  0.00244  0.80887  1.0000
  H   H4402     1.0  0.95535  0.78856  0.89324  1.0000
  C   C2473     1.0  0.92620  0.82577  0.81555  1.0000
  C   C2474     1.0  0.91052  0.82364  0.80579  1.0000
  H   H4403     1.0  0.99803  0.99352  0.80774  1.0000
  C   C2475     1.0  0.64958  0.93978  0.93793  1.0000
  C   C2476     1.0  0.63177  0.92452  0.94889  1.0000
  C   C2477     1.0  0.61037  0.92087  0.94702  1.0000
  C   C2478     1.0  0.60663  0.93265  0.93428  1.0000
  C   C2479     1.0  0.62457  0.94731  0.92306  1.0000
  C   C2480     1.0  0.64607  0.95087  0.92489  1.0000
  H   H4404     1.0  0.63435  0.91578  0.95896  1.0000
  H   H4405     1.0  0.59681  0.90892  0.95551  1.0000
  H   H4406     1.0  0.62182  0.95604  0.91304  1.0000
  H   H4407     1.0  0.65988  0.96206  0.91618  1.0000
  S   S562      1.0  0.74393  0.99954  0.87669  1.0000
  H   H4408     1.0  0.00142  0.84709  0.84449  1.0000
  H   H4409     1.0  0.64406  0.86953  0.98007  1.0000
  H   H4410     1.0  0.89722  0.67922  0.97427  1.0000
  C   C2481     1.0  0.94637  0.98823  0.81616  1.0000
  H   H4411     1.0  0.65034  0.99556  0.96048  1.0000
  H   H4412     1.0  0.92260  0.67574  0.94832  1.0000
  C   C2482     1.0  0.98038  0.88449  0.79970  1.0000
  H   H4413     1.0  0.84599  0.92704  0.80028  1.0000
  N   N140      1.0  0.96629  0.84857  0.92588  1.0000
  C   C2483     1.0  0.66908  0.88090  0.95916  1.0000
  Fe  Fe281     1.0  0.98551  0.94420  0.86069  1.0000
  H   H4414     1.0  0.96538  0.74634  0.75168  1.0000
  C   C2484     1.0  0.54351  0.76957  0.93429  1.0000
  H   H4415     1.0  0.66431  0.86931  0.94051  1.0000
  H   H4416     1.0  0.84689  0.99727  0.79441  1.0000
  C   C2485     1.0  0.89189  0.91964  0.85741  1.0000
  C   C2486     1.0  0.86972  0.91062  0.85811  1.0000
  C   C2487     1.0  0.85705  0.92417  0.85296  1.0000
  C   C2488     1.0  0.86642  0.94684  0.84722  1.0000
  C   C2489     1.0  0.88860  0.95601  0.84650  1.0000
  C   C2490     1.0  0.90143  0.94235  0.85151  1.0000
  H   H4417     1.0  0.86229  0.89309  0.86271  1.0000
  H   H4418     1.0  0.83988  0.91709  0.85356  1.0000
  H   H4419     1.0  0.89572  0.97360  0.84230  1.0000
  H   H4420     1.0  0.91842  0.94945  0.85119  1.0000
  C   C2491     1.0  0.93199  0.80812  0.89299  1.0000
  C   C2492     1.0  0.95329  0.80498  0.89026  1.0000
  H   H4421     1.0  0.93421  0.81215  0.81593  1.0000
  C   C2493     1.0  0.92945  0.82937  0.88879  1.0000
  H   H4422     1.0  0.51059  0.76595  0.94710  1.0000
  H   H4423     1.0  0.91300  0.83187  0.89093  1.0000
  C   C2494     1.0  0.76549  0.94581  0.88597  1.0000
  C   C2495     1.0  0.99507  0.70174  0.93646  1.0000
  H   H4424     1.0  0.00117  0.78291  0.97199  1.0000
  C   C2496     1.0  0.88500  0.96185  0.75590  1.0000
  H   H4425     1.0  0.58696  0.98332  0.94184  1.0000
  C   C2497     1.0  0.74271  0.98533  0.96383  1.0000
  H   H4426     1.0  0.85109  0.95650  0.79332  1.0000
  H   H4427     1.0  0.96249  0.82953  0.95679  1.0000
  H   H4428     1.0  0.79142  0.96750  0.97631  1.0000
  H   H4429     1.0  0.65068  0.90743  0.98127  1.0000
  H   H4430     1.0  0.60035  0.97951  0.92515  1.0000
  C   C2498     1.0  0.94812  0.84744  0.88190  1.0000
  H   H4431     1.0  0.66707  0.84866  0.95536  1.0000
  C   C2499     1.0  0.85875  0.90908  0.74415  1.0000
  H   H4432     1.0  0.94772  0.82828  0.91525  1.0000
  H   H4433     1.0  0.83526  0.94250  0.81205  1.0000
  H   H4434     1.0  0.92183  0.76629  0.75965  1.0000
  H   H4435     1.0  0.51441  0.80843  0.90027  1.0000
  C   C2500     1.0  0.99723  0.88344  0.90943  1.0000
  C   C2501     1.0  0.90510  0.67159  0.98242  1.0000
  H   H4436     1.0  0.92732  0.85558  0.91587  1.0000
  C   C2502     1.0  0.93912  0.77677  0.75445  1.0000
  C   C2503     1.0  0.99059  0.82673  0.91358  1.0000
  C   C2504     1.0  0.76436  0.99379  0.95454  1.0000
  C   C2505     1.0  0.97389  0.86770  0.91218  1.0000
  N   N141      1.0  0.80783  0.98130  0.90088  1.0000
  C   C2506     1.0  0.73660  0.90215  0.98362  1.0000
  Fe  Fe282     1.0  0.52450  0.90740  0.98202  1.0000
  Fe  Fe283     1.0  0.51756  0.86773  0.96923  1.0000
  H   H4437     1.0  0.67599  0.91694  0.96702  1.0000
  C   C2507     1.0  0.84527  0.00158  0.78336  1.0000
  C   C2508     1.0  0.94695  0.85091  0.96648  1.0000
  H   H4438     1.0  0.55218  0.76630  0.92414  1.0000
  H   H4439     1.0  0.99493  0.86264  0.82895  1.0000
  Fe  Fe284     1.0  0.55695  0.87953  0.98326  1.0000
  C   C2509     1.0  0.79485  0.96197  0.82855  1.0000
  H   H4440     1.0  0.75097  0.99698  0.81403  1.0000
  H   H4441     1.0  0.54957  0.78729  0.93350  1.0000
  H   H4442     1.0  0.93927  0.83798  0.97711  1.0000
  C   C2510     1.0  0.98349  0.83594  0.92673  1.0000
  H   H4443     1.0  0.78899  0.00136  0.91043  1.0000
  H   H4444     1.0  0.98839  0.82048  0.88098  1.0000
  H   H4445     1.0  0.94883  0.77563  0.76265  1.0000
  C   C2511     1.0  0.87207  0.89517  0.74105  1.0000
  H   H4446     1.0  0.99499  0.83418  0.83077  1.0000
  H   H4447     1.0  0.65602  0.97937  0.94793  1.0000
  Fe  Fe285     1.0  0.95661  0.87563  0.75782  1.0000
  H   H4448     1.0  0.81961  0.97183  0.78679  1.0000
  C   C2512     1.0  0.98715  0.92275  0.79965  1.0000
  H   H4449     1.0  0.55093  0.96916  0.93683  1.0000
  C   C2513     1.0  0.94342  0.69563  0.75101  1.0000
  H   H4450     1.0  0.92011  0.82429  0.79465  1.0000
  C   C2514     1.0  0.79550  0.00059  0.81535  1.0000
  H   H4451     1.0  0.93530  0.82933  0.95440  1.0000
  C   C2515     1.0  0.98183  0.92780  0.78628  1.0000
  H   H4452     1.0  0.90556  0.81631  0.91998  1.0000
  H   H4453     1.0  0.95032  0.00317  0.80680  1.0000
  C   C2516     1.0  0.69857  0.89025  0.97940  1.0000
  C   C2517     1.0  0.55018  0.99952  0.98017  1.0000
  H   H4454     1.0  0.97099  0.99528  0.84466  1.0000
  C   C2518     1.0  0.82794  0.99254  0.76465  1.0000
  H   H4455     1.0  0.78658  0.94421  0.83088  1.0000
  H   H4456     1.0  0.81263  0.96507  0.82269  1.0000
  H   H4457     1.0  0.79383  0.96600  0.83916  1.0000
  C   C2519     1.0  0.63191  0.00101  0.93444  1.0000
  H   H4458     1.0  0.87904  0.97209  0.76283  1.0000
  C   C2520     1.0  0.97514  0.91111  0.77982  1.0000
  H   H4459     1.0  0.77370  0.97554  0.89993  1.0000
  C   C2521     1.0  0.97455  0.88940  0.78651  1.0000
  H   H4460     1.0  0.91419  0.98805  0.74377  1.0000
  S   S563      1.0  0.55460  0.87221  0.96188  1.0000
  H   H4461     1.0  0.97664  0.74861  0.98255  1.0000
  H   H4462     1.0  0.99050  0.99353  0.78406  1.0000
  C   C2522     1.0  0.97950  0.71401  0.93578  1.0000
  C   C2523     1.0  0.66249  0.87273  0.97618  1.0000
  C   C2524     1.0  0.80457  0.96446  0.91524  1.0000
  C   C2525     1.0  0.78351  0.97576  0.81922  1.0000
  H   H4463     1.0  0.89948  0.81279  0.93951  1.0000
  C   C2526     1.0  0.59514  0.99220  0.93006  1.0000
  C   C2527     1.0  0.78722  0.95251  0.89003  1.0000
  C   C2528     1.0  0.78152  0.95860  0.92653  1.0000
  H   H4464     1.0  0.91246  0.75721  0.86061  1.0000
  C   C2529     1.0  0.84050  0.96512  0.89107  1.0000
  H   H4465     1.0  0.74128  0.91851  0.97543  1.0000
  H   H4466     1.0  0.89354  0.95107  0.76181  1.0000
  C   C2530     1.0  0.78038  0.94199  0.94076  1.0000
  C   C2531     1.0  0.90360  0.82496  0.92862  1.0000
  H   H4467     1.0  0.93530  0.86112  0.96471  1.0000
  H   H4468     1.0  0.80700  0.94868  0.91355  1.0000
  C   C2532     1.0  0.62363  0.98644  0.95052  1.0000
  C   C2533     1.0  0.99091  0.84612  0.83681  1.0000
  H   H4469     1.0  0.96107  0.98841  0.82046  1.0000
  H   H4470     1.0  0.67876  0.95592  0.96827  1.0000
  S   S564      1.0  0.99475  0.94365  0.80785  1.0000
  H   H4471     1.0  0.93256  0.98879  0.82506  1.0000
  H   H4472     1.0  0.78690  0.93911  0.89947  1.0000
  H   H4473     1.0  0.80098  0.95376  0.88046  1.0000
  C   C2534     1.0  0.83073  0.98519  0.89077  1.0000
  S   S565      1.0  0.51980  0.90369  0.96034  1.0000
  C   C2535     1.0  0.96941  0.84427  0.87905  1.0000
  Fe  Fe286     1.0  0.98349  0.89723  0.86030  1.0000
  H   H4474     1.0  0.84494  0.96013  0.90154  1.0000
  H   H4475     1.0  0.82872  0.95073  0.89012  1.0000
  H   H4476     1.0  0.85445  0.91104  0.75507  1.0000
  C   C2536     1.0  0.93578  0.78080  0.97690  1.0000
  H   H4477     1.0  0.87029  0.95149  0.75401  1.0000
  H   H4478     1.0  0.76492  0.95843  0.87635  1.0000
  H   H4479     1.0  0.68739  0.88652  0.95452  1.0000
  C   C2537     1.0  0.95144  0.84001  0.95415  1.0000
  H   H4480     1.0  0.79315  0.94885  0.94588  1.0000
  H   H4481     1.0  0.76379  0.93837  0.94861  1.0000
  H   H4482     1.0  0.78289  0.92640  0.93866  1.0000
  H   H4483     1.0  0.76413  0.92997  0.88317  1.0000
  H   H4484     1.0  0.95292  0.86975  0.93773  1.0000
  H   H4485     1.0  0.88956  0.83241  0.92815  1.0000
  H   H4486     1.0  0.79328  0.98728  0.88279  1.0000
  C   C2538     1.0  0.64297  0.98180  0.95647  1.0000
  H   H4487     1.0  0.61414  0.99426  0.95773  1.0000
  H   H4488     1.0  0.97723  0.82148  0.93658  1.0000
  H   H4489     1.0  0.98985  0.91314  0.89821  1.0000
  H   H4490     1.0  0.76590  0.97194  0.82553  1.0000
  C   C2539     1.0  0.90077  0.97676  0.74130  1.0000
  H   H4491     1.0  0.63783  0.99028  0.92798  1.0000
  H   H4492     1.0  0.00142  0.98680  0.73865  1.0000
  H   H4493     1.0  0.61568  0.98814  0.98406  1.0000
  H   H4494     1.0  0.85972  0.67574  0.94752  1.0000
  H   H4495     1.0  0.64150  0.85698  0.95684  1.0000
  H   H4496     1.0  0.93665  0.73581  0.75452  1.0000
  C   C2540     1.0  0.86168  0.97079  0.87858  1.0000
  C   C2541     1.0  0.53724  0.96458  0.97509  1.0000
  H   H4497     1.0  0.98259  0.94459  0.78106  1.0000
  H   H4498     1.0  0.96639  0.79255  0.98176  1.0000
  C   C2542     1.0  0.94999  0.76979  0.74130  1.0000
  C   C2543     1.0  0.98641  0.90107  0.80635  1.0000
  H   H4499     1.0  0.89744  0.80775  0.81036  1.0000
  H   H4500     1.0  0.69172  0.99653  0.98607  1.0000
  H   H4501     1.0  0.54770  0.75979  0.94374  1.0000
  C   C2544     1.0  0.97197  0.82303  0.88326  1.0000
  H   H4502     1.0  0.96808  0.74025  0.94232  1.0000
  C   C2545     1.0  0.65990  0.86276  0.95263  1.0000
  H   H4503     1.0  0.99498  0.74729  0.95634  1.0000
  H   H4504     1.0  0.69696  0.93258  0.98195  1.0000
  H   H4505     1.0  0.93831  0.75460  0.85031  1.0000
  H   H4506     1.0  0.78413  0.97032  0.80914  1.0000
  C   C2546     1.0  0.57665  0.99915  0.92367  1.0000
  Fe  Fe287     1.0  0.98539  0.93115  0.83257  1.0000
  H   H4507     1.0  0.96188  0.87790  0.91239  1.0000
  C   C2547     1.0  0.95190  0.67591  0.75673  1.0000
  S   S566      1.0  0.94919  0.78356  0.95863  1.0000
  C   C2548     1.0  0.79003  0.97496  0.89347  1.0000
  C   C2549     1.0  0.97969  0.73044  0.94294  1.0000
  H   H4508     1.0  0.77798  0.97325  0.92953  1.0000
  C   C2550     1.0  0.92480  0.84287  0.92631  1.0000
  H   H4509     1.0  0.66202  0.89472  0.95545  1.0000
  H   H4510     1.0  0.93803  0.68561  0.96719  1.0000
  C   C2551     1.0  0.77783  0.97254  0.97289  1.0000
  H   H4511     1.0  0.94061  0.81756  0.93442  1.0000
  H   H4512     1.0  0.65315  0.94509  0.98289  1.0000
  S   S567      1.0  0.99286  0.86661  0.86981  1.0000
  H   H4513     1.0  0.00205  0.80073  0.92567  1.0000
  H   H4514     1.0  0.92183  0.85040  0.93545  1.0000
  S   S568      1.0  0.92873  0.85008  0.75572  1.0000
  H   H4515     1.0  0.96268  0.86134  0.96710  1.0000
  S   S569      1.0  0.80811  0.97483  0.75946  1.0000
  H   H4516     1.0  0.56433  0.96851  0.91861  1.0000
  S   S570      1.0  0.94362  0.90445  0.75013  1.0000
  H   H4517     1.0  0.99861  0.88965  0.91901  1.0000
  C   C2552     1.0  0.99505  0.73446  0.95093  1.0000
  C   C2553     1.0  0.82994  0.98716  0.77902  1.0000
  C   C2554     1.0  0.54902  0.98692  0.97022  1.0000
  H   H4518     1.0  0.91688  0.89736  0.83411  1.0000
  H   H4519     1.0  0.74200  0.89003  0.97821  1.0000
  S   S571      1.0  0.85685  0.70561  0.96558  1.0000
  S   S572      1.0  0.95894  0.70806  0.92677  1.0000
  H   H4520     1.0  0.96367  0.82276  0.85358  1.0000
  C   C2555     1.0  0.55799  0.97904  0.92516  1.0000
  H   H4521     1.0  0.91089  0.71410  0.74685  1.0000
  H   H4522     1.0  0.99522  0.68927  0.93071  1.0000
  H   H4523     1.0  0.72146  0.99367  0.83722  1.0000
  H   H4524     1.0  0.76812  0.95123  0.92208  1.0000
  C   C2556     1.0  0.91265  0.77372  0.98226  1.0000
  H   H4525     1.0  0.61567  0.99898  0.90119  1.0000
  C   C2557     1.0  0.96264  0.85742  0.93906  1.0000
  N   N142      1.0  0.67383  0.88780  0.98381  1.0000
  H   H4526     1.0  0.61261  0.97033  0.95112  1.0000
  C   C2558     1.0  0.78189  0.98743  0.95912  1.0000
  S   S573      1.0  0.88245  0.88175  0.75475  1.0000
  H   H4527     1.0  0.98050  0.86785  0.80468  1.0000
  H   H4528     1.0  0.97095  0.91511  0.76955  1.0000
  N   N143      1.0  0.92673  0.82594  0.84250  1.0000
  C   C2559     1.0  0.95104  0.83729  0.83519  1.0000
  C   C2560     1.0  0.91371  0.82574  0.83114  1.0000
  C   C2561     1.0  0.91795  0.83911  0.85226  1.0000
  C   C2562     1.0  0.92314  0.80294  0.85202  1.0000
  C   C2563     1.0  0.93410  0.78760  0.84466  1.0000
  C   C2564     1.0  0.96642  0.83875  0.84546  1.0000
  C   C2565     1.0  0.89306  0.82977  0.86102  1.0000
  C   C2566     1.0  0.93048  0.76548  0.85579  1.0000
  H   H4529     1.0  0.93646  0.70119  0.76054  1.0000
  C   C2567     1.0  0.88437  0.84665  0.86758  1.0000
  H   H4530     1.0  0.95295  0.85444  0.82873  1.0000
  H   H4531     1.0  0.95816  0.82914  0.82715  1.0000
  H   H4532     1.0  0.89867  0.81145  0.83521  1.0000
  H   H4533     1.0  0.90718  0.84051  0.82925  1.0000
  H   H4534     1.0  0.92074  0.85641  0.84576  1.0000
  H   H4535     1.0  0.92719  0.84031  0.86058  1.0000
  H   H4536     1.0  0.92867  0.80342  0.86210  1.0000
  H   H4537     1.0  0.90508  0.79437  0.85629  1.0000
  H   H4538     1.0  0.95228  0.79473  0.84004  1.0000
  H   H4539     1.0  0.92658  0.78431  0.83584  1.0000
  H   H4540     1.0  0.96350  0.85106  0.85136  1.0000
  H   H4541     1.0  0.95931  0.98740  0.75192  1.0000
  H   H4542     1.0  0.89097  0.81513  0.87025  1.0000
  H   H4543     1.0  0.88241  0.82479  0.85407  1.0000
  C   C2568     1.0  0.85405  0.67716  0.96987  1.0000
  H   H4544     1.0  0.50306  0.73153  0.92107  1.0000
  H   H4545     1.0  0.93812  0.76783  0.86478  1.0000
  H   H4546     1.0  0.85812  0.97564  0.86781  1.0000
  H   H4547     1.0  0.72910  0.99021  0.96038  1.0000
  H   H4548     1.0  0.99106  0.89724  0.81647  1.0000
  H   H4549     1.0  0.88461  0.86098  0.85873  1.0000
  H   H4550     1.0  0.86699  0.83915  0.87448  1.0000
  H   H4551     1.0  0.89463  0.85242  0.87456  1.0000
  N   N144      1.0  0.91236  0.94742  0.79967  1.0000
  C   C2569     1.0  0.92987  0.94939  0.78589  1.0000
  C   C2570     1.0  0.90751  0.92521  0.81076  1.0000
  C   C2571     1.0  0.89128  0.94890  0.79535  1.0000
  C   C2572     1.0  0.91879  0.96580  0.80636  1.0000
  C   C2573     1.0  0.94029  0.96737  0.81133  1.0000
  C   C2574     1.0  0.93793  0.97200  0.77405  1.0000
  C   C2575     1.0  0.87069  0.94645  0.80805  1.0000
  C   C2576     1.0  0.92682  0.91416  0.81077  1.0000
  C   C2577     1.0  0.92030  0.89332  0.82348  1.0000
  S   S574      1.0  0.56150  0.91564  0.97506  1.0000
  C   C2578     1.0  0.95336  0.97089  0.76004  1.0000
  C   C2579     1.0  0.84949  0.94291  0.80306  1.0000
  H   H4552     1.0  0.92389  0.93637  0.78074  1.0000
  H   H4553     1.0  0.94518  0.94641  0.78846  1.0000
  H   H4554     1.0  0.90105  0.92628  0.82212  1.0000
  H   H4555     1.0  0.89399  0.91286  0.80908  1.0000
  H   H4556     1.0  0.88677  0.93622  0.78960  1.0000
  H   H4557     1.0  0.89355  0.96503  0.78746  1.0000
  H   H4558     1.0  0.92006  0.98187  0.79874  1.0000
  H   H4559     1.0  0.90550  0.96413  0.81630  1.0000
  H   H4560     1.0  0.95458  0.96768  0.80247  1.0000
  H   H4561     1.0  0.93772  0.95316  0.82092  1.0000
  H   H4562     1.0  0.92412  0.97788  0.77092  1.0000
  H   H4563     1.0  0.94752  0.98447  0.77817  1.0000
  H   H4564     1.0  0.87255  0.96173  0.81158  1.0000
  H   H4565     1.0  0.86831  0.93247  0.81773  1.0000
  H   H4566     1.0  0.93117  0.90925  0.80050  1.0000
  H   H4567     1.0  0.94185  0.92528  0.81164  1.0000
  H   H4568     1.0  0.93425  0.88555  0.82273  1.0000
  H   H4569     1.0  0.81753  0.97027  0.92060  1.0000
  H   H4570     1.0  0.90536  0.88143  0.82305  1.0000
  H   H4571     1.0  0.52314  0.77732  0.91331  1.0000
  H   H4572     1.0  0.97379  0.86183  0.90229  1.0000
  H   H4573     1.0  0.90263  0.83743  0.80470  1.0000
  H   H4574     1.0  0.97698  0.71725  0.74362  1.0000
  H   H4575     1.0  0.54452  0.98439  0.92107  1.0000
  C   C2580     1.0  0.96224  0.71413  0.73924  1.0000
  H   H4576     1.0  0.70200  0.87515  0.97686  1.0000
  H   H4577     1.0  0.96803  0.96574  0.76236  1.0000
  H   H4578     1.0  0.84322  0.99736  0.89344  1.0000
  C   C2581     1.0  0.73876  0.97099  0.97787  1.0000
  H   H4579     1.0  0.63699  0.96657  0.96574  1.0000
  H   H4580     1.0  0.00171  0.89841  0.88619  1.0000
  H   H4581     1.0  0.94445  0.95907  0.75515  1.0000
  H   H4582     1.0  0.77779  0.99604  0.79288  1.0000
  Fe  Fe288     1.0  0.86798  0.99886  0.83110  1.0000
  C   C2582     1.0  0.00213  0.90351  0.89630  1.0000
  H   H4583     1.0  0.78110  0.99276  0.85806  1.0000
  S   S575      1.0  0.69461  0.00081  0.90787  1.0000
  H   H4584     1.0  0.97875  0.86664  0.93999  1.0000
  H   H4585     1.0  0.51304  0.74521  0.93778  1.0000
  H   H4586     1.0  0.52317  0.96281  0.74168  1.0000
  S   S576      1.0  0.99369  0.96992  0.87237  1.0000
  H   H4587     1.0  0.83107  0.99276  0.87920  1.0000
  H   H4588     1.0  0.79862  0.99388  0.95195  1.0000
  H   H4589     1.0  0.64215  0.99979  0.90482  1.0000
  C   C2583     1.0  0.51838  0.76304  0.93658  1.0000
  H   H4590     1.0  0.55718  0.99447  0.95870  1.0000
  H   H4591     1.0  0.63352  0.85045  0.74911  1.0000
  C   C2584     1.0  0.66897  0.90970  0.97902  1.0000
  H   H4592     1.0  0.93004  0.68962  0.74609  1.0000
  H   H4593     1.0  0.51635  0.79406  0.92476  1.0000
  C   C2585     1.0  0.75635  0.96456  0.98237  1.0000
  C   C2586     1.0  0.51175  0.77692  0.92383  1.0000
  H   H4594     1.0  0.93853  0.79411  0.75073  1.0000
  C   C2587     1.0  0.67151  0.94867  0.98028  1.0000
  C   C2588     1.0  0.95203  0.74590  0.74594  1.0000
  H   H4595     1.0  0.87459  0.98448  0.87946  1.0000
  H   H4596     1.0  0.96507  0.68063  0.76214  1.0000
  C   C2589     1.0  0.80625  0.00267  0.90435  1.0000
  H   H4597     1.0  0.91697  0.70353  0.98607  1.0000
  H   H4598     1.0  0.58658  0.98208  0.98513  1.0000
  H   H4599     1.0  0.99865  0.84609  0.92829  1.0000
  H   H4600     1.0  0.99732  0.84000  0.90310  1.0000
  C   C2590     1.0  0.67857  0.92788  0.98563  1.0000
  H   H4601     1.0  0.72214  0.96484  0.98513  1.0000
  C   C2591     1.0  0.94864  0.78612  0.98619  1.0000
  H   H4602     1.0  0.82609  0.97057  0.98457  1.0000
  H   H4603     1.0  0.67768  0.96089  0.98579  1.0000
  C   C2592     1.0  0.59999  0.97479  0.98774  1.0000
  H   H4604     1.0  0.53792  0.85973  0.73829  1.0000
  H   H4605     1.0  0.83842  0.94791  0.98723  1.0000
  H   H4606     1.0  0.97841  0.70993  0.98700  1.0000
  H   H4607     1.0  0.91078  0.74175  0.73914  1.0000
  H   H4608     1.0  0.91828  0.67075  0.92458  1.0000
