data_image0
_chemical_formula_structural       SFeC2H3SFeS3C5H2CHSHC2SCH2SH5C2FeHCNSH2CH2C2H3C2HCH5CH2SH11CHCHCH2C4FeHFeHCSFeHC3HNC3H2NHC2H5C2SC2H2C2H2CH2CHCHCH2CH2C2H6CH2NH3CH8CH2CHC4HSHCHFe2CFeHSHC6H5CH2SHC3HFeH3SHCSHCH4CH3NC4H6CHCH5CH3C6SNH6CSHCHSCHCSHCHCH2CH5FeH2CH2FeCFeH3SFeCFeS2FeSFeS2C2HC6H2CHCHC4H3NC4HC4SHCH6SH4CH4CH4SH5SH5C3HCSCSHNHCH2CH2CH4CH3SH3CH2FeH7CH4CHCH3CH7CH2CH2CSH2CHFeH2CH4C2H2CH3C2H4CH2CH7C6HCHNH3C3HCSH3C3H2CHSHCH10CH2CH6CH4FeH2C4H3CH2SFeHCH5CHFeSH2CH2C4H3CH2C2HC2HCSHCH3SCH2CFeCHCNHC2HCH2CHSH2SFeS3C6H2C2HC2HC2HNHC3H5CHC2H3CH2C2H2C2HC2H5CH2CHSC3HCH2CHCH6NC2HC2H2CN2CH5CH2CH2Fe2HCH4CH11CH4CH3CH2SH4CHCSCH5CH3CHS2CH6CH3CH7CH2SHCSHC5H3CH2CHCHCH8CHSFeH3SH4CSHC3HSH2NCS2CHC4H3CHNCH6CHC3H3SHCHCHC2H3CHFeHCH3CHC2HC2H2CH4C2H2CHCH5CH2CNCH3C2HCH2CHCH2CH2FeS2FeS2FeHFeS3HFeSH2SCH2SCHC8H4C6H4C2H2CHC2H5CNC11H6CH16CH3C2H11CHCH2CFeSCHSC3H2C2HC2H2FeS2C3H3CH3C2H2SCH4C2HCH4C2SHSHNHCHCNH4CHCSC2H5SC4H3CH3CH2CFeH7CN2C2HCHC2HCH3CH4CH4CHCHFeCH7CHCH5CH6CHCH2FeSFeSHSCHCHCH3C3H5C4HSCHCH2NC2H2CH3CHFeH2CSCH3NH3CHCSHC2H6C2H2CSHCSHC5H2SH4CHCH7CH2C6H2NH2CH3FeHCH4CH5FeS3H2SH3SFeS2HSCH2SH4C8H5C3H3CHCH3CFeH2CH6CH2CH2FeCHCH2NC7HCHC2H9CH4SC3HSH11CFeSH3FeC2HCHC2NCHCH5C2H2CH2NH3CH6CH3CH6CNSC2HCFeS2CHFeCSCFeSHS2CFeSHFeS2HC6H7CH2SCHC6H5CHSH3CHCH12CH3CH6FeC2HCH2CHC3H3C2H3NH2C2H5C5H4FeH2CSCH5CH3FeH7CSC2H4CHCHFeSHCSFeSHFeSCHSHSHSHCFeSFeH4C6H4C2FeC3H4FeH2CHNC2HC3FeHC3H2CHCH19NC10H10SHCHCH4CH3SH3FeHCH2S3H3C4H2SHCH
_chemical_formula_sum              "S128 Fe64 C576 H1024 N32"
_cell_length_a       35.5976
_cell_length_b       32.317
_cell_length_c       74.0197
_cell_angle_alpha    92.0498
_cell_angle_beta     89.886
_cell_angle_gamma    120.951

_space_group_name_H-M_alt    "P 1"
_space_group_IT_number       1

loop_
  _space_group_symop_operation_xyz
  'x, y, z'

loop_
  _atom_site_type_symbol
  _atom_site_label
  _atom_site_symmetry_multiplicity
  _atom_site_fract_x
  _atom_site_fract_y
  _atom_site_fract_z
  _atom_site_occupancy
  S   S1        1.0  0.31366  0.15783  0.17577  1.0000
  Fe  Fe1       1.0  0.33608  0.10672  0.18181  1.0000
  C   C1        1.0  0.30205  0.12730  0.22756  1.0000
  C   C2        1.0  0.29138  0.14324  0.24362  1.0000
  H   H1        1.0  0.29463  0.13608  0.21461  1.0000
  H   H2        1.0  0.27597  0.16456  0.24299  1.0000
  H   H3        1.0  0.19298  0.06454  0.28873  1.0000
  S   S2        1.0  0.40388  0.15478  0.17187  1.0000
  Fe  Fe2       1.0  0.37984  0.20315  0.16364  1.0000
  S   S3        1.0  0.42192  0.28158  0.17274  1.0000
  S   S4        1.0  0.35695  0.16867  0.13590  1.0000
  S   S5        1.0  0.30997  0.06343  0.15554  1.0000
  C   C3        1.0  0.34560  0.27302  0.20745  1.0000
  C   C4        1.0  0.46244  0.30022  0.32373  1.0000
  C   C5        1.0  0.45855  0.02254  0.15696  1.0000
  C   C6        1.0  0.08878  0.00255  0.30522  1.0000
  C   C7        1.0  0.17103  0.02684  0.11742  1.0000
  H   H4        1.0  0.13884  0.01297  0.06772  1.0000
  H   H5        1.0  0.00150  0.07559  0.02542  1.0000
  C   C8        1.0  0.14575  0.08296  0.31632  1.0000
  H   H6        1.0  0.44636  0.31338  0.25636  1.0000
  S   S6        1.0  0.22486  0.10801  0.13993  1.0000
  H   H7        1.0  0.22442  0.09255  0.19209  1.0000
  C   C9        1.0  0.17556  0.06639  0.12770  1.0000
  C   C10       1.0  0.43671  0.00719  0.09200  1.0000
  S   S7        1.0  0.33008  0.07305  0.20864  1.0000
  C   C11       1.0  0.43377  0.04133  0.15007  1.0000
  H   H8        1.0  0.21119  0.13226  0.30502  1.0000
  H   H9        1.0  0.34827  0.26165  0.26424  1.0000
  S   S8        1.0  0.42222  0.10160  0.12825  1.0000
  H   H10       1.0  0.15541  0.10399  0.24904  1.0000
  H   H11       1.0  0.36895  0.98833  0.09427  1.0000
  H   H12       1.0  0.16778  0.15434  0.17663  1.0000
  H   H13       1.0  0.07928  0.10801  0.03560  1.0000
  H   H14       1.0  0.07254  0.04740  0.11993  1.0000
  C   C12       1.0  0.46801  0.31953  0.15988  1.0000
  C   C13       1.0  0.18370  0.08747  0.07475  1.0000
  Fe  Fe3       1.0  0.36391  0.09637  0.32242  1.0000
  H   H15       1.0  0.15892  0.11405  0.28191  1.0000
  C   C14       1.0  0.19513  0.01273  0.22377  1.0000
  N   N1        1.0  0.08015  0.02554  0.04264  1.0000
  S   S9        1.0  0.40535  0.06603  0.31201  1.0000
  H   H16       1.0  0.21291  0.05176  0.22773  1.0000
  H   H17       1.0  0.14271  0.10404  0.13622  1.0000
  C   C15       1.0  0.45812  0.21501  0.22406  1.0000
  H   H18       1.0  0.41150  0.33705  0.25655  1.0000
  H   H19       1.0  0.18233  0.18380  0.31619  1.0000
  C   C16       1.0  0.05204  0.08513  0.04464  1.0000
  C   C17       1.0  0.37992  0.26259  0.26382  1.0000
  H   H20       1.0  0.14556  0.01162  0.28041  1.0000
  H   H21       1.0  0.02160  0.12768  0.04069  1.0000
  H   H22       1.0  0.43917  0.23727  0.24824  1.0000
  C   C18       1.0  0.16428  0.08714  0.18245  1.0000
  C   C19       1.0  0.18844  0.06837  0.19383  1.0000
  H   H23       1.0  0.35128  0.30732  0.23386  1.0000
  C   C20       1.0  0.15946  0.01606  0.31748  1.0000
  H   H24       1.0  0.33633  0.24564  0.23402  1.0000
  H   H25       1.0  0.02154  0.01416  0.05564  1.0000
  H   H26       1.0  0.39895  0.02344  0.15246  1.0000
  H   H27       1.0  0.16788  0.08841  0.08759  1.0000
  H   H28       1.0  0.09220  0.04693  0.07118  1.0000
  C   C21       1.0  0.19424  0.12429  0.31811  1.0000
  H   H29       1.0  0.35570  0.24966  0.20035  1.0000
  H   H30       1.0  0.42757  0.17893  0.22287  1.0000
  S   S10       1.0  0.29276  0.06560  0.31482  1.0000
  H   H31       1.0  0.42229  0.26150  0.21022  1.0000
  H   H32       1.0  0.16340  0.07794  0.16791  1.0000
  H   H33       1.0  0.37072  0.24086  0.29162  1.0000
  H   H34       1.0  0.28396  0.27093  0.21172  1.0000
  H   H35       1.0  0.44429  0.27673  0.13502  1.0000
  H   H36       1.0  0.43644  0.26887  0.31668  1.0000
  H   H37       1.0  0.13008  0.07142  0.18711  1.0000
  H   H38       1.0  0.40547  0.30487  0.28921  1.0000
  H   H39       1.0  0.46065  0.09184  0.18424  1.0000
  H   H40       1.0  0.16695  0.04963  0.04878  1.0000
  H   H41       1.0  0.42571  0.26469  0.28372  1.0000
  C   C22       1.0  0.07697  0.03715  0.00793  1.0000
  H   H42       1.0  0.19848  0.02139  0.11636  1.0000
  C   C23       1.0  0.41403  0.25650  0.22480  1.0000
  H   H43       1.0  0.23737  0.02794  0.20076  1.0000
  C   C24       1.0  0.18660  0.14208  0.18447  1.0000
  H   H44       1.0  0.28771  0.24513  0.19026  1.0000
  H   H45       1.0  0.22453  0.04087  0.16933  1.0000
  C   C25       1.0  0.14467  0.07672  0.27611  1.0000
  C   C26       1.0  0.44978  0.25108  0.23451  1.0000
  C   C27       1.0  0.43572  0.08696  0.26119  1.0000
  C   C28       1.0  0.09969  0.04130  0.11920  1.0000
  Fe  Fe4       1.0  0.31382  0.13999  0.30618  1.0000
  H   H46       1.0  0.46497  0.04655  0.26858  1.0000
  Fe  Fe5       1.0  0.37687  0.11652  0.14509  1.0000
  H   H47       1.0  0.44248  0.10720  0.27440  1.0000
  C   C29       1.0  0.30046  0.13153  0.26051  1.0000
  S   S11       1.0  0.28653  0.15147  0.28046  1.0000
  Fe  Fe6       1.0  0.29156  0.11843  0.14848  1.0000
  H   H48       1.0  0.20993  0.07977  0.07795  1.0000
  C   C30       1.0  0.32076  0.09844  0.22835  1.0000
  C   C31       1.0  0.32020  0.10379  0.26127  1.0000
  C   C32       1.0  0.15653  0.04639  0.28804  1.0000
  H   H49       1.0  0.32738  0.09461  0.27422  1.0000
  N   N2        1.0  0.40607  0.29570  0.23200  1.0000
  C   C33       1.0  0.32980  0.08685  0.24523  1.0000
  C   C34       1.0  0.09506  0.00151  0.10905  1.0000
  C   C35       1.0  0.13962  0.07340  0.12845  1.0000
  H   H50       1.0  0.38350  0.22036  0.22521  1.0000
  H   H51       1.0  0.34384  0.06415  0.24591  1.0000
  N   N3        1.0  0.17580  0.01646  0.19017  1.0000
  H   H52       1.0  0.36077  0.30814  0.20077  1.0000
  C   C36       1.0  0.45309  0.07724  0.32380  1.0000
  C   C37       1.0  0.45365  0.08187  0.13942  1.0000
  H   H53       1.0  0.37354  0.22727  0.25819  1.0000
  H   H54       1.0  0.19560  0.04107  0.31808  1.0000
  H   H55       1.0  0.40231  0.05452  0.26161  1.0000
  H   H56       1.0  0.12657  0.09690  0.30975  1.0000
  H   H57       1.0  0.06224  0.10024  0.05871  1.0000
  C   C38       1.0  0.29598  0.24883  0.20492  1.0000
  C   C39       1.0  0.41308  0.30458  0.25221  1.0000
  S   S12       1.0  0.38519  0.16873  0.31149  1.0000
  C   C40       1.0  0.39665  0.26885  0.28327  1.0000
  C   C41       1.0  0.04107  0.03192  0.04358  1.0000
  H   H58       1.0  0.44745  0.04612  0.09246  1.0000
  H   H59       1.0  0.13066  0.08088  0.02633  1.0000
  C   C42       1.0  0.35902  0.28053  0.22779  1.0000
  C   C43       1.0  0.11068  0.05511  0.05828  1.0000
  H   H60       1.0  0.11560  0.99696  0.20396  1.0000
  H   H61       1.0  0.22026  0.15942  0.17902  1.0000
  C   C44       1.0  0.10448  0.04202  0.02509  1.0000
  H   H62       1.0  0.27911  0.21217  0.21047  1.0000
  H   H63       1.0  0.06723  0.06472  0.00859  1.0000
  C   C45       1.0  0.19797  0.17094  0.32565  1.0000
  H   H64       1.0  0.42532  0.36946  0.22705  1.0000
  C   C46       1.0  0.01257  0.08928  0.03955  1.0000
  H   H65       1.0  0.18824  0.15385  0.19888  1.0000
  C   C47       1.0  0.15017  0.04831  0.06159  1.0000
  H   H66       1.0  0.19894  0.12348  0.06874  1.0000
  H   H67       1.0  0.12455  0.09434  0.05642  1.0000
  C   C48       1.0  0.19005  0.01157  0.17138  1.0000
  H   H68       1.0  0.23310  0.19937  0.32738  1.0000
  H   H69       1.0  0.18201  0.07455  0.20806  1.0000
  C   C49       1.0  0.13104  0.99458  0.10826  1.0000
  C   C50       1.0  0.20160  0.00547  0.20339  1.0000
  H   H70       1.0  0.01794  0.01289  0.03206  1.0000
  H   H71       1.0  0.98507  0.06840  0.04880  1.0000
  H   H72       1.0  0.17118  0.01722  0.16088  1.0000
  H   H73       1.0  0.12229  0.02264  0.02213  1.0000
  H   H74       1.0  0.21775  0.98461  0.14044  1.0000
  H   H75       1.0  0.10159  0.00193  0.16937  1.0000
  C   C51       1.0  0.43491  0.34270  0.22287  1.0000
  H   H76       1.0  0.43625  0.10986  0.25023  1.0000
  H   H77       1.0  0.39538  0.99298  0.11553  1.0000
  N   N4        1.0  0.13769  0.03701  0.30675  1.0000
  H   H78       1.0  0.19882  0.09671  0.25772  1.0000
  H   H79       1.0  0.10867  0.06017  0.27483  1.0000
  H   H80       1.0  0.04645  0.00155  0.00638  1.0000
  C   C52       1.0  0.16270  0.08054  0.25710  1.0000
  H   H81       1.0  0.14730  0.04431  0.25020  1.0000
  H   H82       1.0  0.07270  0.02062  0.29910  1.0000
  H   H83       1.0  0.43148  0.99408  0.07766  1.0000
  H   H84       1.0  0.46061  0.05139  0.24448  1.0000
  H   H85       1.0  0.21184  0.11413  0.32760  1.0000
  H   H86       1.0  0.43008  0.33762  0.20792  1.0000
  H   H87       1.0  0.24787  0.00160  0.23233  1.0000
  H   H88       1.0  0.44272  0.99042  0.16479  1.0000
  C   C53       1.0  0.47054  0.99815  0.10160  1.0000
  H   H89       1.0  0.16001  0.99695  0.22687  1.0000
  H   H90       1.0  0.21229  0.99903  0.25013  1.0000
  C   C54       1.0  0.46911  0.07130  0.25777  1.0000
  H   H91       1.0  0.46978  0.22778  0.21028  1.0000
  C   C55       1.0  0.21331  0.98911  0.23569  1.0000
  C   C56       1.0  0.47088  0.30891  0.14162  1.0000
  C   C57       1.0  0.06502  0.98191  0.32327  1.0000
  C   C58       1.0  0.12737  0.98232  0.19293  1.0000
  H   H92       1.0  0.00772  0.10915  0.63533  1.0000
  S   S13       1.0  0.17407  0.40431  0.63966  1.0000
  H   H93       1.0  0.04361  0.00522  0.62197  1.0000
  C   C59       1.0  0.13883  0.08817  0.36932  1.0000
  H   H94       1.0  0.43230  0.08681  0.35012  1.0000
  Fe  Fe7       1.0  0.37292  0.18759  0.33943  1.0000
  Fe  Fe8       1.0  0.22845  0.44551  0.66033  1.0000
  C   C60       1.0  0.06372  0.02385  0.63432  1.0000
  Fe  Fe9       1.0  0.28533  0.09238  0.34246  1.0000
  H   H95       1.0  0.12157  0.17494  0.64342  1.0000
  S   S14       1.0  0.35504  0.11621  0.35084  1.0000
  H   H96       1.0  0.20619  0.12048  0.36081  1.0000
  C   C61       1.0  0.03821  0.16086  0.61464  1.0000
  C   C62       1.0  0.02818  0.14697  0.63254  1.0000
  C   C63       1.0  0.04499  0.18220  0.64689  1.0000
  C   C64       1.0  0.07152  0.23173  0.64356  1.0000
  C   C65       1.0  0.08103  0.24557  0.62567  1.0000
  C   C66       1.0  0.06466  0.21034  0.61134  1.0000
  H   H97       1.0  0.08223  0.01574  0.47693  1.0000
  H   H98       1.0  0.09929  0.08112  0.56441  1.0000
  H   H99       1.0  0.10131  0.28344  0.62285  1.0000
  H   H100      1.0  0.07265  0.22160  0.59757  1.0000
  H   H101      1.0  0.43339  0.15133  0.37700  1.0000
  C   C67       1.0  0.03381  0.11005  0.42827  1.0000
  H   H102      1.0  0.17272  0.17217  0.61051  1.0000
  H   H103      1.0  0.04862  0.03716  0.42438  1.0000
  S   S15       1.0  0.42201  0.25606  0.35500  1.0000
  H   H104      1.0  0.18348  0.25667  0.64777  1.0000
  C   C68       1.0  0.07628  0.04133  0.46950  1.0000
  C   C69       1.0  0.10142  0.00320  0.37521  1.0000
  C   C70       1.0  0.20975  0.12785  0.62331  1.0000
  H   H105      1.0  0.01592  0.02551  0.44352  1.0000
  Fe  Fe10      1.0  0.15107  0.45433  0.64962  1.0000
  H   H106      1.0  0.12086  0.13127  0.50415  1.0000
  H   H107      1.0  0.09435  0.06677  0.50608  1.0000
  H   H108      1.0  0.14793  0.08129  0.55750  1.0000
  S   S16       1.0  0.30307  0.16575  0.33331  1.0000
  H   H109      1.0  0.16814  0.08036  0.58918  1.0000
  C   C71       1.0  0.14474  0.09251  0.58644  1.0000
  S   S17       1.0  0.05330  0.04907  0.37998  1.0000
  H   H110      1.0  0.09675  0.12574  0.43758  1.0000
  C   C72       1.0  0.05021  0.04722  0.43903  1.0000
  H   H111      1.0  0.04237  0.03211  0.47302  1.0000
  H   H112      1.0  0.13884  0.12161  0.36891  1.0000
  H   H113      1.0  0.20175  0.07669  0.42640  1.0000
  H   H114      1.0  0.02944  0.47310  0.65705  1.0000
  C   C73       1.0  0.23942  0.10884  0.62869  1.0000
  H   H115      1.0  0.19561  0.12776  0.42192  1.0000
  H   H116      1.0  0.14093  0.10210  0.44664  1.0000
  H   H117      1.0  0.04344  0.14861  0.42971  1.0000
  N   N5        1.0  0.12689  0.10065  0.62004  1.0000
  C   C74       1.0  0.14297  0.15377  0.61880  1.0000
  C   C75       1.0  0.11053  0.07634  0.60158  1.0000
  C   C76       1.0  0.18274  0.08888  0.41865  1.0000
  C   C77       1.0  0.16112  0.09105  0.62750  1.0000
  H   H118      1.0  0.21316  0.24767  0.62977  1.0000
  H   H119      1.0  0.16287  0.13215  0.58509  1.0000
  H   H120      1.0  0.09633  0.03669  0.60213  1.0000
  H   H121      1.0  0.44693  0.21168  0.38419  1.0000
  H   H122      1.0  0.11198  0.12183  0.47100  1.0000
  H   H123      1.0  0.05554  0.10853  0.45485  1.0000
  C   C78       1.0  0.13981  0.00276  0.37066  1.0000
  H   H124      1.0  0.11822  0.15862  0.61146  1.0000
  C   C79       1.0  0.12274  0.06963  0.56810  1.0000
  H   H125      1.0  0.45279  0.17370  0.39977  1.0000
  H   H126      1.0  0.08344  0.08144  0.59692  1.0000
  H   H127      1.0  0.06328  0.08813  0.62771  1.0000
  H   H128      1.0  0.14244  0.09605  0.47908  1.0000
  H   H129      1.0  0.15385  0.05446  0.62275  1.0000
  C   C80       1.0  0.03266  0.00834  0.65028  1.0000
  H   H130      1.0  0.10497  0.02958  0.56842  1.0000
  H   H131      1.0  0.21484  0.13614  0.60885  1.0000
  H   H132      1.0  0.18222  0.16530  0.33902  1.0000
  C   C81       1.0  0.45793  0.08598  0.34254  1.0000
  C   C82       1.0  0.06209  0.10044  0.44091  1.0000
  C   C83       1.0  0.08802  0.07938  0.63240  1.0000
  C   C84       1.0  0.12618  0.06301  0.44334  1.0000
  C   C85       1.0  0.10928  0.09145  0.47847  1.0000
  C   C86       1.0  0.09619  0.09578  0.49782  1.0000
  S   S18       1.0  0.02019  0.11830  0.59593  1.0000
  N   N6        1.0  0.07918  0.03441  0.44929  1.0000
  H   H133      1.0  0.99873  0.08758  0.43181  1.0000
  H   H134      1.0  0.18749  0.08462  0.40402  1.0000
  H   H135      1.0  0.06379  0.09317  0.49786  1.0000
  H   H136      1.0  0.27408  0.13619  0.62597  1.0000
  H   H137      1.0  0.22117  0.16242  0.63108  1.0000
  H   H138      1.0  0.03823  0.10206  0.41396  1.0000
  C   C87       1.0  0.17709  0.08764  0.36464  1.0000
  S   S19       1.0  0.22436  0.04130  0.35859  1.0000
  H   H139      1.0  0.13363  0.07586  0.33036  1.0000
  C   C88       1.0  0.17779  0.04482  0.36518  1.0000
  H   H140      1.0  0.14914  0.01252  0.33174  1.0000
  S   S20       1.0  0.29903  0.46671  0.65603  1.0000
  C   C89       1.0  0.10065  0.04597  0.37451  1.0000
  H   H141      1.0  0.11681  0.07212  0.41459  1.0000
  C   C90       1.0  0.13401  0.05874  0.42288  1.0000
  S   S21       1.0  0.00699  0.99541  0.57875  1.0000
  H   H142      1.0  0.23058  0.07511  0.62073  1.0000
  C   C91       1.0  0.45621  0.18390  0.38544  1.0000
  H   H143      1.0  0.12271  0.02094  0.41842  1.0000
  C   C92       1.0  0.15277  0.18267  0.63713  1.0000
  H   H144      1.0  0.08681  0.01097  0.63642  1.0000
  H   H145      1.0  0.23654  0.10142  0.64333  1.0000
  C   C93       1.0  0.46298  0.30334  0.34259  1.0000
  H   H146      1.0  0.00938  0.02132  0.64895  1.0000
  H   H147      1.0  0.15959  0.08967  0.64253  1.0000
  H   H148      1.0  0.09821  0.09571  0.64632  1.0000
  H   H149      1.0  0.14638  0.05207  0.45103  1.0000
  H   H150      1.0  0.16361  0.24819  0.62480  1.0000
  Fe  Fe11      1.0  0.97788  0.03580  0.59264  1.0000
  H   H151      1.0  0.17040  0.17271  0.64675  1.0000
  H   H152      1.0  0.03745  0.17109  0.66068  1.0000
  C   C94       1.0  0.17998  0.23709  0.63464  1.0000
  H   H153      1.0  0.97806  0.21297  0.64868  1.0000
  H   H154      1.0  0.07034  0.01111  0.33315  1.0000
  Fe  Fe12      1.0  0.98457  0.99175  0.38894  1.0000
  C   C95       1.0  0.06292  0.98155  0.44519  1.0000
  Fe  Fe13      1.0  0.16695  0.44512  0.68895  1.0000
  H   H155      1.0  0.06597  0.28842  0.92237  1.0000
  H   H156      1.0  0.05221  0.43345  0.81367  1.0000
  H   H157      1.0  0.04940  0.21900  0.90473  1.0000
  S   S22       1.0  0.19136  0.39487  0.68240  1.0000
  Fe  Fe14      1.0  0.19954  0.41211  0.81450  1.0000
  C   C96       1.0  0.11351  0.36414  0.91800  1.0000
  Fe  Fe15      1.0  0.13204  0.31159  0.82801  1.0000
  S   S23       1.0  0.08102  0.33205  0.83207  1.0000
  S   S24       1.0  0.12380  0.23837  0.83365  1.0000
  Fe  Fe16      1.0  0.10300  0.36813  0.80546  1.0000
  S   S25       1.0  0.05942  0.36504  0.78267  1.0000
  Fe  Fe17      1.0  0.13678  0.40182  0.84398  1.0000
  S   S26       1.0  0.14982  0.34246  0.80030  1.0000
  S   S27       1.0  0.18689  0.37958  0.84172  1.0000
  C   C97       1.0  0.15283  0.31403  0.89529  1.0000
  C   C98       1.0  0.03278  0.45446  0.66872  1.0000
  H   H158      1.0  0.08782  0.39251  0.71777  1.0000
  C   C99       1.0  0.08126  0.19277  0.84649  1.0000
  C   C100      1.0  0.08463  0.15337  0.85177  1.0000
  C   C101      1.0  0.05247  0.11755  0.86261  1.0000
  C   C102      1.0  0.01681  0.12111  0.86848  1.0000
  C   C103      1.0  0.01305  0.16004  0.86291  1.0000
  C   C104      1.0  0.04475  0.19532  0.85180  1.0000
  H   H159      1.0  0.11252  0.15079  0.84760  1.0000
  H   H160      1.0  0.05590  0.08793  0.86683  1.0000
  C   C105      1.0  0.01384  0.29685  0.87233  1.0000
  H   H161      1.0  0.04102  0.22454  0.84740  1.0000
  C   C106      1.0  0.14082  0.44752  0.73442  1.0000
  H   H162      1.0  0.02809  0.29783  0.90037  1.0000
  C   C107      1.0  0.13160  0.43824  0.76684  1.0000
  C   C108      1.0  0.09049  0.39664  0.76403  1.0000
  C   C109      1.0  0.07427  0.38073  0.74628  1.0000
  C   C110      1.0  0.09988  0.40557  0.73144  1.0000
  H   H163      1.0  0.22129  0.30439  0.86359  1.0000
  H   H164      1.0  0.07095  0.47072  0.69322  1.0000
  H   H165      1.0  0.04248  0.34846  0.74401  1.0000
  N   N7        1.0  0.24170  0.39270  0.74745  1.0000
  C   C111      1.0  0.27919  0.40024  0.73571  1.0000
  C   C112      1.0  0.24348  0.37125  0.76510  1.0000
  C   C113      1.0  0.19958  0.35619  0.73765  1.0000
  C   C114      1.0  0.24058  0.43859  0.75081  1.0000
  H   H166      1.0  0.08661  0.29324  0.74507  1.0000
  C   C115      1.0  0.27777  0.41517  0.71615  1.0000
  C   C116      1.0  0.15709  0.33843  0.74859  1.0000
  C   C117      1.0  0.28914  0.38895  0.77386  1.0000
  C   C118      1.0  0.28463  0.36628  0.79214  1.0000
  S   S28       1.0  0.26053  0.46616  0.80038  1.0000
  H   H167      1.0  0.33073  0.40573  0.70623  1.0000
  C   C119      1.0  0.11646  0.30495  0.73693  1.0000
  H   H168      1.0  0.28020  0.36631  0.73455  1.0000
  H   H169      1.0  0.98542  0.16292  0.86726  1.0000
  H   H170      1.0  0.22341  0.37642  0.77545  1.0000
  H   H171      1.0  0.22832  0.33135  0.76323  1.0000
  H   H172      1.0  0.20093  0.32367  0.73314  1.0000
  H   H173      1.0  0.19494  0.37128  0.72511  1.0000
  S   S29       1.0  0.09215  0.27447  0.66223  1.0000
  H   H174      1.0  0.21964  0.43490  0.76256  1.0000
  H   H175      1.0  0.10378  0.22986  0.92809  1.0000
  H   H176      1.0  0.34798  0.46659  0.71436  1.0000
  H   H177      1.0  0.25289  0.38334  0.70791  1.0000
  C   C120      1.0  0.32179  0.43400  0.70694  1.0000
  H   H178      1.0  0.15416  0.36927  0.75365  1.0000
  H   H179      1.0  0.15673  0.31789  0.76035  1.0000
  H   H180      1.0  0.30850  0.37840  0.76513  1.0000
  H   H181      1.0  0.07229  0.35898  0.94069  1.0000
  C   C121      1.0  0.01140  0.38755  0.84265  1.0000
  H   H182      1.0  0.07322  0.46225  0.88691  1.0000
  H   H183      1.0  0.11451  0.32393  0.72507  1.0000
  H   H184      1.0  0.14478  0.45058  0.78036  1.0000
  H   H185      1.0  0.04014  0.45690  0.78484  1.0000
  S   S30       1.0  0.10746  0.40454  0.67084  1.0000
  H   H186      1.0  0.26607  0.37624  0.80164  1.0000
  H   H187      1.0  0.30811  0.42839  0.77629  1.0000
  H   H188      1.0  0.00725  0.36125  0.83160  1.0000
  H   H189      1.0  0.01296  0.24222  0.88809  1.0000
  H   H190      1.0  0.11710  0.27237  0.73213  1.0000
  S   S31       1.0  0.97854  0.08096  0.88412  1.0000
  H   H191      1.0  0.30171  0.45361  0.83214  1.0000
  H   H192      1.0  0.31764  0.37974  0.79820  1.0000
  H   H193      1.0  0.04087  0.42756  0.66334  1.0000
  H   H194      1.0  0.08312  0.28192  0.87163  1.0000
  H   H195      1.0  0.09353  0.37079  0.90837  1.0000
  C   C122      1.0  0.08182  0.29961  0.88455  1.0000
  C   C123      1.0  0.10635  0.21886  0.91399  1.0000
  C   C124      1.0  0.00803  0.42894  0.83513  1.0000
  H   H196      1.0  0.22444  0.44478  0.73919  1.0000
  C   C125      1.0  0.10012  0.31012  0.91748  1.0000
  S   S32       1.0  0.15349  0.43934  0.81798  1.0000
  C   C126      1.0  0.21412  0.31907  0.87607  1.0000
  S   S33       1.0  0.17419  0.48074  0.71658  1.0000
  H   H197      1.0  0.14975  0.29700  0.86621  1.0000
  N   N8        1.0  0.10472  0.28988  0.89949  1.0000
  H   H198      1.0  0.05516  0.45888  0.75081  1.0000
  C   C127      1.0  0.10722  0.38042  0.93682  1.0000
  H   H199      1.0  0.22779  0.35836  0.87463  1.0000
  H   H200      1.0  0.08296  0.04220  0.97882  1.0000
  C   C128      1.0  0.01998  0.46876  0.79233  1.0000
  H   H201      1.0  0.08259  0.21917  0.88703  1.0000
  H   H202      1.0  0.28239  0.47624  0.86399  1.0000
  C   C129      1.0  0.08415  0.23596  0.90059  1.0000
  H   H203      1.0  0.16629  0.35286  0.89269  1.0000
  H   H204      1.0  0.17194  0.31394  0.90716  1.0000
  H   H205      1.0  0.15296  0.25397  0.87981  1.0000
  H   H206      1.0  0.09945  0.33875  0.88175  1.0000
  C   C130      1.0  0.16458  0.29283  0.87860  1.0000
  H   H207      1.0  0.31107  0.42763  0.74211  1.0000
  H   H208      1.0  0.23042  0.31356  0.88774  1.0000
  H   H209      1.0  0.12066  0.30680  0.92798  1.0000
  S   S34       1.0  0.13040  0.43702  0.86958  1.0000
  H   H210      1.0  0.03319  0.33659  0.87092  1.0000
  H   H211      1.0  0.14849  0.38759  0.91459  1.0000
  H   H212      1.0  0.13345  0.08106  0.99125  1.0000
  C   C131      1.0  0.04611  0.45872  0.82207  1.0000
  H   H213      1.0  0.04869  0.14654  0.91590  1.0000
  H   H214      1.0  0.26897  0.44341  0.71591  1.0000
  Fe  Fe18      1.0  0.13474  0.35732  0.66230  1.0000
  H   H215      1.0  0.26748  0.32631  0.79050  1.0000
  H   H216      1.0  0.14144  0.23388  0.91097  1.0000
  H   H217      1.0  0.11702  0.41909  0.93682  1.0000
  H   H218      1.0  0.01383  0.27842  0.85938  1.0000
  H   H219      1.0  0.12785  0.37635  0.94702  1.0000
  H   H220      1.0  0.08783  0.15107  0.89931  1.0000
  H   H221      1.0  0.04372  0.40156  0.84945  1.0000
  C   C132      1.0  0.08418  0.16382  0.91298  1.0000
  H   H222      1.0  0.00097  0.43497  0.67570  1.0000
  H   H223      1.0  0.09956  0.15210  0.92303  1.0000
  H   H224      1.0  0.98538  0.36849  0.85269  1.0000
  H   H225      1.0  0.31945  0.44381  0.69292  1.0000
  C   C133      1.0  0.03275  0.28215  0.88762  1.0000
  H   H226      1.0  0.00970  0.45264  0.84676  1.0000
  C   C134      1.0  0.10317  0.04480  0.99072  1.0000
  H   H227      1.0  0.11203  0.01660  0.98893  1.0000
  H   H228      1.0  0.05142  0.02292  0.66323  1.0000
  H   H229      1.0  0.04296  0.46969  0.71935  1.0000
  C   C135      1.0  0.15584  0.46445  0.75214  1.0000
  H   H230      1.0  0.25511  0.46763  0.88530  1.0000
  H   H231      1.0  0.22724  0.46581  0.86479  1.0000
  H   H232      1.0  0.07516  0.47869  0.83121  1.0000
  H   H233      1.0  0.97946  0.28606  0.87530  1.0000
  H   H234      1.0  0.97531  0.41324  0.82865  1.0000
  H   H235      1.0  0.97596  0.39383  0.79955  1.0000
  H   H236      1.0  0.97589  0.39471  0.76618  1.0000
  C   C136      1.0  0.97388  0.42314  0.79312  1.0000
  H   H237      1.0  0.04068  0.90689  0.18791  1.0000
  H   H238      1.0  0.00358  0.69051  0.12674  1.0000
  C   C137      1.0  0.01780  0.88419  0.03704  1.0000
  H   H239      1.0  0.00545  0.87692  0.05106  1.0000
  H   H240      1.0  0.04366  0.94031  0.01824  1.0000
  C   C138      1.0  0.04825  0.94091  0.18155  1.0000
  S   S35       1.0  0.04574  0.95964  0.09691  1.0000
  H   H241      1.0  0.02699  0.93152  0.16929  1.0000
  H   H242      1.0  0.99299  0.62958  0.12626  1.0000
  C   C139      1.0  0.03060  0.93530  0.03209  1.0000
  H   H243      1.0  0.00048  0.93725  0.03231  1.0000
  Fe  Fe19      1.0  0.97751  0.94960  0.09173  1.0000
  H   H244      1.0  0.04059  0.96277  0.19110  1.0000
  H   H245      1.0  0.99143  0.85750  0.02766  1.0000
  C   C140      1.0  0.01559  0.94953  0.32017  1.0000
  H   H246      1.0  0.20751  0.97214  0.32495  1.0000
  H   H247      1.0  0.00170  0.97033  0.31451  1.0000
  H   H248      1.0  0.04639  0.87924  0.03595  1.0000
  H   H249      1.0  0.00804  0.91843  0.31083  1.0000
  C   C141      1.0  0.06541  0.97332  0.04551  1.0000
  C   C142      1.0  0.98048  0.65282  0.12177  1.0000
  H   H250      1.0  0.05195  0.96348  0.05932  1.0000
  H   H251      1.0  0.97939  0.65210  0.10675  1.0000
  C   C143      1.0  0.09631  0.96954  0.17621  1.0000
  H   H252      1.0  0.15774  0.93201  0.17217  1.0000
  H   H253      1.0  0.19357  0.94918  0.23379  1.0000
  H   H254      1.0  0.18900  0.92053  0.14366  1.0000
  C   C144      1.0  0.17164  0.94684  0.32323  1.0000
  C   C145      1.0  0.18824  0.95409  0.14639  1.0000
  H   H255      1.0  0.08085  0.97150  0.29574  1.0000
  H   H256      1.0  0.16607  0.91162  0.31779  1.0000
  H   H257      1.0  0.16787  0.97057  0.29699  1.0000
  H   H258      1.0  0.11660  0.93929  0.30858  1.0000
  C   C146      1.0  0.18771  0.96302  0.16676  1.0000
  H   H259      1.0  0.19314  0.96731  0.20146  1.0000
  H   H260      1.0  0.37867  0.94098  0.10036  1.0000
  C   C147      1.0  0.15192  0.96665  0.31024  1.0000
  H   H261      1.0  0.45575  0.95831  0.10142  1.0000
  H   H262      1.0  0.10151  0.94690  0.16607  1.0000
  H   H263      1.0  0.09361  0.96757  0.04485  1.0000
  H   H264      1.0  0.12122  0.94707  0.19771  1.0000
  H   H265      1.0  0.21665  0.96381  0.17282  1.0000
  H   H266      1.0  0.12807  0.96415  0.10039  1.0000
  H   H267      1.0  0.15833  0.94974  0.13981  1.0000
  C   C148      1.0  0.39227  0.98059  0.10113  1.0000
  C   C149      1.0  0.07564  0.57349  0.63400  1.0000
  C   C150      1.0  0.07977  0.86829  0.64150  1.0000
  C   C151      1.0  0.04235  0.87073  0.63732  1.0000
  C   C152      1.0  0.04270  0.89924  0.62331  1.0000
  C   C153      1.0  0.08118  0.92588  0.61364  1.0000
  H   H268      1.0  0.04701  0.57221  0.62838  1.0000
  C   C154      1.0  0.03762  0.74256  0.64002  1.0000
  H   H269      1.0  0.07328  0.76320  0.64305  1.0000
  N   N9        1.0  0.04276  0.73650  0.60505  1.0000
  H   H270      1.0  0.08186  0.94775  0.60278  1.0000
  H   H271      1.0  0.07927  0.84689  0.65250  1.0000
  H   H272      1.0  0.04115  0.68665  0.62441  1.0000
  C   C155      1.0  0.03078  0.69872  0.59001  1.0000
  C   C156      1.0  0.02723  0.71034  0.62255  1.0000
  C   C157      1.0  0.02218  0.76695  0.60262  1.0000
  H   H273      1.0  0.04222  0.80264  0.60992  1.0000
  C   C158      1.0  0.01451  0.77654  0.58292  1.0000
  S   S36       1.0  0.09026  0.65570  0.65179  1.0000
  H   H274      1.0  0.04401  0.78936  0.57461  1.0000
  H   H275      1.0  0.03991  0.71528  0.57666  1.0000
  H   H276      1.0  0.05019  0.68073  0.59151  1.0000
  C   C159      1.0  0.08427  0.53689  0.62925  1.0000
  C   C160      1.0  0.10406  0.61195  0.64571  1.0000
  C   C161      1.0  0.09209  0.76773  0.60644  1.0000
  H   H277      1.0  0.10231  0.79465  0.61791  1.0000
  H   H278      1.0  0.01287  0.85031  0.64498  1.0000
  C   C162      1.0  0.00553  0.89274  0.44830  1.0000
  H   H279      1.0  0.03008  0.88472  0.45372  1.0000
  S   S37       1.0  0.99354  0.89822  0.61812  1.0000
  H   H280      1.0  0.02585  0.76807  0.63870  1.0000
  C   C163      1.0  0.01833  0.94464  0.45351  1.0000
  H   H281      1.0  0.02847  0.85012  0.58754  1.0000
  H   H282      1.0  0.06249  0.50787  0.61986  1.0000
  H   H283      1.0  0.01948  0.94783  0.46849  1.0000
  H   H284      1.0  0.10638  0.74498  0.60941  1.0000
  H   H285      1.0  0.10931  0.82823  0.58911  1.0000
  H   H286      1.0  0.10539  0.77637  0.57707  1.0000
  H   H287      1.0  0.98776  0.74302  0.57620  1.0000
  H   H288      1.0  0.07246  0.97045  0.37923  1.0000
  H   H289      1.0  0.98948  0.75020  0.60906  1.0000
  H   H290      1.0  0.99102  0.68614  0.62219  1.0000
  C   C164      1.0  0.01528  0.71227  0.65638  1.0000
  H   H291      1.0  0.00295  0.88665  0.43337  1.0000
  H   H292      1.0  0.99176  0.95000  0.44874  1.0000
  C   C165      1.0  0.00105  0.81444  0.58257  1.0000
  H   H293      1.0  0.01359  0.96829  0.65059  1.0000
  H   H294      1.0  0.02582  0.68580  0.65834  1.0000
  H   H295      1.0  0.97909  0.69269  0.65462  1.0000
  H   H296      1.0  0.97316  0.86732  0.45407  1.0000
  H   H297      1.0  0.99262  0.81807  0.56851  1.0000
  H   H298      1.0  0.99087  0.61567  0.56753  1.0000
  C   C166      1.0  0.98179  0.65799  0.58883  1.0000
  H   H299      1.0  0.97515  0.63103  0.59918  1.0000
  H   H300      1.0  0.99965  0.93534  0.33328  1.0000
  H   H301      1.0  0.07663  0.95976  0.32959  1.0000
  H   H302      1.0  0.35452  0.49000  0.62561  1.0000
  Fe  Fe20      1.0  0.97403  0.94089  0.60024  1.0000
  H   H303      1.0  0.97390  0.65608  0.55953  1.0000
  H   H304      1.0  0.97205  0.80411  0.59112  1.0000
  C   C167      1.0  0.11779  0.89374  0.63152  1.0000
  C   C168      1.0  0.11847  0.92300  0.61771  1.0000
  C   C169      1.0  0.11574  0.79814  0.58992  1.0000
  C   C170      1.0  0.12022  0.53690  0.63684  1.0000
  H   H305      1.0  0.15622  0.94138  0.33669  1.0000
  H   H306      1.0  0.39162  0.74379  0.59189  1.0000
  H   H307      1.0  0.32683  0.70498  0.64572  1.0000
  C   C171      1.0  0.20110  0.69213  0.61110  1.0000
  H   H308      1.0  0.17653  0.57531  0.65468  1.0000
  H   H309      1.0  0.23336  0.50960  0.60445  1.0000
  S   S38       1.0  0.18026  0.77975  0.63655  1.0000
  Fe  Fe21      1.0  0.14456  0.73153  0.65917  1.0000
  H   H310      1.0  0.37399  0.68292  0.58347  1.0000
  C   C172      1.0  0.28085  0.64178  0.65995  1.0000
  H   H311      1.0  0.27300  0.50095  0.61625  1.0000
  H   H312      1.0  0.26320  0.60186  0.65841  1.0000
  H   H313      1.0  0.38111  0.71627  0.62340  1.0000
  H   H314      1.0  0.17397  0.79219  0.59214  1.0000
  H   H315      1.0  0.41582  0.56693  0.61501  1.0000
  C   C173      1.0  0.31587  0.67944  0.61016  1.0000
  H   H316      1.0  0.13993  0.96942  0.37119  1.0000
  Fe  Fe22      1.0  0.17421  0.83697  0.65212  1.0000
  S   S39       1.0  0.29690  0.80447  0.63845  1.0000
  H   H317      1.0  0.30564  0.58551  0.60756  1.0000
  H   H318      1.0  0.30408  0.58043  0.63182  1.0000
  C   C174      1.0  0.41008  0.81160  0.65227  1.0000
  H   H319      1.0  0.36803  0.79162  0.62867  1.0000
  H   H320      1.0  0.39614  0.64435  0.65869  1.0000
  C   C175      1.0  0.37314  0.80453  0.64264  1.0000
  C   C176      1.0  0.38675  0.61073  0.65141  1.0000
  C   C177      1.0  0.36287  0.52362  0.63269  1.0000
  C   C178      1.0  0.38946  0.70929  0.59507  1.0000
  H   H321      1.0  0.23145  0.50491  0.62872  1.0000
  H   H322      1.0  0.17832  0.84423  0.60415  1.0000
  H   H323      1.0  0.27043  0.70977  0.63087  1.0000
  C   C179      1.0  0.34291  0.81420  0.65098  1.0000
  H   H324      1.0  0.36372  0.65605  0.61524  1.0000
  H   H325      1.0  0.22472  0.73160  0.61271  1.0000
  C   C180      1.0  0.33890  0.52311  0.64776  1.0000
  C   C181      1.0  0.35058  0.56689  0.65700  1.0000
  H   H326      1.0  0.24658  0.67850  0.59705  1.0000
  C   C182      1.0  0.39781  0.56723  0.62676  1.0000
  C   C183      1.0  0.16536  0.82067  0.59170  1.0000
  H   H327      1.0  0.23138  0.58093  0.63078  1.0000
  C   C184      1.0  0.30851  0.66512  0.64305  1.0000
  S   S40       1.0  0.16515  0.89025  0.63574  1.0000
  H   H328      1.0  0.18041  0.68531  0.59887  1.0000
  C   C185      1.0  0.14855  0.57496  0.64885  1.0000
  H   H329      1.0  0.20051  0.62614  0.60634  1.0000
  H   H330      1.0  0.17958  0.68003  0.62303  1.0000
  H   H331      1.0  0.30219  0.66007  0.59687  1.0000
  S   S41       1.0  0.45575  0.66428  0.62828  1.0000
  C   C186      1.0  0.25351  0.51893  0.61704  1.0000
  H   H332      1.0  0.24050  0.59179  0.60757  1.0000
  H   H333      1.0  0.33375  0.65478  0.64276  1.0000
  C   C187      1.0  0.41058  0.61084  0.63625  1.0000
  Fe  Fe23      1.0  0.24059  0.80228  0.65333  1.0000
  C   C188      1.0  0.25791  0.59943  0.62083  1.0000
  H   H334      1.0  0.32030  0.71597  0.60876  1.0000
  C   C189      1.0  0.25249  0.67098  0.62647  1.0000
  N   N10       1.0  0.28413  0.65305  0.62513  1.0000
  H   H335      1.0  0.22782  0.65208  0.63695  1.0000
  C   C190      1.0  0.28412  0.57350  0.61947  1.0000
  C   C191      1.0  0.36329  0.68909  0.61221  1.0000
  H   H336      1.0  0.14790  0.94309  0.60999  1.0000
  C   C192      1.0  0.14100  0.61309  0.65298  1.0000
  H   H337      1.0  0.43308  0.80388  0.64575  1.0000
  H   H338      1.0  0.18156  0.84315  0.57992  1.0000
  C   C193      1.0  0.22553  0.66483  0.60904  1.0000
  H   H339      1.0  0.42321  0.71638  0.59718  1.0000
  S   S42       1.0  0.12973  0.49034  0.62990  1.0000
  H   H340      1.0  0.08750  0.97256  0.44994  1.0000
  H   H341      1.0  0.05905  0.97345  0.43033  1.0000
  S   S43       1.0  0.13324  0.78659  0.67380  1.0000
  Fe  Fe24      1.0  0.12550  0.71353  0.80686  1.0000
  S   S44       1.0  0.09585  0.69280  0.77858  1.0000
  S   S45       1.0  0.09159  0.60556  0.85922  1.0000
  S   S46       1.0  0.08742  0.70197  0.83235  1.0000
  C   C194      1.0  0.09007  0.84009  0.85847  1.0000
  C   C195      1.0  0.09456  0.88174  0.86732  1.0000
  C   C196      1.0  0.05861  0.88867  0.86889  1.0000
  C   C197      1.0  0.01754  0.85378  0.86173  1.0000
  C   C198      1.0  0.01319  0.81245  0.85263  1.0000
  C   C199      1.0  0.04908  0.80543  0.85114  1.0000
  H   H342      1.0  0.06266  0.92097  0.87569  1.0000
  H   H343      1.0  0.04491  0.77289  0.84458  1.0000
  C   C200      1.0  0.12867  0.73084  0.76145  1.0000
  C   C201      1.0  0.11946  0.71468  0.74326  1.0000
  H   H344      1.0  0.09251  0.67867  0.73993  1.0000
  C   C202      1.0  0.10613  0.56154  0.86200  1.0000
  C   C203      1.0  0.08295  0.52634  0.87464  1.0000
  H   H345      1.0  0.05822  0.52788  0.88267  1.0000
  C   C204      1.0  0.00728  0.71428  0.80467  1.0000
  C   C205      1.0  0.08725  0.53478  0.80615  1.0000
  H   H346      1.0  0.08570  0.55570  0.79481  1.0000
  N   N11       1.0  0.08832  0.56629  0.70311  1.0000
  H   H347      1.0  0.04973  0.58742  0.80895  1.0000
  C   C206      1.0  0.13477  0.57689  0.70184  1.0000
  C   C207      1.0  0.03787  0.85277  0.91726  1.0000
  C   C208      1.0  0.02626  0.88720  0.92767  1.0000
  H   H348      1.0  0.10093  0.56097  0.81796  1.0000
  H   H349      1.0  0.04915  0.86752  0.90368  1.0000
  H   H350      1.0  0.06708  0.85659  0.92437  1.0000
  H   H351      1.0  0.03003  0.59129  0.68430  1.0000
  H   H352      1.0  0.08941  0.81597  0.90678  1.0000
  C   C209      1.0  0.07032  0.74583  0.89556  1.0000
  H   H353      1.0  0.03998  0.82871  0.77124  1.0000
  C   C210      1.0  0.06902  0.54759  0.72130  1.0000
  C   C211      1.0  0.02063  0.76502  0.79907  1.0000
  H   H354      1.0  0.12613  0.90887  0.87302  1.0000
  H   H355      1.0  0.08685  0.78108  0.79361  1.0000
  H   H356      1.0  0.02058  0.58805  0.70820  1.0000
  C   C212      1.0  0.07092  0.79948  0.80024  1.0000
  H   H357      1.0  0.07998  0.80241  0.81478  1.0000
  H   H358      1.0  0.08618  0.57645  0.73208  1.0000
  C   C213      1.0  0.07289  0.87746  0.80416  1.0000
  C   C214      1.0  0.06141  0.77849  0.90803  1.0000
  H   H359      1.0  0.06981  0.86752  0.81860  1.0000
  H   H360      1.0  0.10486  0.63807  0.71292  1.0000
  C   C215      1.0  0.04871  0.65877  0.69785  1.0000
  C   C216      1.0  0.08942  0.61334  0.70087  1.0000
  H   H361      1.0  0.11022  0.63284  0.68922  1.0000
  C   C217      1.0  0.04431  0.60914  0.69769  1.0000
  C   C218      1.0  0.02966  0.87424  0.79809  1.0000
  H   H362      1.0  0.00764  0.76143  0.78516  1.0000
  H   H363      1.0  0.13625  0.54345  0.70215  1.0000
  H   H364      1.0  0.14828  0.59200  0.68850  1.0000
  H   H365      1.0  0.06449  0.55136  0.67534  1.0000
  H   H366      1.0  0.10288  0.75096  0.89896  1.0000
  C   C219      1.0  0.01629  0.55576  0.81054  1.0000
  H   H367      1.0  0.00453  0.77834  0.80850  1.0000
  H   H368      1.0  0.00273  0.83667  0.79530  1.0000
  C   C220      1.0  0.12191  0.52084  0.80129  1.0000
  H   H369      1.0  0.13848  0.73234  0.71544  1.0000
  S   S47       1.0  0.13628  0.83274  0.85731  1.0000
  C   C221      1.0  0.14523  0.74491  0.72945  1.0000
  C   C222      1.0  0.13820  0.55928  0.85169  1.0000
  C   C223      1.0  0.06466  0.93932  0.92780  1.0000
  H   H370      1.0  0.07438  0.68283  0.68842  1.0000
  C   C224      1.0  0.14596  0.52098  0.85381  1.0000
  H   H371      1.0  0.05701  0.67587  0.71165  1.0000
  H   H372      1.0  0.02295  0.69892  0.79597  1.0000
  C   C225      1.0  0.06018  0.53145  0.68791  1.0000
  H   H373      1.0  0.06069  0.76730  0.92206  1.0000
  C   C226      1.0  0.09141  0.48911  0.87704  1.0000
  H   H374      1.0  0.02381  0.78779  0.94074  1.0000
  H   H375      1.0  0.08608  0.85341  0.73576  1.0000
  H   H376      1.0  0.15708  0.59656  0.73029  1.0000
  H   H377      1.0  0.99778  0.88664  0.92135  1.0000
  H   H378      1.0  0.01855  0.87721  0.94195  1.0000
  H   H379      1.0  0.98429  0.89606  0.80753  1.0000
  N   N12       1.0  0.08834  0.84904  0.79293  1.0000
  C   C227      1.0  0.07593  0.84654  0.77322  1.0000
  C   C228      1.0  0.07427  0.81677  0.74076  1.0000
  H   H380      1.0  0.03789  0.79554  0.74024  1.0000
  C   C229      1.0  0.01414  0.89696  0.81248  1.0000
  C   C230      1.0  0.99287  0.77997  0.93393  1.0000
  H   H381      1.0  0.08941  0.88381  0.76840  1.0000
  H   H382      1.0  0.03515  0.89431  0.78552  1.0000
  C   C231      1.0  0.99094  0.57356  0.82180  1.0000
  N   N13       1.0  0.04188  0.49336  0.81018  1.0000
  N   N14       1.0  0.00187  0.80031  0.91533  1.0000
  C   C232      1.0  0.01785  0.77521  0.90262  1.0000
  H   H383      1.0  0.04502  0.70726  0.89715  1.0000
  H   H384      1.0  0.07055  0.75486  0.88120  1.0000
  H   H385      1.0  0.02270  0.79053  0.88899  1.0000
  H   H386      1.0  0.03443  0.53856  0.72172  1.0000
  H   H387      1.0  0.07932  0.78266  0.76410  1.0000
  C   C233      1.0  0.09133  0.82005  0.76000  1.0000
  H   H388      1.0  0.09777  0.91686  0.80425  1.0000
  H   H389      1.0  0.00582  0.87647  0.82504  1.0000
  C   C234      1.0  0.05694  0.49285  0.74713  1.0000
  H   H390      1.0  0.99298  0.73638  0.90049  1.0000
  H   H391      1.0  0.08658  0.79842  0.73164  1.0000
  Fe  Fe25      1.0  0.14339  0.77403  0.84215  1.0000
  Fe  Fe26      1.0  0.12773  0.67223  0.84291  1.0000
  H   H392      1.0  0.12756  0.83986  0.75937  1.0000
  C   C235      1.0  0.01774  0.51434  0.81993  1.0000
  H   H393      1.0  0.03314  0.52888  0.83356  1.0000
  H   H394      1.0  0.01714  0.65483  0.69352  1.0000
  H   H395      1.0  0.01663  0.71497  0.81901  1.0000
  H   H396      1.0  0.07309  0.95177  0.91376  1.0000
  C   C236      1.0  0.13783  0.87578  0.79421  1.0000
  H   H397      1.0  0.00669  0.58726  0.83539  1.0000
  H   H398      1.0  0.02452  0.73627  0.66874  1.0000
  H   H399      1.0  0.03986  0.93514  0.81567  1.0000
  H   H400      1.0  0.09385  0.94257  0.93465  1.0000
  H   H401      1.0  0.02485  0.51450  0.69122  1.0000
  H   H402      1.0  0.98160  0.78530  0.84696  1.0000
  H   H403      1.0  0.98336  0.48617  0.82248  1.0000
  H   H404      1.0  1.00000  0.54349  0.79705  1.0000
  H   H405      1.0  0.99096  0.60362  0.81496  1.0000
  H   H406      1.0  0.14786  0.91057  0.82169  1.0000
  H   H407      1.0  0.98010  0.79844  0.94273  1.0000
  C   C237      1.0  0.06848  0.50182  0.72721  1.0000
  H   H408      1.0  0.02463  0.48920  0.74966  1.0000
  H   H409      1.0  0.13488  0.51467  0.81385  1.0000
  H   H410      1.0  0.08246  0.52287  0.75585  1.0000
  H   H411      1.0  0.98871  0.71404  0.95868  1.0000
  C   C238      1.0  0.06891  0.49070  0.68183  1.0000
  H   H412      1.0  0.05542  0.96319  0.93522  1.0000
  H   H413      1.0  0.10782  0.48750  0.79263  1.0000
  H   H414      1.0  0.14999  0.56651  0.77831  1.0000
  C   C239      1.0  0.16083  0.56078  0.79155  1.0000
  H   H415      1.0  0.10046  0.50621  0.67465  1.0000
  H   H416      1.0  0.10056  0.50458  0.72550  1.0000
  S   S48       1.0  0.99886  0.97309  0.90015  1.0000
  H   H417      1.0  0.14861  0.85554  0.82082  1.0000
  H   H418      1.0  0.15208  0.91009  0.78688  1.0000
  H   H419      1.0  0.15642  0.58642  0.84194  1.0000
  H   H420      1.0  0.15055  0.85414  0.78754  1.0000
  C   C240      1.0  0.15826  0.88875  0.81360  1.0000
  H   H421      1.0  0.01807  0.49458  0.78343  1.0000
  C   C241      1.0  0.16350  0.77741  0.76572  1.0000
  S   S49       1.0  0.15987  0.67660  0.81656  1.0000
  C   C242      1.0  0.12234  0.48575  0.86648  1.0000
  H   H422      1.0  0.16322  0.64282  0.66198  1.0000
  H   H423      1.0  0.43791  0.57967  0.73376  1.0000
  H   H424      1.0  0.41207  0.86025  0.79534  1.0000
  H   H425      1.0  0.30558  0.49487  0.74192  1.0000
  H   H426      1.0  0.33190  0.56660  0.66849  1.0000
  C   C243      1.0  0.16730  0.61195  0.71675  1.0000
  H   H427      1.0  0.27770  0.55109  0.69580  1.0000
  H   H428      1.0  0.45637  0.87617  0.77995  1.0000
  H   H429      1.0  0.21512  0.84405  0.75545  1.0000
  C   C244      1.0  0.28498  0.48636  0.75404  1.0000
  H   H430      1.0  0.30344  0.48455  0.76557  1.0000
  S   S50       1.0  0.20826  0.49845  0.66832  1.0000
  S   S51       1.0  0.23813  0.86356  0.66721  1.0000
  C   C245      1.0  0.32379  0.48858  0.82677  1.0000
  H   H431      1.0  0.44355  0.65176  0.87586  1.0000
  H   H432      1.0  0.46267  0.63254  0.67114  1.0000
  H   H433      1.0  0.31621  0.94972  0.77309  1.0000
  H   H434      1.0  0.22003  0.95274  0.80675  1.0000
  H   H435      1.0  0.30664  0.51911  0.69691  1.0000
  H   H436      1.0  0.16976  0.64760  0.71686  1.0000
  C   C246      1.0  0.44580  0.59902  0.69736  1.0000
  H   H437      1.0  0.36994  0.59460  0.86430  1.0000
  H   H438      1.0  0.30089  0.78944  0.85384  1.0000
  H   H439      1.0  0.28620  0.79920  0.71761  1.0000
  C   C247      1.0  0.45479  0.59787  0.76961  1.0000
  H   H440      1.0  0.18524  0.68473  0.75560  1.0000
  H   H441      1.0  0.18684  0.49744  0.75455  1.0000
  H   H442      1.0  0.44462  0.59546  0.78390  1.0000
  H   H443      1.0  0.30051  0.71374  0.71084  1.0000
  H   H444      1.0  0.17647  0.59497  0.79993  1.0000
  H   H445      1.0  0.45015  0.56238  0.76506  1.0000
  H   H446      1.0  0.17021  0.51875  0.84571  1.0000
  C   C248      1.0  0.39524  0.56324  0.82732  1.0000
  H   H447      1.0  0.18547  0.54998  0.78906  1.0000
  H   H448      1.0  0.46004  0.58366  0.70631  1.0000
  S   S52       1.0  0.21364  0.83065  0.71728  1.0000
  H   H449      1.0  0.43217  0.64565  0.76359  1.0000
  C   C249      1.0  0.40290  0.74084  0.72857  1.0000
  S   S53       1.0  0.44860  0.59904  0.83666  1.0000
  H   H450      1.0  0.38996  0.66056  0.74214  1.0000
  C   C250      1.0  0.31861  0.92918  0.76123  1.0000
  C   C251      1.0  0.31103  0.50364  0.81170  1.0000
  C   C252      1.0  0.27772  0.53765  0.87415  1.0000
  C   C253      1.0  0.41780  0.83005  0.67013  1.0000
  C   C254      1.0  0.31681  0.85240  0.75104  1.0000
  H   H451      1.0  0.33065  0.56026  0.79291  1.0000
  H   H452      1.0  0.33465  0.82033  0.78327  1.0000
  H   H453      1.0  0.24184  0.77075  0.75185  1.0000
  C   C255      1.0  0.34226  0.64218  0.86836  1.0000
  H   H454      1.0  0.20630  0.65492  0.86293  1.0000
  H   H455      1.0  0.44720  0.72893  0.71272  1.0000
  C   C256      1.0  0.41708  0.67203  0.73235  1.0000
  H   H456      1.0  0.17070  0.79057  0.77954  1.0000
  C   C257      1.0  0.35009  0.83174  0.66896  1.0000
  H   H457      1.0  0.30177  0.67419  0.80665  1.0000
  C   C258      1.0  0.37175  0.58580  0.72196  1.0000
  H   H458      1.0  0.30848  0.55347  0.88230  1.0000
  H   H459      1.0  0.33349  0.77288  0.70202  1.0000
  H   H460      1.0  0.42826  0.65290  0.69694  1.0000
  H   H461      1.0  0.34104  0.77506  0.77226  1.0000
  H   H462      1.0  0.41591  0.77540  0.82113  1.0000
  H   H463      1.0  0.33104  0.67305  0.83754  1.0000
  H   H464      1.0  0.25430  0.74010  0.72663  1.0000
  H   H465      1.0  0.35765  0.60705  0.69610  1.0000
  C   C259      1.0  0.41470  0.70657  0.71892  1.0000
  H   H466      1.0  0.43056  0.69861  0.87903  1.0000
  S   S54       1.0  0.44571  0.70977  0.82096  1.0000
  Fe  Fe27      1.0  0.19746  0.80880  0.68770  1.0000
  H   H467      1.0  0.23468  0.59690  0.85645  1.0000
  H   H468      1.0  0.24521  0.71548  0.87091  1.0000
  H   H469      1.0  0.39255  0.58264  0.75931  1.0000
  S   S55       1.0  0.46459  0.84081  0.68238  1.0000
  H   H470      1.0  0.19424  0.70269  0.77935  1.0000
  H   H471      1.0  0.30499  0.69986  0.87003  1.0000
  H   H472      1.0  0.30825  0.55327  0.84778  1.0000
  H   H473      1.0  0.33318  0.63475  0.88279  1.0000
  C   C260      1.0  0.42742  0.61102  0.75787  1.0000
  S   S56       1.0  0.20505  0.74945  0.67491  1.0000
  H   H474      1.0  0.26089  0.61282  0.87789  1.0000
  C   C261      1.0  0.34020  0.54857  0.80461  1.0000
  C   C262      1.0  0.25328  0.71877  0.76485  1.0000
  C   C263      1.0  0.17982  0.79164  0.73385  1.0000
  H   H475      1.0  0.34083  0.89206  0.77745  1.0000
  S   S57       1.0  0.27822  0.77250  0.81514  1.0000
  H   H476      1.0  0.32539  0.75334  0.74163  1.0000
  H   H477      1.0  0.32713  0.83975  0.67541  1.0000
  N   N15       1.0  0.41763  0.62842  0.72451  1.0000
  C   C264      1.0  0.27461  0.67372  0.86247  1.0000
  S   S58       1.0  0.17874  0.78786  0.81575  1.0000
  S   S59       1.0  0.18220  0.74373  0.85425  1.0000
  C   C265      1.0  0.31479  0.63294  0.83732  1.0000
  H   H478      1.0  0.39869  0.88380  0.76517  1.0000
  C   C266      1.0  0.34142  0.59228  0.70899  1.0000
  C   C267      1.0  0.44160  0.61507  0.73779  1.0000
  C   C268      1.0  0.30037  0.74635  0.70675  1.0000
  C   C269      1.0  0.26598  0.77149  0.76154  1.0000
  H   H479      1.0  0.27728  0.68448  0.84825  1.0000
  H   H480      1.0  0.23203  0.66583  0.88506  1.0000
  H   H481      1.0  0.25396  0.54099  0.84786  1.0000
  C   C270      1.0  0.29260  0.63580  0.80504  1.0000
  H   H482      1.0  0.36932  0.72005  0.73394  1.0000
  N   N16       1.0  0.30231  0.61457  0.85614  1.0000
  C   C271      1.0  0.39273  0.84691  0.76674  1.0000
  H   H483      1.0  0.36399  0.79540  0.87085  1.0000
  H   H484      1.0  0.33538  0.64633  0.67513  1.0000
  H   H485      1.0  0.26486  0.57194  0.82038  1.0000
  H   H486      1.0  0.24910  0.61481  0.82737  1.0000
  H   H487      1.0  0.27073  0.71764  0.77708  1.0000
  H   H488      1.0  0.39049  0.68741  0.70781  1.0000
  C   C272      1.0  0.32151  0.78426  0.73841  1.0000
  H   H489      1.0  0.39521  0.64773  0.85126  1.0000
  C   C273      1.0  0.41680  0.65896  0.87891  1.0000
  C   C274      1.0  0.26647  0.62200  0.86342  1.0000
  C   C275      1.0  0.39368  0.78438  0.84720  1.0000
  H   H490      1.0  0.28242  0.86196  0.77425  1.0000
  H   H491      1.0  0.44760  0.69570  0.74039  1.0000
  H   H492      1.0  0.26114  0.70215  0.75325  1.0000
  S   S60       1.0  0.43684  0.78575  0.85948  1.0000
  H   H493      1.0  0.39403  0.85526  0.69213  1.0000
  C   C276      1.0  0.20829  0.91759  0.81308  1.0000
  H   H494      1.0  0.37626  0.50614  0.84588  1.0000
  C   C277      1.0  0.38790  0.84043  0.67839  1.0000
  H   H495      1.0  0.41864  0.81366  0.78409  1.0000
  C   C278      1.0  0.18863  0.80783  0.75199  1.0000
  C   C279      1.0  0.27819  0.52881  0.75816  1.0000
  H   H496      1.0  0.26203  0.53463  0.74655  1.0000
  H   H497      1.0  0.42633  0.76134  0.73991  1.0000
  H   H498      1.0  0.29053  0.63878  0.68875  1.0000
  C   C280      1.0  0.31041  0.65686  0.67682  1.0000
  H   H499      1.0  0.35359  0.81150  0.73283  1.0000
  Fe  Fe28      1.0  0.21191  0.75066  0.82675  1.0000
  H   H500      1.0  0.22187  0.92474  0.82711  1.0000
  C   C281      1.0  0.27696  0.61092  0.82299  1.0000
  H   H501      1.0  0.35263  0.76770  0.80439  1.0000
  H   H502      1.0  0.29075  0.84672  0.74121  1.0000
  H   H503      1.0  0.40403  0.83626  0.75442  1.0000
  C   C282      1.0  0.21327  0.62092  0.71361  1.0000
  H   H504      1.0  0.26589  0.61765  0.79469  1.0000
  C   C283      1.0  0.28765  0.76803  0.72258  1.0000
  C   C284      1.0  0.20414  0.68731  0.76795  1.0000
  H   H505      1.0  0.27668  0.73622  0.69531  1.0000
  C   C285      1.0  0.38190  0.57848  0.81250  1.0000
  C   C286      1.0  0.39058  0.77743  0.82840  1.0000
  H   H506      1.0  0.40412  0.64543  0.89249  1.0000
  H   H507      1.0  0.33994  0.62533  0.83197  1.0000
  C   C287      1.0  0.35492  0.77379  0.81887  1.0000
  H   H508      1.0  0.23568  0.64494  0.72468  1.0000
  H   H509      1.0  0.25771  0.52207  0.77030  1.0000
  H   H510      1.0  0.33187  0.61700  0.71545  1.0000
  H   H511      1.0  0.21314  0.58646  0.71345  1.0000
  C   C288      1.0  0.32560  0.78565  0.84674  1.0000
  C   C289      1.0  0.42150  0.84926  0.78253  1.0000
  H   H512      1.0  0.22069  0.89699  0.80542  1.0000
  H   H513      1.0  0.41290  0.56975  0.69249  1.0000
  C   C290      1.0  0.32210  0.77736  0.82797  1.0000
  H   H514      1.0  0.26028  0.78547  0.77458  1.0000
  C   C291      1.0  0.44265  0.64048  0.70708  1.0000
  H   H515      1.0  0.34816  0.87563  0.74405  1.0000
  H   H516      1.0  0.32746  0.69663  0.67934  1.0000
  H   H517      1.0  0.22569  0.63844  0.70053  1.0000
  H   H518      1.0  0.29201  0.92138  0.75137  1.0000
  H   H519      1.0  0.35645  0.68179  0.86738  1.0000
  C   C292      1.0  0.36145  0.78927  0.85632  1.0000
  H   H520      1.0  0.40419  0.76702  0.71887  1.0000
  H   H521      1.0  0.40425  0.61267  0.80673  1.0000
  C   C293      1.0  0.38056  0.63339  0.86449  1.0000
  N   N17       1.0  0.31200  0.80461  0.75529  1.0000
  C   C294      1.0  0.34359  0.81029  0.77008  1.0000
  H   H522      1.0  0.19605  0.65050  0.77126  1.0000
  H   H523      1.0  0.25348  0.54231  0.88198  1.0000
  H   H524      1.0  0.35484  0.57687  0.73505  1.0000
  C   C295      1.0  0.28568  0.56116  0.85551  1.0000
  C   C296      1.0  0.23714  0.67741  0.87087  1.0000
  H   H525      1.0  0.35081  0.95199  0.75485  1.0000
  C   C297      1.0  0.36602  0.51822  0.83447  1.0000
  H   H526      1.0  0.28122  0.52742  0.71682  1.0000
  H   H527      1.0  0.37242  0.55299  0.71749  1.0000
  C   C298      1.0  0.29931  0.54443  0.70444  1.0000
  H   H528      1.0  0.31021  0.56229  0.76100  1.0000
  C   C299      1.0  0.31423  0.88226  0.76738  1.0000
  H   H529      1.0  0.32133  0.63404  0.80019  1.0000
  H   H530      1.0  0.25692  0.65345  0.66250  1.0000
  C   C300      1.0  0.25960  0.48348  0.87184  1.0000
  H   H531      1.0  0.97118  0.82856  0.89841  1.0000
  H   H532      1.0  0.97119  0.69029  0.80326  1.0000
  Fe  Fe29      1.0  0.67575  0.16095  0.14520  1.0000
  S   S61       1.0  0.63849  0.13970  0.17077  1.0000
  S   S62       1.0  0.66994  0.21732  0.13044  1.0000
  Fe  Fe30      1.0  0.69462  0.07744  0.14586  1.0000
  S   S63       1.0  0.65716  0.05026  0.17181  1.0000
  S   S64       1.0  0.71452  0.03316  0.12735  1.0000
  Fe  Fe31      1.0  0.60711  0.06437  0.15949  1.0000
  H   H533      1.0  0.51741  0.08769  0.10306  1.0000
  Fe  Fe32      1.0  0.69194  0.12895  0.18080  1.0000
  S   S65       1.0  0.71737  0.16585  0.20833  1.0000
  S   S66       1.0  0.64125  0.08562  0.13314  1.0000
  S   S67       1.0  0.73255  0.15597  0.15569  1.0000
  H   H534      1.0  0.66614  0.33099  0.25542  1.0000
  Fe  Fe33      1.0  0.67404  0.09227  0.30469  1.0000
  S   S68       1.0  0.66024  0.04602  0.27926  1.0000
  H   H535      1.0  0.51428  0.13569  0.12802  1.0000
  H   H536      1.0  0.51005  0.16179  0.16538  1.0000
  S   S69       1.0  0.58999  0.42089  0.12806  1.0000
  C   C301      1.0  0.65307  0.22921  0.27132  1.0000
  H   H537      1.0  0.77016  0.02612  0.31395  1.0000
  H   H538      1.0  0.85670  0.13822  0.29354  1.0000
  S   S70       1.0  0.74208  0.15278  0.31156  1.0000
  C   C302      1.0  0.50240  0.36166  0.16821  1.0000
  H   H539      1.0  0.59850  0.06776  0.23716  1.0000
  C   C303      1.0  0.50812  0.34054  0.13180  1.0000
  C   C304      1.0  0.75402  0.37090  0.25455  1.0000
  C   C305      1.0  0.69500  0.27565  0.14072  1.0000
  C   C306      1.0  0.68111  0.30722  0.13575  1.0000
  C   C307      1.0  0.70136  0.35442  0.14338  1.0000
  C   C308      1.0  0.73660  0.37077  0.15557  1.0000
  C   C309      1.0  0.75017  0.33904  0.16072  1.0000
  C   C310      1.0  0.72900  0.29133  0.15351  1.0000
  H   H540      1.0  0.65485  0.29527  0.12585  1.0000
  H   H541      1.0  0.69073  0.37867  0.13929  1.0000
  H   H542      1.0  0.77741  0.35150  0.17014  1.0000
  H   H543      1.0  0.73988  0.26715  0.15740  1.0000
  C   C311      1.0  0.69990  0.13137  0.22772  1.0000
  C   C312      1.0  0.68285  0.08151  0.22676  1.0000
  C   C313      1.0  0.67061  0.05537  0.24266  1.0000
  C   C314      1.0  0.67519  0.07899  0.25949  1.0000
  C   C315      1.0  0.69194  0.12876  0.26042  1.0000
  C   C316      1.0  0.70432  0.15486  0.24457  1.0000
  H   H544      1.0  0.67961  0.06324  0.21382  1.0000
  H   H545      1.0  0.65761  0.01683  0.24189  1.0000
  H   H546      1.0  0.69581  0.14728  0.27337  1.0000
  H   H547      1.0  0.71785  0.19346  0.24537  1.0000
  C   C317      1.0  0.50357  0.04489  0.15367  1.0000
  C   C318      1.0  0.52375  0.08643  0.14355  1.0000
  H   H548      1.0  0.55138  0.27903  0.12236  1.0000
  H   H549      1.0  0.55850  0.10422  0.14101  1.0000
  C   C319      1.0  0.51685  0.21437  0.30134  1.0000
  H   H550      1.0  0.59660  0.31254  0.27380  1.0000
  C   C320      1.0  0.79712  0.05004  0.13771  1.0000
  C   C321      1.0  0.76232  0.02858  0.12511  1.0000
  H   H551      1.0  0.57217  0.05425  0.06225  1.0000
  H   H552      1.0  0.59502  0.17524  0.24191  1.0000
  H   H553      1.0  0.79591  0.07118  0.14912  1.0000
  H   H554      1.0  0.51599  0.04614  0.23453  1.0000
  H   H555      1.0  0.57958  0.01082  0.07410  1.0000
  C   C322      1.0  0.54302  0.38209  0.14032  1.0000
  N   N18       1.0  0.56802  0.23121  0.17300  1.0000
  C   C323      1.0  0.56621  0.24152  0.15336  1.0000
  C   C324      1.0  0.61481  0.24463  0.17654  1.0000
  C   C325      1.0  0.53778  0.17736  0.17520  1.0000
  C   C326      1.0  0.55525  0.26040  0.18506  1.0000
  C   C327      1.0  0.58303  0.31593  0.18360  1.0000
  C   C328      1.0  0.52346  0.23849  0.14664  1.0000
  C   C329      1.0  0.51580  0.16094  0.19382  1.0000
  C   C330      1.0  0.62555  0.23490  0.19560  1.0000
  C   C331      1.0  0.67465  0.25503  0.19805  1.0000
  C   C332      1.0  0.56716  0.34053  0.19700  1.0000
  C   C333      1.0  0.52376  0.24325  0.12616  1.0000
  H   H556      1.0  0.50015  0.37029  0.18222  1.0000
  H   H557      1.0  0.57176  0.21638  0.14457  1.0000
  H   H558      1.0  0.59366  0.27828  0.15025  1.0000
  H   H559      1.0  0.62398  0.22446  0.16669  1.0000
  H   H560      1.0  0.63812  0.28315  0.17368  1.0000
  H   H561      1.0  0.55504  0.15754  0.17182  1.0000
  C   C334      1.0  0.85410  0.09972  0.31667  1.0000
  H   H562      1.0  0.52032  0.24882  0.18243  1.0000
  H   H563      1.0  0.55680  0.25326  0.19948  1.0000
  H   H564      1.0  0.58048  0.32680  0.16982  1.0000
  H   H565      1.0  0.61804  0.33001  0.18687  1.0000
  H   H566      1.0  0.59904  0.04652  0.20468  1.0000
  H   H567      1.0  0.52042  0.26823  0.15293  1.0000
  H   H568      1.0  0.52113  0.08266  0.07945  1.0000
  H   H569      1.0  0.54024  0.17427  0.20505  1.0000
  H   H570      1.0  0.61574  0.25195  0.20637  1.0000
  H   H571      1.0  0.60872  0.19543  0.19748  1.0000
  H   H572      1.0  0.69322  0.29505  0.19755  1.0000
  H   H573      1.0  0.68095  0.24450  0.21129  1.0000
  H   H574      1.0  0.68679  0.24010  0.18734  1.0000
  H   H575      1.0  0.53147  0.32535  0.19509  1.0000
  H   H576      1.0  0.57390  0.33539  0.21113  1.0000
  H   H577      1.0  0.58434  0.37989  0.19480  1.0000
  C   C335      1.0  0.48617  0.07520  0.31418  1.0000
  H   H578      1.0  0.81525  0.40442  0.10645  1.0000
  H   H579      1.0  0.83139  0.42357  0.12976  1.0000
  H   H580      1.0  0.79298  0.46179  0.31559  1.0000
  C   C336      1.0  0.80124  0.99533  0.10822  1.0000
  C   C337      1.0  0.59389  0.16316  0.09051  1.0000
  H   H581      1.0  0.65870  0.25427  0.28301  1.0000
  H   H582      1.0  0.67542  0.21503  0.27288  1.0000
  H   H583      1.0  0.58543  0.24588  0.32624  1.0000
  H   H584      1.0  0.51010  0.33257  0.11764  1.0000
  H   H585      1.0  0.68913  0.34582  0.27741  1.0000
  H   H586      1.0  0.66097  0.24947  0.25874  1.0000
  H   H587      1.0  0.84284  0.11851  0.26078  1.0000
  H   H588      1.0  0.70337  0.30925  0.23776  1.0000
  H   H589      1.0  0.49668  0.00666  0.26100  1.0000
  H   H590      1.0  0.59936  0.16778  0.28338  1.0000
  H   H591      1.0  0.75275  0.28346  0.25047  1.0000
  C   C338      1.0  0.69881  0.32736  0.31973  1.0000
  H   H592      1.0  0.59506  0.36366  0.28353  1.0000
  C   C339      1.0  0.60538  0.18796  0.27085  1.0000
  H   H593      1.0  0.62806  0.34380  0.29422  1.0000
  H   H594      1.0  0.85320  0.00148  0.25898  1.0000
  C   C340      1.0  0.65514  0.38271  0.26952  1.0000
  Fe  Fe34      1.0  0.64864  0.46869  0.14611  1.0000
  S   S71       1.0  0.64304  0.13653  0.30987  1.0000
  C   C341      1.0  0.61638  0.34833  0.28094  1.0000
  H   H595      1.0  0.83179  0.16240  0.27080  1.0000
  S   S72       1.0  0.68545  0.46050  0.31283  1.0000
  C   C342      1.0  0.68520  0.36211  0.26510  1.0000
  C   C343      1.0  0.81650  0.12633  0.26368  1.0000
  C   C344      1.0  0.76446  0.45050  0.23004  1.0000
  H   H596      1.0  0.75173  0.28044  0.22612  1.0000
  H   H597      1.0  0.58090  0.99954  0.04117  1.0000
  C   C345      1.0  0.76003  0.42718  0.29007  1.0000
  C   C346      1.0  0.57015  0.04661  0.21031  1.0000
  H   H598      1.0  0.62342  0.14959  0.25178  1.0000
  C   C347      1.0  0.49869  0.10433  0.13623  1.0000
  C   C348      1.0  0.81762  0.04141  0.28228  1.0000
  H   H599      1.0  0.79798  0.32958  0.23808  1.0000
  H   H600      1.0  0.52669  0.21423  0.11906  1.0000
  Fe  Fe35      1.0  0.72797  0.46962  0.16120  1.0000
  S   S73       1.0  0.76565  0.43141  0.16366  1.0000
  S   S74       1.0  0.65810  0.43194  0.16911  1.0000
  C   C349      1.0  0.52874  0.37944  0.32304  1.0000
  C   C350      1.0  0.88666  0.14570  0.32747  1.0000
  C   C351      1.0  0.79782  0.13018  0.24570  1.0000
  H   H601      1.0  0.52098  0.13192  0.27225  1.0000
  H   H602      1.0  0.59230  0.08634  0.26987  1.0000
  H   H603      1.0  0.75160  0.35025  0.26669  1.0000
  C   C352      1.0  0.76181  0.30535  0.23823  1.0000
  H   H604      1.0  0.87274  0.08396  0.31062  1.0000
  H   H605      1.0  0.82462  0.15704  0.23731  1.0000
  H   H606      1.0  0.76271  0.10458  0.28194  1.0000
  C   C353      1.0  0.54009  0.39242  0.15859  1.0000
  C   C354      1.0  0.83180  0.47813  0.11292  1.0000
  H   H607      1.0  0.60203  0.10219  0.08620  1.0000
  H   H608      1.0  0.54532  0.00909  0.21372  1.0000
  S   S75       1.0  0.53338  0.01910  0.16168  1.0000
  C   C355      1.0  0.83003  0.11091  0.30184  1.0000
  H   H609      1.0  0.78091  0.09488  0.23804  1.0000
  H   H610      1.0  0.70836  0.99426  0.28086  1.0000
  H   H611      1.0  0.50193  0.44195  0.22849  1.0000
  H   H612      1.0  0.86001  0.06052  0.14552  1.0000
  C   C356      1.0  0.55660  0.01581  0.06568  1.0000
  C   C357      1.0  0.83346  0.04385  0.13563  1.0000
  H   H613      1.0  0.66868  0.98620  0.30928  1.0000
  C   C358      1.0  0.76468  0.00111  0.11039  1.0000
  H   H614      1.0  0.56657  0.42463  0.16525  1.0000
  H   H615      1.0  0.72779  0.41058  0.29663  1.0000
  H   H616      1.0  0.49701  0.34639  0.21795  1.0000
  H   H617      1.0  0.49326  0.17459  0.19635  1.0000
  C   C359      1.0  0.59498  0.15462  0.25369  1.0000
  C   C360      1.0  0.75585  0.43979  0.27042  1.0000
  S   S76       1.0  0.72931  0.26815  0.30916  1.0000
  H   H618      1.0  0.54616  0.03211  0.12009  1.0000
  S   S77       1.0  0.56818  0.42679  0.31027  1.0000
  H   H619      1.0  0.50016  0.42037  0.20549  1.0000
  N   N19       1.0  0.55290  0.10615  0.25392  1.0000
  H   H620      1.0  0.58454  0.20432  0.27092  1.0000
  C   C361      1.0  0.51636  0.11550  0.25834  1.0000
  H   H621      1.0  0.67295  0.41788  0.27704  1.0000
  C   C362      1.0  0.55749  0.07657  0.26823  1.0000
  N   N20       1.0  0.51599  0.02242  0.09380  1.0000
  H   H622      1.0  0.58486  0.16449  0.07629  1.0000
  H   H623      1.0  0.56459  0.00867  0.28725  1.0000
  H   H624      1.0  0.62975  0.18827  0.09240  1.0000
  H   H625      1.0  0.74397  0.05768  0.30769  1.0000
  C   C363      1.0  0.48504  0.36682  0.22594  1.0000
  H   H626      1.0  0.50008  0.17445  0.30207  1.0000
  C   C364      1.0  0.53226  0.07576  0.09246  1.0000
  S   S78       1.0  0.96191  0.00446  0.08192  1.0000
  C   C365      1.0  0.51278  0.99956  0.07529  1.0000
  C   C366      1.0  0.73920  0.33477  0.23799  1.0000
  H   H627      1.0  0.72865  0.46612  0.21016  1.0000
  H   H628      1.0  0.77442  0.14255  0.24816  1.0000
  H   H629      1.0  0.77193  0.40154  0.29041  1.0000
  H   H630      1.0  0.67932  0.37882  0.32654  1.0000
  H   H631      1.0  0.50810  0.08941  0.19133  1.0000
  S   S79       1.0  0.88225  0.00917  0.11930  1.0000
  C   C367      1.0  0.72155  0.98878  0.29349  1.0000
  C   C368      1.0  0.72229  0.41514  0.24008  1.0000
  C   C369      1.0  0.79191  0.47210  0.30152  1.0000
  C   C370      1.0  0.81307  0.42577  0.11806  1.0000
  H   H632      1.0  0.53801  0.27717  0.31876  1.0000
  H   H633      1.0  0.49618  0.22305  0.29293  1.0000
  H   H634      1.0  0.49257  0.23995  0.12163  1.0000
  C   C371      1.0  0.83587  0.01652  0.12089  1.0000
  H   H635      1.0  0.59238  0.11340  0.10915  1.0000
  H   H636      1.0  0.51719  0.14228  0.24899  1.0000
  H   H637      1.0  0.75529  0.05815  0.26676  1.0000
  C   C372      1.0  0.75881  0.03691  0.30207  1.0000
  H   H638      1.0  0.64173  0.38800  0.25683  1.0000
  H   H639      1.0  0.76252  0.99008  0.26372  1.0000
  C   C373      1.0  0.53063  0.99584  0.28246  1.0000
  Fe  Fe36      1.0  0.70985  0.19487  0.31939  1.0000
  H   H640      1.0  0.78977  0.39688  0.25323  1.0000
  H   H641      1.0  0.54905  0.22831  0.29483  1.0000
  H   H642      1.0  0.61016  0.11673  0.22291  1.0000
  H   H643      1.0  0.54530  0.43347  0.22033  1.0000
  H   H644      1.0  0.53742  0.10362  0.22554  1.0000
  H   H645      1.0  0.81681  0.01613  0.29235  1.0000
  H   H646      1.0  0.57684  0.17575  0.09977  1.0000
  C   C374      1.0  0.54515  0.08315  0.23513  1.0000
  N   N21       1.0  0.72934  0.39710  0.25749  1.0000
  N   N22       1.0  0.79665  0.06840  0.29009  1.0000
  C   C375      1.0  0.58224  0.11205  0.09486  1.0000
  C   C376      1.0  0.53105  0.02078  0.26523  1.0000
  H   H647      1.0  0.74781  0.35418  0.22516  1.0000
  C   C377      1.0  0.75365  0.45537  0.21056  1.0000
  H   H648      1.0  0.70010  0.38427  0.23072  1.0000
  C   C378      1.0  0.50939  0.41871  0.21964  1.0000
  C   C379      1.0  0.52287  0.23769  0.32026  1.0000
  H   H649      1.0  0.55649  0.05899  0.19976  1.0000
  C   C380      1.0  0.78043  0.08776  0.27569  1.0000
  H   H650      1.0  0.85305  0.06690  0.27985  1.0000
  H   H651      1.0  0.67720  0.31241  0.30804  1.0000
  H   H652      1.0  0.54895  0.08551  0.28170  1.0000
  C   C381      1.0  0.79862  0.01278  0.26395  1.0000
  H   H653      1.0  0.73808  0.98436  0.10053  1.0000
  H   H654      1.0  0.49307  0.00747  0.06595  1.0000
  H   H655      1.0  0.81447  0.12973  0.30853  1.0000
  H   H656      1.0  0.77804  0.40933  0.12159  1.0000
  C   C382      1.0  0.58412  0.08044  0.22709  1.0000
  H   H657      1.0  0.49445  0.36872  0.24031  1.0000
  H   H658      1.0  0.83127  0.07425  0.32647  1.0000
  H   H659      1.0  0.49356  0.20413  0.14985  1.0000
  H   H660      1.0  0.51291  0.00310  0.29331  1.0000
  C   C383      1.0  0.52390  0.08205  0.32315  1.0000
  H   H661      1.0  0.54628  0.00957  0.25453  1.0000
  C   C384      1.0  0.48799  0.10598  0.19431  1.0000
  H   H662      1.0  0.80764  0.03790  0.25273  1.0000
  Fe  Fe37      1.0  0.63510  0.47733  0.32262  1.0000
  C   C385      1.0  0.54481  0.01495  0.10660  1.0000
  H   H663      1.0  0.57918  0.03339  0.10207  1.0000
  H   H664      1.0  0.78867  0.43872  0.22960  1.0000
  H   H665      1.0  0.52701  0.99112  0.03868  1.0000
  H   H666      1.0  0.54874  0.07959  0.31565  1.0000
  H   H667      1.0  0.91204  0.17230  0.31852  1.0000
  H   H668      1.0  0.81116  0.47719  0.10151  1.0000
  H   H669      1.0  0.48226  0.06765  0.29978  1.0000
  C   C386      1.0  0.72565  0.30920  0.32428  1.0000
  H   H670      1.0  0.74252  0.46428  0.27098  1.0000
  C   C387      1.0  0.49505  0.33817  0.31398  1.0000
  H   H671      1.0  0.78971  0.46268  0.26538  1.0000
  H   H672      1.0  0.49414  0.33572  0.29936  1.0000
  H   H673      1.0  0.92922  0.01526  0.99643  1.0000
  H   H674      1.0  0.48977  0.22352  0.32593  1.0000
  H   H675      1.0  0.70489  0.43517  0.24260  1.0000
  C   C388      1.0  0.54908  0.98664  0.04794  1.0000
  H   H676      1.0  0.74085  0.42053  0.20278  1.0000
  H   H677      1.0  0.48124  0.28574  0.23595  1.0000
  H   H678      1.0  0.47349  0.09525  0.20787  1.0000
  H   H679      1.0  0.48349  0.21123  0.23124  1.0000
  H   H680      1.0  0.62561  0.47156  0.25020  1.0000
  H   H681      1.0  0.47234  0.00977  0.11610  1.0000
  C   C389      1.0  0.81605  0.01712  0.65123  1.0000
  H   H682      1.0  0.71228  0.07813  0.40687  1.0000
  C   C390      1.0  0.63127  0.24949  0.35554  1.0000
  H   H683      1.0  0.56775  0.18653  0.35990  1.0000
  H   H684      1.0  0.85811  0.09831  0.61598  1.0000
  Fe  Fe38      1.0  0.71233  0.48032  0.34112  1.0000
  S   S80       1.0  0.78224  0.12488  0.35606  1.0000
  Fe  Fe39      1.0  0.63508  0.11132  0.33810  1.0000
  S   S81       1.0  0.57489  0.09727  0.35370  1.0000
  H   H685      1.0  0.86226  0.11448  0.64487  1.0000
  S   S82       1.0  0.70090  0.17231  0.34807  1.0000
  C   C391      1.0  0.65786  0.23843  0.36859  1.0000
  H   H686      1.0  0.48786  0.18220  0.35178  1.0000
  C   C392      1.0  0.93956  0.99081  0.50745  1.0000
  H   H687      1.0  0.49367  0.23879  0.35725  1.0000
  C   C393      1.0  0.73925  0.00346  0.65423  1.0000
  H   H688      1.0  0.95184  0.12880  0.65538  1.0000
  H   H689      1.0  0.63277  0.23488  0.34192  1.0000
  H   H690      1.0  0.89479  0.07788  0.59156  1.0000
  C   C394      1.0  0.75509  0.36705  0.34985  1.0000
  C   C395      1.0  0.72977  0.38672  0.34474  1.0000
  C   C396      1.0  0.84709  0.05781  0.37140  1.0000
  H   H691      1.0  0.79904  0.98332  0.64254  1.0000
  H   H692      1.0  0.77409  0.31473  0.34315  1.0000
  H   H693      1.0  0.77751  0.38286  0.36131  1.0000
  H   H694      1.0  0.90885  0.06304  0.43408  1.0000
  H   H695      1.0  0.66766  0.02065  0.39793  1.0000
  C   C397      1.0  0.83808  0.02375  0.43068  1.0000
  C   C398      1.0  0.49664  0.34474  0.35171  1.0000
  C   C399      1.0  0.52848  0.09001  0.34192  1.0000
  C   C400      1.0  0.50343  0.20357  0.37960  1.0000
  H   H696      1.0  0.87777  0.06846  0.37822  1.0000
  S   S83       1.0  0.94358  0.01892  0.40215  1.0000
  C   C401      1.0  0.75305  0.32835  0.33963  1.0000
  H   H697      1.0  0.64446  0.38663  0.36554  1.0000
  C   C402      1.0  0.72568  0.00345  0.41708  1.0000
  H   H698      1.0  0.59463  0.38847  0.36534  1.0000
  H   H699      1.0  0.55317  0.30672  0.34736  1.0000
  N   N23       1.0  0.86358  0.04800  0.64587  1.0000
  C   C403      1.0  0.76778  0.03135  0.35352  1.0000
  C   C404      1.0  0.79543  0.07950  0.35941  1.0000
  H   H700      1.0  0.89005  0.06202  0.41138  1.0000
  H   H701      1.0  0.73057  0.03122  0.42772  1.0000
  C   C405      1.0  0.58616  0.31973  0.37289  1.0000
  H   H702      1.0  0.73706  0.02080  0.34674  1.0000
  H   H703      1.0  0.49704  0.34761  0.36632  1.0000
  H   H704      1.0  0.81194  0.02617  0.40461  1.0000
  C   C406      1.0  0.78746  0.04073  0.65124  1.0000
  H   H705      1.0  0.62047  0.39061  0.38649  1.0000
  Fe  Fe40      1.0  0.72732  0.12423  0.33964  1.0000
  H   H706      1.0  0.60561  0.31475  0.34534  1.0000
  H   H707      1.0  0.55531  0.30989  0.37996  1.0000
  C   C407      1.0  0.50923  0.21700  0.35944  1.0000
  S   S84       1.0  0.66040  0.06091  0.33228  1.0000
  C   C408      1.0  0.52951  0.38274  0.34194  1.0000
  H   H708      1.0  0.64290  0.19879  0.36957  1.0000
  H   H709      1.0  0.85674  0.12954  0.37297  1.0000
  H   H710      1.0  0.83224  0.43207  0.39790  1.0000
  N   N24       1.0  0.55537  0.24233  0.35215  1.0000
  H   H711      1.0  0.64777  0.28928  0.35523  1.0000
  H   H712      1.0  0.83351  0.02920  0.44524  1.0000
  H   H713      1.0  0.72181  0.99859  0.38729  1.0000
  C   C409      1.0  0.88130  0.10043  0.65134  1.0000
  H   H714      1.0  0.84141  0.46932  0.41805  1.0000
  C   C410      1.0  0.83504  0.09239  0.36839  1.0000
  S   S85       1.0  0.73649  0.43879  0.35638  1.0000
  H   H715      1.0  0.81091  0.03759  0.61376  1.0000
  C   C411      1.0  0.86852  0.04109  0.62591  1.0000
  C   C412      1.0  0.80214  0.02426  0.41896  1.0000
  H   H716      1.0  0.76589  0.05545  0.39639  1.0000
  H   H717      1.0  0.69180  0.25401  0.36367  1.0000
  H   H718      1.0  0.90372  0.05746  0.62247  1.0000
  H   H719      1.0  0.93687  0.13376  0.63261  1.0000
  H   H720      1.0  0.51115  0.17482  0.38166  1.0000
  H   H721      1.0  0.58428  0.23333  0.37645  1.0000
  C   C413      1.0  0.61306  0.37472  0.37248  1.0000
  C   C414      1.0  0.58309  0.22640  0.36164  1.0000
  H   H722      1.0  0.94370  0.01523  0.51869  1.0000
  H   H723      1.0  0.88666  0.10043  0.42886  1.0000
  C   C415      1.0  0.70045  0.36554  0.33007  1.0000
  S   S86       1.0  0.91513  0.99846  0.57568  1.0000
  H   H724      1.0  0.52503  0.23494  0.38869  1.0000
  C   C416      1.0  0.81927  0.00958  0.36568  1.0000
  S   S87       1.0  0.94950  0.98419  0.61505  1.0000
  H   H725      1.0  0.90314  0.13675  0.33805  1.0000
  C   C417      1.0  0.89005  0.03164  0.65612  1.0000
  C   C418      1.0  0.94289  0.18834  0.65166  1.0000
  C   C419      1.0  0.84709  0.05987  0.61295  1.0000
  C   C420      1.0  0.57548  0.29640  0.35354  1.0000
  C   C421      1.0  0.70281  0.04848  0.39652  1.0000
  H   H726      1.0  0.80549  0.05990  0.42244  1.0000
  H   H727      1.0  0.55466  0.41518  0.34896  1.0000
  S   S88       1.0  0.92789  0.98972  0.45227  1.0000
  H   H728      1.0  0.60558  0.30869  0.38088  1.0000
  H   H729      1.0  0.65953  0.25471  0.38226  1.0000
  H   H730      1.0  0.70724  0.06384  0.38295  1.0000
  H   H731      1.0  0.92478  0.05115  0.65180  1.0000
  C   C422      1.0  0.73153  0.02635  0.39840  1.0000
  H   H732      1.0  0.78700  0.46903  0.39681  1.0000
  C   C423      1.0  0.93012  0.13613  0.64712  1.0000
  H   H733      1.0  0.49821  0.09719  0.36612  1.0000
  H   H734      1.0  0.54033  0.18784  0.33101  1.0000
  H   H735      1.0  0.85373  0.00208  0.62217  1.0000
  H   H736      1.0  0.92324  0.19866  0.64336  1.0000
  H   H737      1.0  0.93937  0.03732  0.48720  1.0000
  H   H738      1.0  0.84300  0.06967  0.58431  1.0000
  H   H739      1.0  0.78957  0.05836  0.63844  1.0000
  C   C424      1.0  0.88364  0.06488  0.42591  1.0000
  H   H740      1.0  0.71995  0.02164  0.65509  1.0000
  H   H741      1.0  0.84673  0.01775  0.58923  1.0000
  C   C425      1.0  0.77968  0.99668  0.35664  1.0000
  C   C426      1.0  0.55247  0.22729  0.33240  1.0000
  C   C427      1.0  0.85874  0.05600  0.59334  1.0000
  C   C428      1.0  0.49525  0.09177  0.35157  1.0000
  C   C429      1.0  0.93710  0.00325  0.48951  1.0000
  C   C430      1.0  0.84599  0.46984  0.40319  1.0000
  H   H742      1.0  0.86936  0.16223  0.33427  1.0000
  H   H743      1.0  0.83769  0.98940  0.42891  1.0000
  N   N25       1.0  0.75508  0.98368  0.42099  1.0000
  H   H744      1.0  0.75551  0.99860  0.44967  1.0000
  H   H745      1.0  0.87699  0.03255  0.94560  1.0000
  C   C431      1.0  0.95453  0.40408  0.77412  1.0000
  H   H746      1.0  0.81876  0.00426  0.94886  1.0000
  H   H747      1.0  0.92176  0.37090  0.77506  1.0000
  H   H748      1.0  0.94330  0.99681  0.96510  1.0000
  Fe  Fe41      1.0  0.95785  0.00287  0.88990  1.0000
  H   H749      1.0  0.83933  0.99025  0.92861  1.0000
  C   C432      1.0  0.84492  0.99856  0.94341  1.0000
  H   H750      1.0  0.95093  0.43062  0.80065  1.0000
  H   H751      1.0  0.93597  0.98573  0.66374  1.0000
  H   H752      1.0  0.95072  0.43137  0.76696  1.0000
  H   H753      1.0  0.73516  0.98450  0.66697  1.0000
  C   C433      1.0  0.93358  0.98485  0.99380  1.0000
  H   H754      1.0  0.89064  0.04052  0.67086  1.0000
  H   H755      1.0  0.81384  0.00479  0.66528  1.0000
  H   H756      1.0  0.87732  0.10394  0.66616  1.0000
  H   H757      1.0  0.79835  0.06853  0.66245  1.0000
  H   H758      1.0  0.93803  0.19328  0.66623  1.0000
  Fe  Fe42      1.0  0.88124  0.86712  0.08677  1.0000
  S   S89       1.0  0.91979  0.91635  0.11039  1.0000
  S   S90       1.0  0.82861  0.78708  0.08744  1.0000
  S   S91       1.0  0.71812  0.50178  0.13656  1.0000
  H   H759      1.0  0.87452  0.60151  0.18945  1.0000
  H   H760      1.0  0.78759  0.67079  0.29634  1.0000
  S   S92       1.0  0.66112  0.53447  0.16275  1.0000
  H   H761      1.0  0.89911  0.93458  0.16116  1.0000
  H   H762      1.0  0.65761  0.92866  0.30013  1.0000
  H   H763      1.0  0.73592  0.77567  0.32539  1.0000
  S   S93       1.0  0.85986  0.91674  0.07627  1.0000
  Fe  Fe43      1.0  0.73192  0.56522  0.15512  1.0000
  S   S94       1.0  0.74683  0.53474  0.17919  1.0000
  S   S95       1.0  0.78514  0.64446  0.15208  1.0000
  H   H764      1.0  0.71966  0.66084  0.30204  1.0000
  S   S96       1.0  0.93967  0.89588  0.06864  1.0000
  C   C434      1.0  0.86823  0.61271  0.17633  1.0000
  H   H765      1.0  0.77946  0.74437  0.25026  1.0000
  H   H766      1.0  0.74732  0.76608  0.26123  1.0000
  S   S97       1.0  0.76593  0.56728  0.28285  1.0000
  H   H767      1.0  0.90703  0.57760  0.10860  1.0000
  H   H768      1.0  0.83617  0.55318  0.09806  1.0000
  H   H769      1.0  0.78580  0.58282  0.24514  1.0000
  H   H770      1.0  0.74445  0.69828  0.27714  1.0000
  C   C435      1.0  0.75087  0.55845  0.24626  1.0000
  C   C436      1.0  0.73235  0.54505  0.26333  1.0000
  C   C437      1.0  0.81777  0.74762  0.10538  1.0000
  C   C438      1.0  0.84445  0.76197  0.12092  1.0000
  C   C439      1.0  0.83379  0.72992  0.13508  1.0000
  C   C440      1.0  0.79658  0.68313  0.13383  1.0000
  C   C441      1.0  0.77003  0.66865  0.11825  1.0000
  C   C442      1.0  0.78060  0.70078  0.10411  1.0000
  H   H771      1.0  0.87324  0.79779  0.12205  1.0000
  H   H772      1.0  0.85457  0.74142  0.14708  1.0000
  H   H773      1.0  0.74129  0.63278  0.11712  1.0000
  H   H774      1.0  0.75972  0.68933  0.09214  1.0000
  H   H775      1.0  0.83464  0.66362  0.08669  1.0000
  C   C443      1.0  0.67899  0.50928  0.23196  1.0000
  C   C444      1.0  0.71914  0.68585  0.31254  1.0000
  C   C445      1.0  0.81214  0.85301  0.00990  1.0000
  H   H776      1.0  0.88360  0.64041  0.10069  1.0000
  H   H777      1.0  0.73369  0.96375  0.29064  1.0000
  H   H778      1.0  0.86390  0.87513  0.16961  1.0000
  C   C446      1.0  0.77701  0.76330  0.26263  1.0000
  H   H779      1.0  0.79639  0.55321  0.11267  1.0000
  C   C447      1.0  0.68718  0.51354  0.26471  1.0000
  H   H780      1.0  0.82540  0.48910  0.29596  1.0000
  H   H781      1.0  0.83368  0.53919  0.16594  1.0000
  H   H782      1.0  0.81122  0.57410  0.14427  1.0000
  C   C448      1.0  0.72420  0.54072  0.23058  1.0000
  Fe  Fe44      1.0  0.90134  0.96781  0.09901  1.0000
  H   H783      1.0  0.51370  0.95620  0.27971  1.0000
  H   H784      1.0  0.86305  0.62592  0.14241  1.0000
  C   C449      1.0  0.83235  0.57081  0.11050  1.0000
  H   H785      1.0  0.89037  0.57286  0.16021  1.0000
  H   H786      1.0  0.86545  0.70754  0.30624  1.0000
  H   H787      1.0  0.84938  0.91776  0.13574  1.0000
  H   H788      1.0  0.53455  0.94771  0.05055  1.0000
  H   H789      1.0  0.81904  0.83367  0.32426  1.0000
  H   H790      1.0  0.78730  0.60864  0.09366  1.0000
  C   C450      1.0  0.93500  0.63566  0.12932  1.0000
  H   H791      1.0  0.89149  0.88224  0.14838  1.0000
  H   H792      1.0  0.80655  0.80012  0.26368  1.0000
  C   C451      1.0  0.79922  0.72489  0.31849  1.0000
  H   H793      1.0  0.56915  0.97719  0.13479  1.0000
  H   H794      1.0  0.93840  0.63932  0.14427  1.0000
  Fe  Fe45      1.0  0.67559  0.49944  0.18526  1.0000
  C   C452      1.0  0.79583  0.67759  0.31095  1.0000
  H   H795      1.0  0.83127  0.75608  0.31450  1.0000
  C   C453      1.0  0.77383  0.73480  0.27919  1.0000
  H   H796      1.0  0.80378  0.79513  0.29805  1.0000
  H   H797      1.0  0.78367  0.48320  0.20392  1.0000
  N   N26       1.0  0.76350  0.83318  0.12990  1.0000
  C   C454      1.0  0.77913  0.85922  0.11245  1.0000
  C   C455      1.0  0.80276  0.84111  0.14072  1.0000
  C   C456      1.0  0.73604  0.77979  0.12500  1.0000
  C   C457      1.0  0.73628  0.84819  0.14093  1.0000
  C   C458      1.0  0.74666  0.90084  0.13915  1.0000
  C   C459      1.0  0.74262  0.85062  0.09860  1.0000
  C   C460      1.0  0.72192  0.74520  0.14095  1.0000
  H   H798      1.0  0.84790  0.64551  0.11694  1.0000
  C   C461      1.0  0.77169  0.76079  0.29680  1.0000
  H   H799      1.0  0.91314  0.56042  0.13028  1.0000
  C   C462      1.0  0.73761  0.81658  0.08262  1.0000
  C   C463      1.0  0.68531  0.69423  0.13519  1.0000
  H   H800      1.0  0.80203  0.84997  0.10570  1.0000
  H   H801      1.0  0.79965  0.89886  0.11499  1.0000
  H   H802      1.0  0.79236  0.82036  0.15325  1.0000
  H   H803      1.0  0.82084  0.82727  0.13273  1.0000
  H   H804      1.0  0.75390  0.76889  0.11543  1.0000
  H   H805      1.0  0.70554  0.77150  0.11769  1.0000
  H   H806      1.0  0.70080  0.82469  0.13737  1.0000
  H   H807      1.0  0.73865  0.84236  0.15553  1.0000
  H   H808      1.0  0.73533  0.90499  0.12576  1.0000
  C   C464      1.0  0.83612  0.89359  0.14722  1.0000
  H   H809      1.0  0.71039  0.83703  0.10503  1.0000
  H   H810      1.0  0.75134  0.88581  0.09293  1.0000
  H   H811      1.0  0.71015  0.75820  0.15245  1.0000
  H   H812      1.0  0.75006  0.74228  0.14570  1.0000
  S   S98       1.0  0.92206  0.97236  0.03053  1.0000
  C   C465      1.0  0.90204  0.58229  0.12322  1.0000
  C   C466      1.0  0.84947  0.62358  0.10545  1.0000
  C   C467      1.0  0.63677  0.63863  0.30711  1.0000
  H   H813      1.0  0.68713  0.88893  0.15230  1.0000
  S   S99       1.0  0.67429  0.55526  0.31547  1.0000
  H   H814      1.0  0.84567  0.50172  0.14088  1.0000
  H   H815      1.0  0.78114  0.49880  0.30193  1.0000
  H   H816      1.0  0.76870  0.83140  0.07514  1.0000
  H   H817      1.0  0.72830  0.78020  0.08708  1.0000
  H   H818      1.0  0.71176  0.81273  0.07315  1.0000
  H   H819      1.0  0.67821  0.66960  0.14647  1.0000
  H   H820      1.0  0.65492  0.69406  0.13166  1.0000
  H   H821      1.0  0.69524  0.68024  0.12334  1.0000
  H   H822      1.0  0.79464  0.82369  0.01953  1.0000
  H   H823      1.0  0.74738  0.77213  0.29471  1.0000
  H   H824      1.0  0.52758  0.94171  0.09680  1.0000
  C   C468      1.0  0.82223  0.62540  0.08988  1.0000
  Fe  Fe46      1.0  0.72634  0.53914  0.30788  1.0000
  S   S100      1.0  0.64451  0.48614  0.21268  1.0000
  H   H825      1.0  0.73856  0.55177  0.21748  1.0000
  H   H826      1.0  0.82452  0.60622  0.07756  1.0000
  H   H827      1.0  0.83916  0.61670  0.17772  1.0000
  Fe  Fe47      1.0  0.92129  0.94885  0.05972  1.0000
  C   C469      1.0  0.84657  0.58617  0.14326  1.0000
  C   C470      1.0  0.93185  0.95682  0.00829  1.0000
  H   H828      1.0  0.78208  0.92773  0.14046  1.0000
  C   C471      1.0  0.67793  0.68891  0.30844  1.0000
  H   H829      1.0  0.83465  0.64339  0.30922  1.0000
  C   C472      1.0  0.86027  0.57482  0.16147  1.0000
  C   C473      1.0  0.83871  0.67848  0.31398  1.0000
  N   N27       1.0  0.76226  0.73324  0.31388  1.0000
  C   C474      1.0  0.56538  0.95918  0.12130  1.0000
  H   H830      1.0  0.49444  0.95950  0.07583  1.0000
  C   C475      1.0  0.53113  0.96180  0.10975  1.0000
  H   H831      1.0  0.63153  0.62012  0.32005  1.0000
  H   H832      1.0  0.67255  0.50304  0.27783  1.0000
  H   H833      1.0  0.73479  0.91287  0.16724  1.0000
  H   H834      1.0  0.63952  0.61630  0.29600  1.0000
  H   H835      1.0  0.78031  0.48683  0.23696  1.0000
  C   C476      1.0  0.66059  0.49572  0.24905  1.0000
  C   C477      1.0  0.68339  0.96362  0.30643  1.0000
  H   H836      1.0  0.80358  0.73195  0.27950  1.0000
  H   H837      1.0  0.68096  0.70608  0.29538  1.0000
  C   C478      1.0  0.87496  0.89634  0.15721  1.0000
  H   H838      1.0  0.76977  0.64640  0.31812  1.0000
  H   H839      1.0  0.89705  0.64825  0.17316  1.0000
  N   N28       1.0  0.85405  0.56333  0.12656  1.0000
  H   H840      1.0  0.81143  0.88531  0.01508  1.0000
  H   H841      1.0  0.84666  0.86199  0.00938  1.0000
  H   H842      1.0  0.73013  0.95123  0.15148  1.0000
  C   C479      1.0  0.93752  0.91760  0.00459  1.0000
  H   H843      1.0  0.82073  0.90725  0.15686  1.0000
  H   H844      1.0  0.93505  0.89476  0.01541  1.0000
  H   H845      1.0  0.55485  0.92085  0.12333  1.0000
  H   H846      1.0  0.80697  0.95239  0.26998  1.0000
  H   H847      1.0  0.92463  0.66075  0.12502  1.0000
  H   H848      1.0  0.49976  0.94307  0.11707  1.0000
  C   C480      1.0  0.72314  0.91401  0.15347  1.0000
  H   H849      1.0  0.67251  0.70962  0.31934  1.0000
  H   H850      1.0  0.69452  0.95651  0.31935  1.0000
  H   H851      1.0  0.80374  0.96101  0.24624  1.0000
  C   C481      1.0  0.83107  0.50951  0.12916  1.0000
  H   H852      1.0  0.60771  0.64169  0.30424  1.0000
  H   H853      1.0  0.80269  0.97465  0.09672  1.0000
  H   H854      1.0  0.59766  0.97668  0.11459  1.0000
  H   H855      1.0  0.71340  0.66681  0.32541  1.0000
  H   H856      1.0  0.86566  0.49212  0.10816  1.0000
  H   H857      1.0  0.79612  0.49506  0.13259  1.0000
  C   C482      1.0  0.81687  0.97996  0.25959  1.0000
  N   N29       1.0  0.60800  0.74153  0.59066  1.0000
  S   S101      1.0  0.51506  0.80249  0.64033  1.0000
  C   C483      1.0  0.69764  0.90985  0.46372  1.0000
  C   C484      1.0  0.55068  0.76681  0.59752  1.0000
  H   H858      1.0  0.68939  0.89432  0.43514  1.0000
  C   C485      1.0  0.72944  0.81639  0.57454  1.0000
  Fe  Fe48      1.0  0.58458  0.82522  0.64826  1.0000
  S   S102      1.0  0.63820  0.87593  0.62919  1.0000
  S   S103      1.0  0.56783  0.74955  0.65336  1.0000
  C   C486      1.0  0.92837  0.92801  0.47795  1.0000
  H   H859      1.0  0.75521  0.50987  0.38994  1.0000
  Fe  Fe49      1.0  0.91178  0.88692  0.39286  1.0000
  C   C487      1.0  0.77317  0.54666  0.39657  1.0000
  S   S104      1.0  0.89908  0.81165  0.38566  1.0000
  C   C488      1.0  0.64855  0.75743  0.57957  1.0000
  Fe  Fe50      1.0  0.94300  0.95564  0.56284  1.0000
  S   S105      1.0  0.86655  0.90650  0.40683  1.0000
  H   H860      1.0  0.52412  0.59201  0.58433  1.0000
  S   S106      1.0  0.83151  0.96374  0.36983  1.0000
  S   S107      1.0  0.91219  0.89802  0.58355  1.0000
  C   C489      1.0  0.84569  0.62336  0.39934  1.0000
  Fe  Fe51      1.0  0.88862  0.94327  0.59746  1.0000
  S   S108      1.0  0.82498  0.90060  0.61322  1.0000
  H   H861      1.0  0.66658  0.71852  0.60772  1.0000
  Fe  Fe52      1.0  0.70354  0.56920  0.34355  1.0000
  S   S109      1.0  0.75853  0.55829  0.33530  1.0000
  S   S110      1.0  0.71277  0.63423  0.36039  1.0000
  H   H862      1.0  0.83928  0.95344  0.65672  1.0000
  C   C490      1.0  0.84701  0.76309  0.37855  1.0000
  C   C491      1.0  0.84406  0.72230  0.36969  1.0000
  C   C492      1.0  0.80314  0.68264  0.36407  1.0000
  C   C493      1.0  0.76474  0.68312  0.36747  1.0000
  C   C494      1.0  0.76765  0.72375  0.37643  1.0000
  C   C495      1.0  0.80863  0.76376  0.38184  1.0000
  H   H863      1.0  0.87364  0.72162  0.36703  1.0000
  H   H864      1.0  0.80132  0.65212  0.35684  1.0000
  H   H865      1.0  0.73808  0.72441  0.37914  1.0000
  H   H866      1.0  0.81050  0.79484  0.38876  1.0000
  H   H867      1.0  0.76947  0.95456  0.44423  1.0000
  H   H868      1.0  0.68711  0.83655  0.64597  1.0000
  H   H869      1.0  0.77419  0.85334  0.34415  1.0000
  C   C496      1.0  0.93650  0.94679  0.51080  1.0000
  H   H870      1.0  0.64114  0.75959  0.56512  1.0000
  H   H871      1.0  0.89918  0.70300  0.42226  1.0000
  S   S111      1.0  0.92865  0.93885  0.37057  1.0000
  C   C497      1.0  0.59482  0.77886  0.58885  1.0000
  H   H872      1.0  0.67645  0.93880  0.44327  1.0000
  C   C498      1.0  0.69077  0.88379  0.62543  1.0000
  C   C499      1.0  0.70676  0.85998  0.63539  1.0000
  C   C500      1.0  0.74812  0.86615  0.63156  1.0000
  C   C501      1.0  0.77420  0.89647  0.61786  1.0000
  C   C502      1.0  0.75866  0.92119  0.60816  1.0000
  C   C503      1.0  0.71713  0.91476  0.61192  1.0000
  H   H873      1.0  0.80409  0.61768  0.42253  1.0000
  H   H874      1.0  0.75987  0.84693  0.63917  1.0000
  H   H875      1.0  0.77808  0.94427  0.59749  1.0000
  H   H876      1.0  0.70511  0.93350  0.60418  1.0000
  H   H877      1.0  0.73824  0.78864  0.57693  1.0000
  C   C504      1.0  0.84039  0.54487  0.40123  1.0000
  H   H878      1.0  0.66352  0.88105  0.46652  1.0000
  S   S112      1.0  0.97063  0.93856  0.41039  1.0000
  H   H879      1.0  0.88157  0.63953  0.39765  1.0000
  H   H880      1.0  0.58495  0.72366  0.61791  1.0000
  H   H881      1.0  0.81560  0.59444  0.36612  1.0000
  C   C505      1.0  0.83912  0.63227  0.41951  1.0000
  H   H882      1.0  0.74758  0.57194  0.37535  1.0000
  C   C506      1.0  0.87255  0.58806  0.36506  1.0000
  H   H883      1.0  0.71119  0.84346  0.40014  1.0000
  H   H884      1.0  0.55284  0.76573  0.61242  1.0000
  H   H885      1.0  0.76799  0.54062  0.41130  1.0000
  H   H886      1.0  0.88503  0.56509  0.36978  1.0000
  H   H887      1.0  0.70115  0.54806  0.41190  1.0000
  H   H888      1.0  0.61204  0.66940  0.61258  1.0000
  H   H889      1.0  0.52299  0.73153  0.59241  1.0000
  H   H890      1.0  0.74985  0.87934  0.38313  1.0000
  H   H891      1.0  0.74464  0.74129  0.34128  1.0000
  H   H892      1.0  0.92327  0.90308  0.46677  1.0000
  H   H893      1.0  0.68436  0.56370  0.39156  1.0000
  H   H894      1.0  0.90593  0.59736  0.33959  1.0000
  C   C507      1.0  0.54086  0.60718  0.57145  1.0000
  H   H895      1.0  0.71941  0.89502  0.46552  1.0000
  H   H896      1.0  0.76412  0.84887  0.39917  1.0000
  H   H897      1.0  0.85195  0.61524  0.42841  1.0000
  C   C508      1.0  0.76564  0.91278  0.41039  1.0000
  H   H898      1.0  0.93511  0.60133  0.57022  1.0000
  H   H899      1.0  0.59295  0.78558  0.57429  1.0000
  H   H900      1.0  0.55272  0.69918  0.57216  1.0000
  H   H901      1.0  0.83409  0.54294  0.41599  1.0000
  H   H902      1.0  0.92855  0.88151  0.49820  1.0000
  H   H903      1.0  0.65897  0.73049  0.57954  1.0000
  Fe  Fe53      1.0  0.49800  0.72794  0.64737  1.0000
  C   C509      1.0  0.82591  0.57083  0.37212  1.0000
  C   C510      1.0  0.58208  0.65666  0.57501  1.0000
  H   H904      1.0  0.70742  0.94046  0.47365  1.0000
  C   C511      1.0  0.93114  0.91572  0.49586  1.0000
  H   H905      1.0  0.83715  0.64567  0.39113  1.0000
  H   H906      1.0  0.76484  0.61016  0.39554  1.0000
  C   C512      1.0  0.74356  0.94260  0.40746  1.0000
  H   H907      1.0  0.70746  0.91737  0.40665  1.0000
  C   C513      1.0  0.57052  0.69350  0.58328  1.0000
  C   C514      1.0  0.93143  0.97200  0.47460  1.0000
  C   C515      1.0  0.80231  0.80971  0.33558  1.0000
  H   H908      1.0  0.61994  0.81420  0.59522  1.0000
  H   H909      1.0  0.50726  0.79532  0.59940  1.0000
  H   H910      1.0  0.56462  0.84095  0.59937  1.0000
  C   C516      1.0  0.86347  0.68638  0.42449  1.0000
  C   C517      1.0  0.74638  0.86845  0.39739  1.0000
  H   H911      1.0  0.87672  0.56516  0.40021  1.0000
  H   H912      1.0  0.51782  0.60996  0.56217  1.0000
  H   H913      1.0  0.66315  0.69191  0.63845  1.0000
  N   N30       1.0  0.82129  0.57143  0.39235  1.0000
  H   H914      1.0  0.54563  0.67521  0.59392  1.0000
  H   H915      1.0  0.68376  0.83679  0.58332  1.0000
  C   C518      1.0  0.53931  0.80518  0.59342  1.0000
  C   C519      1.0  0.87246  0.58571  0.34439  1.0000
  H   H916      1.0  0.63718  0.77593  0.61669  1.0000
  H   H917      1.0  0.85849  0.69213  0.43897  1.0000
  H   H918      1.0  0.76142  0.89956  0.42427  1.0000
  H   H919      1.0  0.75791  0.85220  0.57882  1.0000
  H   H920      1.0  0.69778  0.80715  0.59992  1.0000
  C   C520      1.0  0.61618  0.73900  0.61047  1.0000
  C   C521      1.0  0.63634  0.70819  0.61530  1.0000
  C   C522      1.0  0.68939  0.80660  0.58548  1.0000
  C   C523      1.0  0.74885  0.57218  0.39032  1.0000
  C   C524      1.0  0.64865  0.71424  0.63539  1.0000
  H   H921      1.0  0.59840  0.66936  0.56184  1.0000
  H   H922      1.0  0.60440  0.65178  0.58383  1.0000
  H   H923      1.0  0.89585  0.62600  0.36962  1.0000
  H   H924      1.0  0.72314  0.81671  0.55987  1.0000
  Fe  Fe54      1.0  0.92647  0.96225  0.42286  1.0000
  H   H925      1.0  0.69058  0.97456  0.41752  1.0000
  H   H926      1.0  0.85088  0.70492  0.41621  1.0000
  C   C525      1.0  0.70169  0.54616  0.39690  1.0000
  S   S113      1.0  0.93932  0.92858  0.53313  1.0000
  C   C526      1.0  0.96986  0.63124  0.57036  1.0000
  H   H927      1.0  0.80098  0.93517  0.40757  1.0000
  H   H928      1.0  0.67322  0.75252  0.63908  1.0000
  H   H929      1.0  0.75785  0.95948  0.35218  1.0000
  H   H930      1.0  0.68384  0.50771  0.39203  1.0000
  H   H931      1.0  0.75267  0.95638  0.39361  1.0000
  C   C527      1.0  0.70009  0.92631  0.44442  1.0000
  H   H932      1.0  0.61922  0.70221  0.64381  1.0000
  H   H933      1.0  0.53678  0.80785  0.57861  1.0000
  H   H934      1.0  0.54991  0.58193  0.56508  1.0000
  Fe  Fe55      1.0  0.88660  0.96202  0.38543  1.0000
  H   H935      1.0  0.88022  0.96870  0.63989  1.0000
  H   H936      1.0  0.77613  0.81649  0.36154  1.0000
  H   H937      1.0  0.80322  0.53425  0.36602  1.0000
  H   H938      1.0  0.80185  0.72320  0.33336  1.0000
  H   H939      1.0  0.95979  0.67237  0.59134  1.0000
  H   H940      1.0  0.86224  0.61004  0.33887  1.0000
  H   H941      1.0  0.82529  0.80037  0.34173  1.0000
  C   C528      1.0  0.79377  0.83897  0.34994  1.0000
  S   S114      1.0  0.65908  0.49213  0.35154  1.0000
  C   C529      1.0  0.75884  0.76350  0.32917  1.0000
  C   C530      1.0  0.87456  0.97716  0.65386  1.0000
  H   H942      1.0  0.88155  0.49050  0.40029  1.0000
  H   H943      1.0  0.84977  0.54819  0.33908  1.0000
  H   H944      1.0  0.82547  0.87000  0.35509  1.0000
  H   H945      1.0  0.84801  0.68433  0.32856  1.0000
  C   C531      1.0  0.82244  0.49207  0.39404  1.0000
  H   H946      1.0  0.82686  0.49004  0.37927  1.0000
  C   C532      1.0  0.74721  0.96730  0.44020  1.0000
  H   H947      1.0  0.72581  0.97648  0.64276  1.0000
  Fe  Fe56      1.0  0.55416  0.76463  0.68173  1.0000
  S   S115      1.0  0.57311  0.73925  0.70620  1.0000
  H   H948      1.0  0.79790  0.90333  0.93437  1.0000
  C   C533      1.0  0.79034  0.83628  0.99116  1.0000
  S   S116      1.0  0.51638  0.73294  0.85461  1.0000
  Fe  Fe57      1.0  0.50446  0.75652  0.80451  1.0000
  S   S117      1.0  0.53573  0.81559  0.82597  1.0000
  H   H949      1.0  0.94214  0.80255  0.91826  1.0000
  Fe  Fe58      1.0  0.57026  0.77754  0.83522  1.0000
  S   S118      1.0  0.64565  0.82367  0.83694  1.0000
  C   C534      1.0  0.88718  0.75041  0.89114  1.0000
  H   H950      1.0  0.84749  0.89693  0.97947  1.0000
  S   S119      1.0  0.54101  0.72035  0.81254  1.0000
  H   H951      1.0  0.69867  0.81589  0.78478  1.0000
  S   S120      1.0  0.91683  0.93991  0.87035  1.0000
  H   H952      1.0  0.80990  0.93784  0.76560  1.0000
  S   S121      1.0  0.90600  0.87106  0.90355  1.0000
  H   H953      1.0  0.68262  0.93309  0.74614  1.0000
  C   C535      1.0  0.65760  0.88654  0.72214  1.0000
  Fe  Fe59      1.0  0.87059  0.90685  0.89340  1.0000
  S   S122      1.0  0.79546  0.86269  0.89507  1.0000
  Fe  Fe60      1.0  0.48468  0.67887  0.83124  1.0000
  H   H954      1.0  0.87359  0.95544  0.94796  1.0000
  H   H955      1.0  0.68775  0.88494  0.72008  1.0000
  H   H956      1.0  0.63775  0.92399  0.77294  1.0000
  H   H957      1.0  0.64221  0.75412  0.80434  1.0000
  C   C536      1.0  0.75443  0.85199  0.87857  1.0000
  C   C537      1.0  0.70991  0.82157  0.88268  1.0000
  C   C538      1.0  0.67620  0.81222  0.87016  1.0000
  C   C539      1.0  0.68656  0.83338  0.85331  1.0000
  C   C540      1.0  0.73108  0.86377  0.84919  1.0000
  C   C541      1.0  0.76478  0.87299  0.86169  1.0000
  H   H958      1.0  0.70137  0.80508  0.89563  1.0000
  H   H959      1.0  0.64224  0.78882  0.87358  1.0000
  H   H960      1.0  0.73962  0.88044  0.83624  1.0000
  H   H961      1.0  0.79874  0.89651  0.85828  1.0000
  C   C542      1.0  0.55346  0.75153  0.72622  1.0000
  C   C543      1.0  0.53650  0.78204  0.72612  1.0000
  Fe  Fe61      1.0  0.47958  0.76596  0.84310  1.0000
  C   C544      1.0  0.51965  0.76912  0.75801  1.0000
  C   C545      1.0  0.53667  0.73857  0.75819  1.0000
  C   C546      1.0  0.55404  0.73022  0.74233  1.0000
  H   H962      1.0  0.53598  0.79871  0.71378  1.0000
  H   H963      1.0  0.86543  0.71738  0.88271  1.0000
  H   H964      1.0  0.53610  0.72115  0.77048  1.0000
  H   H965      1.0  0.56722  0.70661  0.74245  1.0000
  Fe  Fe62      1.0  0.50510  0.81237  0.66972  1.0000
  H   H966      1.0  0.62872  0.85147  0.71751  1.0000
  H   H967      1.0  0.60739  0.72436  0.78454  1.0000
  C   C547      1.0  0.84539  0.95765  0.95296  1.0000
  H   H968      1.0  0.77478  0.91444  0.95398  1.0000
  N   N31       1.0  0.79824  0.86527  0.95793  1.0000
  C   C548      1.0  0.75101  0.82485  0.95589  1.0000
  C   C549      1.0  0.81116  0.87797  0.97775  1.0000
  H   H969      1.0  0.50921  0.64506  0.68509  1.0000
  C   C550      1.0  0.82892  0.85318  0.94820  1.0000
  C   C551      1.0  0.82869  0.80770  0.95423  1.0000
  C   C552      1.0  0.73296  0.80840  0.93622  1.0000
  Fe  Fe63      1.0  0.94672  0.93758  0.92135  1.0000
  H   H970      1.0  0.86992  0.74958  0.90376  1.0000
  C   C553      1.0  0.85380  0.79354  0.94113  1.0000
  C   C554      1.0  0.68545  0.76646  0.93608  1.0000
  C   C555      1.0  0.52010  0.79121  0.74201  1.0000
  H   H971      1.0  0.72950  0.83562  0.96299  1.0000
  H   H972      1.0  0.74526  0.79203  0.96258  1.0000
  C   C556      1.0  0.78529  0.93828  0.77473  1.0000
  H   H973      1.0  0.92172  0.71837  0.90187  1.0000
  C   C557      1.0  0.65345  0.89778  0.74203  1.0000
  H   H974      1.0  0.50714  0.81502  0.74180  1.0000
  H   H975      1.0  0.82284  0.84995  0.93332  1.0000
  H   H976      1.0  0.86334  0.88335  0.94998  1.0000
  H   H977      1.0  0.79510  0.77603  0.95487  1.0000
  H   H978      1.0  0.84517  0.81528  0.96769  1.0000
  H   H979      1.0  0.60604  0.93739  0.81931  1.0000
  H   H980      1.0  0.75231  0.79584  0.92855  1.0000
  H   H981      1.0  0.73347  0.83809  0.92894  1.0000
  H   H982      1.0  0.61894  0.96370  0.79743  1.0000
  H   H983      1.0  0.62404  0.90133  0.74309  1.0000
  H   H984      1.0  0.85326  0.76102  0.94585  1.0000
  H   H985      1.0  0.83844  0.78511  0.92740  1.0000
  H   H986      1.0  0.88846  0.82320  0.94042  1.0000
  H   H987      1.0  0.66417  0.77761  0.94303  1.0000
  H   H988      1.0  0.67333  0.75505  0.92191  1.0000
  H   H989      1.0  0.68295  0.73499  0.94282  1.0000
  H   H990      1.0  0.73903  0.91959  0.75297  1.0000
  H   H991      1.0  0.65948  0.72816  0.78665  1.0000
  H   H992      1.0  0.79280  0.80485  0.98655  1.0000
  N   N32       1.0  0.65677  0.87022  0.77418  1.0000
  C   C558      1.0  0.64807  0.85706  0.75423  1.0000
  C   C559      1.0  0.64179  0.82479  0.78439  1.0000
  C   C560      1.0  0.62860  0.89057  0.78014  1.0000
  C   C561      1.0  0.70421  0.90722  0.77863  1.0000
  C   C562      1.0  0.73935  0.90606  0.76650  1.0000
  C   C563      1.0  0.94551  0.90721  0.98677  1.0000
  C   C564      1.0  0.63121  0.90471  0.80058  1.0000
  C   C565      1.0  0.66412  0.79544  0.77986  1.0000
  C   C566      1.0  0.64180  0.74764  0.78946  1.0000
  C   C567      1.0  0.93003  0.75231  0.89543  1.0000
  H   H993      1.0  0.93157  0.66975  0.95481  1.0000
  H   H994      1.0  0.66554  0.92983  0.80520  1.0000
  H   H995      1.0  0.61400  0.82651  0.75198  1.0000
  H   H996      1.0  0.66878  0.84332  0.74878  1.0000
  H   H997      1.0  0.64766  0.83334  0.79912  1.0000
  H   H998      1.0  0.60569  0.80023  0.78261  1.0000
  H   H999      1.0  0.59347  0.86444  0.77652  1.0000
  H   H1000     1.0  0.65933  0.91517  0.71369  1.0000
  H   H1001     1.0  0.79294  0.97612  0.77661  1.0000
  H   H1002     1.0  0.71194  0.90430  0.79296  1.0000
  S   S123      1.0  0.57601  0.84215  0.67732  1.0000
  H   H1003     1.0  0.73385  0.86931  0.76441  1.0000
  C   C568      1.0  0.94728  0.93529  0.97229  1.0000
  H   H1004     1.0  0.95002  0.87691  0.98416  1.0000
  C   C569      1.0  0.80181  0.90895  0.94936  1.0000
  H   H1005     1.0  0.61734  0.87241  0.80885  1.0000
  H   H1006     1.0  0.66277  0.78653  0.76521  1.0000
  H   H1007     1.0  0.89364  0.78219  0.88341  1.0000
  H   H1008     1.0  0.71019  0.94453  0.77789  1.0000
  C   C570      1.0  0.60496  0.92930  0.80454  1.0000
  H   H1009     1.0  0.57013  0.90515  0.80024  1.0000
  H   H1010     1.0  0.94566  0.75312  0.88232  1.0000
  H   H1011     1.0  0.80169  0.90402  0.98305  1.0000
  S   S124      1.0  0.49519  0.77855  0.77706  1.0000
  H   H1012     1.0  0.75505  0.82382  0.99272  1.0000
  H   H1013     1.0  0.92597  0.71804  0.93131  1.0000
  H   H1014     1.0  0.85116  0.96815  0.96758  1.0000
  Fe  Fe64      1.0  0.95518  0.90820  0.88181  1.0000
  H   H1015     1.0  0.78797  0.92490  0.78802  1.0000
  C   C571      1.0  0.94124  0.97424  0.97595  1.0000
  H   H1016     1.0  0.49011  0.62597  0.76907  1.0000
  H   H1017     1.0  0.47743  0.64191  0.73763  1.0000
  S   S125      1.0  0.48301  0.73613  0.67609  1.0000
  S   S126      1.0  0.90891  0.97154  0.91238  1.0000
  S   S127      1.0  0.95859  0.92092  0.95016  1.0000
  H   H1018     1.0  0.95647  0.54401  0.82339  1.0000
  H   H1019     1.0  0.47657  0.67155  0.70962  1.0000
  H   H1020     1.0  0.94724  0.72913  0.96383  1.0000
  C   C572      1.0  0.47522  0.61705  0.68090  1.0000
  C   C573      1.0  0.96151  0.79786  0.90738  1.0000
  C   C574      1.0  0.95664  0.70878  0.95429  1.0000
  C   C575      1.0  0.95909  0.72541  0.93502  1.0000
  H   H1021     1.0  0.88959  0.92512  0.66401  1.0000
  H   H1022     1.0  0.89454  0.96960  0.68080  1.0000
  S   S128      1.0  0.97075  0.85989  0.86357  1.0000
  H   H1023     1.0  0.96764  0.70325  0.92613  1.0000
  C   C576      1.0  0.90037  0.96384  0.66643  1.0000
  H   H1024     1.0  0.47602  0.58654  0.67391  1.0000
