data_image0
_chemical_formula_structural       SH2CS2FeCFeSH2SFeSFeS2H2CSC7H6SCH7CFeCHFeH4C3H10CH2CH2CHFeC6NCH6SC3H2CH6FeH7C2HCH3C2HC2H9SH4CSNCH4C3NHC2H11C3HC2H2CHCH3C2HCHCHNH2CHCH2SH3CH2C2HNHC4HCHC2H3CHC3H2CHC3H9C2H3CH3SCHC2HCHS2CFeSH2CFeSCSFeS2FeSH2SHS2C3HSHCHC2H2C6H2CH3CHC2SHC2H7C2HFeCHSH2C2H2CHFeCHFeH3FeC2HSCH4SH3SH6CH2CH3FeHCNH5C3HNH3NHSHCH4C2SHCHC4H5FeH3NCH2C3HCHC2HCH2CH5C2H2CH5CH3CFeH3CHCH2CH3CHC3HCH5CHCH3C2HSH2C2HFeS2FeS2FeSFeHS2FeS2H2FeHS2FeSCH3CH3C3H2C5H2CHCH2C2H3CH3C2HCSC6H3C2HFeH9CHC2NC7HCH20C2HCH2CHSH7CH6CHC2H2CHCH5CH4CHCHCH5CH6FeH3SHCH2NC8SH3SCHCH2SH2C3HCHNHSHC2H3SHCH2FeSH2FeSH3FeS2FeSCFeSFeS3CHC6H4C6HNH2CH2CH2C2H2CHSH2C6H3NC4HC3H3CH14CSCH3CH9CHSHCHCH2C4H4FeH2CHCHCH5CH2C2H3C3HCHC2H2CH13NC4HC2H10CHC2H4CH2SHSHNCHCHCHNHSHC2H4SHCH3C2H3CH2C2H3C2HCH2CNH2CH2CH2C2H6FeHC2S2H8C2H4SFeHSCH2SHSFeHSC2HFeSHSHCH2SHCFeH2S2FeSHCSFeSFeSHSHC4FeC3H2C4H2C7H6CH2CSHCH2C2NHC2H4C2H2C7H5CH2C2HCFeH4SHCH2NHC3HCH7CFeH2SC3H3C2HFeH3S2H3CH2CHCH3CH3CHCH2FeC2H3CH4CHCH8CSH5C3HCFeHNHC2H3CHCSH2CFeH4CH6C2H8CHCH2NCHCHCH5CH5CH7CH3SH2C2H5CH3CNH2FeCSFeS3FeHS2H2FeHSFeS2Fe2HS2H2FeHFeS3FeS2HFeSH2CH4C2HC4NSH4CH2CHC2SHC3H4CHSHC6H3CHC2HSHCH2C6H4C5H3SHCHC3HCH5CHCHCH2S2H3CHSHCH7CHCHCHCNHNH3CH4CSHNC7H18CH2CHC3HC2HCHSH4CHC2FeH5CHCHC2FeC2H3C4H4NCH3CH2CH3CHC2HCHC2HCFeH2CHCH5CHCSCH5CHC3H6CHCH13C2NH2CH3CH3C4H4CH7C2H4C2H2CHCH4C3H5CH2C2H6CHCH3CH2CH4SC2HC2HCHCSHFeSFeS2FeS2FeSFeS3HCH2C2HC6H4C6H3C4HCH11CHC4H2C2HCH2CH3CH2CH4C3H5CHC3H2CH3C2H5C2H2NHCH3NCH4NCH7CHSH2CH2C3HSH6CHCH3C2H3CH3CH7C2H3CNFeS2FeS2FeCFeS2C3H4C4H2C8H7C2H2CHNH3CHC2H2CH2C3HCH2CHCSHCH3CH3CH3CH10SH2SH13C2H3SH2CH2C2HC3HCH2C2NH5CH3CH3C2SFeSHFeS2Fe2S3C7H4C6H3CHC2H8CH18C2H3C3HCSH2C2H5CH3CFeHC2HCH3C2SHCH5CNCH2CH2CHCNHCH2CH2C3HCHC2H8CH4C2NHCH2CHNH2C2H3SH2CH3CH2C2HCSH7C2H4C2HC2HC2H4C2H4C2SNH3CH2CH2CH3SCSFe2S2CFeSHSFeSC6H5CH6CH2C6HCH2C6H5CH7CH2CHC2HCFeCH3CH3CHCH2CH4CHCH5C2H4C2HCNC2HCHCHC2H6SH5CH3CH7C2H4NH2SH2NCH2CH3CH5C3HNH4FeSHFeS2FeHFeS3CHFeS2FeS2FeSFeS3H3FeS2FeSFeCS2CHCH5C6H4C6H4C6H5C6H4SHC3H2C2HCH2CHCH9CH2C2NCHCH3C3H8C2HCH8CH3CHCHCH4SHCHC2H2C3H5C2H6CH4FeH3C2H3CNSHCHCHCH6CH3C2H2CH2CH2CHCHC2HC2NCHNH4CH2C2H10C2NHCH2CHCH2CH2C2H9CH3CH3SCNH4CHC2HNCHCH5C2HCH7CH4C3HC2H12NCH6CH2C2HSHC2H3C3H2FeS2FeS2FeSFeS3FeS2FeSHFeSFeS2FeSCFeS2FeHFeS3H2C6H4CH2C6H4C3H2C6H6CH8CH2CSHCH4C2H2CH2C2H6CHC3HCH3CH5CH4CHCH3CHCNH2CHNHC2HC4H5CHC2H6CH4CHC2H4CH3CH9C2SH5C2H2C2NC2H4CH6CHCH4CHC2HCH2CH5CH2C3H4CH3CHC3H2CH2C2H5NHNH3C2HSH2SFe2S2FeNFeS2HSHFeS2FeS2FeSFeS3C6H4C7H3C6H5NCSFeCHCHCHC6H3CHC3H4CH3SHCH13CHC2H4C2HCHCH6C2HCH2CH3CH2SH2C2HSCH3CH3CH5CH5CH3CHCHCH3CH2CH6NHC6HC3H5C2H8C2HCH4FeHCH5CHC2HCHSH2NC2H3C2H3CH2SH2FeS2FeS2FeHFeS2HFeSH2C3H2CHCHC6H6C2H3CH7NH2C2H5CH2CHC2HC2H3SH2CH2CH3C2H4NC7H3C2H14NH8C2H2SCNC4HCHCH7CH4CH5CHCHCH3CSHCH2CHC4HCS2H2CHC2H3CHC3H2NC6FeHC3H4CH8SH3SH7CH7C2HCHC3HCHFeSCFeS2FeCFeS2HFeSCH2C3H2C2H2SCSH3C6H4CH2SCH2SH3FeHSC2H4CHCHC2HCH2C3FeCSHCH5C2H5CHCH3CH6CSCH2CH2CH4CH9C2H2CH2CHCH2CH4CNH2CHC3H2CHFeHNH4CSH2CHC2H4CH5CSCFeSCSCHCHC2SH3CHCH5FeS2FeS2FeSFeS3HSCHSHCFeS2FeSHFeSFe3S2C6H3C3H6CH2CHC7H9C6H6CH2FeCH2CHC2SH3CH2CHFeHCHCH6CH2CH2CHCH10C2HNC7HC2H18CH3C2H6C2HC4H2NC8HC3H16CNH3SH3NCH6SCHCH2CSHCH2CHCSCH4C2H2C2H2CHCH2CH2
_chemical_formula_sum              "S288 H2304 C1296 Fe144 N72"
_cell_length_a       58.4391
_cell_length_b       58.4705
_cell_length_c       33.8104
_cell_angle_alpha    90.7045
_cell_angle_beta     89.9662
_cell_angle_gamma    117.419

_space_group_name_H-M_alt    "P 1"
_space_group_IT_number       1

loop_
  _space_group_symop_operation_xyz
  'x, y, z'

loop_
  _atom_site_type_symbol
  _atom_site_label
  _atom_site_symmetry_multiplicity
  _atom_site_fract_x
  _atom_site_fract_y
  _atom_site_fract_z
  _atom_site_occupancy
  S   S1        1.0  0.19122  0.20341  0.43283  1.0000
  H   H1        1.0  0.14581  0.44676  0.41187  1.0000
  H   H2        1.0  0.04571  0.16793  0.11152  1.0000
  C   C1        1.0  0.03920  0.18067  0.05346  1.0000
  S   S2        1.0  0.19887  0.26284  0.43314  1.0000
  S   S3        1.0  0.19000  0.18720  0.06595  1.0000
  Fe  Fe1       1.0  0.20229  0.22370  0.03149  1.0000
  C   C2        1.0  0.22434  0.12896  0.18474  1.0000
  Fe  Fe2       1.0  0.16246  0.46529  0.18439  1.0000
  S   S4        1.0  0.14263  0.43120  0.22386  1.0000
  H   H3        1.0  0.14930  0.23354  0.38667  1.0000
  H   H4        1.0  0.03714  0.42048  0.33634  1.0000
  S   S5        1.0  0.09482  0.44542  0.23023  1.0000
  Fe  Fe3       1.0  0.13222  0.45686  0.26285  1.0000
  S   S6        1.0  0.13712  0.45411  0.33029  1.0000
  Fe  Fe4       1.0  0.10677  0.42244  0.18835  1.0000
  S   S7        1.0  0.07978  0.38054  0.16949  1.0000
  S   S8        1.0  0.12700  0.45544  0.14729  1.0000
  H   H5        1.0  0.03804  0.18900  0.46806  1.0000
  H   H6        1.0  0.01687  0.20680  0.07027  1.0000
  C   C3        1.0  0.21533  0.12767  0.25842  1.0000
  S   S9        1.0  0.20535  0.24028  0.32762  1.0000
  C   C4        1.0  0.22112  0.07324  0.98575  1.0000
  C   C5        1.0  0.07376  0.36622  0.12120  1.0000
  C   C6        1.0  0.06051  0.33917  0.11725  1.0000
  C   C7        1.0  0.05487  0.32698  0.07961  1.0000
  C   C8        1.0  0.06205  0.34173  0.04529  1.0000
  C   C9        1.0  0.07528  0.36878  0.04923  1.0000
  C   C10       1.0  0.08126  0.38095  0.08687  1.0000
  H   H7        1.0  0.05461  0.32755  0.14357  1.0000
  H   H8        1.0  0.04483  0.30619  0.07721  1.0000
  H   H9        1.0  0.08093  0.38044  0.02296  1.0000
  H   H10       1.0  0.09127  0.40176  0.08932  1.0000
  H   H11       1.0  0.99312  0.40334  0.32885  1.0000
  H   H12       1.0  0.07548  0.41505  0.45650  1.0000
  S   S10       1.0  0.18038  0.24720  0.02161  1.0000
  C   C11       1.0  0.12653  0.46266  0.37540  1.0000
  H   H13       1.0  0.04212  0.42516  0.27227  1.0000
  H   H14       1.0  0.17836  0.46093  0.06541  1.0000
  H   H15       1.0  0.04647  0.08787  0.30688  1.0000
  H   H16       1.0  0.13745  0.19697  0.99884  1.0000
  H   H17       1.0  0.04081  0.11198  0.36239  1.0000
  H   H18       1.0  0.08824  0.18969  0.07745  1.0000
  H   H19       1.0  0.98321  0.36116  0.37195  1.0000
  C   C12       1.0  0.12602  0.46261  0.44835  1.0000
  Fe  Fe5       1.0  0.21138  0.23859  0.39476  1.0000
  C   C13       1.0  0.97682  0.18692  0.05679  1.0000
  H   H20       1.0  0.20510  0.29342  0.07622  1.0000
  Fe  Fe6       1.0  0.11796  0.47954  0.19115  1.0000
  H   H21       1.0  0.15244  0.13224  0.10920  1.0000
  H   H22       1.0  0.19943  0.31401  0.04236  1.0000
  H   H23       1.0  0.04794  0.19930  0.03754  1.0000
  H   H24       1.0  0.10540  0.16759  0.46653  1.0000
  C   C14       1.0  0.20467  0.11508  0.21815  1.0000
  C   C15       1.0  0.03539  0.40237  0.34884  1.0000
  C   C16       1.0  0.99860  0.33534  0.25789  1.0000
  H   H25       1.0  0.03853  0.45253  0.22159  1.0000
  H   H26       1.0  0.16423  0.44393  0.01951  1.0000
  H   H27       1.0  0.05030  0.14916  0.39249  1.0000
  H   H28       1.0  0.10026  0.26317  0.45026  1.0000
  H   H29       1.0  0.09508  0.12031  0.38460  1.0000
  H   H30       1.0  0.04017  0.38213  0.29762  1.0000
  H   H31       1.0  0.19794  0.39753  0.12678  1.0000
  H   H32       1.0  0.15107  0.12124  0.05883  1.0000
  H   H33       1.0  0.02583  0.36701  0.07471  1.0000
  H   H34       1.0  0.99919  0.18195  0.10412  1.0000
  C   C17       1.0  0.10319  0.48136  0.41266  1.0000
  H   H35       1.0  0.10525  0.48022  0.34857  1.0000
  H   H36       1.0  0.98440  0.22280  0.08738  1.0000
  C   C18       1.0  0.21372  0.39116  0.07291  1.0000
  H   H37       1.0  0.07850  0.09540  0.32342  1.0000
  H   H38       1.0  0.18247  0.41521  0.04089  1.0000
  C   C19       1.0  0.09795  0.14848  0.45161  1.0000
  H   H39       1.0  0.18500  0.10861  0.07235  1.0000
  Fe  Fe7       1.0  0.21186  0.17658  0.01988  1.0000
  C   C20       1.0  0.18834  0.32018  0.44571  1.0000
  C   C21       1.0  0.15525  0.11825  0.08986  1.0000
  C   C22       1.0  0.21279  0.31343  0.06522  1.0000
  C   C23       1.0  0.98287  0.38293  0.31887  1.0000
  C   C24       1.0  0.05911  0.09213  0.33336  1.0000
  C   C25       1.0  0.11394  0.24907  0.98918  1.0000
  N   N1        1.0  0.21558  0.11920  0.14300  1.0000
  C   C26       1.0  0.99898  0.14259  0.06966  1.0000
  H   H40       1.0  0.06136  0.39009  0.37746  1.0000
  H   H41       1.0  0.99903  0.32287  0.08306  1.0000
  H   H42       1.0  0.00845  0.13119  0.05799  1.0000
  H   H43       1.0  0.14146  0.09830  0.09831  1.0000
  H   H44       1.0  0.17478  0.37234  0.18168  1.0000
  H   H45       1.0  0.04678  0.13240  0.43760  1.0000
  S   S11       1.0  0.02442  0.24790  0.00319  1.0000
  C   C27       1.0  0.13924  0.25589  0.00231  1.0000
  C   C28       1.0  0.21254  0.22753  0.20987  1.0000
  C   C29       1.0  0.02442  0.37956  0.31853  1.0000
  H   H46       1.0  0.01978  0.38385  0.23903  1.0000
  H   H47       1.0  0.00339  0.14475  0.10189  1.0000
  C   C30       1.0  0.08034  0.20095  0.09417  1.0000
  H   H48       1.0  0.20778  0.32135  0.44236  1.0000
  H   H49       1.0  0.09041  0.17315  0.36326  1.0000
  H   H50       1.0  0.02713  0.41464  0.03451  1.0000
  H   H51       1.0  0.98524  0.34833  0.11913  1.0000
  H   H52       1.0  0.01228  0.18621  0.99386  1.0000
  H   H53       1.0  0.13561  0.39240  0.16321  1.0000
  Fe  Fe8       1.0  0.18148  0.22892  0.47319  1.0000
  H   H54       1.0  0.18877  0.45516  0.28839  1.0000
  H   H55       1.0  0.05307  0.41345  0.06180  1.0000
  H   H56       1.0  0.19583  0.24664  0.24612  1.0000
  H   H57       1.0  0.07613  0.41370  0.33900  1.0000
  H   H58       1.0  0.20904  0.37656  0.04891  1.0000
  H   H59       1.0  0.11667  0.35463  0.04754  1.0000
  H   H60       1.0  0.00259  0.12930  0.99271  1.0000
  C   C31       1.0  0.15847  0.36617  0.04836  1.0000
  C   C32       1.0  0.06206  0.40755  0.36370  1.0000
  H   H61       1.0  0.11259  0.12018  0.44399  1.0000
  C   C33       1.0  0.19046  0.38392  0.10113  1.0000
  H   H62       1.0  0.21954  0.41030  0.05959  1.0000
  H   H63       1.0  0.11283  0.20246  0.42496  1.0000
  H   H64       1.0  0.18629  0.11592  0.21349  1.0000
  C   C34       1.0  0.98721  0.32013  0.05588  1.0000
  C   C35       1.0  0.98344  0.30594  0.25587  1.0000
  H   H65       1.0  0.13606  0.25148  0.45496  1.0000
  C   C36       1.0  0.03575  0.40199  0.04318  1.0000
  C   C37       1.0  0.14606  0.37445  0.11450  1.0000
  H   H66       1.0  0.05079  0.07514  0.35300  1.0000
  H   H67       1.0  0.08668  0.21984  0.07957  1.0000
  H   H68       1.0  0.12812  0.37430  0.10356  1.0000
  H   H69       1.0  0.16211  0.38748  0.21568  1.0000
  H   H70       1.0  0.15217  0.27580  0.00954  1.0000
  H   H71       1.0  0.01208  0.38674  0.09418  1.0000
  H   H72       1.0  0.04412  0.19799  0.11352  1.0000
  H   H73       1.0  0.02098  0.36216  0.33581  1.0000
  H   H74       1.0  0.14077  0.35688  0.19341  1.0000
  S   S12       1.0  0.19945  0.47667  0.14856  1.0000
  H   H75       1.0  0.99303  0.29820  0.23518  1.0000
  H   H76       1.0  0.07194  0.19099  0.42387  1.0000
  H   H77       1.0  0.13566  0.37942  0.01261  1.0000
  H   H78       1.0  0.01844  0.34060  0.26827  1.0000
  C   C38       1.0  0.11053  0.47510  0.44909  1.0000
  S   S13       1.0  0.97921  0.21937  0.47806  1.0000
  N   N2        1.0  0.16692  0.38446  0.08356  1.0000
  C   C39       1.0  0.00737  0.38962  0.25720  1.0000
  H   H79       1.0  0.04664  0.16832  0.03885  1.0000
  H   H80       1.0  0.98045  0.19609  0.02734  1.0000
  H   H81       1.0  0.08848  0.20454  0.12462  1.0000
  H   H82       1.0  0.07370  0.17730  0.47085  1.0000
  C   C40       1.0  0.13322  0.36153  0.02706  1.0000
  C   C41       1.0  0.22443  0.44897  0.17557  1.0000
  C   C42       1.0  0.06267  0.17385  0.44297  1.0000
  N   N3        1.0  0.01015  0.16865  0.05050  1.0000
  H   H83       1.0  0.14511  0.45155  0.05401  1.0000
  C   C43       1.0  0.18297  0.12234  0.09293  1.0000
  C   C44       1.0  0.20333  0.47506  0.29653  1.0000
  H   H84       1.0  0.18994  0.13631  0.15221  1.0000
  H   H85       1.0  0.12102  0.21904  0.35575  1.0000
  H   H86       1.0  0.21255  0.47433  0.32488  1.0000
  H   H87       1.0  0.00150  0.32644  0.03133  1.0000
  H   H88       1.0  0.06897  0.42329  0.38625  1.0000
  H   H89       1.0  0.17336  0.37324  0.02489  1.0000
  H   H90       1.0  0.17400  0.10200  0.14846  1.0000
  H   H91       1.0  0.99960  0.34235  0.22726  1.0000
  H   H92       1.0  0.18503  0.07324  0.09121  1.0000
  H   H93       1.0  0.13717  0.19242  0.41996  1.0000
  H   H94       1.0  0.02262  0.39785  0.37498  1.0000
  C   C45       1.0  0.98607  0.27616  0.05335  1.0000
  C   C46       1.0  0.22491  0.46799  0.15042  1.0000
  C   C47       1.0  0.98522  0.34683  0.28565  1.0000
  H   H95       1.0  0.11401  0.16225  0.36650  1.0000
  C   C48       1.0  0.02623  0.43136  0.21912  1.0000
  C   C49       1.0  0.00164  0.18636  0.07197  1.0000
  H   H96       1.0  0.20802  0.43878  0.19457  1.0000
  H   H97       1.0  0.16886  0.40942  0.15188  1.0000
  C   C50       1.0  0.15794  0.37566  0.18813  1.0000
  H   H98       1.0  0.00735  0.42760  0.20611  1.0000
  C   C51       1.0  0.17406  0.41171  0.07112  1.0000
  H   H99       1.0  0.03572  0.33355  0.48118  1.0000
  H   H100      1.0  0.06685  0.10617  0.41423  1.0000
  H   H101      1.0  0.02612  0.15496  0.47462  1.0000
  C   C52       1.0  0.13388  0.45644  0.41186  1.0000
  C   C53       1.0  0.15231  0.41995  0.07200  1.0000
  H   H102      1.0  0.03599  0.42350  0.19892  1.0000
  C   C54       1.0  0.03603  0.17100  0.45364  1.0000
  H   H103      1.0  0.14601  0.20897  0.35125  1.0000
  C   C55       1.0  0.20463  0.11200  0.99133  1.0000
  H   H104      1.0  0.20116  0.11719  0.28189  1.0000
  N   N4        1.0  0.00043  0.37522  0.29573  1.0000
  H   H105      1.0  0.13439  0.40560  0.05764  1.0000
  H   H106      1.0  0.19583  0.14206  0.08249  1.0000
  C   C56       1.0  0.16061  0.44566  0.05138  1.0000
  H   H107      1.0  0.02390  0.16743  0.42673  1.0000
  C   C57       1.0  0.05089  0.18621  0.09581  1.0000
  H   H108      1.0  0.18980  0.33964  0.44178  1.0000
  H   H109      1.0  0.10759  0.26367  0.98631  1.0000
  S   S14       1.0  0.05460  0.32763  0.99688  1.0000
  H   H110      1.0  0.14757  0.42248  0.10299  1.0000
  H   H111      1.0  0.14006  0.35374  0.12038  1.0000
  H   H112      1.0  0.04196  0.39531  0.01625  1.0000
  C   C58       1.0  0.19016  0.11960  0.13610  1.0000
  H   H113      1.0  0.12211  0.32208  0.00725  1.0000
  H   H114      1.0  0.06895  0.13237  0.33412  1.0000
  C   C59       1.0  0.20560  0.07923  0.09802  1.0000
  C   C60       1.0  0.01642  0.37899  0.06658  1.0000
  H   H115      1.0  0.15634  0.34698  0.05734  1.0000
  N   N5        1.0  0.08498  0.14794  0.41267  1.0000
  H   H116      1.0  0.98955  0.38450  0.23937  1.0000
  C   C61       1.0  0.06032  0.14959  0.42065  1.0000
  C   C62       1.0  0.07752  0.12205  0.39306  1.0000
  C   C63       1.0  0.10228  0.16887  0.38485  1.0000
  C   C64       1.0  0.12198  0.19484  0.40374  1.0000
  H   H117      1.0  0.18972  0.42605  0.09041  1.0000
  C   C65       1.0  0.06082  0.11602  0.35492  1.0000
  H   H118      1.0  0.20670  0.23250  0.18225  1.0000
  C   C66       1.0  0.02258  0.41936  0.26007  1.0000
  C   C67       1.0  0.13531  0.21524  0.37228  1.0000
  H   H119      1.0  0.13373  0.15140  0.42466  1.0000
  H   H120      1.0  0.04678  0.29737  0.47687  1.0000
  H   H121      1.0  0.19689  0.07900  0.15935  1.0000
  C   C68       1.0  0.20635  0.23551  0.24627  1.0000
  H   H122      1.0  0.18530  0.36443  0.11299  1.0000
  C   C69       1.0  0.12620  0.34099  0.99444  1.0000
  C   C70       1.0  0.20911  0.05490  0.09617  1.0000
  C   C71       1.0  0.21351  0.22916  0.28275  1.0000
  H   H123      1.0  0.99355  0.27804  0.08405  1.0000
  H   H124      1.0  0.17557  0.30716  0.42215  1.0000
  C   C72       1.0  0.14802  0.23723  0.00578  1.0000
  H   H125      1.0  0.98091  0.37506  0.04038  1.0000
  C   C73       1.0  0.00332  0.16663  0.00707  1.0000
  C   C74       1.0  0.15257  0.38976  0.15439  1.0000
  C   C75       1.0  0.12040  0.14126  0.44919  1.0000
  H   H126      1.0  0.98257  0.29759  0.28553  1.0000
  H   H127      1.0  0.08360  0.13489  0.47271  1.0000
  H   H128      1.0  0.01258  0.42770  0.27864  1.0000
  H   H129      1.0  0.98041  0.33522  0.31309  1.0000
  H   H130      1.0  0.98234  0.15922  0.00273  1.0000
  H   H131      1.0  0.00251  0.28379  0.03246  1.0000
  H   H132      1.0  0.19712  0.04092  0.11883  1.0000
  H   H133      1.0  0.21355  0.32613  0.09039  1.0000
  H   H134      1.0  0.20043  0.09458  0.21991  1.0000
  C   C76       1.0  0.11111  0.47523  0.37614  1.0000
  C   C77       1.0  0.21247  0.09215  0.13956  1.0000
  H   H135      1.0  0.20308  0.04558  0.06652  1.0000
  H   H136      1.0  0.21888  0.29787  0.34302  1.0000
  H   H137      1.0  0.21881  0.14803  0.25887  1.0000
  C   C78       1.0  0.13103  0.21154  0.99637  1.0000
  H   H138      1.0  0.03543  0.37704  0.47472  1.0000
  H   H139      1.0  0.13200  0.45773  0.47590  1.0000
  H   H140      1.0  0.21776  0.09213  0.07460  1.0000
  S   S15       1.0  0.19336  0.13560  0.99328  1.0000
  C   C79       1.0  0.99127  0.36313  0.04246  1.0000
  H   H141      1.0  0.99730  0.36146  0.01176  1.0000
  C   C80       1.0  0.11994  0.24308  0.47499  1.0000
  C   C81       1.0  0.09954  0.24958  0.47228  1.0000
  H   H142      1.0  0.22285  0.30198  0.99409  1.0000
  C   C82       1.0  0.21162  0.36533  0.58596  1.0000
  H   H143      1.0  0.07065  0.32464  0.50401  1.0000
  S   S16       1.0  0.09077  0.44080  0.59385  1.0000
  S   S17       1.0  0.14729  0.44029  0.65289  1.0000
  C   C83       1.0  0.18710  0.08625  0.98195  1.0000
  Fe  Fe9       1.0  0.07050  0.45511  0.63680  1.0000
  S   S18       1.0  0.02880  0.42874  0.65549  1.0000
  H   H144      1.0  0.18142  0.04722  0.97269  1.0000
  H   H145      1.0  0.98390  0.32464  0.53463  1.0000
  C   C84       1.0  0.20330  0.99698  0.73915  1.0000
  Fe  Fe10      1.0  0.04389  0.23781  0.95295  1.0000
  S   S19       1.0  0.05954  0.27660  0.92438  1.0000
  C   C85       1.0  0.06292  0.33380  0.88526  1.0000
  S   S20       1.0  0.97531  0.20981  0.66128  1.0000
  Fe  Fe11      1.0  0.02233  0.25991  0.88895  1.0000
  S   S21       1.0  0.01858  0.27192  0.82541  1.0000
  S   S22       1.0  0.00810  0.22026  0.91404  1.0000
  Fe  Fe12      1.0  0.01264  0.23019  0.52031  1.0000
  S   S23       1.0  0.00040  0.25397  0.56010  1.0000
  H   H146      1.0  0.08606  0.42076  0.50719  1.0000
  H   H147      1.0  0.19940  0.15660  0.49941  1.0000
  S   S24       1.0  0.05306  0.24761  0.49288  1.0000
  H   H148      1.0  0.06124  0.21255  0.54587  1.0000
  S   S25       1.0  0.20910  0.01667  0.56841  1.0000
  S   S26       1.0  0.06511  0.21369  0.96173  1.0000
  C   C86       1.0  0.03470  0.36902  0.78749  1.0000
  C   C87       1.0  0.05179  0.38416  0.49590  1.0000
  C   C88       1.0  0.00786  0.25440  0.77959  1.0000
  H   H149      1.0  0.18343  0.99336  0.74102  1.0000
  S   S27       1.0  0.20817  0.07853  0.52733  1.0000
  H   H150      1.0  0.03996  0.36244  0.68825  1.0000
  C   C89       1.0  0.21670  0.00548  0.70313  1.0000
  H   H151      1.0  0.99543  0.30714  0.79050  1.0000
  C   C90       1.0  0.19013  0.43385  0.66946  1.0000
  C   C91       1.0  0.03168  0.32065  0.50668  1.0000
  H   H152      1.0  0.21953  0.19612  0.56038  1.0000
  H   H153      1.0  0.19853  0.07307  0.80042  1.0000
  C   C92       1.0  0.99139  0.41160  0.77960  1.0000
  C   C93       1.0  0.01824  0.42677  0.77564  1.0000
  C   C94       1.0  0.02997  0.43235  0.73803  1.0000
  C   C95       1.0  0.01501  0.42270  0.70374  1.0000
  C   C96       1.0  0.98819  0.40745  0.70770  1.0000
  C   C97       1.0  0.00349  0.36909  0.88897  1.0000
  H   H154      1.0  0.03007  0.43439  0.80186  1.0000
  H   H155      1.0  0.05059  0.44396  0.73551  1.0000
  C   C98       1.0  0.00840  0.26780  0.74491  1.0000
  H   H156      1.0  0.16445  0.24220  0.59372  1.0000
  H   H157      1.0  0.00804  0.47552  0.62588  1.0000
  H   H158      1.0  0.16704  0.08116  0.97682  1.0000
  C   C99       1.0  0.21694  0.09437  0.87128  1.0000
  H   H159      1.0  0.19876  0.25257  0.59073  1.0000
  C   C100      1.0  0.20373  0.12244  0.51125  1.0000
  C   C101      1.0  0.03010  0.33975  0.84335  1.0000
  S   S28       1.0  0.17876  0.98870  0.92158  1.0000
  H   H160      1.0  0.14640  0.00415  0.86768  1.0000
  C   C102      1.0  0.21275  0.14861  0.50163  1.0000
  C   C103      1.0  0.98855  0.21447  0.74056  1.0000
  H   H161      1.0  0.03680  0.33071  0.81986  1.0000
  H   H162      1.0  0.09606  0.27027  0.56893  1.0000
  H   H163      1.0  0.04729  0.31553  0.89634  1.0000
  H   H164      1.0  0.12803  0.02134  0.87680  1.0000
  H   H165      1.0  0.06369  0.37420  0.49008  1.0000
  H   H166      1.0  0.98065  0.33102  0.84002  1.0000
  H   H167      1.0  0.02467  0.37839  0.77129  1.0000
  C   C104      1.0  0.18111  0.45101  0.65615  1.0000
  C   C105      1.0  0.03381  0.33448  0.54713  1.0000
  H   H168      1.0  0.07779  0.34251  0.90886  1.0000
  Fe  Fe13      1.0  0.98989  0.23306  0.96206  1.0000
  C   C106      1.0  0.04261  0.38008  0.53935  1.0000
  H   H169      1.0  0.97959  0.48156  0.78416  1.0000
  S   S29       1.0  0.22126  0.21182  0.98281  1.0000
  H   H170      1.0  0.07182  0.32961  0.85893  1.0000
  H   H171      1.0  0.11223  0.29727  0.60216  1.0000
  C   C107      1.0  0.11923  0.22556  0.50337  1.0000
  C   C108      1.0  0.99221  0.34097  0.81368  1.0000
  H   H172      1.0  0.19788  0.04565  0.90211  1.0000
  H   H173      1.0  0.17638  0.41443  0.67718  1.0000
  C   C109      1.0  0.19463  0.32729  0.51982  1.0000
  H   H174      1.0  0.19979  0.41933  0.79095  1.0000
  Fe  Fe14      1.0  0.03821  0.28607  0.97260  1.0000
  C   C110      1.0  0.07516  0.40038  0.75193  1.0000
  H   H175      1.0  0.18336  0.11044  0.51620  1.0000
  Fe  Fe15      1.0  0.21295  0.00744  0.96193  1.0000
  H   H176      1.0  0.07481  0.38025  0.80408  1.0000
  H   H177      1.0  0.09511  0.41607  0.75623  1.0000
  H   H178      1.0  0.01417  0.47377  0.75334  1.0000
  Fe  Fe16      1.0  0.12608  0.46263  0.63234  1.0000
  C   C111      1.0  0.03580  0.36012  0.62440  1.0000
  C   C112      1.0  0.99858  0.34400  0.52460  1.0000
  H   H179      1.0  0.01419  0.32311  0.85828  1.0000
  S   S30       1.0  0.21743  0.24168  0.51041  1.0000
  C   C113      1.0  0.19528  0.04725  0.86976  1.0000
  H   H180      1.0  0.14622  0.16875  0.49286  1.0000
  H   H181      1.0  0.19415  0.02935  0.85599  1.0000
  H   H182      1.0  0.04798  0.29648  0.52998  1.0000
  H   H183      1.0  0.13746  0.28114  0.53478  1.0000
  S   S31       1.0  0.10479  0.47459  0.67701  1.0000
  H   H184      1.0  0.99972  0.26532  0.68208  1.0000
  H   H185      1.0  0.01176  0.30470  0.50284  1.0000
  H   H186      1.0  0.06802  0.37035  0.86520  1.0000
  S   S32       1.0  0.14378  0.21574  0.50728  1.0000
  H   H187      1.0  0.98393  0.35358  0.80276  1.0000
  H   H188      1.0  0.20861  0.09020  0.90162  1.0000
  H   H189      1.0  0.01610  0.28851  0.74621  1.0000
  H   H190      1.0  0.05152  0.38009  0.62133  1.0000
  H   H191      1.0  0.19394  0.34585  0.51636  1.0000
  H   H192      1.0  0.06033  0.38592  0.55755  1.0000
  C   C114      1.0  0.99923  0.25470  0.70831  1.0000
  H   H193      1.0  0.01679  0.37202  0.66992  1.0000
  H   H194      1.0  0.00727  0.13506  0.92061  1.0000
  C   C115      1.0  0.20792  0.33732  0.58880  1.0000
  H   H195      1.0  0.02405  0.31844  0.56843  1.0000
  H   H196      1.0  0.06552  0.40568  0.81122  1.0000
  H   H197      1.0  0.05449  0.34420  0.55631  1.0000
  Fe  Fe17      1.0  0.97777  0.21732  0.59390  1.0000
  H   H198      1.0  0.98606  0.45900  0.81165  1.0000
  C   C116      1.0  0.01120  0.39032  0.92054  1.0000
  N   N6        1.0  0.02026  0.35707  0.82502  1.0000
  H   H199      1.0  0.11037  0.30239  0.54968  1.0000
  H   H200      1.0  0.21492  0.33144  0.51339  1.0000
  H   H201      1.0  0.09726  0.20124  0.55114  1.0000
  H   H202      1.0  0.07760  0.47567  0.78951  1.0000
  H   H203      1.0  0.03471  0.35393  0.76715  1.0000
  C   C117      1.0  0.09801  0.21479  0.52903  1.0000
  C   C118      1.0  0.00122  0.14730  0.93872  1.0000
  C   C119      1.0  0.98902  0.22784  0.70587  1.0000
  H   H204      1.0  0.07611  0.38526  0.73282  1.0000
  N   N7        1.0  0.02263  0.35325  0.54986  1.0000
  H   H205      1.0  0.20767  0.29450  0.62251  1.0000
  H   H206      1.0  0.03572  0.39443  0.54717  1.0000
  H   H207      1.0  0.21726  0.37456  0.64920  1.0000
  N   N8        1.0  0.21794  0.07086  0.85372  1.0000
  H   H208      1.0  0.03046  0.39508  0.93311  1.0000
  S   S33       1.0  0.00233  0.27200  0.93540  1.0000
  H   H209      1.0  0.12312  0.13835  0.51320  1.0000
  C   C120      1.0  0.02459  0.35803  0.66588  1.0000
  H   H210      1.0  0.04425  0.35620  0.90268  1.0000
  H   H211      1.0  0.00901  0.33822  0.67101  1.0000
  H   H212      1.0  0.99398  0.32801  0.75271  1.0000
  H   H213      1.0  0.06377  0.40846  0.73655  1.0000
  C   C121      1.0  0.07749  0.22109  0.52604  1.0000
  C   C122      1.0  0.01467  0.35396  0.59228  1.0000
  S   S34       1.0  0.99201  0.19427  0.55600  1.0000
  H   H214      1.0  0.00310  0.35177  0.90267  1.0000
  C   C123      1.0  0.05190  0.35207  0.87492  1.0000
  H   H215      1.0  0.00801  0.36883  0.59657  1.0000
  C   C124      1.0  0.21533  0.99320  0.77282  1.0000
  C   C125      1.0  0.06335  0.38928  0.79202  1.0000
  C   C126      1.0  0.16833  0.04595  0.86352  1.0000
  C   C127      1.0  0.14700  0.02172  0.88168  1.0000
  H   H216      1.0  0.14203  0.34663  0.97260  1.0000
  H   H217      1.0  0.04429  0.34663  0.62267  1.0000
  H   H218      1.0  0.01773  0.39216  0.83670  1.0000
  H   H219      1.0  0.16381  0.04544  0.83157  1.0000
  H   H220      1.0  0.16728  0.06271  0.87751  1.0000
  Fe  Fe18      1.0  0.21985  0.99804  0.51801  1.0000
  H   H221      1.0  0.04184  0.38983  0.86424  1.0000
  H   H222      1.0  0.99822  0.21704  0.80288  1.0000
  H   H223      1.0  0.15007  0.02146  0.91407  1.0000
  N   N9        1.0  0.18780  0.31757  0.56153  1.0000
  C   C128      1.0  0.18969  0.29275  0.56486  1.0000
  H   H224      1.0  0.20720  0.00850  0.67776  1.0000
  H   H225      1.0  0.99688  0.38373  0.94481  1.0000
  C   C129      1.0  0.16162  0.31483  0.57304  1.0000
  C   C130      1.0  0.13784  0.28828  0.56524  1.0000
  C   C131      1.0  0.18878  0.28293  0.60754  1.0000
  H   H226      1.0  0.97639  0.39984  0.68144  1.0000
  C   C132      1.0  0.21760  0.41768  0.78435  1.0000
  H   H227      1.0  0.01161  0.40791  0.90765  1.0000
  C   C133      1.0  0.11268  0.28978  0.57197  1.0000
  C   C134      1.0  0.18353  0.25480  0.60744  1.0000
  H   H228      1.0  0.97966  0.36519  0.55308  1.0000
  C   C135      1.0  0.06879  0.41269  0.48761  1.0000
  H   H229      1.0  0.17437  0.27695  0.54734  1.0000
  H   H230      1.0  0.98739  0.17996  0.84957  1.0000
  C   C136      1.0  0.21523  0.06999  0.80923  1.0000
  H   H231      1.0  0.05792  0.42387  0.49215  1.0000
  H   H232      1.0  0.20330  0.33161  0.62023  1.0000
  H   H233      1.0  0.16106  0.31882  0.60526  1.0000
  H   H234      1.0  0.15802  0.32974  0.55802  1.0000
  H   H235      1.0  0.13794  0.27359  0.58561  1.0000
  C   C137      1.0  0.02194  0.37813  0.85294  1.0000
  C   C138      1.0  0.09707  0.22343  0.97924  1.0000
  H   H236      1.0  0.17368  0.28467  0.62532  1.0000
  H   H237      1.0  0.19283  0.36574  0.58559  1.0000
  C   C139      1.0  0.99826  0.22764  0.77693  1.0000
  H   H238      1.0  0.97984  0.13847  0.93808  1.0000
  H   H239      1.0  0.99797  0.33514  0.59985  1.0000
  H   H240      1.0  0.15782  0.30861  0.48775  1.0000
  H   H241      1.0  0.20803  0.29496  0.55147  1.0000
  H   H242      1.0  0.18346  0.24846  0.63828  1.0000
  C   C140      1.0  0.98651  0.31953  0.78204  1.0000
  H   H243      1.0  0.20820  0.21359  0.59231  1.0000
  H   H244      1.0  0.21039  0.05035  0.79756  1.0000
  H   H245      1.0  0.20366  0.09922  0.85376  1.0000
  C   C141      1.0  0.21678  0.44158  0.67279  1.0000
  Fe  Fe19      1.0  0.10359  0.47806  0.56118  1.0000
  H   H246      1.0  0.99913  0.38104  0.51087  1.0000
  H   H247      1.0  0.03222  0.15701  0.97947  1.0000
  H   H248      1.0  0.14676  0.98449  0.55809  1.0000
  C   C142      1.0  0.01099  0.14916  0.98113  1.0000
  H   H249      1.0  0.10862  0.33870  0.97857  1.0000
  C   C143      1.0  0.19910  0.47602  0.64605  1.0000
  H   H250      1.0  0.00953  0.16673  0.92536  1.0000
  H   H251      1.0  0.00229  0.34088  0.49338  1.0000
  C   C144      1.0  0.98574  0.36207  0.52331  1.0000
  H   H252      1.0  0.21392  0.18824  0.61224  1.0000
  H   H253      1.0  0.98086  0.19374  0.73913  1.0000
  H   H254      1.0  0.15363  0.99773  0.60791  1.0000
  C   C145      1.0  0.17721  0.30957  0.48628  1.0000
  H   H255      1.0  0.21707  0.08356  0.73039  1.0000
  C   C146      1.0  0.07811  0.23852  0.49757  1.0000
  C   C147      1.0  0.97643  0.40198  0.74532  1.0000
  C   C148      1.0  0.19523  0.06696  0.97939  1.0000
  H   H256      1.0  0.22227  0.37445  0.55858  1.0000
  C   C149      1.0  0.22077  0.11164  0.51459  1.0000
  H   H257      1.0  0.98355  0.36412  0.87928  1.0000
  H   H258      1.0  0.09290  0.18485  0.97559  1.0000
  H   H259      1.0  0.98167  0.47607  0.90890  1.0000
  H   H260      1.0  0.03558  0.48229  0.68319  1.0000
  H   H261      1.0  0.21941  0.41624  0.75184  1.0000
  C   C150      1.0  0.05042  0.30912  0.50441  1.0000
  H   H262      1.0  0.21592  0.39972  0.79771  1.0000
  C   C151      1.0  0.13592  0.14763  0.48769  1.0000
  H   H263      1.0  0.22343  0.42818  0.68284  1.0000
  H   H264      1.0  0.15053  0.14049  0.48580  1.0000
  H   H265      1.0  0.17530  0.28987  0.48770  1.0000
  C   C152      1.0  0.99421  0.47944  0.80262  1.0000
  C   C153      1.0  0.22094  0.20422  0.59072  1.0000
  H   H266      1.0  0.21860  0.26993  0.95094  1.0000
  S   S35       1.0  0.97788  0.40484  0.82805  1.0000
  H   H267      1.0  0.21960  0.26045  0.88003  1.0000
  H   H268      1.0  0.03229  0.48310  0.79829  1.0000
  C   C154      1.0  0.10573  0.20473  0.98321  1.0000
  C   C155      1.0  0.21893  0.80690  0.17743  1.0000
  H   H269      1.0  0.15724  0.59505  0.19757  1.0000
  Fe  Fe20      1.0  0.11917  0.64920  0.13149  1.0000
  S   S36       1.0  0.08171  0.63434  0.09822  1.0000
  S   S37       1.0  0.13698  0.62483  0.15744  1.0000
  Fe  Fe21      1.0  0.12718  0.70496  0.13050  1.0000
  S   S38       1.0  0.08944  0.69303  0.09825  1.0000
  S   S39       1.0  0.14889  0.74821  0.14517  1.0000
  Fe  Fe22      1.0  0.07248  0.65937  0.13988  1.0000
  S   S40       1.0  0.03108  0.64350  0.16378  1.0000
  Fe  Fe23      1.0  0.10173  0.66926  0.05930  1.0000
  H   H270      1.0  0.02152  0.52731  0.21258  1.0000
  S   S41       1.0  0.10917  0.67299  0.17489  1.0000
  S   S42       1.0  0.14022  0.68251  0.08968  1.0000
  Fe  Fe24      1.0  0.03388  0.79760  0.38243  1.0000
  S   S43       1.0  0.01964  0.82405  0.40982  1.0000
  S   S44       1.0  0.03454  0.78582  0.31707  1.0000
  H   H271      1.0  0.22300  0.89590  0.32928  1.0000
  H   H272      1.0  0.02961  0.63956  0.31051  1.0000
  Fe  Fe25      1.0  0.05472  0.83801  0.45056  1.0000
  H   H273      1.0  0.99043  0.63833  0.45820  1.0000
  S   S45       1.0  0.01272  0.76595  0.42563  1.0000
  S   S46       1.0  0.07039  0.81391  0.41972  1.0000
  Fe  Fe26      1.0  0.01094  0.79202  0.02445  1.0000
  S   S47       1.0  0.97650  0.61044  0.33326  1.0000
  C   C156      1.0  0.00972  0.69700  0.34255  1.0000
  H   H274      1.0  0.03007  0.49091  0.22999  1.0000
  H   H275      1.0  0.01678  0.62964  0.99861  1.0000
  H   H276      1.0  0.97871  0.70724  0.26405  1.0000
  C   C157      1.0  0.00106  0.56353  0.31950  1.0000
  H   H277      1.0  0.21283  0.48557  0.23623  1.0000
  H   H278      1.0  0.08340  0.84173  0.15490  1.0000
  H   H279      1.0  0.16540  0.94578  0.36496  1.0000
  C   C158      1.0  0.01565  0.78402  0.27438  1.0000
  C   C159      1.0  0.02092  0.77515  0.23825  1.0000
  C   C160      1.0  0.00657  0.77321  0.20358  1.0000
  H   H280      1.0  0.03621  0.76969  0.23722  1.0000
  H   H281      1.0  0.01070  0.76606  0.17627  1.0000
  C   C161      1.0  0.98954  0.61991  0.21377  1.0000
  C   C162      1.0  0.01655  0.63440  0.21140  1.0000
  C   C163      1.0  0.03089  0.64130  0.24664  1.0000
  C   C164      1.0  0.01831  0.63389  0.28353  1.0000
  C   C165      1.0  0.98423  0.59990  0.46885  1.0000
  H   H282      1.0  0.05162  0.65264  0.24549  1.0000
  H   H283      1.0  0.09176  0.81125  0.08264  1.0000
  C   C166      1.0  0.02412  0.65045  0.00565  1.0000
  H   H284      1.0  0.05380  0.76292  0.06468  1.0000
  C   C167      1.0  0.11724  0.63971  0.26125  1.0000
  H   H285      1.0  0.10916  0.78078  0.15927  1.0000
  H   H286      1.0  0.06332  0.74642  0.24160  1.0000
  C   C168      1.0  0.18230  0.76592  0.15705  1.0000
  C   C169      1.0  0.19908  0.75497  0.15397  1.0000
  H   H287      1.0  0.20444  0.79011  0.07823  1.0000
  H   H288      1.0  0.98967  0.59746  0.43816  1.0000
  H   H289      1.0  0.02834  0.52689  0.26465  1.0000
  C   C170      1.0  0.19242  0.79197  0.16880  1.0000
  H   H290      1.0  0.19164  0.73498  0.14494  1.0000
  H   H291      1.0  0.09130  0.49107  0.41265  1.0000
  H   H292      1.0  0.17966  0.80066  0.17135  1.0000
  C   C171      1.0  0.98139  0.71714  0.34503  1.0000
  C   C172      1.0  0.18981  0.76057  0.03317  1.0000
  H   H293      1.0  0.01478  0.56093  0.20314  1.0000
  C   C173      1.0  0.99559  0.79079  0.27535  1.0000
  S   S48       1.0  0.05442  0.81006  0.01250  1.0000
  C   C174      1.0  0.12603  0.59089  0.15932  1.0000
  C   C175      1.0  0.10396  0.57314  0.13912  1.0000
  C   C176      1.0  0.09592  0.54643  0.14203  1.0000
  C   C177      1.0  0.10998  0.53706  0.16468  1.0000
  C   C178      1.0  0.13218  0.55483  0.18458  1.0000
  C   C179      1.0  0.14007  0.58152  0.18198  1.0000
  H   H294      1.0  0.09328  0.58001  0.12087  1.0000
  H   H295      1.0  0.07880  0.53292  0.12631  1.0000
  H   H296      1.0  0.14319  0.54801  0.20217  1.0000
  C   C180      1.0  0.02825  0.68523  0.40243  1.0000
  C   C181      1.0  0.07379  0.84346  0.00318  1.0000
  H   H297      1.0  0.22140  0.87520  0.09782  1.0000
  Fe  Fe27      1.0  0.99984  0.79291  0.45482  1.0000
  H   H298      1.0  0.22157  0.81068  0.01434  1.0000
  H   H299      1.0  0.01923  0.71713  0.04786  1.0000
  H   H300      1.0  0.98472  0.67095  0.47871  1.0000
  H   H301      1.0  0.14846  0.91206  0.35026  1.0000
  H   H302      1.0  0.08874  0.75186  0.99018  1.0000
  H   H303      1.0  0.18990  0.93510  0.41539  1.0000
  H   H304      1.0  0.13862  0.82610  0.47769  1.0000
  H   H305      1.0  0.00077  0.57500  0.25953  1.0000
  H   H306      1.0  0.00912  0.65336  0.02188  1.0000
  C   C182      1.0  0.99130  0.61914  0.28580  1.0000
  H   H307      1.0  0.02170  0.59177  0.12764  1.0000
  C   C183      1.0  0.14929  0.79285  0.05492  1.0000
  C   C184      1.0  0.00982  0.56510  0.27657  1.0000
  N   N10       1.0  0.05178  0.57971  0.23400  1.0000
  C   C185      1.0  0.03404  0.57772  0.20014  1.0000
  C   C186      1.0  0.03963  0.58043  0.27337  1.0000
  C   C187      1.0  0.07609  0.60496  0.22984  1.0000
  C   C188      1.0  0.05926  0.55824  0.23285  1.0000
  C   C189      1.0  0.02398  0.57393  0.12661  1.0000
  C   C190      1.0  0.04325  0.57508  0.15811  1.0000
  C   C191      1.0  0.09650  0.61167  0.26336  1.0000
  H   H308      1.0  0.04745  0.70163  0.39626  1.0000
  C   C192      1.0  0.00509  0.69634  0.21200  1.0000
  H   H309      1.0  0.14371  0.79579  0.02478  1.0000
  H   H310      1.0  0.99543  0.67099  0.26170  1.0000
  H   H311      1.0  0.00996  0.72771  0.28170  1.0000
  H   H312      1.0  0.03042  0.59483  0.20055  1.0000
  H   H313      1.0  0.06404  0.72580  0.06472  1.0000
  H   H314      1.0  0.04810  0.57382  0.29744  1.0000
  H   H315      1.0  0.04419  0.60062  0.28163  1.0000
  H   H316      1.0  0.07108  0.62116  0.22750  1.0000
  H   H317      1.0  0.08642  0.60528  0.20210  1.0000
  H   H318      1.0  0.07113  0.55987  0.20628  1.0000
  H   H319      1.0  0.07211  0.56004  0.25821  1.0000
  H   H320      1.0  0.01401  0.68217  0.32813  1.0000
  H   H321      1.0  0.15518  0.52645  0.43985  1.0000
  H   H322      1.0  0.06196  0.59166  0.15123  1.0000
  H   H323      1.0  0.04525  0.55716  0.15517  1.0000
  H   H324      1.0  0.10630  0.59935  0.26038  1.0000
  H   H325      1.0  0.08786  0.60889  0.29319  1.0000
  H   H326      1.0  0.20730  0.88930  0.39581  1.0000
  H   H327      1.0  0.99131  0.79781  0.30269  1.0000
  H   H328      1.0  0.16954  0.80745  0.06080  1.0000
  C   C193      1.0  0.02374  0.71058  0.07615  1.0000
  C   C194      1.0  0.00605  0.69199  0.25631  1.0000
  H   H329      1.0  0.02654  0.69857  0.26471  1.0000
  C   C195      1.0  0.03680  0.53056  0.23456  1.0000
  H   H330      1.0  0.00220  0.54517  0.26487  1.0000
  H   H331      1.0  0.01044  0.71088  0.09942  1.0000
  C   C196      1.0  0.04621  0.51057  0.22618  1.0000
  H   H332      1.0  0.21525  0.84640  0.12443  1.0000
  S   S49       1.0  0.19992  0.97207  0.00004  1.0000
  H   H333      1.0  0.19650  0.74935  0.01387  1.0000
  H   H334      1.0  0.13169  0.64382  0.28514  1.0000
  H   H335      1.0  0.14449  0.92207  0.39927  1.0000
  H   H336      1.0  0.19027  0.90924  0.33586  1.0000
  H   H337      1.0  0.17299  0.90176  0.40147  1.0000
  H   H338      1.0  0.04200  0.75590  0.11336  1.0000
  H   H339      1.0  0.12739  0.64344  0.23247  1.0000
  C   C197      1.0  0.97700  0.61218  0.25060  1.0000
  H   H340      1.0  0.09220  0.74844  0.14375  1.0000
  H   H341      1.0  0.04214  0.85227  0.99586  1.0000
  H   H342      1.0  0.05116  0.83413  0.13928  1.0000
  H   H343      1.0  0.05517  0.71994  0.11623  1.0000
  H   H344      1.0  0.05402  0.79430  0.15243  1.0000
  H   H345      1.0  0.05081  0.75055  0.17326  1.0000
  C   C198      1.0  0.99491  0.70714  0.28098  1.0000
  H   H346      1.0  0.97818  0.61452  0.18683  1.0000
  C   C199      1.0  0.18110  0.92174  0.39017  1.0000
  C   C200      1.0  0.12991  0.89125  0.47833  1.0000
  H   H347      1.0  0.10332  0.75597  0.07794  1.0000
  H   H348      1.0  0.09651  0.75884  0.22690  1.0000
  C   C201      1.0  0.11191  0.90083  0.47750  1.0000
  H   H349      1.0  0.00885  0.58309  0.33309  1.0000
  C   C202      1.0  0.15855  0.92568  0.37502  1.0000
  H   H350      1.0  0.02687  0.66743  0.38806  1.0000
  H   H351      1.0  0.98479  0.68759  0.20144  1.0000
  H   H352      1.0  0.98804  0.67401  0.39380  1.0000
  H   H353      1.0  0.02742  0.71579  0.33897  1.0000
  H   H354      1.0  0.20419  0.94328  0.34034  1.0000
  C   C203      1.0  0.98658  0.78008  0.20452  1.0000
  H   H355      1.0  0.13890  0.79335  0.11519  1.0000
  H   H356      1.0  0.97967  0.55449  0.32056  1.0000
  H   H357      1.0  0.03117  0.57228  0.09683  1.0000
  H   H358      1.0  0.09754  0.77811  0.04886  1.0000
  C   C204      1.0  0.17136  0.53245  0.46134  1.0000
  H   H359      1.0  0.04736  0.79666  0.10130  1.0000
  C   C205      1.0  0.20087  0.92566  0.35688  1.0000
  H   H360      1.0  0.21942  0.84027  0.05296  1.0000
  C   C206      1.0  0.06890  0.83280  0.13087  1.0000
  H   H361      1.0  0.10949  0.84132  0.00882  1.0000
  H   H362      1.0  0.07409  0.78110  0.19403  1.0000
  H   H363      1.0  0.06210  0.51316  0.24670  1.0000
  H   H364      1.0  0.01522  0.68713  0.19554  1.0000
  H   H365      1.0  0.00518  0.71971  0.48297  1.0000
  C   C207      1.0  0.06286  0.85974  0.99510  1.0000
  H   H366      1.0  0.00812  0.70782  0.40470  1.0000
  H   H367      1.0  0.05318  0.51219  0.19527  1.0000
  H   H368      1.0  0.99934  0.73583  0.34735  1.0000
  H   H369      1.0  0.01457  0.71724  0.20559  1.0000
  H   H370      1.0  0.10272  0.81381  0.13241  1.0000
  H   H371      1.0  0.17517  0.74700  0.05383  1.0000
  Fe  Fe28      1.0  0.04776  0.78400  0.46495  1.0000
  H   H372      1.0  0.21511  0.91511  0.42964  1.0000
  H   H373      1.0  0.07234  0.72834  0.20696  1.0000
  H   H374      1.0  0.07642  0.84366  0.10307  1.0000
  S   S50       1.0  0.09834  0.50307  0.16831  1.0000
  H   H375      1.0  0.13377  0.81536  0.08412  1.0000
  C   C208      1.0  0.07621  0.74807  0.21646  1.0000
  H   H376      1.0  0.10859  0.65299  0.26499  1.0000
  H   H377      1.0  0.14820  0.77341  0.05657  1.0000
  N   N11       1.0  0.08385  0.77468  0.10901  1.0000
  C   C209      1.0  0.05732  0.75617  0.09373  1.0000
  C   C210      1.0  0.08656  0.80170  0.11202  1.0000
  C   C211      1.0  0.10317  0.77495  0.07901  1.0000
  C   C212      1.0  0.09004  0.76629  0.14793  1.0000
  C   C213      1.0  0.07117  0.76213  0.18234  1.0000
  C   C214      1.0  0.05178  0.72769  0.08829  1.0000
  C   C215      1.0  0.13164  0.79553  0.08594  1.0000
  C   C216      1.0  0.06243  0.80453  0.12475  1.0000
  S   S51       1.0  0.15504  0.49208  0.22553  1.0000
  H   H378      1.0  0.02040  0.69039  0.07219  1.0000
  H   H379      1.0  0.18055  0.76951  0.01452  1.0000
  H   H380      1.0  0.04124  0.65664  0.02531  1.0000
  S   S52       1.0  0.99515  0.75614  0.06156  1.0000
  C   C217      1.0  0.10080  0.85363  0.00207  1.0000
  H   H381      1.0  0.18895  0.53544  0.44489  1.0000
  C   C218      1.0  0.22254  0.90913  0.40335  1.0000
  H   H382      1.0  0.22099  0.77073  0.07360  1.0000
  H   H383      1.0  0.00491  0.55698  0.13111  1.0000
  S   S53       1.0  0.99142  0.81032  0.06055  1.0000
  H   H384      1.0  0.02653  0.68239  0.43492  1.0000
  H   H385      1.0  0.99216  0.85890  0.09725  1.0000
  C   C219      1.0  0.21238  0.78105  0.05689  1.0000
  C   C220      1.0  0.22335  0.48606  0.26374  1.0000
  C   C221      1.0  0.98112  0.78869  0.24075  1.0000
  H   H386      1.0  0.13742  0.88725  0.99137  1.0000
  C   C222      1.0  0.00678  0.69094  0.38743  1.0000
  H   H387      1.0  0.00762  0.55169  0.33706  1.0000
  N   N12       1.0  0.98692  0.69775  0.32256  1.0000
  H   H388      1.0  0.13687  0.55044  0.48246  1.0000
  S   S54       1.0  0.09300  0.66407  0.99234  1.0000
  H   H389      1.0  0.19312  0.48691  0.30074  1.0000
  C   C223      1.0  0.11669  0.87963  0.99209  1.0000
  C   C224      1.0  0.07873  0.88571  0.98528  1.0000
  H   H390      1.0  0.18058  0.57240  0.45995  1.0000
  H   H391      1.0  0.21983  0.92900  0.28429  1.0000
  H   H392      1.0  0.12349  0.87092  0.47301  1.0000
  S   S55       1.0  0.07842  0.88085  0.46787  1.0000
  H   H393      1.0  0.16679  0.51671  0.48284  1.0000
  C   C225      1.0  0.17590  0.55738  0.48276  1.0000
  H   H394      1.0  0.97554  0.71080  0.37590  1.0000
  H   H395      1.0  0.97639  0.76210  0.35235  1.0000
  Fe  Fe29      1.0  0.11597  0.50964  0.63907  1.0000
  S   S56       1.0  0.13250  0.54916  0.67026  1.0000
  H   H396      1.0  0.09237  0.55801  0.63124  1.0000
  H   H397      1.0  0.18332  0.93654  0.73880  1.0000
  Fe  Fe30      1.0  0.16744  0.95218  0.95584  1.0000
  S   S57       1.0  0.18919  0.93853  0.91519  1.0000
  H   H398      1.0  0.00036  0.64436  0.86055  1.0000
  H   H399      1.0  0.13868  0.79520  0.94349  1.0000
  H   H400      1.0  0.14769  0.87682  0.62798  1.0000
  Fe  Fe31      1.0  0.12814  0.68632  0.69706  1.0000
  S   S58       1.0  0.10495  0.70167  0.73241  1.0000
  S   S59       1.0  0.10786  0.64515  0.67076  1.0000
  Fe  Fe32      1.0  0.17578  0.73978  0.69555  1.0000
  S   S60       1.0  0.15613  0.75803  0.73128  1.0000
  C   C226      1.0  0.14701  0.94420  0.49156  1.0000
  Fe  Fe33      1.0  0.14093  0.72256  0.76964  1.0000
  S   S61       1.0  0.14327  0.73074  0.83710  1.0000
  Fe  Fe34      1.0  0.12184  0.73577  0.69159  1.0000
  S   S62       1.0  0.10181  0.75855  0.66801  1.0000
  S   S63       1.0  0.16339  0.70562  0.73628  1.0000
  S   S64       1.0  0.14219  0.71915  0.65404  1.0000
  C   C227      1.0  0.11942  0.79428  0.93994  1.0000
  H   H401      1.0  0.10772  0.86178  0.56060  1.0000
  C   C228      1.0  0.07428  0.75872  0.54011  1.0000
  C   C229      1.0  0.08504  0.74244  0.55032  1.0000
  C   C230      1.0  0.09373  0.74226  0.58919  1.0000
  C   C231      1.0  0.09160  0.75832  0.61842  1.0000
  C   C232      1.0  0.08103  0.77476  0.60814  1.0000
  C   C233      1.0  0.07243  0.77500  0.56922  1.0000
  H   H402      1.0  0.08661  0.72980  0.52803  1.0000
  H   H403      1.0  0.10176  0.72949  0.59667  1.0000
  H   H404      1.0  0.07932  0.78726  0.63051  1.0000
  H   H405      1.0  0.06426  0.78767  0.56180  1.0000
  C   C234      1.0  0.12984  0.71134  0.87975  1.0000
  C   C235      1.0  0.13858  0.72227  0.91763  1.0000
  C   C236      1.0  0.12805  0.70801  0.95235  1.0000
  C   C237      1.0  0.10815  0.68272  0.94971  1.0000
  C   C238      1.0  0.09923  0.67189  0.91186  1.0000
  C   C239      1.0  0.11016  0.68594  0.87715  1.0000
  H   H406      1.0  0.15378  0.74187  0.92010  1.0000
  N   N13       1.0  0.17875  0.80448  0.56347  1.0000
  H   H407      1.0  0.08393  0.65234  0.90935  1.0000
  H   H408      1.0  0.10324  0.67717  0.84838  1.0000
  C   C240      1.0  0.16103  0.57108  0.57502  1.0000
  H   H409      1.0  0.17211  0.72057  0.57202  1.0000
  H   H410      1.0  0.06230  0.84721  0.87536  1.0000
  C   C241      1.0  0.03877  0.68623  0.88841  1.0000
  H   H411      1.0  0.18602  0.84695  0.61340  1.0000
  H   H412      1.0  0.12917  0.95374  0.63503  1.0000
  C   C242      1.0  0.01463  0.73879  0.94800  1.0000
  C   C243      1.0  0.00829  0.65828  0.93951  1.0000
  H   H413      1.0  0.16613  0.82379  0.86374  1.0000
  H   H414      1.0  0.14337  0.72403  0.56415  1.0000
  C   C244      1.0  0.16240  0.95428  0.60270  1.0000
  H   H415      1.0  0.10651  0.49502  0.76159  1.0000
  S   S65       1.0  0.08034  0.49080  0.60131  1.0000
  H   H416      1.0  0.13519  0.71662  0.98113  1.0000
  H   H417      1.0  0.12377  0.58155  0.50678  1.0000
  C   C245      1.0  0.12626  0.57621  0.66773  1.0000
  C   C246      1.0  0.14249  0.59894  0.68863  1.0000
  C   C247      1.0  0.13763  0.62049  0.68913  1.0000
  C   C248      1.0  0.11629  0.61948  0.66891  1.0000
  C   C249      1.0  0.10025  0.59683  0.64762  1.0000
  C   C250      1.0  0.10522  0.57538  0.64695  1.0000
  H   H418      1.0  0.15880  0.59984  0.70500  1.0000
  H   H419      1.0  0.15009  0.63769  0.70579  1.0000
  H   H420      1.0  0.08361  0.59577  0.63207  1.0000
  N   N14       1.0  0.05373  0.52496  0.73856  1.0000
  C   C251      1.0  0.06960  0.51071  0.74180  1.0000
  C   C252      1.0  0.04415  0.52262  0.69650  1.0000
  C   C253      1.0  0.07149  0.55318  0.74688  1.0000
  C   C254      1.0  0.03155  0.51574  0.76746  1.0000
  H   H421      1.0  0.10919  0.81312  0.50561  1.0000
  C   C255      1.0  0.08523  0.51547  0.78081  1.0000
  C   C256      1.0  0.06005  0.57204  0.73941  1.0000
  C   C257      1.0  0.03176  0.66625  0.96781  1.0000
  H   H422      1.0  0.19100  0.88058  0.91600  1.0000
  H   H423      1.0  0.98898  0.82675  0.59170  1.0000
  H   H424      1.0  0.10603  0.49951  0.81433  1.0000
  C   C258      1.0  0.07669  0.59844  0.75849  1.0000
  H   H425      1.0  0.08378  0.51621  0.71713  1.0000
  H   H426      1.0  0.99385  0.73198  0.95420  1.0000
  H   H427      1.0  0.03290  0.53348  0.69273  1.0000
  H   H428      1.0  0.06089  0.53153  0.67618  1.0000
  H   H429      1.0  0.08937  0.55990  0.72888  1.0000
  H   H430      1.0  0.07809  0.55615  0.77826  1.0000
  H   H431      1.0  0.03768  0.52682  0.79588  1.0000
  H   H432      1.0  0.01599  0.51986  0.75587  1.0000
  H   H433      1.0  0.00781  0.48670  0.69658  1.0000
  H   H434      1.0  0.17696  0.97190  0.61812  1.0000
  H   H435      1.0  0.10268  0.53453  0.77978  1.0000
  H   H436      1.0  0.07371  0.51551  0.80687  1.0000
  H   H437      1.0  0.04028  0.56456  0.75149  1.0000
  H   H438      1.0  0.05929  0.57503  0.70714  1.0000
  C   C259      1.0  0.22340  0.84578  0.56834  1.0000
  S   S66       1.0  0.19865  0.95527  0.49925  1.0000
  C   C260      1.0  0.02641  0.49510  0.68060  1.0000
  H   H439      1.0  0.16046  0.83614  0.97292  1.0000
  H   H440      1.0  0.07000  0.89805  0.97887  1.0000
  H   H441      1.0  0.02604  0.75229  0.97217  1.0000
  C   C261      1.0  0.16502  0.84372  0.94236  1.0000
  H   H442      1.0  0.13232  0.78698  0.51255  1.0000
  H   H443      1.0  0.07728  0.72803  0.81478  1.0000
  H   H444      1.0  0.19297  0.56333  0.50213  1.0000
  H   H445      1.0  0.17702  0.88333  0.96246  1.0000
  H   H446      1.0  0.06938  0.61215  0.74970  1.0000
  H   H447      1.0  0.07612  0.59708  0.79124  1.0000
  H   H448      1.0  0.09700  0.60630  0.74860  1.0000
  H   H449      1.0  0.21273  0.95538  0.65509  1.0000
  H   H450      1.0  0.10757  0.78811  0.85885  1.0000
  C   C262      1.0  0.02071  0.71603  0.94600  1.0000
  H   H451      1.0  0.08772  0.81359  0.94231  1.0000
  S   S67       1.0  0.19711  0.98221  0.81722  1.0000
  H   H452      1.0  0.08118  0.76220  0.92344  1.0000
  C   C263      1.0  0.14923  0.80445  0.86149  1.0000
  H   H453      1.0  0.10343  0.85396  0.90294  1.0000
  C   C264      1.0  0.12414  0.80658  0.86865  1.0000
  H   H454      1.0  0.21292  0.81256  0.52964  1.0000
  H   H455      1.0  0.20061  0.66677  0.54413  1.0000
  C   C265      1.0  0.15626  0.90809  0.48564  1.0000
  C   C266      1.0  0.00392  0.69594  0.91443  1.0000
  C   C267      1.0  0.07959  0.55113  0.54415  1.0000
  C   C268      1.0  0.06342  0.83082  0.88991  1.0000
  H   H456      1.0  0.17410  0.83329  0.92671  1.0000
  H   H457      1.0  0.20350  0.59110  0.56924  1.0000
  H   H458      1.0  0.14407  0.53528  0.52214  1.0000
  H   H459      1.0  0.16719  0.60384  0.48776  1.0000
  Fe  Fe35      1.0  0.22233  0.95987  0.95811  1.0000
  H   H460      1.0  0.10698  0.54375  0.57651  1.0000
  H   H461      1.0  0.98396  0.68731  0.92633  1.0000
  C   C269      1.0  0.19400  0.57134  0.62419  1.0000
  H   H462      1.0  0.16739  0.79223  0.81555  1.0000
  C   C270      1.0  0.19828  0.64996  0.52569  1.0000
  H   H463      1.0  0.01649  0.70699  0.97556  1.0000
  C   C271      1.0  0.16867  0.81803  0.53604  1.0000
  H   H464      1.0  0.13698  0.84128  0.52381  1.0000
  H   H465      1.0  0.98006  0.66521  0.59127  1.0000
  H   H466      1.0  0.13186  0.84947  0.94274  1.0000
  H   H467      1.0  0.99150  0.65629  0.95755  1.0000
  H   H468      1.0  0.18293  0.82936  0.68095  1.0000
  C   C272      1.0  0.16792  0.77679  0.54927  1.0000
  H   H469      1.0  0.15456  0.88241  0.57636  1.0000
  H   H470      1.0  0.18885  0.55626  0.56534  1.0000
  C   C273      1.0  0.99505  0.71816  0.51141  1.0000
  C   C274      1.0  0.16412  0.73200  0.55654  1.0000
  H   H471      1.0  0.14871  0.80726  0.79708  1.0000
  H   H472      1.0  0.05672  0.82987  0.92088  1.0000
  H   H473      1.0  0.17725  0.81969  0.50608  1.0000
  C   C275      1.0  0.18498  0.87211  0.94579  1.0000
  C   C276      1.0  0.10482  0.54927  0.54612  1.0000
  C   C277      1.0  0.13056  0.82256  0.50806  1.0000
  H   H474      1.0  0.14559  0.85325  0.89512  1.0000
  C   C278      1.0  0.14945  0.79406  0.81983  1.0000
  H   H475      1.0  0.05034  0.81273  0.87402  1.0000
  C   C279      1.0  0.17080  0.80460  0.60604  1.0000
  C   C280      1.0  0.09433  0.49509  0.78679  1.0000
  H   H476      1.0  0.17777  0.76138  0.60221  1.0000
  H   H477      1.0  0.15148  0.79131  0.88272  1.0000
  C   C281      1.0  0.15154  0.55382  0.50594  1.0000
  H   H478      1.0  0.00846  0.72049  0.53622  1.0000
  H   H479      1.0  0.13597  0.91083  0.57123  1.0000
  H   H480      1.0  0.06340  0.53260  0.55355  1.0000
  H   H481      1.0  0.12900  0.80016  0.55922  1.0000
  H   H482      1.0  0.21580  0.80741  0.58085  1.0000
  H   H483      1.0  0.21558  0.85726  0.55293  1.0000
  H   H484      1.0  0.11611  0.84054  0.58837  1.0000
  H   H485      1.0  0.15148  0.78802  0.61163  1.0000
  H   H486      1.0  0.10020  0.85671  0.61274  1.0000
  H   H487      1.0  0.15183  0.82946  0.60774  1.0000
  H   H488      1.0  0.18344  0.62387  0.57394  1.0000
  H   H489      1.0  0.19251  0.60233  0.51412  1.0000
  H   H490      1.0  0.18410  0.80138  0.62616  1.0000
  N   N15       1.0  0.16222  0.93042  0.61989  1.0000
  C   C282      1.0  0.13898  0.80505  0.53034  1.0000
  C   C283      1.0  0.16005  0.93206  0.66425  1.0000
  C   C284      1.0  0.16257  0.91126  0.68901  1.0000
  C   C285      1.0  0.13651  0.95576  0.60439  1.0000
  H   H491      1.0  0.15339  0.96459  0.49596  1.0000
  C   C286      1.0  0.14091  0.88134  0.60008  1.0000
  C   C287      1.0  0.16532  0.91840  0.73307  1.0000
  H   H492      1.0  0.05748  0.48966  0.73789  1.0000
  H   H493      1.0  0.12141  0.90366  0.61870  1.0000
  H   H494      1.0  0.08687  0.72238  0.86278  1.0000
  H   H495      1.0  0.17452  0.95130  0.67563  1.0000
  H   H496      1.0  0.14111  0.93091  0.67232  1.0000
  H   H497      1.0  0.17965  0.90881  0.68069  1.0000
  H   H498      1.0  0.14489  0.89260  0.68551  1.0000
  H   H499      1.0  0.05329  0.69692  0.91162  1.0000
  H   H500      1.0  0.12154  0.94043  0.58567  1.0000
  H   H501      1.0  0.16597  0.72999  0.52415  1.0000
  C   C288      1.0  0.11463  0.85880  0.58980  1.0000
  H   H502      1.0  0.04061  0.68683  0.97652  1.0000
  C   C289      1.0  0.13931  0.90712  0.60251  1.0000
  C   C290      1.0  0.16568  0.82857  0.66591  1.0000
  H   H503      1.0  0.16624  0.90284  0.75046  1.0000
  H   H504      1.0  0.18036  0.55238  0.63643  1.0000
  H   H505      1.0  0.14860  0.92095  0.74355  1.0000
  H   H506      1.0  0.17091  0.77596  0.51680  1.0000
  C   C291      1.0  0.97725  0.66961  0.50927  1.0000
  H   H507      1.0  0.01958  0.74942  0.91971  1.0000
  H   H508      1.0  0.15894  0.58454  0.59657  1.0000
  S   S68       1.0  0.97869  0.77509  0.97919  1.0000
  H   H509      1.0  0.03218  0.69634  0.82781  1.0000
  S   S69       1.0  0.14010  0.49916  0.59728  1.0000
  H   H510      1.0  0.98985  0.73419  0.51323  1.0000
  N   N16       1.0  0.11988  0.81355  0.91016  1.0000
  C   C292      1.0  0.13976  0.98157  0.58909  1.0000
  H   H511      1.0  0.00310  0.70616  0.88731  1.0000
  C   C293      1.0  0.01998  0.49557  0.63688  1.0000
  H   H512      1.0  0.14713  0.55166  0.58533  1.0000
  C   C294      1.0  0.04524  0.70517  0.85341  1.0000
  H   H513      1.0  0.21705  0.64944  0.52507  1.0000
  N   N17       1.0  0.15408  0.57542  0.53378  1.0000
  H   H514      1.0  0.11446  0.79912  0.96972  1.0000
  S   S70       1.0  0.21583  0.76080  0.66772  1.0000
  H   H515      1.0  0.12091  0.98190  0.58973  1.0000
  C   C295      1.0  0.12818  0.57535  0.53563  1.0000
  C   C296      1.0  0.16889  0.82887  0.62103  1.0000
  H   H516      1.0  0.17468  0.83809  0.54604  1.0000
  H   H517      1.0  0.99404  0.67356  0.52879  1.0000
  H   H518      1.0  0.21383  0.57356  0.62739  1.0000
  H   H519      1.0  0.07442  0.69685  0.82596  1.0000
  S   S71       1.0  0.12453  0.92870  0.97016  1.0000
  H   H520      1.0  0.20990  0.80644  0.69043  1.0000
  C   C297      1.0  0.09368  0.81293  0.91116  1.0000
  H   H521      1.0  0.16329  0.84554  0.67566  1.0000
  H   H522      1.0  0.00356  0.63830  0.92960  1.0000
  H   H523      1.0  0.15948  0.62742  0.54471  1.0000
  C   C298      1.0  0.99375  0.65838  0.87162  1.0000
  C   C299      1.0  0.20776  0.81646  0.55988  1.0000
  H   H524      1.0  0.14837  0.81083  0.67501  1.0000
  H   H525      1.0  0.09681  0.83564  0.85754  1.0000
  H   H526      1.0  0.19938  0.76684  0.56135  1.0000
  C   C300      1.0  0.07261  0.71359  0.83849  1.0000
  H   H527      1.0  0.14667  0.76649  0.55382  1.0000
  H   H528      1.0  0.12838  0.58940  0.55832  1.0000
  C   C301      1.0  0.17734  0.62522  0.54336  1.0000
  C   C302      1.0  0.18807  0.57279  0.58054  1.0000
  H   H529      1.0  0.04395  0.72278  0.86290  1.0000
  H   H530      1.0  0.04153  0.72383  0.93989  1.0000
  H   H531      1.0  0.99408  0.67008  0.84578  1.0000
  C   C303      1.0  0.21227  0.95356  0.62237  1.0000
  C   C304      1.0  0.17322  0.60127  0.51799  1.0000
  H   H532      1.0  0.98434  0.63037  0.53072  1.0000
  C   C305      1.0  0.18702  0.93027  0.60777  1.0000
  H   H533      1.0  0.18781  0.91271  0.61795  1.0000
  H   H534      1.0  0.07860  0.79456  0.89835  1.0000
  C   C306      1.0  0.14003  0.84057  0.92147  1.0000
  N   N18       1.0  0.01156  0.67520  0.90415  1.0000
  H   H535      1.0  0.16834  0.95632  0.57110  1.0000
  H   H536      1.0  0.08035  0.56673  0.56403  1.0000
  C   C307      1.0  0.10098  0.76553  0.93038  1.0000
  H   H537      1.0  0.18789  0.92934  0.57488  1.0000
  H   H538      1.0  0.10280  0.53350  0.52564  1.0000
  C   C308      1.0  0.01900  0.48690  0.77923  1.0000
  H   H539      1.0  0.13279  0.77467  0.81541  1.0000
  H   H540      1.0  0.12458  0.82110  0.84736  1.0000
  C   C309      1.0  0.16503  0.93471  0.49191  1.0000
  C   C310      1.0  0.09917  0.74839  0.96527  1.0000
  H   H541      1.0  0.10840  0.75903  0.90466  1.0000
  H   H542      1.0  0.08839  0.72780  0.95618  1.0000
  H   H543      1.0  0.03784  0.50443  0.61900  1.0000
  H   H544      1.0  0.07574  0.55497  0.51340  1.0000
  H   H545      1.0  0.00897  0.50660  0.63278  1.0000
  H   H546      1.0  0.04312  0.67026  0.87916  1.0000
  Fe  Fe36      1.0  0.20289  0.97644  0.88339  1.0000
  H   H547      1.0  0.19265  0.58690  0.64168  1.0000
  C   C311      1.0  0.09120  0.83486  0.88898  1.0000
  C   C312      1.0  0.17893  0.76025  0.56956  1.0000
  S   S72       1.0  0.06374  0.75817  0.49064  1.0000
  S   S73       1.0  0.03352  0.80862  0.49767  1.0000
  H   H548      1.0  0.21437  0.97179  0.60957  1.0000
  H   H549      1.0  0.19293  0.65262  0.49519  1.0000
  H   H550      1.0  0.10698  0.93500  0.48402  1.0000
  H   H551      1.0  0.21969  0.50148  0.89175  1.0000
  H   H552      1.0  0.22392  0.84955  0.60065  1.0000
  H   H553      1.0  0.11866  0.75208  0.97541  1.0000
  H   H554      1.0  0.19250  0.48940  0.63564  1.0000
  H   H555      1.0  0.99816  0.49164  0.82971  1.0000
  C   C313      1.0  0.12067  0.92735  0.48460  1.0000
  C   C314      1.0  0.10570  0.89581  0.98334  1.0000
  H   H556      1.0  0.20235  0.87395  0.96181  1.0000
  H   H557      1.0  0.04679  0.66264  0.95295  1.0000
  H   H558      1.0  0.16997  0.90047  0.48586  1.0000
  H   H559      1.0  0.00139  0.60588  0.48834  1.0000
  S   S74       1.0  0.10009  0.48373  0.49426  1.0000
  Fe  Fe37      1.0  0.38072  0.45496  0.13364  1.0000
  H   H560      1.0  0.42218  0.05283  0.40814  1.0000
  S   S75       1.0  0.39911  0.43020  0.15598  1.0000
  C   C315      1.0  0.22611  0.21308  0.20930  1.0000
  H   H561      1.0  0.38162  0.03110  0.09716  1.0000
  H   H562      1.0  0.28797  0.33289  0.04032  1.0000
  S   S76       1.0  0.29304  0.44834  0.15471  1.0000
  H   H563      1.0  0.27318  0.01044  0.04096  1.0000
  S   S77       1.0  0.34518  0.43807  0.09472  1.0000
  Fe  Fe38      1.0  0.44167  0.38561  0.35486  1.0000
  H   H564      1.0  0.28291  0.24530  0.29187  1.0000
  S   S78       1.0  0.41690  0.40408  0.33342  1.0000
  C   C316      1.0  0.45658  0.23222  0.33570  1.0000
  C   C317      1.0  0.23669  0.31587  0.35026  1.0000
  H   H565      1.0  0.43277  0.14631  0.43960  1.0000
  Fe  Fe39      1.0  0.45168  0.33832  0.35534  1.0000
  S   S79       1.0  0.43335  0.29755  0.32792  1.0000
  H   H566      1.0  0.40513  0.25480  0.40576  1.0000
  S   S80       1.0  0.42703  0.35031  0.39334  1.0000
  H   H567      1.0  0.33958  0.31022  0.31484  1.0000
  C   C318      1.0  0.46739  0.45711  0.13463  1.0000
  H   H568      1.0  0.36398  0.00234  0.35714  1.0000
  H   H569      1.0  0.42346  0.40134  0.18761  1.0000
  S   S81       1.0  0.24940  0.25314  0.42682  1.0000
  H   H570      1.0  0.24412  0.19593  0.24588  1.0000
  C   C319      1.0  0.29553  0.24340  0.35058  1.0000
  Fe  Fe40      1.0  0.25743  0.23081  0.01963  1.0000
  H   H571      1.0  0.23243  0.37304  0.10735  1.0000
  H   H572      1.0  0.37710  0.40256  0.06255  1.0000
  S   S82       1.0  0.23934  0.24498  0.06657  1.0000
  S   S83       1.0  0.24913  0.19495  0.05388  1.0000
  Fe  Fe41      1.0  0.45249  0.16974  0.30398  1.0000
  S   S84       1.0  0.41761  0.15125  0.26478  1.0000
  H   H573      1.0  0.31602  0.02603  0.07277  1.0000
  C   C320      1.0  0.38559  0.41464  0.03614  1.0000
  S   S85       1.0  0.43081  0.10301  0.25253  1.0000
  Fe  Fe42      1.0  0.44245  0.14131  0.22369  1.0000
  S   S86       1.0  0.44291  0.15213  0.15837  1.0000
  Fe  Fe43      1.0  0.40885  0.11455  0.29688  1.0000
  S   S87       1.0  0.36750  0.08683  0.31547  1.0000
  H   H574      1.0  0.33876  0.14887  0.29457  1.0000
  S   S88       1.0  0.44232  0.13359  0.33854  1.0000
  H   H575      1.0  0.30085  0.15804  0.09195  1.0000
  C   C321      1.0  0.26042  0.31146  0.34641  1.0000
  C   C322      1.0  0.45066  0.10529  0.07332  1.0000
  C   C323      1.0  0.37160  0.04048  0.20374  1.0000
  C   C324      1.0  0.36106  0.24296  0.00106  1.0000
  Fe  Fe44      1.0  0.46293  0.37209  0.43025  1.0000
  C   C325      1.0  0.26583  0.99349  0.42267  1.0000
  C   C326      1.0  0.44428  0.16719  0.43357  1.0000
  C   C327      1.0  0.44611  0.13829  0.11249  1.0000
  H   H576      1.0  0.40849  0.00282  0.26620  1.0000
  H   H577      1.0  0.37143  0.05829  0.21530  1.0000
  C   C328      1.0  0.45047  0.11750  0.03769  1.0000
  C   C329      1.0  0.44803  0.14021  0.03976  1.0000
  C   C330      1.0  0.22718  0.21480  0.28221  1.0000
  C   C331      1.0  0.44580  0.15045  0.07687  1.0000
  H   H578      1.0  0.29844  0.03205  0.00913  1.0000
  H   H579      1.0  0.25874  0.10412  0.00000  1.0000
  C   C332      1.0  0.33225  0.32896  0.02984  1.0000
  C   C333      1.0  0.35368  0.08136  0.36371  1.0000
  C   C334      1.0  0.32666  0.06837  0.36747  1.0000
  C   C335      1.0  0.31484  0.06286  0.40504  1.0000
  C   C336      1.0  0.32992  0.06976  0.43948  1.0000
  C   C337      1.0  0.35696  0.08299  0.43573  1.0000
  C   C338      1.0  0.36877  0.08892  0.39817  1.0000
  H   H580      1.0  0.31474  0.06251  0.34110  1.0000
  H   H581      1.0  0.29406  0.05303  0.40734  1.0000
  H   H582      1.0  0.39055  0.04565  0.18978  1.0000
  H   H583      1.0  0.38956  0.09878  0.39588  1.0000
  H   H584      1.0  0.38225  0.14153  0.33432  1.0000
  H   H585      1.0  0.27911  0.35569  0.99033  1.0000
  C   C339      1.0  0.37590  0.06026  0.06840  1.0000
  H   H586      1.0  0.40816  0.01940  0.35658  1.0000
  H   H587      1.0  0.25213  0.32177  0.07275  1.0000
  C   C340      1.0  0.36590  0.14617  0.33619  1.0000
  S   S89       1.0  0.36794  0.47990  0.16875  1.0000
  H   H588      1.0  0.35623  0.35974  0.26708  1.0000
  C   C341      1.0  0.35845  0.34803  0.29100  1.0000
  H   H589      1.0  0.39457  0.24406  0.45561  1.0000
  H   H590      1.0  0.28482  0.17782  0.09761  1.0000
  C   C342      1.0  0.44246  0.27257  0.33235  1.0000
  C   C343      1.0  0.28166  0.30278  0.22050  1.0000
  N   N19       1.0  0.28545  0.29728  0.29611  1.0000
  H   H591      1.0  0.24712  0.34271  0.03885  1.0000
  C   C344      1.0  0.43584  0.22949  0.31208  1.0000
  C   C345      1.0  0.42888  0.24958  0.31035  1.0000
  H   H592      1.0  0.35692  0.17602  0.35589  1.0000
  H   H593      1.0  0.44780  0.14983  0.01277  1.0000
  H   H594      1.0  0.42528  0.21197  0.29497  1.0000
  H   H595      1.0  0.41299  0.24742  0.29160  1.0000
  C   C346      1.0  0.26727  0.45662  0.15245  1.0000
  C   C347      1.0  0.24543  0.44325  0.17638  1.0000
  H   H596      1.0  0.42705  0.03777  0.31628  1.0000
  H   H597      1.0  0.38860  0.05147  0.36134  1.0000
  C   C348      1.0  0.27951  0.28930  0.18058  1.0000
  C   C349      1.0  0.40442  0.42377  0.20566  1.0000
  C   C350      1.0  0.39615  0.43293  0.23825  1.0000
  C   C351      1.0  0.40028  0.42685  0.27705  1.0000
  C   C352      1.0  0.41294  0.41178  0.28388  1.0000
  C   C353      1.0  0.42151  0.40289  0.25131  1.0000
  C   C354      1.0  0.41717  0.40876  0.21251  1.0000
  H   H598      1.0  0.38628  0.44444  0.23356  1.0000
  H   H599      1.0  0.39350  0.43379  0.30196  1.0000
  H   H600      1.0  0.43109  0.39111  0.25601  1.0000
  H   H601      1.0  0.26158  0.11939  0.11030  1.0000
  H   H602      1.0  0.29956  0.32139  0.22022  1.0000
  C   C355      1.0  0.28194  0.15815  0.08984  1.0000
  H   H603      1.0  0.23845  0.15743  0.12038  1.0000
  H   H604      1.0  0.34045  0.03079  0.00897  1.0000
  C   C356      1.0  0.39456  0.20326  0.41119  1.0000
  C   C357      1.0  0.29013  0.01284  0.02320  1.0000
  H   H605      1.0  0.25810  0.29641  0.36795  1.0000
  C   C358      1.0  0.37540  0.21479  0.40954  1.0000
  Fe  Fe45      1.0  0.23531  0.27442  0.46832  1.0000
  H   H606      1.0  0.38983  0.09852  0.09434  1.0000
  H   H607      1.0  0.27744  0.32965  0.35536  1.0000
  H   H608      1.0  0.27492  0.15342  0.05885  1.0000
  H   H609      1.0  0.26479  0.30660  0.22278  1.0000
  S   S90       1.0  0.37333  0.46757  0.98619  1.0000
  H   H610      1.0  0.26339  0.26476  0.33385  1.0000
  C   C359      1.0  0.40556  0.16754  0.39928  1.0000
  H   H611      1.0  0.28400  0.99193  0.42516  1.0000
  H   H612      1.0  0.44708  0.07196  0.37328  1.0000
  N   N20       1.0  0.38617  0.01560  0.30312  1.0000
  H   H613      1.0  0.26161  0.27062  0.17908  1.0000
  C   C360      1.0  0.39126  0.99445  0.28575  1.0000
  C   C361      1.0  0.44590  0.21384  0.20730  1.0000
  C   C362      1.0  0.34405  0.98549  0.06842  1.0000
  H   H614      1.0  0.37649  0.25328  0.02333  1.0000
  C   C363      1.0  0.36186  0.15759  0.42438  1.0000
  H   H615      1.0  0.24297  0.40652  0.11939  1.0000
  H   H616      1.0  0.45494  0.16976  0.40546  1.0000
  H   H617      1.0  0.42467  0.19125  0.15564  1.0000
  H   H618      1.0  0.45236  0.43784  0.14365  1.0000
  H   H619      1.0  0.47296  0.27139  0.21530  1.0000
  H   H620      1.0  0.24485  0.42848  0.19590  1.0000
  H   H621      1.0  0.30801  0.25625  0.37455  1.0000
  C   C364      1.0  0.31003  0.01052  0.04998  1.0000
  Fe  Fe46      1.0  0.36680  0.47096  0.05314  1.0000
  H   H622      1.0  0.32608  0.99693  0.00293  1.0000
  H   H623      1.0  0.35156  0.12739  0.27936  1.0000
  S   S91       1.0  0.29819  0.25874  0.99856  1.0000
  C   C365      1.0  0.29514  0.25916  0.31507  1.0000
  C   C366      1.0  0.24656  0.48110  0.12615  1.0000
  C   C367      1.0  0.46278  0.27500  0.35678  1.0000
  H   H624      1.0  0.39447  0.06644  0.05270  1.0000
  H   H625      1.0  0.34707  0.01642  0.24889  1.0000
  H   H626      1.0  0.34493  0.16118  0.41989  1.0000
  C   C368      1.0  0.23866  0.09901  0.99501  1.0000
  C   C369      1.0  0.33349  0.01267  0.02577  1.0000
  H   H627      1.0  0.31235  0.32971  0.33131  1.0000
  Fe  Fe47      1.0  0.22865  0.21903  0.46698  1.0000
  H   H628      1.0  0.45867  0.17616  0.45773  1.0000
  H   H629      1.0  0.41347  0.07110  0.32735  1.0000
  H   H630      1.0  0.45255  0.08774  0.07218  1.0000
  S   S92       1.0  0.23669  0.03379  0.48017  1.0000
  S   S93       1.0  0.23435  0.20220  0.16424  1.0000
  H   H631      1.0  0.25351  0.39785  0.07438  1.0000
  H   H632      1.0  0.28345  0.46545  0.23908  1.0000
  H   H633      1.0  0.26494  0.31946  0.28428  1.0000
  C   C370      1.0  0.42182  0.20188  0.18105  1.0000
  H   H634      1.0  0.35138  0.33549  0.01580  1.0000
  H   H635      1.0  0.30946  0.33740  0.28194  1.0000
  C   C371      1.0  0.38819  0.24277  0.42435  1.0000
  H   H636      1.0  0.28332  0.99762  0.99979  1.0000
  C   C372      1.0  0.46983  0.25496  0.35830  1.0000
  H   H637      1.0  0.41904  0.17984  0.46119  1.0000
  H   H638      1.0  0.40243  0.20671  0.44172  1.0000
  H   H639      1.0  0.40666  0.42627  0.04125  1.0000
  C   C373      1.0  0.36102  0.00545  0.32548  1.0000
  H   H640      1.0  0.30016  0.99163  0.06468  1.0000
  H   H641      1.0  0.37220  0.99453  0.00895  1.0000
  H   H642      1.0  0.42723  0.08466  0.39553  1.0000
  C   C374      1.0  0.26286  0.13842  0.11822  1.0000
  H   H643      1.0  0.41127  0.21539  0.39209  1.0000
  C   C375      1.0  0.36706  0.15822  0.46928  1.0000
  H   H644      1.0  0.40637  0.04217  0.25643  1.0000
  H   H645      1.0  0.39738  0.14622  0.40150  1.0000
  Fe  Fe48      1.0  0.33359  0.46524  0.12722  1.0000
  C   C376      1.0  0.23699  0.39214  0.09493  1.0000
  C   C377      1.0  0.38134  0.07823  0.10429  1.0000
  H   H646      1.0  0.23518  0.32163  0.38121  1.0000
  H   H647      1.0  0.38900  0.18762  0.33813  1.0000
  H   H648      1.0  0.37660  0.34674  0.28574  1.0000
  C   C378      1.0  0.40809  0.03137  0.33129  1.0000
  H   H649      1.0  0.39529  0.07642  0.12471  1.0000
  H   H650      1.0  0.23291  0.20975  0.30984  1.0000
  H   H651      1.0  0.38399  0.04949  0.28237  1.0000
  H   H652      1.0  0.27570  0.23183  0.36211  1.0000
  C   C379      1.0  0.37415  0.17265  0.35702  1.0000
  H   H653      1.0  0.47178  0.44153  0.27890  1.0000
  C   C380      1.0  0.35637  0.14617  0.29409  1.0000
  H   H654      1.0  0.30770  0.98895  0.32687  1.0000
  H   H655      1.0  0.39491  0.02043  0.03837  1.0000
  H   H656      1.0  0.29317  0.28777  0.35481  1.0000
  H   H657      1.0  0.37504  0.17802  0.48183  1.0000
  H   H658      1.0  0.35631  0.03172  0.18077  1.0000
  H   H659      1.0  0.36034  0.35809  0.31985  1.0000
  H   H660      1.0  0.36887  0.08849  0.46209  1.0000
  H   H661      1.0  0.41618  0.17254  0.37070  1.0000
  C   C381      1.0  0.28209  0.28573  0.25498  1.0000
  S   S94       1.0  0.46354  0.37217  0.31458  1.0000
  H   H662      1.0  0.34992  0.13041  0.35204  1.0000
  H   H663      1.0  0.28084  0.30002  0.03313  1.0000
  H   H664      1.0  0.30902  0.47883  0.27512  1.0000
  H   H665      1.0  0.37148  0.16174  0.27652  1.0000
  H   H666      1.0  0.33499  0.31194  0.26215  1.0000
  C   C382      1.0  0.23981  0.32244  0.04825  1.0000
  C   C383      1.0  0.31017  0.32213  0.30048  1.0000
  C   C384      1.0  0.23050  0.11826  0.99781  1.0000
  H   H667      1.0  0.35043  0.02793  0.10442  1.0000
  C   C385      1.0  0.44865  0.11564  0.11044  1.0000
  Fe  Fe49      1.0  0.22806  0.20775  0.09822  1.0000
  H   H668      1.0  0.33411  0.34265  0.05421  1.0000
  N   N21       1.0  0.35506  0.01160  0.04903  1.0000
  H   H669      1.0  0.35389  0.02017  0.32613  1.0000
  C   C386      1.0  0.28393  0.27781  0.32652  1.0000
  C   C387      1.0  0.42731  0.06688  0.38377  1.0000
  H   H670      1.0  0.35511  0.13716  0.41510  1.0000
  H   H671      1.0  0.40519  0.18808  0.19853  1.0000
  H   H672      1.0  0.35832  0.20372  0.42826  1.0000
  C   C388      1.0  0.26769  0.47561  0.12731  1.0000
  H   H673      1.0  0.29740  0.28016  0.24801  1.0000
  C   C389      1.0  0.37649  0.01383  0.02154  1.0000
  S   S95       1.0  0.46678  0.20798  0.33794  1.0000
  H   H674      1.0  0.35901  0.38576  0.99679  1.0000
  H   H675      1.0  0.23019  0.09158  0.15036  1.0000
  C   C390      1.0  0.40790  0.05577  0.34974  1.0000
  Fe  Fe50      1.0  0.46525  0.12463  0.29284  1.0000
  H   H676      1.0  0.44831  0.19783  0.22058  1.0000
  H   H677      1.0  0.41720  0.21703  0.16971  1.0000
  H   H678      1.0  0.22968  0.05976  0.10071  1.0000
  H   H679      1.0  0.27126  0.14408  0.14828  1.0000
  C   C391      1.0  0.33557  0.32099  0.29136  1.0000
  H   H680      1.0  0.37285  0.99219  0.11539  1.0000
  H   H681      1.0  0.26320  0.00218  0.45058  1.0000
  H   H682      1.0  0.23815  0.33142  0.33029  1.0000
  H   H683      1.0  0.26374  0.26740  0.25335  1.0000
  H   H684      1.0  0.36894  0.21497  0.37875  1.0000
  H   H685      1.0  0.24425  0.13801  0.00438  1.0000
  C   C392      1.0  0.23346  0.20691  0.24578  1.0000
  C   C393      1.0  0.28556  0.31827  0.01721  1.0000
  H   H686      1.0  0.37688  0.42783  0.03297  1.0000
  H   H687      1.0  0.44897  0.10603  0.13740  1.0000
  H   H688      1.0  0.34716  0.25098  0.00251  1.0000
  H   H689      1.0  0.27884  0.30164  0.15635  1.0000
  H   H690      1.0  0.31495  0.26937  0.30341  1.0000
  H   H691      1.0  0.29640  0.28572  0.17578  1.0000
  H   H692      1.0  0.30325  0.22999  0.34148  1.0000
  H   H693      1.0  0.37425  0.25073  0.42255  1.0000
  C   C394      1.0  0.38022  0.39752  0.99924  1.0000
  H   H694      1.0  0.36635  0.00381  0.22372  1.0000
  C   C395      1.0  0.38691  0.03326  0.27035  1.0000
  H   H695      1.0  0.44383  0.16795  0.07795  1.0000
  H   H696      1.0  0.44239  0.22498  0.23107  1.0000
  N   N22       1.0  0.38411  0.17527  0.39896  1.0000
  C   C396      1.0  0.26329  0.30342  0.30336  1.0000
  H   H697      1.0  0.26757  0.00653  0.39796  1.0000
  C   C397      1.0  0.42697  0.18031  0.43138  1.0000
  H   H698      1.0  0.24470  0.28655  0.29489  1.0000
  C   C398      1.0  0.36647  0.02127  0.23705  1.0000
  H   H699      1.0  0.46073  0.45746  0.34014  1.0000
  H   H700      1.0  0.43948  0.20086  0.42400  1.0000
  H   H701      1.0  0.36325  0.07376  0.12050  1.0000
  H   H702      1.0  0.32633  0.30956  0.04233  1.0000
  H   H703      1.0  0.23438  0.28551  0.02560  1.0000
  C   C399      1.0  0.36535  0.03192  0.08135  1.0000
  H   H704      1.0  0.23363  0.12706  0.26525  1.0000
  H   H705      1.0  0.46063  0.47166  0.14140  1.0000
  H   H706      1.0  0.38049  0.15005  0.47508  1.0000
  H   H707      1.0  0.35056  0.22221  0.00858  1.0000
  H   H708      1.0  0.38896  0.38449  0.00407  1.0000
  C   C400      1.0  0.23946  0.30480  0.01326  1.0000
  H   H709      1.0  0.23215  0.47295  0.25982  1.0000
  H   H710      1.0  0.36217  0.06313  0.04908  1.0000
  H   H711      1.0  0.38420  0.05067  0.99253  1.0000
  H   H712      1.0  0.47002  0.45660  0.10216  1.0000
  H   H713      1.0  0.46439  0.24260  0.16335  1.0000
  H   H714      1.0  0.41617  0.98793  0.32776  1.0000
  H   H715      1.0  0.22994  0.13300  0.08393  1.0000
  C   C401      1.0  0.23594  0.13751  0.11536  1.0000
  H   H716      1.0  0.24197  0.12733  0.19260  1.0000
  H   H717      1.0  0.22971  0.14991  0.18710  1.0000
  H   H718      1.0  0.33376  0.12115  0.48086  1.0000
  S   S96       1.0  0.45273  0.10312  0.99180  1.0000
  H   H719      1.0  0.46950  0.47065  0.27102  1.0000
  H   H720      1.0  0.47259  0.45027  0.21096  1.0000
  C   C402      1.0  0.47024  0.23121  0.18333  1.0000
  C   C403      1.0  0.31266  0.32791  0.99895  1.0000
  H   H721      1.0  0.34120  0.34767  0.45209  1.0000
  H   H722      1.0  0.47466  0.21821  0.16378  1.0000
  H   H723      1.0  0.47331  0.29247  0.37408  1.0000
  H   H724      1.0  0.31952  0.34776  0.98807  1.0000
  H   H725      1.0  0.32947  0.98357  0.09109  1.0000
  C   C404      1.0  0.38201  0.03133  0.98481  1.0000
  H   H726      1.0  0.31157  0.31966  0.46389  1.0000
  H   H727      1.0  0.42355  0.04448  0.98388  1.0000
  H   H728      1.0  0.34197  0.31932  0.47146  1.0000
  C   C405      1.0  0.33199  0.33151  0.47310  1.0000
  N   N23       1.0  0.26386  0.31422  0.98915  1.0000
  H   H729      1.0  0.30419  0.20237  0.63553  1.0000
  H   H730      1.0  0.33799  0.42719  0.58251  1.0000
  Fe  Fe51      1.0  0.31204  0.44061  0.76029  1.0000
  C   C406      1.0  0.40097  0.41774  0.89094  1.0000
  S   S97       1.0  0.30456  0.43589  0.82749  1.0000
  Fe  Fe52      1.0  0.30061  0.40955  0.68097  1.0000
  S   S98       1.0  0.31316  0.44513  0.64436  1.0000
  S   S99       1.0  0.28613  0.36773  0.65921  1.0000
  S   S100      1.0  0.46718  0.37471  0.49846  1.0000
  Fe  Fe53      1.0  0.29108  0.45683  0.68796  1.0000
  H   H731      1.0  0.29192  0.23218  0.66606  1.0000
  S   S101      1.0  0.33523  0.42730  0.72177  1.0000
  S   S102      1.0  0.27632  0.42011  0.72198  1.0000
  H   H732      1.0  0.44051  0.00298  0.81596  1.0000
  H   H733      1.0  0.38601  0.25606  0.88663  1.0000
  Fe  Fe54      1.0  0.41312  0.31722  0.71659  1.0000
  H   H734      1.0  0.38205  0.26714  0.95294  1.0000
  S   S103      1.0  0.40178  0.31551  0.65065  1.0000
  Fe  Fe55      1.0  0.38560  0.30324  0.79845  1.0000
  S   S104      1.0  0.42303  0.31931  0.83199  1.0000
  S   S105      1.0  0.34463  0.28248  0.82337  1.0000
  Fe  Fe56      1.0  0.43769  0.35242  0.78941  1.0000
  Fe  Fe57      1.0  0.43499  0.29891  0.78551  1.0000
  H   H735      1.0  0.25831  0.43783  0.79461  1.0000
  S   S106      1.0  0.39896  0.33783  0.75910  1.0000
  S   S107      1.0  0.39681  0.28122  0.75385  1.0000
  H   H736      1.0  0.41831  0.29113  0.90674  1.0000
  H   H737      1.0  0.24019  0.10936  0.79010  1.0000
  Fe  Fe58      1.0  0.27462  0.04468  0.51104  1.0000
  H   H738      1.0  0.33621  0.35532  0.70075  1.0000
  Fe  Fe59      1.0  0.34636  0.46387  0.68745  1.0000
  S   S108      1.0  0.26721  0.06585  0.56182  1.0000
  S   S109      1.0  0.25852  0.00770  0.54495  1.0000
  S   S110      1.0  0.45936  0.11841  0.80946  1.0000
  Fe  Fe60      1.0  0.44482  0.13819  0.85292  1.0000
  S   S111      1.0  0.42186  0.10184  0.88726  1.0000
  S   S112      1.0  0.42155  0.15810  0.83014  1.0000
  H   H739      1.0  0.34377  0.00589  0.51054  1.0000
  Fe  Fe61      1.0  0.43867  0.08309  0.84618  1.0000
  S   S113      1.0  0.41131  0.04217  0.82472  1.0000
  H   H740      1.0  0.32551  0.04115  0.62745  1.0000
  H   H741      1.0  0.44082  0.44653  0.83850  1.0000
  C   C407      1.0  0.39071  0.41373  0.96128  1.0000
  H   H742      1.0  0.33454  0.23955  0.53941  1.0000
  H   H743      1.0  0.25160  0.09839  0.72502  1.0000
  H   H744      1.0  0.37070  0.02486  0.61381  1.0000
  H   H745      1.0  0.25968  0.08759  0.85859  1.0000
  C   C408      1.0  0.32178  0.05431  0.76233  1.0000
  C   C409      1.0  0.40171  0.00880  0.69813  1.0000
  H   H746      1.0  0.42163  0.21800  0.88261  1.0000
  C   C410      1.0  0.39116  0.00380  0.76811  1.0000
  C   C411      1.0  0.40817  0.02993  0.77566  1.0000
  C   C412      1.0  0.42187  0.04550  0.74417  1.0000
  C   C413      1.0  0.41854  0.03499  0.70557  1.0000
  N   N24       1.0  0.39332  0.39947  0.92530  1.0000
  S   S114      1.0  0.39873  0.99644  0.64922  1.0000
  H   H747      1.0  0.43509  0.06561  0.74960  1.0000
  H   H748      1.0  0.42929  0.04718  0.68142  1.0000
  H   H749      1.0  0.41712  0.04880  0.60010  1.0000
  H   H750      1.0  0.27563  0.05187  0.89379  1.0000
  C   C414      1.0  0.32165  0.08029  0.75496  1.0000
  H   H751      1.0  0.28780  0.06725  0.84677  1.0000
  H   H752      1.0  0.38397  0.02673  0.52528  1.0000
  C   C415      1.0  0.44018  0.41359  0.56488  1.0000
  H   H753      1.0  0.29270  0.98680  0.67611  1.0000
  C   C416      1.0  0.32843  0.26448  0.65017  1.0000
  C   C417      1.0  0.44772  0.24463  0.81048  1.0000
  S   S115      1.0  0.47262  0.09227  0.88645  1.0000
  H   H754      1.0  0.34270  0.23253  0.85625  1.0000
  C   C418      1.0  0.43277  0.19146  0.82095  1.0000
  C   C419      1.0  0.41587  0.19952  0.80345  1.0000
  C   C420      1.0  0.42331  0.22593  0.79806  1.0000
  H   H755      1.0  0.29145  0.43272  0.90974  1.0000
  H   H756      1.0  0.31583  0.33377  0.66274  1.0000
  H   H757      1.0  0.39682  0.18526  0.79433  1.0000
  H   H758      1.0  0.41006  0.23182  0.78478  1.0000
  C   C421      1.0  0.34000  0.05050  0.60392  1.0000
  H   H759      1.0  0.25493  0.23952  0.57807  1.0000
  S   S116      1.0  0.26058  0.02145  0.65579  1.0000
  H   H760      1.0  0.37216  0.12336  0.87882  1.0000
  C   C422      1.0  0.31087  0.26480  0.94965  1.0000
  C   C423      1.0  0.29548  0.25324  0.91638  1.0000
  C   C424      1.0  0.30620  0.25896  0.87813  1.0000
  C   C425      1.0  0.33250  0.27592  0.87255  1.0000
  C   C426      1.0  0.34800  0.28736  0.90585  1.0000
  C   C427      1.0  0.33714  0.28206  0.94409  1.0000
  H   H761      1.0  0.27532  0.23986  0.92009  1.0000
  H   H762      1.0  0.29401  0.25001  0.85263  1.0000
  H   H763      1.0  0.36823  0.30050  0.90209  1.0000
  C   C428      1.0  0.41320  0.39796  0.54732  1.0000
  H   H764      1.0  0.45007  0.38386  0.71788  1.0000
  C   C429      1.0  0.41333  0.04041  0.56967  1.0000
  C   C430      1.0  0.30010  0.24506  0.64017  1.0000
  H   H765      1.0  0.44087  0.42935  0.58430  1.0000
  S   S117      1.0  0.45252  0.33344  0.74502  1.0000
  H   H766      1.0  0.32268  0.17279  0.60202  1.0000
  C   C431      1.0  0.34868  0.35490  0.59964  1.0000
  H   H767      1.0  0.31806  0.04357  0.73368  1.0000
  H   H768      1.0  0.37566  0.34856  0.88672  1.0000
  C   C432      1.0  0.26634  0.33064  0.53427  1.0000
  C   C433      1.0  0.27652  0.35751  0.53915  1.0000
  C   C434      1.0  0.28273  0.36923  0.57705  1.0000
  C   C435      1.0  0.27904  0.35419  0.61061  1.0000
  C   C436      1.0  0.26914  0.32733  0.60569  1.0000
  C   C437      1.0  0.26274  0.31559  0.56782  1.0000
  H   H769      1.0  0.32029  0.08908  0.78353  1.0000
  H   H770      1.0  0.29024  0.38987  0.58032  1.0000
  H   H771      1.0  0.26616  0.31551  0.63146  1.0000
  H   H772      1.0  0.25503  0.29493  0.56460  1.0000
  C   C438      1.0  0.44877  0.35615  0.53935  1.0000
  C   C439      1.0  0.42238  0.33905  0.53663  1.0000
  C   C440      1.0  0.40842  0.32654  0.57080  1.0000
  C   C441      1.0  0.42061  0.33068  0.60808  1.0000
  C   C442      1.0  0.44709  0.34711  0.61051  1.0000
  H   H773      1.0  0.35954  0.05613  0.61583  1.0000
  H   H774      1.0  0.41266  0.33588  0.50835  1.0000
  H   H775      1.0  0.38799  0.31371  0.56843  1.0000
  S   S118      1.0  0.45680  0.39532  0.80701  1.0000
  H   H776      1.0  0.27425  0.03273  0.85074  1.0000
  C   C443      1.0  0.35374  0.45893  0.94252  1.0000
  H   H777      1.0  0.32867  0.32726  0.89757  1.0000
  C   C444      1.0  0.38634  0.03476  0.55572  1.0000
  C   C445      1.0  0.32422  0.44482  0.87108  1.0000
  C   C446      1.0  0.35113  0.45564  0.86981  1.0000
  H   H778      1.0  0.39773  0.39666  0.60584  1.0000
  C   C447      1.0  0.24101  0.99787  0.76981  1.0000
  H   H779      1.0  0.44355  0.26141  0.94676  1.0000
  H   H780      1.0  0.33843  0.98647  0.82799  1.0000
  H   H781      1.0  0.33618  0.38580  0.56373  1.0000
  H   H782      1.0  0.23237  0.29899  0.92273  1.0000
  H   H783      1.0  0.31907  0.01592  0.83831  1.0000
  C   C448      1.0  0.26677  0.21109  0.60001  1.0000
  H   H784      1.0  0.25417  0.27971  0.87906  1.0000
  C   C449      1.0  0.32683  0.44808  0.94376  1.0000
  H   H785      1.0  0.44264  0.40610  0.88854  1.0000
  C   C450      1.0  0.42881  0.18604  0.93831  1.0000
  H   H786      1.0  0.39641  0.07593  0.66574  1.0000
  H   H787      1.0  0.25009  0.33947  0.96310  1.0000
  S   S119      1.0  0.32540  0.47830  0.72846  1.0000
  S   S120      1.0  0.25879  0.31696  0.48576  1.0000
  H   H788      1.0  0.25416  0.11669  0.90114  1.0000
  H   H789      1.0  0.27089  0.33306  0.90552  1.0000
  H   H790      1.0  0.34299  0.08792  0.61941  1.0000
  C   C451      1.0  0.33192  0.25562  0.55272  1.0000
  H   H791      1.0  0.27945  0.36937  0.51343  1.0000
  S   S121      1.0  0.23782  0.99651  0.92284  1.0000
  H   H792      1.0  0.30102  0.19864  0.54432  1.0000
  C   C452      1.0  0.32928  0.99497  0.64808  1.0000
  H   H793      1.0  0.41542  0.02245  0.56943  1.0000
  H   H794      1.0  0.28138  0.47319  0.83962  1.0000
  H   H795      1.0  0.40493  0.01613  0.95351  1.0000
  H   H796      1.0  0.22704  0.33811  0.58338  1.0000
  H   H797      1.0  0.41436  0.47106  0.76362  1.0000
  H   H798      1.0  0.36069  0.45879  0.84152  1.0000
  H   H799      1.0  0.33823  0.01540  0.65781  1.0000
  C   C453      1.0  0.29221  0.37355  0.91819  1.0000
  H   H800      1.0  0.22740  0.46586  0.86520  1.0000
  C   C454      1.0  0.42919  0.21225  0.94321  1.0000
  H   H801      1.0  0.45739  0.32960  0.92904  1.0000
  C   C455      1.0  0.43517  0.45813  0.85880  1.0000
  H   H802      1.0  0.32793  0.34615  0.59129  1.0000
  C   C456      1.0  0.32134  0.18051  0.57273  1.0000
  N   N25       1.0  0.29543  0.22899  0.60284  1.0000
  H   H803      1.0  0.22565  0.46610  0.78121  1.0000
  N   N26       1.0  0.40639  0.23868  0.91842  1.0000
  H   H804      1.0  0.42483  0.28958  0.95855  1.0000
  H   H805      1.0  0.23932  0.44077  0.83378  1.0000
  H   H806      1.0  0.46466  0.05040  0.80049  1.0000
  C   C457      1.0  0.30362  0.24583  0.56666  1.0000
  H   H807      1.0  0.29874  0.06830  0.70066  1.0000
  H   H808      1.0  0.25687  0.09003  0.79460  1.0000
  H   H809      1.0  0.31934  0.07063  0.58166  1.0000
  H   H810      1.0  0.30013  0.26287  0.57128  1.0000
  C   C458      1.0  0.23905  0.16441  0.49538  1.0000
  S   S122      1.0  0.45748  0.27825  0.80751  1.0000
  H   H811      1.0  0.32488  0.26136  0.71449  1.0000
  N   N27       1.0  0.34541  0.05556  0.78232  1.0000
  C   C459      1.0  0.36987  0.07181  0.75990  1.0000
  C   C460      1.0  0.34769  0.06538  0.82458  1.0000
  C   C461      1.0  0.34245  0.02850  0.78360  1.0000
  C   C462      1.0  0.37102  0.06328  0.71658  1.0000
  C   C463      1.0  0.36338  0.09491  0.83183  1.0000
  C   C464      1.0  0.35959  0.10240  0.87390  1.0000
  C   C465      1.0  0.39489  0.08331  0.69553  1.0000
  H   H812      1.0  0.38675  0.07221  0.77600  1.0000
  H   H813      1.0  0.37378  0.09224  0.75890  1.0000
  H   H814      1.0  0.35747  0.05692  0.84351  1.0000
  H   H815      1.0  0.36034  0.02895  0.79582  1.0000
  H   H816      1.0  0.34001  0.02000  0.75336  1.0000
  H   H817      1.0  0.33904  0.09387  0.73883  1.0000
  H   H818      1.0  0.37223  0.04488  0.71583  1.0000
  H   H819      1.0  0.35394  0.06083  0.69923  1.0000
  H   H820      1.0  0.38424  0.10091  0.82790  1.0000
  H   H821      1.0  0.35822  0.10630  0.81114  1.0000
  H   H822      1.0  0.36493  0.09172  0.89595  1.0000
  H   H823      1.0  0.33924  0.09827  0.87849  1.0000
  H   H824      1.0  0.39359  0.10155  0.69206  1.0000
  H   H825      1.0  0.41266  0.08741  0.71251  1.0000
  H   H826      1.0  0.22797  0.14655  0.86403  1.0000
  H   H827      1.0  0.42766  0.40325  0.95583  1.0000
  H   H828      1.0  0.36590  0.02227  0.96312  1.0000
  H   H829      1.0  0.37265  0.36914  0.50584  1.0000
  C   C466      1.0  0.36572  0.46253  0.90528  1.0000
  H   H830      1.0  0.26218  0.19941  0.57215  1.0000
  H   H831      1.0  0.29812  0.09518  0.72622  1.0000
  C   C467      1.0  0.39111  0.23423  0.95620  1.0000
  H   H832      1.0  0.32350  0.35447  0.51465  1.0000
  C   C468      1.0  0.23753  0.26754  0.89800  1.0000
  C   C469      1.0  0.37086  0.41912  0.58360  1.0000
  C   C470      1.0  0.30191  0.19119  0.57399  1.0000
  H   H833      1.0  0.25043  0.99472  0.79516  1.0000
  C   C471      1.0  0.35734  0.39352  0.55947  1.0000
  C   C472      1.0  0.23475  0.46666  0.66298  1.0000
  H   H834      1.0  0.33010  0.22415  0.60706  1.0000
  C   C473      1.0  0.33054  0.27636  0.69144  1.0000
  H   H835      1.0  0.45234  0.47695  0.86457  1.0000
  S   S123      1.0  0.31623  0.06166  0.48770  1.0000
  H   H836      1.0  0.28988  0.25704  0.63874  1.0000
  H   H837      1.0  0.34472  0.04319  0.54179  1.0000
  H   H838      1.0  0.24390  0.04509  0.81808  1.0000
  H   H839      1.0  0.41421  0.38393  0.52582  1.0000
  C   C474      1.0  0.41285  0.38999  0.93439  1.0000
  H   H840      1.0  0.40530  0.24742  0.85660  1.0000
  C   C475      1.0  0.26866  0.33915  0.96952  1.0000
  C   C476      1.0  0.43126  0.28852  0.92799  1.0000
  Fe  Fe62      1.0  0.45703  0.11364  0.92555  1.0000
  H   H841      1.0  0.36866  0.34242  0.53484  1.0000
  H   H842      1.0  0.33558  0.28058  0.62887  1.0000
  H   H843      1.0  0.26058  0.19695  0.62457  1.0000
  H   H844      1.0  0.34067  0.19577  0.56413  1.0000
  H   H845      1.0  0.34613  0.33403  0.67553  1.0000
  C   C477      1.0  0.46096  0.35994  0.57654  1.0000
  H   H846      1.0  0.37891  0.21321  0.96101  1.0000
  C   C478      1.0  0.31223  0.44102  0.90831  1.0000
  H   H847      1.0  0.26005  0.48176  0.88458  1.0000
  C   C479      1.0  0.28347  0.34553  0.92967  1.0000
  C   C480      1.0  0.33894  0.27622  0.52122  1.0000
  Fe  Fe63      1.0  0.24847  0.02786  0.59370  1.0000
  C   C481      1.0  0.33884  0.07520  0.59291  1.0000
  C   C482      1.0  0.24218  0.06991  0.86688  1.0000
  H   H848      1.0  0.30188  0.37738  0.88894  1.0000
  H   H849      1.0  0.35604  0.23678  0.93848  1.0000
  H   H850      1.0  0.38576  0.05345  0.55474  1.0000
  C   C483      1.0  0.39216  0.24086  0.88252  1.0000
  C   C484      1.0  0.36708  0.37718  0.91672  1.0000
  C   C485      1.0  0.36507  0.35976  0.88059  1.0000
  C   C486      1.0  0.33708  0.34023  0.87205  1.0000
  H   H851      1.0  0.47093  0.00227  0.82046  1.0000
  H   H852      1.0  0.40428  0.40882  0.86386  1.0000
  H   H853      1.0  0.45487  0.37134  0.88627  1.0000
  H   H854      1.0  0.35267  0.38453  0.91271  1.0000
  N   N28       1.0  0.33773  0.00864  0.57356  1.0000
  C   C487      1.0  0.35108  0.22120  0.84104  1.0000
  H   H855      1.0  0.37269  0.37098  0.85329  1.0000
  H   H856      1.0  0.28001  0.06316  0.74536  1.0000
  H   H857      1.0  0.47143  0.01990  0.68188  1.0000
  C   C488      1.0  0.33620  0.34613  0.67178  1.0000
  H   H858      1.0  0.33629  0.32822  0.84588  1.0000
  H   H859      1.0  0.42734  0.41502  0.67550  1.0000
  C   C489      1.0  0.36538  0.01583  0.58398  1.0000
  H   H860      1.0  0.24665  0.38270  0.62209  1.0000
  H   H861      1.0  0.30024  0.99861  0.50743  1.0000
  H   H862      1.0  0.27723  0.29888  0.94038  1.0000
  C   C490      1.0  0.33371  0.03206  0.56781  1.0000
  H   H863      1.0  0.31328  0.02624  0.56012  1.0000
  C   C491      1.0  0.23576  0.28298  0.93360  1.0000
  C   C492      1.0  0.24282  0.11930  0.87677  1.0000
  H   H864      1.0  0.39727  0.36765  0.59023  1.0000
  C   C493      1.0  0.27259  0.04998  0.86121  1.0000
  H   H865      1.0  0.29138  0.23545  0.54060  1.0000
  C   C494      1.0  0.38791  0.99326  0.72957  1.0000
  C   C495      1.0  0.26030  0.29303  0.95998  1.0000
  H   H866      1.0  0.32822  0.05885  0.83765  1.0000
  C   C496      1.0  0.39321  0.38348  0.57994  1.0000
  Fe  Fe64      1.0  0.22859  0.05336  0.53269  1.0000
  H   H867      1.0  0.44958  0.22711  0.94012  1.0000
  H   H868      1.0  0.35341  0.33855  0.60285  1.0000
  C   C497      1.0  0.25429  0.00605  0.73363  1.0000
  H   H869      1.0  0.44111  0.18380  0.96143  1.0000
  C   C498      1.0  0.24237  0.01015  0.70014  1.0000
  H   H870      1.0  0.25702  0.15957  0.89354  1.0000
  H   H871      1.0  0.32536  0.35020  0.86525  1.0000
  H   H872      1.0  0.25465  0.12429  0.84968  1.0000
  H   H873      1.0  0.31493  0.16457  0.55053  1.0000
  H   H874      1.0  0.30613  0.38697  0.94032  1.0000
  C   C499      1.0  0.40661  0.03495  0.96379  1.0000
  H   H875      1.0  0.32537  0.26878  0.49571  1.0000
  C   C500      1.0  0.37242  0.24633  0.95950  1.0000
  S   S124      1.0  0.26853  0.47802  0.66864  1.0000
  C   C501      1.0  0.46473  0.23653  0.82744  1.0000
  H   H876      1.0  0.40793  0.41114  0.53076  1.0000
  H   H877      1.0  0.45686  0.34989  0.63863  1.0000
  H   H878      1.0  0.34137  0.25537  0.64981  1.0000
  H   H879      1.0  0.36066  0.39921  0.52781  1.0000
  H   H880      1.0  0.34390  0.98792  0.65112  1.0000
  C   C502      1.0  0.29816  0.07639  0.73033  1.0000
  H   H881      1.0  0.22668  0.13827  0.91564  1.0000
  C   C503      1.0  0.42833  0.38693  0.89914  1.0000
  C   C504      1.0  0.45276  0.40215  0.70446  1.0000
  C   C505      1.0  0.31937  0.00874  0.80790  1.0000
  H   H882      1.0  0.36967  0.41596  0.61587  1.0000
  H   H883      1.0  0.36238  0.23213  0.81513  1.0000
  H   H884      1.0  0.27388  0.00897  0.73141  1.0000
  H   H885      1.0  0.23405  0.06448  0.73517  1.0000
  H   H886      1.0  0.30435  0.04296  0.78039  1.0000
  H   H887      1.0  0.30083  0.00434  0.79308  1.0000
  C   C506      1.0  0.43202  0.26263  0.92152  1.0000
  H   H888      1.0  0.39381  0.19775  0.90979  1.0000
  C   C507      1.0  0.24586  0.04689  0.85072  1.0000
  H   H889      1.0  0.35326  0.08572  0.56975  1.0000
  H   H890      1.0  0.31728  0.44512  0.97204  1.0000
  H   H891      1.0  0.34921  0.29127  0.96958  1.0000
  H   H892      1.0  0.30070  0.34245  0.93064  1.0000
  H   H893      1.0  0.41242  0.39165  0.71377  1.0000
  H   H894      1.0  0.35878  0.28199  0.51039  1.0000
  H   H895      1.0  0.41001  0.04743  0.93764  1.0000
  H   H896      1.0  0.40892  0.17009  0.94119  1.0000
  H   H897      1.0  0.43657  0.18450  0.90899  1.0000
  H   H898      1.0  0.44364  0.26428  0.89445  1.0000
  H   H899      1.0  0.36027  0.36389  0.94220  1.0000
  H   H900      1.0  0.40327  0.37112  0.94964  1.0000
  H   H901      1.0  0.23968  0.25061  0.90801  1.0000
  C   C508      1.0  0.30885  0.21237  0.60654  1.0000
  C   C509      1.0  0.41203  0.21615  0.91158  1.0000
  N   N29       1.0  0.36526  0.37278  0.56783  1.0000
  H   H902      1.0  0.36858  0.45491  0.59178  1.0000
  H   H903      1.0  0.33502  0.20279  0.83029  1.0000
  C   C510      1.0  0.45738  0.21013  0.83253  1.0000
  H   H904      1.0  0.44092  0.44178  0.91240  1.0000
  H   H905      1.0  0.41592  0.37645  0.87367  1.0000
  H   H906      1.0  0.24991  0.46492  0.75115  1.0000
  C   C511      1.0  0.25612  0.15364  0.49864  1.0000
  H   H907      1.0  0.26042  0.11943  0.51049  1.0000
  H   H908      1.0  0.37437  0.20267  0.85398  1.0000
  H   H909      1.0  0.35639  0.20537  0.89542  1.0000
  C   C512      1.0  0.36126  0.35673  0.53060  1.0000
  C   C513      1.0  0.35015  0.36698  0.64118  1.0000
  C   C514      1.0  0.46045  0.00736  0.75939  1.0000
  C   C515      1.0  0.42515  0.44410  0.89778  1.0000
  H   H910      1.0  0.47061  0.20427  0.84600  1.0000
  H   H911      1.0  0.34049  0.37945  0.64055  1.0000
  H   H912      1.0  0.28268  0.17478  0.58011  1.0000
  H   H913      1.0  0.38482  0.42205  0.88299  1.0000
  C   C516      1.0  0.45810  0.31124  0.92305  1.0000
  H   H914      1.0  0.44577  0.40093  0.58221  1.0000
  H   H915      1.0  0.35080  0.29092  0.69733  1.0000
  H   H916      1.0  0.30113  0.99271  0.60439  1.0000
  H   H917      1.0  0.32154  0.32516  0.53423  1.0000
  H   H918      1.0  0.31811  0.28606  0.69381  1.0000
  H   H919      1.0  0.37020  0.37841  0.65188  1.0000
  H   H920      1.0  0.24857  0.23223  0.62991  1.0000
  C   C517      1.0  0.36815  0.21571  0.86957  1.0000
  C   C518      1.0  0.35870  0.43668  0.57445  1.0000
  H   H921      1.0  0.41905  0.38140  0.66658  1.0000
  H   H922      1.0  0.42799  0.05440  0.54955  1.0000
  H   H923      1.0  0.27544  0.37758  0.91594  1.0000
  H   H924      1.0  0.34605  0.26392  0.57717  1.0000
  C   C519      1.0  0.24483  0.46639  0.78258  1.0000
  C   C520      1.0  0.46065  0.01145  0.80488  1.0000
  H   H925      1.0  0.45897  0.41741  0.72772  1.0000
  H   H926      1.0  0.36057  0.44149  0.54254  1.0000
  C   C521      1.0  0.24129  0.44084  0.80130  1.0000
  H   H927      1.0  0.34633  0.14193  0.52360  1.0000
  C   C522      1.0  0.22740  0.38209  0.62084  1.0000
  H   H928      1.0  0.39156  0.42980  0.57582  1.0000
  H   H929      1.0  0.24284  0.06951  0.89985  1.0000
  H   H930      1.0  0.42021  0.45670  0.91706  1.0000
  H   H931      1.0  0.38650  0.47105  0.90384  1.0000
  C   C523      1.0  0.42632  0.39733  0.68891  1.0000
  C   C524      1.0  0.24708  0.12743  0.50815  1.0000
  C   C525      1.0  0.24875  0.22398  0.60024  1.0000
  H   H932      1.0  0.33836  0.29350  0.53404  1.0000
  H   H933      1.0  0.44592  0.01256  0.74675  1.0000
  H   H934      1.0  0.27644  0.16556  0.49346  1.0000
  H   H935      1.0  0.42962  0.35245  0.92021  1.0000
  H   H936      1.0  0.37788  0.42261  0.95456  1.0000
  C   C526      1.0  0.23854  0.08983  0.78578  1.0000
  H   H937      1.0  0.45432  0.42217  0.54062  1.0000
  H   H938      1.0  0.42264  0.21346  0.97360  1.0000
  C   C527      1.0  0.33303  0.34189  0.51516  1.0000
  C   C528      1.0  0.47381  0.04009  0.81613  1.0000
  H   H939      1.0  0.47197  0.04236  0.84846  1.0000
  H   H940      1.0  0.46502  0.31167  0.89227  1.0000
  H   H941      1.0  0.46591  0.39379  0.64907  1.0000
  H   H942      1.0  0.36778  0.99803  0.58557  1.0000
  H   H943      1.0  0.29512  0.48079  0.79245  1.0000
  H   H944      1.0  0.45251  0.99180  0.62187  1.0000
  C   C529      1.0  0.31947  0.99120  0.60462  1.0000
  H   H945      1.0  0.23024  0.40210  0.61738  1.0000
  C   C530      1.0  0.34217  0.14150  0.49147  1.0000
  H   H946      1.0  0.45650  0.38254  0.93649  1.0000
  H   H947      1.0  0.32778  0.14872  0.48724  1.0000
  H   H948      1.0  0.38050  0.99158  0.79230  1.0000
  C   C531      1.0  0.23501  0.08362  0.74143  1.0000
  H   H949      1.0  0.25924  0.27599  0.97597  1.0000
  H   H950      1.0  0.31276  0.31523  0.97444  1.0000
  C   C532      1.0  0.47352  0.00204  0.67794  1.0000
  H   H951      1.0  0.42007  0.46168  0.84431  1.0000
  H   H952      1.0  0.47206  0.30987  0.94397  1.0000
  H   H953      1.0  0.40443  0.24112  0.98214  1.0000
  H   H954      1.0  0.47135  0.42609  0.65508  1.0000
  S   S125      1.0  0.23263  0.04984  0.98275  1.0000
  C   C533      1.0  0.47277  0.41013  0.67064  1.0000
  C   C534      1.0  0.33168  0.99370  0.53488  1.0000
  H   H955      1.0  0.23139  0.02869  0.86378  1.0000
  C   C535      1.0  0.47190  0.99620  0.63357  1.0000
  C   C536      1.0  0.23826  0.14226  0.88815  1.0000
  H   H956      1.0  0.40971  0.43007  0.96946  1.0000
  C   C537      1.0  0.44319  0.37241  0.91149  1.0000
  H   H957      1.0  0.39159  0.48317  0.75475  1.0000
  C   C538      1.0  0.32074  0.98337  0.81156  1.0000
  S   S126      1.0  0.25162  0.19786  0.48513  1.0000
  H   H958      1.0  0.41371  0.85831  0.40188  1.0000
  Fe  Fe65      1.0  0.38862  0.51010  0.12280  1.0000
  S   S127      1.0  0.41198  0.55289  0.13965  1.0000
  Fe  Fe66      1.0  0.31254  0.89788  0.26514  1.0000
  S   S128      1.0  0.32772  0.87166  0.23953  1.0000
  S   S129      1.0  0.30777  0.90761  0.33016  1.0000
  Fe  Fe67      1.0  0.29972  0.91091  0.18154  1.0000
  S   S130      1.0  0.31458  0.88631  0.15050  1.0000
  S   S131      1.0  0.28210  0.93505  0.15470  1.0000
  Fe  Fe68      1.0  0.29328  0.85714  0.19772  1.0000
  S   S132      1.0  0.26974  0.81449  0.18057  1.0000
  Fe  Fe69      1.0  0.34777  0.90256  0.19416  1.0000
  S   S133      1.0  0.39039  0.92252  0.17559  1.0000
  S   S134      1.0  0.27675  0.88095  0.22643  1.0000
  S   S135      1.0  0.33422  0.92957  0.22200  1.0000
  H   H959      1.0  0.31114  0.97158  0.46120  1.0000
  C   C539      1.0  0.27183  0.93536  0.10524  1.0000
  H   H960      1.0  0.33358  0.96991  0.04606  1.0000
  H   H961      1.0  0.27114  0.57935  0.24180  1.0000
  C   C540      1.0  0.27930  0.92477  0.07347  1.0000
  C   C541      1.0  0.42020  0.84811  0.46129  1.0000
  H   H962      1.0  0.29112  0.91532  0.07888  1.0000
  C   C542      1.0  0.32635  0.91014  0.37358  1.0000
  C   C543      1.0  0.31812  0.91513  0.41043  1.0000
  C   C544      1.0  0.33205  0.91722  0.44565  1.0000
  C   C545      1.0  0.35478  0.91477  0.44446  1.0000
  C   C546      1.0  0.36321  0.91013  0.40754  1.0000
  C   C547      1.0  0.34903  0.90761  0.37243  1.0000
  H   H963      1.0  0.30075  0.91724  0.41177  1.0000
  H   H964      1.0  0.38467  0.84089  0.43042  1.0000
  H   H965      1.0  0.38075  0.90823  0.40608  1.0000
  H   H966      1.0  0.35559  0.90361  0.34451  1.0000
  C   C548      1.0  0.41353  0.91102  0.16678  1.0000
  C   C549      1.0  0.40804  0.88532  0.17257  1.0000
  C   C550      1.0  0.42714  0.87730  0.16548  1.0000
  C   C551      1.0  0.45198  0.89475  0.15242  1.0000
  C   C552      1.0  0.45745  0.92041  0.14653  1.0000
  C   C553      1.0  0.43838  0.92845  0.15374  1.0000
  H   H967      1.0  0.38910  0.87164  0.18254  1.0000
  H   H968      1.0  0.42257  0.85739  0.16999  1.0000
  H   H969      1.0  0.44291  0.94835  0.14909  1.0000
  C   C554      1.0  0.24667  0.90668  0.41687  1.0000
  C   C555      1.0  0.31357  0.97369  0.33228  1.0000
  C   C556      1.0  0.44549  0.57208  0.14961  1.0000
  C   C557      1.0  0.45480  0.59857  0.15761  1.0000
  H   H970      1.0  0.47334  0.82509  0.06303  1.0000
  C   C558      1.0  0.46298  0.56186  0.14984  1.0000
  H   H971      1.0  0.44148  0.60669  0.15747  1.0000
  H   H972      1.0  0.22641  0.82689  0.18640  1.0000
  H   H973      1.0  0.45612  0.54154  0.14379  1.0000
  H   H974      1.0  0.23686  0.95876  0.05339  1.0000
  H   H975      1.0  0.24708  0.96698  0.35319  1.0000
  H   H976      1.0  0.46153  0.78631  0.15714  1.0000
  H   H977      1.0  0.23819  0.90380  0.48005  1.0000
  H   H978      1.0  0.23718  0.79141  0.00538  1.0000
  H   H979      1.0  0.23996  0.82249  0.10513  1.0000
  H   H980      1.0  0.28837  0.85847  0.03275  1.0000
  H   H981      1.0  0.45645  0.82210  0.12983  1.0000
  C   C559      1.0  0.25254  0.53198  0.20774  1.0000
  H   H982      1.0  0.40137  0.82422  0.40979  1.0000
  C   C560      1.0  0.28513  0.55201  0.26146  1.0000
  C   C561      1.0  0.22563  0.76998  0.16209  1.0000
  C   C562      1.0  0.23862  0.93073  0.29445  1.0000
  C   C563      1.0  0.27726  0.51057  0.23182  1.0000
  H   H983      1.0  0.26795  0.92148  0.27006  1.0000
  H   H984      1.0  0.34303  0.96338  0.31632  1.0000
  C   C564      1.0  0.23223  0.80169  0.02926  1.0000
  C   C565      1.0  0.24631  0.95414  0.37769  1.0000
  H   H985      1.0  0.25258  0.95147  0.29692  1.0000
  C   C566      1.0  0.25636  0.93900  0.02685  1.0000
  H   H986      1.0  0.27779  0.91874  0.01009  1.0000
  H   H987      1.0  0.25255  0.51356  0.30344  1.0000
  C   C567      1.0  0.43926  0.83727  0.26040  1.0000
  H   H988      1.0  0.24058  0.54160  0.21602  1.0000
  H   H989      1.0  0.40668  0.87568  0.47975  1.0000
  H   H990      1.0  0.47490  0.63801  0.29911  1.0000
  C   C568      1.0  0.39609  0.97747  0.31627  1.0000
  H   H991      1.0  0.45889  0.60863  0.26963  1.0000
  H   H992      1.0  0.23842  0.76134  0.15913  1.0000
  C   C569      1.0  0.25649  0.94760  0.09755  1.0000
  H   H993      1.0  0.28657  0.56615  0.18491  1.0000
  H   H994      1.0  0.42142  0.81861  0.25794  1.0000
  H   H995      1.0  0.26360  0.92581  0.42069  1.0000
  H   H996      1.0  0.37235  0.93985  0.28905  1.0000
  C   C570      1.0  0.24271  0.96703  0.41580  1.0000
  C   C571      1.0  0.27042  0.80767  0.06642  1.0000
  C   C572      1.0  0.27170  0.92672  0.03450  1.0000
  H   H997      1.0  0.25151  0.89537  0.39476  1.0000
  H   H998      1.0  0.23319  0.52518  0.27954  1.0000
  H   H999      1.0  0.44339  0.80503  0.20666  1.0000
  H   H1000     1.0  0.46282  0.77881  0.22714  1.0000
  H   H1001     1.0  0.25973  0.79636  0.09250  1.0000
  C   C573      1.0  0.42509  0.87425  0.48046  1.0000
  H   H1002     1.0  0.28032  0.53618  0.16083  1.0000
  C   C574      1.0  0.29880  0.59724  0.28819  1.0000
  C   C575      1.0  0.23728  0.85194  0.07012  1.0000
  C   C576      1.0  0.24398  0.51396  0.27422  1.0000
  H   H1003     1.0  0.25533  0.91847  0.34098  1.0000
  H   H1004     1.0  0.30469  0.59253  0.31696  1.0000
  C   C577      1.0  0.29849  0.82467  0.08133  1.0000
  H   H1005     1.0  0.26592  0.95550  0.37873  1.0000
  H   H1006     1.0  0.29808  0.95503  0.32122  1.0000
  H   H1007     1.0  0.43198  0.92249  0.48251  1.0000
  C   C578      1.0  0.25122  0.83602  0.08162  1.0000
  C   C579      1.0  0.31012  0.80804  0.09775  1.0000
  H   H1008     1.0  0.25042  0.86884  0.05265  1.0000
  H   H1009     1.0  0.30260  0.56028  0.24244  1.0000
  H   H1010     1.0  0.43815  0.88895  0.45928  1.0000
  H   H1011     1.0  0.23513  0.89836  0.25753  1.0000
  H   H1012     1.0  0.46137  0.79260  0.08058  1.0000
  C   C580      1.0  0.28890  0.50169  0.26600  1.0000
  C   C581      1.0  0.24864  0.94926  0.05870  1.0000
  H   H1013     1.0  0.27437  0.49119  0.28889  1.0000
  H   H1014     1.0  0.43889  0.84872  0.45306  1.0000
  N   N30       1.0  0.25672  0.82171  0.04861  1.0000
  H   H1015     1.0  0.39844  0.94153  0.31916  1.0000
  C   C582      1.0  0.27429  0.84018  0.01803  1.0000
  H   H1016     1.0  0.29900  0.83784  0.10548  1.0000
  H   H1017     1.0  0.32531  0.92084  0.47366  1.0000
  H   H1018     1.0  0.27782  0.95558  0.47632  1.0000
  N   N31       1.0  0.26476  0.52713  0.24380  1.0000
  C   C583      1.0  0.46314  0.83351  0.25295  1.0000
  H   H1019     1.0  0.24642  0.85238  0.99275  1.0000
  H   H1020     1.0  0.26938  0.84984  0.09647  1.0000
  H   H1021     1.0  0.24712  0.49577  0.10643  1.0000
  H   H1022     1.0  0.27103  0.79348  0.04466  1.0000
  N   N32       1.0  0.22635  0.92674  0.36892  1.0000
  C   C584      1.0  0.46238  0.82243  0.21092  1.0000
  H   H1023     1.0  0.43827  0.85097  0.23879  1.0000
  H   H1024     1.0  0.26024  0.56641  0.29018  1.0000
  H   H1025     1.0  0.31118  0.79509  0.07433  1.0000
  H   H1026     1.0  0.24100  0.53459  0.12889  1.0000
  H   H1027     1.0  0.29839  0.79626  0.12272  1.0000
  H   H1028     1.0  0.25063  0.95590  0.12185  1.0000
  H   H1029     1.0  0.31569  0.60533  0.26811  1.0000
  C   C585      1.0  0.39281  0.95220  0.29753  1.0000
  H   H1030     1.0  0.25951  0.89088  0.46470  1.0000
  S   S136      1.0  0.35328  0.49728  0.08343  1.0000
  H   H1031     1.0  0.26347  0.49329  0.21489  1.0000
  H   H1032     1.0  0.32992  0.82063  0.10900  1.0000
  C   C586      1.0  0.40401  0.84263  0.42354  1.0000
  H   H1033     1.0  0.44026  0.84536  0.29061  1.0000
  H   H1034     1.0  0.31133  0.83643  0.05738  1.0000
  C   C587      1.0  0.24854  0.91916  0.26210  1.0000
  C   C588      1.0  0.27117  0.54739  0.17414  1.0000
  C   C589      1.0  0.23578  0.79605  0.17370  1.0000
  H   H1035     1.0  0.29193  0.54832  0.29029  1.0000
  S   S137      1.0  0.40335  0.48604  0.08992  1.0000
  H   H1036     1.0  0.40510  0.95589  0.27087  1.0000
  H   H1037     1.0  0.29238  0.61218  0.29354  1.0000
  H   H1038     1.0  0.25016  0.92920  0.23375  1.0000
  H   H1039     1.0  0.46223  0.83729  0.19087  1.0000
  H   H1040     1.0  0.23873  0.51348  0.19405  1.0000
  H   H1041     1.0  0.29335  0.52104  0.21092  1.0000
  C   C590      1.0  0.24207  0.89275  0.45631  1.0000
  H   H1042     1.0  0.24700  0.87393  0.12573  1.0000
  C   C591      1.0  0.23596  0.91687  0.33442  1.0000
  H   H1043     1.0  0.34147  0.93718  0.08218  1.0000
  H   H1044     1.0  0.30519  0.51851  0.28023  1.0000
  H   H1045     1.0  0.28607  0.83199  0.00342  1.0000
  C   C592      1.0  0.22980  0.86243  0.10686  1.0000
  C   C593      1.0  0.27677  0.57328  0.26954  1.0000
  H   H1046     1.0  0.31368  0.49287  0.22677  1.0000
  H   H1047     1.0  0.37530  0.98148  0.26595  1.0000
  H   H1048     1.0  0.46381  0.82061  0.27613  1.0000
  C   C594      1.0  0.33859  0.97956  0.31065  1.0000
  H   H1049     1.0  0.38284  0.97280  0.34184  1.0000
  H   H1050     1.0  0.28422  0.48596  0.10858  1.0000
  H   H1051     1.0  0.27009  0.56316  0.11675  1.0000
  C   C595      1.0  0.35053  0.95161  0.10637  1.0000
  H   H1052     1.0  0.33558  0.94971  0.12820  1.0000
  H   H1053     1.0  0.24083  0.95543  0.44238  1.0000
  H   H1054     1.0  0.24801  0.56512  0.15229  1.0000
  H   H1055     1.0  0.36496  0.94734  0.12158  1.0000
  H   H1056     1.0  0.33493  0.97945  0.27856  1.0000
  H   H1057     1.0  0.31595  0.97207  0.36457  1.0000
  H   H1058     1.0  0.41016  0.83168  0.48127  1.0000
  C   C596      1.0  0.25661  0.55287  0.14108  1.0000
  C   C597      1.0  0.36375  0.97889  0.08997  1.0000
  H   H1059     1.0  0.37918  0.97996  0.06980  1.0000
  H   H1060     1.0  0.22554  0.97026  0.41297  1.0000
  H   H1061     1.0  0.22551  0.87313  0.45383  1.0000
  C   C598      1.0  0.29939  0.48367  0.25067  1.0000
  N   N33       1.0  0.43657  0.88025  0.52173  1.0000
  Fe  Fe70      1.0  0.38543  0.90560  0.63164  1.0000
  S   S138      1.0  0.40200  0.94045  0.59357  1.0000
  S   S139      1.0  0.40856  0.88741  0.65964  1.0000
  Fe  Fe71      1.0  0.33102  0.90085  0.62648  1.0000
  S   S140      1.0  0.34435  0.93616  0.58805  1.0000
  S   S141      1.0  0.28895  0.88166  0.64669  1.0000
  Fe  Fe72      1.0  0.36674  0.91954  0.55453  1.0000
  C   C599      1.0  0.45575  0.86987  0.52707  1.0000
  Fe  Fe73      1.0  0.37834  0.95404  0.63009  1.0000
  S   S142      1.0  0.35162  0.88332  0.59068  1.0000
  S   S143      1.0  0.36358  0.92025  0.67057  1.0000
  C   C600      1.0  0.26034  0.80321  0.64552  1.0000
  C   C601      1.0  0.27695  0.82974  0.64097  1.0000
  C   C602      1.0  0.26930  0.84802  0.65376  1.0000
  H   H1062     1.0  0.26645  0.78926  0.63538  1.0000
  H   H1063     1.0  0.29557  0.83602  0.62727  1.0000
  H   H1064     1.0  0.30371  0.96930  0.82806  1.0000
  H   H1065     1.0  0.44179  0.96377  0.51496  1.0000
  C   C603      1.0  0.29801  0.96285  0.48658  1.0000
  C   C604      1.0  0.44244  0.89893  0.65838  1.0000
  C   C605      1.0  0.45312  0.88432  0.67596  1.0000
  C   C606      1.0  0.23602  0.79455  0.66328  1.0000
  H   H1066     1.0  0.45076  0.93326  0.62617  1.0000
  H   H1067     1.0  0.44057  0.86639  0.69014  1.0000
  C   C607      1.0  0.28133  0.86949  0.95936  1.0000
  C   C608      1.0  0.43879  0.57356  0.65846  1.0000
  C   C609      1.0  0.44591  0.55656  0.63903  1.0000
  C   C610      1.0  0.42985  0.52971  0.64069  1.0000
  C   C611      1.0  0.40638  0.51954  0.66137  1.0000
  C   C612      1.0  0.39920  0.53654  0.68064  1.0000
  C   C613      1.0  0.41536  0.56337  0.67924  1.0000
  C   C614      1.0  0.28733  0.48819  0.81664  1.0000
  H   H1068     1.0  0.43564  0.51675  0.62577  1.0000
  H   H1069     1.0  0.38131  0.52903  0.69687  1.0000
  H   H1070     1.0  0.40963  0.57634  0.69427  1.0000
  H   H1071     1.0  0.41092  0.83038  0.55450  1.0000
  H   H1072     1.0  0.44989  0.96126  0.68815  1.0000
  H   H1073     1.0  0.28001  0.55529  0.72856  1.0000
  H   H1074     1.0  0.41475  0.96717  0.75666  1.0000
  C   C615      1.0  0.45883  0.92202  0.64004  1.0000
  C   C616      1.0  0.45283  0.95337  0.52346  1.0000
  H   H1075     1.0  0.28846  0.53059  0.78188  1.0000
  H   H1076     1.0  0.45558  0.86739  0.59224  1.0000
  C   C617      1.0  0.23591  0.49835  0.90286  1.0000
  H   H1077     1.0  0.32020  0.52686  0.81048  1.0000
  N   N34       1.0  0.26469  0.49137  0.80132  1.0000
  H   H1078     1.0  0.34678  0.52438  0.86422  1.0000
  H   H1079     1.0  0.46041  0.50175  0.77059  1.0000
  H   H1080     1.0  0.37070  0.84286  0.59439  1.0000
  C   C618      1.0  0.39352  0.91633  0.76872  1.0000
  H   H1081     1.0  0.27167  0.87377  0.93431  1.0000
  C   C619      1.0  0.22573  0.48373  0.64937  1.0000
  C   C620      1.0  0.31018  0.51276  0.83412  1.0000
  H   H1082     1.0  0.30356  0.52202  0.85710  1.0000
  H   H1083     1.0  0.26596  0.52106  0.84150  1.0000
  C   C621      1.0  0.38278  0.83280  0.59199  1.0000
  H   H1084     1.0  0.41835  0.91791  0.53096  1.0000
  H   H1085     1.0  0.44666  0.84872  0.52247  1.0000
  C   C622      1.0  0.26637  0.53648  0.71507  1.0000
  C   C623      1.0  0.25273  0.50069  0.83314  1.0000
  C   C624      1.0  0.45123  0.90924  0.52659  1.0000
  H   H1086     1.0  0.44879  0.77080  0.72077  1.0000
  C   C625      1.0  0.45192  0.97968  0.70085  1.0000
  H   H1087     1.0  0.25117  0.53901  0.69890  1.0000
  H   H1088     1.0  0.47103  0.96128  0.50630  1.0000
  C   C626      1.0  0.45783  0.51940  0.77352  1.0000
  H   H1089     1.0  0.29622  0.86459  0.94721  1.0000
  C   C627      1.0  0.42016  0.93304  0.75130  1.0000
  S   S144      1.0  0.45851  0.60752  0.65804  1.0000
  H   H1090     1.0  0.29081  0.88707  0.97832  1.0000
  C   C628      1.0  0.25132  0.85590  0.55475  1.0000
  H   H1091     1.0  0.30042  0.94623  0.49752  1.0000
  H   H1092     1.0  0.32174  0.49342  0.87869  1.0000
  H   H1093     1.0  0.43277  0.50992  0.72114  1.0000
  C   C629      1.0  0.24490  0.83937  0.67137  1.0000
  H   H1094     1.0  0.43317  0.92560  0.76285  1.0000
  H   H1095     1.0  0.47523  0.77138  0.69245  1.0000
  H   H1096     1.0  0.24370  0.52324  0.76726  1.0000
  C   C630      1.0  0.33022  0.50641  0.85322  1.0000
  H   H1097     1.0  0.38550  0.83391  0.52896  1.0000
  H   H1098     1.0  0.27689  0.53041  0.69340  1.0000
  H   H1099     1.0  0.31378  0.97057  0.59756  1.0000
  C   C631      1.0  0.39906  0.84066  0.55448  1.0000
  H   H1100     1.0  0.36985  0.81171  0.59134  1.0000
  H   H1101     1.0  0.28561  0.50637  0.74693  1.0000
  H   H1102     1.0  0.42396  0.87749  0.58243  1.0000
  H   H1103     1.0  0.45576  0.52215  0.80580  1.0000
  H   H1104     1.0  0.39439  0.91705  0.80155  1.0000
  H   H1105     1.0  0.37945  0.92288  0.75853  1.0000
  H   H1106     1.0  0.47090  0.87788  0.50389  1.0000
  H   H1107     1.0  0.25227  0.51722  0.91136  1.0000
  H   H1108     1.0  0.23879  0.85331  0.68144  1.0000
  H   H1109     1.0  0.42546  0.52764  0.75886  1.0000
  S   S145      1.0  0.24789  0.94163  0.97711  1.0000
  H   H1110     1.0  0.25363  0.96766  0.62029  1.0000
  H   H1111     1.0  0.47021  0.56709  0.79242  1.0000
  S   S146      1.0  0.37380  0.91803  0.48768  1.0000
  H   H1112     1.0  0.26039  0.84490  0.56857  1.0000
  H   H1113     1.0  0.23953  0.49822  0.73226  1.0000
  H   H1114     1.0  0.28913  0.97325  0.54321  1.0000
  H   H1115     1.0  0.46373  0.56412  0.62263  1.0000
  H   H1116     1.0  0.43345  0.97985  0.69302  1.0000
  H   H1117     1.0  0.23551  0.93311  0.62314  1.0000
  H   H1118     1.0  0.45890  0.56260  0.74253  1.0000
  H   H1119     1.0  0.38657  0.89602  0.75874  1.0000
  H   H1120     1.0  0.25221  0.85433  0.52207  1.0000
  H   H1121     1.0  0.45727  0.91464  0.55790  1.0000
  H   H1122     1.0  0.41831  0.93028  0.71877  1.0000
  H   H1123     1.0  0.40176  0.87805  0.54809  1.0000
  H   H1124     1.0  0.25211  0.83021  0.96252  1.0000
  C   C632      1.0  0.27465  0.51150  0.76939  1.0000
  C   C633      1.0  0.43153  0.51249  0.75343  1.0000
  H   H1125     1.0  0.46355  0.70233  0.54437  1.0000
  H   H1126     1.0  0.43180  0.96217  0.79635  1.0000
  H   H1127     1.0  0.37481  0.97311  0.72424  1.0000
  S   S147      1.0  0.38774  0.48551  0.66468  1.0000
  H   H1128     1.0  0.26265  0.87648  0.56363  1.0000
  H   H1129     1.0  0.33751  0.49700  0.83135  1.0000
  C   C634      1.0  0.41013  0.48745  0.76957  1.0000
  H   H1130     1.0  0.33648  0.97735  0.53730  1.0000
  H   H1131     1.0  0.39537  0.83747  0.61859  1.0000
  C   C635      1.0  0.41566  0.87025  0.55262  1.0000
  C   C636      1.0  0.43021  0.96167  0.76354  1.0000
  H   H1132     1.0  0.40778  0.48931  0.80186  1.0000
  C   C637      1.0  0.30731  0.97961  0.67652  1.0000
  C   C638      1.0  0.23591  0.95058  0.60987  1.0000
  C   C639      1.0  0.25398  0.51613  0.74692  1.0000
  H   H1133     1.0  0.47386  0.96822  0.78921  1.0000
  C   C640      1.0  0.22842  0.81282  0.67633  1.0000
  H   H1134     1.0  0.45746  0.95678  0.55553  1.0000
  H   H1135     1.0  0.23945  0.50310  0.64138  1.0000
  C   C641      1.0  0.46990  0.78157  0.71585  1.0000
  C   C642      1.0  0.43662  0.92460  0.51460  1.0000
  N   N35       1.0  0.45526  0.98075  0.74526  1.0000
  H   H1136     1.0  0.46684  0.93952  0.72476  1.0000
  H   H1137     1.0  0.23668  0.94925  0.57711  1.0000
  H   H1138     1.0  0.47204  0.54229  0.69525  1.0000
  H   H1139     1.0  0.31505  0.98173  0.70706  1.0000
  H   H1140     1.0  0.22938  0.48630  0.92971  1.0000
  C   C643      1.0  0.46965  0.87546  0.56786  1.0000
  H   H1141     1.0  0.46936  0.91704  0.50901  1.0000
  H   H1142     1.0  0.23508  0.50106  0.82165  1.0000
  H   H1143     1.0  0.29791  0.95880  0.66831  1.0000
  C   C644      1.0  0.26141  0.84705  0.98303  1.0000
  H   H1144     1.0  0.32081  0.97504  0.78187  1.0000
  H   H1145     1.0  0.47460  0.80120  0.70542  1.0000
  H   H1146     1.0  0.47238  0.61042  0.74568  1.0000
  C   C645      1.0  0.24429  0.48475  0.87143  1.0000
  C   C646      1.0  0.30348  0.98277  0.51965  1.0000
  S   S148      1.0  0.53653  0.41740  0.32672  1.0000
  Fe  Fe74      1.0  0.65223  0.10980  0.42536  1.0000
  S   S149      1.0  0.66686  0.14915  0.39825  1.0000
  H   H1147     1.0  0.67159  0.17457  0.28040  1.0000
  Fe  Fe75      1.0  0.64000  0.08209  0.34297  1.0000
  S   S150      1.0  0.65431  0.11942  0.31071  1.0000
  S   S151      1.0  0.61986  0.04088  0.31730  1.0000
  Fe  Fe76      1.0  0.68731  0.13566  0.35453  1.0000
  Fe  Fe77      1.0  0.63272  0.13027  0.35615  1.0000
  S   S152      1.0  0.61083  0.15096  0.33170  1.0000
  S   S153      1.0  0.67457  0.09714  0.38371  1.0000
  S   S154      1.0  0.61657  0.09212  0.38642  1.0000
  C   C647      1.0  0.48134  0.46250  0.28492  1.0000
  C   C648      1.0  0.57671  0.13787  0.32776  1.0000
  C   C649      1.0  0.55999  0.11336  0.34176  1.0000
  C   C650      1.0  0.53307  0.10353  0.33732  1.0000
  C   C651      1.0  0.52250  0.11808  0.31911  1.0000
  C   C652      1.0  0.53921  0.14272  0.30556  1.0000
  C   C653      1.0  0.56614  0.15248  0.30975  1.0000
  H   H1148     1.0  0.56779  0.10203  0.35611  1.0000
  H   H1149     1.0  0.52034  0.08453  0.34815  1.0000
  H   H1150     1.0  0.53140  0.15413  0.29146  1.0000
  H   H1151     1.0  0.57886  0.17150  0.29898  1.0000
  C   C654      1.0  0.61531  0.02670  0.26908  1.0000
  C   C655      1.0  0.59706  0.00067  0.26383  1.0000
  C   C656      1.0  0.51035  0.27586  0.14378  1.0000
  C   C657      1.0  0.60605  0.00227  0.19325  1.0000
  C   C658      1.0  0.62458  0.02822  0.19855  1.0000
  C   C659      1.0  0.62930  0.04033  0.23622  1.0000
  H   H1152     1.0  0.68295  0.01561  0.47298  1.0000
  H   H1153     1.0  0.63535  0.03903  0.17331  1.0000
  H   H1154     1.0  0.64362  0.06024  0.23979  1.0000
  C   C660      1.0  0.55745  0.45118  0.32705  1.0000
  H   H1155     1.0  0.69377  0.24495  0.32156  1.0000
  C   C661      1.0  0.57971  0.46082  0.30339  1.0000
  C   C662      1.0  0.66770  0.48072  0.32095  1.0000
  H   H1156     1.0  0.58352  0.44760  0.28523  1.0000
  H   H1157     1.0  0.53070  0.30380  0.09837  1.0000
  H   H1158     1.0  0.70109  0.05455  0.13332  1.0000
  H   H1159     1.0  0.54551  0.09454  0.25980  1.0000
  H   H1160     1.0  0.66979  0.46414  0.33258  1.0000
  H   H1161     1.0  0.66722  0.18758  0.34481  1.0000
  H   H1162     1.0  0.63639  0.45596  0.28116  1.0000
  H   H1163     1.0  0.57184  0.03409  0.18567  1.0000
  C   C663      1.0  0.53735  0.99839  0.18569  1.0000
  H   H1164     1.0  0.70846  0.23196  0.22125  1.0000
  H   H1165     1.0  0.69694  0.21404  0.39913  1.0000
  H   H1166     1.0  0.50268  0.21736  0.21694  1.0000
  H   H1167     1.0  0.66889  0.21607  0.19886  1.0000
  H   H1168     1.0  0.51837  0.32965  0.27336  1.0000
  H   H1169     1.0  0.48380  0.22143  0.25493  1.0000
  H   H1170     1.0  0.65330  0.20940  0.34374  1.0000
  H   H1171     1.0  0.54812  0.98713  0.18089  1.0000
  H   H1172     1.0  0.52694  0.04969  0.30971  1.0000
  H   H1173     1.0  0.60240  0.06549  0.21776  1.0000
  H   H1174     1.0  0.57445  0.08304  0.18001  1.0000
  H   H1175     1.0  0.56145  0.02015  0.23399  1.0000
  H   H1176     1.0  0.71076  0.05411  0.40662  1.0000
  H   H1177     1.0  0.54120  0.25970  0.24568  1.0000
  H   H1178     1.0  0.64728  0.19705  0.28158  1.0000
  H   H1179     1.0  0.51945  0.25736  0.28535  1.0000
  H   H1180     1.0  0.66091  0.23013  0.26837  1.0000
  H   H1181     1.0  0.63138  0.47055  0.34873  1.0000
  C   C664      1.0  0.53074  0.22736  0.28303  1.0000
  C   C665      1.0  0.57813  0.08515  0.21251  1.0000
  H   H1182     1.0  0.54767  0.23803  0.30271  1.0000
  H   H1183     1.0  0.48497  0.31071  0.25948  1.0000
  H   H1184     1.0  0.57247  0.07976  0.29174  1.0000
  C   C666      1.0  0.55267  0.46857  0.35003  1.0000
  C   C667      1.0  0.55106  0.03716  0.34014  1.0000
  C   C668      1.0  0.66164  0.47408  0.41038  1.0000
  H   H1185     1.0  0.64407  0.43769  0.47116  1.0000
  C   C669      1.0  0.69074  0.19114  0.27410  1.0000
  S   S155      1.0  0.48850  0.10411  0.31226  1.0000
  H   H1186     1.0  0.53568  0.46149  0.36842  1.0000
  H   H1187     1.0  0.47859  0.25900  0.25948  1.0000
  C   C670      1.0  0.50457  0.40031  0.22321  1.0000
  C   C671      1.0  0.70095  0.18536  0.23461  1.0000
  H   H1188     1.0  0.67114  0.03461  0.44844  1.0000
  H   H1189     1.0  0.68026  0.03843  0.06714  1.0000
  H   H1190     1.0  0.54634  0.28490  0.11319  1.0000
  H   H1191     1.0  0.71124  0.04390  0.19481  1.0000
  H   H1192     1.0  0.58188  0.10520  0.22027  1.0000
  C   C672      1.0  0.68913  0.03499  0.46031  1.0000
  H   H1193     1.0  0.67793  0.03461  0.20194  1.0000
  H   H1194     1.0  0.57794  0.47791  0.44073  1.0000
  H   H1195     1.0  0.61124  0.09249  0.25064  1.0000
  C   C673      1.0  0.65473  0.20289  0.22026  1.0000
  Fe  Fe78      1.0  0.49713  0.39369  0.35602  1.0000
  H   H1196     1.0  0.72487  0.03755  0.43442  1.0000
  C   C674      1.0  0.69262  0.02748  0.20374  1.0000
  C   C675      1.0  0.50008  0.23226  0.23456  1.0000
  H   H1197     1.0  0.49847  0.26143  0.12091  1.0000
  C   C676      1.0  0.71147  0.98536  0.13658  1.0000
  H   H1198     1.0  0.66370  0.20369  0.41155  1.0000
  H   H1199     1.0  0.57697  0.05376  0.27337  1.0000
  H   H1200     1.0  0.52610  0.44707  0.19239  1.0000
  C   C677      1.0  0.50255  0.30970  0.26973  1.0000
  C   C678      1.0  0.53650  0.07719  0.24007  1.0000
  S   S156      1.0  0.60134  0.98786  0.14518  1.0000
  H   H1201     1.0  0.67576  0.99683  0.11356  1.0000
  C   C679      1.0  0.51048  0.29468  0.24017  1.0000
  H   H1202     1.0  0.52954  0.02305  0.28638  1.0000
  H   H1203     1.0  0.52232  0.40339  0.23943  1.0000
  H   H1204     1.0  0.54745  0.31052  0.14515  1.0000
  H   H1205     1.0  0.53690  0.04518  0.18025  1.0000
  H   H1206     1.0  0.72224  0.08553  0.44874  1.0000
  C   C680      1.0  0.54045  0.04196  0.30155  1.0000
  N   N36       1.0  0.49377  0.24891  0.20733  1.0000
  C   C681      1.0  0.48771  0.26767  0.23083  1.0000
  H   H1207     1.0  0.56412  0.02850  0.33406  1.0000
  H   H1208     1.0  0.53561  0.45132  0.24251  1.0000
  C   C682      1.0  0.56253  0.06110  0.27514  1.0000
  H   H1209     1.0  0.61910  0.09497  0.16042  1.0000
  H   H1210     1.0  0.52117  0.24760  0.16543  1.0000
  C   C683      1.0  0.48097  0.46660  0.32959  1.0000
  H   H1211     1.0  0.53561  0.21593  0.26123  1.0000
  C   C684      1.0  0.70939  0.23747  0.25289  1.0000
  N   N37       1.0  0.55479  0.06568  0.23450  1.0000
  H   H1212     1.0  0.52158  0.47104  0.28865  1.0000
  C   C685      1.0  0.67954  0.21615  0.39155  1.0000
  H   H1213     1.0  0.51447  0.21405  0.30155  1.0000
  H   H1214     1.0  0.49145  0.45758  0.34511  1.0000
  C   C686      1.0  0.54093  0.04100  0.21073  1.0000
  H   H1215     1.0  0.70585  0.25465  0.25296  1.0000
  H   H1216     1.0  0.70125  0.02371  0.05889  1.0000
  C   C687      1.0  0.60422  0.08504  0.22031  1.0000
  C   C688      1.0  0.52758  0.08523  0.20167  1.0000
  C   C689      1.0  0.70650  0.03685  0.42448  1.0000
  H   H1217     1.0  0.70559  0.98468  0.20025  1.0000
  C   C690      1.0  0.51107  0.09861  0.21126  1.0000
  H   H1218     1.0  0.52240  0.11666  0.22847  1.0000
  C   C691      1.0  0.62487  0.10214  0.19124  1.0000
  C   C692      1.0  0.69251  0.22535  0.31936  1.0000
  H   H1219     1.0  0.53492  0.02363  0.35869  1.0000
  H   H1220     1.0  0.52159  0.02872  0.22354  1.0000
  H   H1221     1.0  0.53345  0.27614  0.19408  1.0000
  H   H1222     1.0  0.50775  0.39971  0.19090  1.0000
  H   H1223     1.0  0.48582  0.25721  0.37691  1.0000
  H   H1224     1.0  0.68998  0.08016  0.45673  1.0000
  H   H1225     1.0  0.72136  0.03943  0.12541  1.0000
  H   H1226     1.0  0.67654  0.00989  0.26108  1.0000
  C   C693      1.0  0.55502  0.02431  0.20538  1.0000
  H   H1227     1.0  0.67669  0.44482  0.45774  1.0000
  H   H1228     1.0  0.66829  0.46789  0.26064  1.0000
  H   H1229     1.0  0.52735  0.29347  0.25273  1.0000
  H   H1230     1.0  0.67393  0.14449  0.23078  1.0000
  C   C694      1.0  0.51574  0.26198  0.17873  1.0000
  C   C695      1.0  0.52384  0.24641  0.26206  1.0000
  N   N38       1.0  0.51344  0.47094  0.22605  1.0000
  H   H1231     1.0  0.69259  0.18973  0.20824  1.0000
  C   C696      1.0  0.67139  0.20796  0.34862  1.0000
  H   H1232     1.0  0.49964  0.28639  0.15362  1.0000
  H   H1233     1.0  0.49876  0.30037  0.29903  1.0000
  C   C697      1.0  0.69507  0.15712  0.23119  1.0000
  H   H1234     1.0  0.60436  0.47555  0.38716  1.0000
  N   N39       1.0  0.68895  0.21614  0.27672  1.0000
  H   H1235     1.0  0.62808  0.12236  0.19376  1.0000
  H   H1236     1.0  0.52050  0.98699  0.20474  1.0000
  C   C698      1.0  0.51927  0.44838  0.22265  1.0000
  C   C699      1.0  0.70672  0.04783  0.27214  1.0000
  H   H1237     1.0  0.65259  0.18314  0.21613  1.0000
  H   H1238     1.0  0.64326  0.10170  0.19800  1.0000
  H   H1239     1.0  0.51563  0.06807  0.18303  1.0000
  S   S157      1.0  0.48707  0.35856  0.39374  1.0000
  H   H1240     1.0  0.53047  0.00126  0.15644  1.0000
  H   H1241     1.0  0.48873  0.38137  0.23191  1.0000
  C   C700      1.0  0.70742  0.08130  0.47194  1.0000
  H   H1242     1.0  0.62304  0.19439  0.17947  1.0000
  H   H1243     1.0  0.54418  0.09875  0.18395  1.0000
  H   H1244     1.0  0.62943  0.22079  0.21320  1.0000
  C   C701      1.0  0.69321  0.01351  0.39675  1.0000
  H   H1245     1.0  0.49383  0.08575  0.22856  1.0000
  H   H1246     1.0  0.71471  0.05814  0.06387  1.0000
  C   C702      1.0  0.49729  0.42165  0.23351  1.0000
  C   C703      1.0  0.69561  0.02267  0.24808  1.0000
  H   H1247     1.0  0.61343  0.18789  0.23044  1.0000
  C   C704      1.0  0.62856  0.20145  0.21038  1.0000
  S   S158      1.0  0.47820  0.16228  0.26145  1.0000
  H   H1248     1.0  0.51686  0.30626  0.21291  1.0000
  H   H1249     1.0  0.64308  0.45620  0.40626  1.0000
  H   H1250     1.0  0.70378  0.15178  0.25629  1.0000
  H   H1251     1.0  0.69383  0.05703  0.27014  1.0000
  H   H1252     1.0  0.71109  0.22736  0.33121  1.0000
  H   H1253     1.0  0.68896  0.99543  0.41251  1.0000
  H   H1254     1.0  0.49394  0.42089  0.26587  1.0000
  C   C705      1.0  0.66265  0.21209  0.26349  1.0000
  C   C706      1.0  0.66859  0.47768  0.45494  1.0000
  H   H1255     1.0  0.70325  0.15386  0.20330  1.0000
  H   H1256     1.0  0.68360  0.23648  0.39663  1.0000
  H   H1257     1.0  0.64639  0.98946  0.19660  1.0000
  H   H1258     1.0  0.58627  0.98983  0.28905  1.0000
  C   C707      1.0  0.50934  0.47602  0.26888  1.0000
  C   C708      1.0  0.53530  0.29492  0.12402  1.0000
  H   H1259     1.0  0.67493  0.01231  0.38496  1.0000
  C   C709      1.0  0.59243  0.98852  0.22624  1.0000
  C   C710      1.0  0.70197  0.03770  0.11920  1.0000
  H   H1260     1.0  0.49784  0.44800  0.14945  1.0000
  C   C711      1.0  0.70749  0.99770  0.17530  1.0000
  C   C712      1.0  0.49045  0.46714  0.20115  1.0000
  H   H1261     1.0  0.51853  0.06349  0.25505  1.0000
  H   H1262     1.0  0.56178  0.05546  0.35705  1.0000
  H   H1263     1.0  0.67635  0.46964  0.39625  1.0000
  H   H1264     1.0  0.66231  0.01481  0.13703  1.0000
  C   C713      1.0  0.69925  0.03950  0.07452  1.0000
  C   C714      1.0  0.49277  0.46374  0.15595  1.0000
  H   H1265     1.0  0.70360  0.19027  0.29769  1.0000
  H   H1266     1.0  0.50443  0.10362  0.18342  1.0000
  H   H1267     1.0  0.70381  0.12715  0.46384  1.0000
  H   H1268     1.0  0.70855  0.01367  0.25182  1.0000
  C   C715      1.0  0.65574  0.47295  0.27967  1.0000
  C   C716      1.0  0.68016  0.01236  0.13586  1.0000
  S   S159      1.0  0.47571  0.40867  0.39488  1.0000
  N   N40       1.0  0.68557  0.00472  0.17591  1.0000
  H   H1269     1.0  0.47911  0.41710  0.21758  1.0000
  H   H1270     1.0  0.70605  0.01527  0.37149  1.0000
  H   H1271     1.0  0.72219  0.19714  0.23295  1.0000
  C   C717      1.0  0.72234  0.12948  0.47632  1.0000
  H   H1272     1.0  0.70838  0.04374  0.30372  1.0000
  H   H1273     1.0  0.69771  0.98737  0.01303  1.0000
  C   C718      1.0  0.66467  0.45233  0.47312  1.0000
  H   H1274     1.0  0.61378  0.46657  0.43267  1.0000
  H   H1275     1.0  0.71919  0.99996  0.11300  1.0000
  C   C719      1.0  0.61419  0.48294  0.41594  1.0000
  H   H1276     1.0  0.50758  0.48185  0.14295  1.0000
  H   H1277     1.0  0.65805  0.98334  0.99972  1.0000
  H   H1278     1.0  0.63908  0.07439  0.69742  1.0000
  S   S160      1.0  0.64865  0.09809  0.49097  1.0000
  C   C720      1.0  0.64708  0.02289  0.57184  1.0000
  S   S161      1.0  0.69671  0.14656  0.83460  1.0000
  Fe  Fe79      1.0  0.71252  0.12762  0.79246  1.0000
  Fe  Fe80      1.0  0.69992  0.15114  0.71894  1.0000
  S   S162      1.0  0.68399  0.17231  0.75737  1.0000
  S   S163      1.0  0.70248  0.15850  0.65188  1.0000
  C   C721      1.0  0.60434  0.07803  0.68514  1.0000
  Fe  Fe81      1.0  0.66397  0.13534  0.79088  1.0000
  S   S164      1.0  0.62135  0.11193  0.80716  1.0000
  H   H1279     1.0  0.53172  0.42823  0.56652  1.0000
  S   S165      1.0  0.67849  0.11373  0.75076  1.0000
  Fe  Fe82      1.0  0.49254  0.12909  0.85237  1.0000
  S   S166      1.0  0.53382  0.14819  0.82801  1.0000
  C   C722      1.0  0.59751  0.12262  0.81370  1.0000
  C   C723      1.0  0.60223  0.14771  0.80485  1.0000
  C   C724      1.0  0.58250  0.15509  0.80943  1.0000
  C   C725      1.0  0.55789  0.13764  0.82323  1.0000
  C   C726      1.0  0.55318  0.11252  0.83204  1.0000
  C   C727      1.0  0.57284  0.10506  0.82710  1.0000
  H   H1280     1.0  0.62104  0.16145  0.79449  1.0000
  H   H1281     1.0  0.58637  0.17456  0.80254  1.0000
  H   H1282     1.0  0.53440  0.09888  0.84267  1.0000
  H   H1283     1.0  0.56894  0.08560  0.83402  1.0000
  H   H1284     1.0  0.69153  0.06214  0.55170  1.0000
  C   C728      1.0  0.62887  0.98448  0.85722  1.0000
  H   H1285     1.0  0.61390  0.14964  0.71320  1.0000
  H   H1286     1.0  0.59922  0.09823  0.61331  1.0000
  H   H1287     1.0  0.71179  0.02821  0.55474  1.0000
  H   H1288     1.0  0.65595  0.15850  0.68213  1.0000
  H   H1289     1.0  0.50177  0.38605  0.81472  1.0000
  H   H1290     1.0  0.52994  0.07145  0.71002  1.0000
  C   C729      1.0  0.68820  0.04935  0.72351  1.0000
  H   H1291     1.0  0.58418  0.06861  0.69584  1.0000
  H   H1292     1.0  0.48357  0.44867  0.83129  1.0000
  C   C730      1.0  0.66344  0.11537  0.53551  1.0000
  C   C731      1.0  0.68019  0.14182  0.53609  1.0000
  C   C732      1.0  0.69183  0.15453  0.57193  1.0000
  C   C733      1.0  0.68691  0.14110  0.60781  1.0000
  C   C734      1.0  0.67013  0.11460  0.60729  1.0000
  C   C735      1.0  0.65842  0.10190  0.57141  1.0000
  H   H1293     1.0  0.68425  0.15252  0.50890  1.0000
  C   C736      1.0  0.60864  0.11870  0.62336  1.0000
  H   H1294     1.0  0.66628  0.10391  0.63444  1.0000
  H   H1295     1.0  0.64551  0.08144  0.57141  1.0000
  C   C737      1.0  0.48949  0.41530  0.82110  1.0000
  C   C738      1.0  0.49746  0.44131  0.83133  1.0000
  C   C739      1.0  0.52336  0.45794  0.84169  1.0000
  C   C740      1.0  0.54177  0.44890  0.84106  1.0000
  C   C741      1.0  0.53368  0.42283  0.83116  1.0000
  C   C742      1.0  0.50769  0.40608  0.82164  1.0000
  H   H1296     1.0  0.67130  0.01143  0.53829  1.0000
  H   H1297     1.0  0.60940  0.04575  0.70622  1.0000
  H   H1298     1.0  0.54766  0.41552  0.83094  1.0000
  H   H1299     1.0  0.64703  0.99199  0.80025  1.0000
  H   H1300     1.0  0.57763  0.12363  0.59404  1.0000
  C   C743      1.0  0.64751  0.00366  0.82663  1.0000
  H   H1301     1.0  0.60043  0.14175  0.53216  1.0000
  H   H1302     1.0  0.67332  0.20525  0.67784  1.0000
  H   H1303     1.0  0.54304  0.47564  0.76680  1.0000
  H   H1304     1.0  0.64626  0.16715  0.63674  1.0000
  H   H1305     1.0  0.65846  0.08021  0.82667  1.0000
  H   H1306     1.0  0.56567  0.08834  0.66010  1.0000
  H   H1307     1.0  0.60444  0.07228  0.65381  1.0000
  C   C744      1.0  0.57845  0.98708  0.75521  1.0000
  H   H1308     1.0  0.53004  0.45783  0.55860  1.0000
  H   H1309     1.0  0.64150  0.20239  0.67075  1.0000
  C   C745      1.0  0.65257  0.19349  0.68485  1.0000
  H   H1310     1.0  0.63306  0.00257  0.57799  1.0000
  C   C746      1.0  0.56649  0.10639  0.71739  1.0000
  C   C747      1.0  0.64831  0.08190  0.88697  1.0000
  H   H1311     1.0  0.70463  0.06650  0.73696  1.0000
  C   C748      1.0  0.64375  0.06723  0.84765  1.0000
  Fe  Fe83      1.0  0.71833  0.18194  0.79741  1.0000
  C   C749      1.0  0.61655  0.10782  0.68989  1.0000
  H   H1312     1.0  0.64760  0.01536  0.50974  1.0000
  H   H1313     1.0  0.70479  0.17499  0.57187  1.0000
  H   H1314     1.0  0.61765  0.00830  0.73721  1.0000
  C   C750      1.0  0.60726  0.99796  0.76400  1.0000
  H   H1315     1.0  0.49073  0.37797  0.68879  1.0000
  H   H1316     1.0  0.57479  0.09650  0.73590  1.0000
  H   H1317     1.0  0.67590  0.05573  0.70660  1.0000
  C   C751      1.0  0.59902  0.13299  0.59469  1.0000
  H   H1318     1.0  0.49290  0.00593  0.68882  1.0000
  C   C752      1.0  0.61918  0.06709  0.70894  1.0000
  H   H1319     1.0  0.48370  0.25079  0.83700  1.0000
  H   H1320     1.0  0.60313  0.15763  0.66919  1.0000
  C   C753      1.0  0.57502  0.10804  0.67355  1.0000
  H   H1321     1.0  0.66779  0.08691  0.89889  1.0000
  H   H1322     1.0  0.54523  0.46988  0.67672  1.0000
  H   H1323     1.0  0.68314  0.99236  0.94196  1.0000
  H   H1324     1.0  0.61717  0.11249  0.72200  1.0000
  C   C754      1.0  0.64340  0.16600  0.66922  1.0000
  H   H1325     1.0  0.57262  0.12596  0.73006  1.0000
  C   C755      1.0  0.61534  0.01680  0.79991  1.0000
  H   H1326     1.0  0.54434  0.37733  0.74620  1.0000
  H   H1327     1.0  0.63717  0.11565  0.68130  1.0000
  H   H1328     1.0  0.53166  0.09107  0.75258  1.0000
  H   H1329     1.0  0.62954  0.12552  0.61805  1.0000
  H   H1330     1.0  0.65027  0.19365  0.71746  1.0000
  C   C756      1.0  0.60825  0.13230  0.55256  1.0000
  C   C757      1.0  0.66194  0.02392  0.53414  1.0000
  H   H1331     1.0  0.56620  0.11874  0.65801  1.0000
  H   H1332     1.0  0.60166  0.11211  0.54214  1.0000
  H   H1333     1.0  0.68547  0.02392  0.77048  1.0000
  H   H1334     1.0  0.65695  0.01331  0.74071  1.0000
  C   C758      1.0  0.61488  0.14853  0.68035  1.0000
  C   C759      1.0  0.66214  0.04318  0.78624  1.0000
  H   H1335     1.0  0.63627  0.03419  0.56835  1.0000
  C   C760      1.0  0.53717  0.09158  0.72102  1.0000
  N   N41       1.0  0.50040  0.41813  0.68262  1.0000
  C   C761      1.0  0.51558  0.42136  0.64508  1.0000
  C   C762      1.0  0.50064  0.39638  0.70603  1.0000
  H   H1336     1.0  0.69604  0.03994  0.70261  1.0000
  C   C763      1.0  0.51018  0.44254  0.70753  1.0000
  H   H1337     1.0  0.71430  0.28251  0.80035  1.0000
  C   C764      1.0  0.51268  0.43888  0.61344  1.0000
  H   H1338     1.0  0.70889  0.98657  0.92333  1.0000
  C   C765      1.0  0.52732  0.39955  0.71940  1.0000
  C   C766      1.0  0.52523  0.37423  0.73507  1.0000
  H   H1339     1.0  0.62965  0.14277  0.55125  1.0000
  H   H1340     1.0  0.67976  0.05757  0.80200  1.0000
  H   H1341     1.0  0.51413  0.45689  0.62696  1.0000
  H   H1342     1.0  0.50974  0.40221  0.63060  1.0000
  H   H1343     1.0  0.53643  0.42890  0.65134  1.0000
  H   H1344     1.0  0.48960  0.39344  0.73393  1.0000
  S   S167      1.0  0.57506  0.46922  0.85126  1.0000
  H   H1345     1.0  0.60097  0.00785  0.82386  1.0000
  H   H1346     1.0  0.65462  0.05477  0.76992  1.0000
  H   H1347     1.0  0.61992  0.07247  0.74074  1.0000
  H   H1348     1.0  0.50469  0.43769  0.73909  1.0000
  H   H1349     1.0  0.66751  0.01128  0.83862  1.0000
  C   C767      1.0  0.72103  0.02198  0.95544  1.0000
  H   H1350     1.0  0.48137  0.37282  0.57893  1.0000
  H   H1351     1.0  0.50059  0.45434  0.69870  1.0000
  H   H1352     1.0  0.63013  0.03030  0.87474  1.0000
  C   C768      1.0  0.67250  0.03032  0.75550  1.0000
  H   H1353     1.0  0.54148  0.40547  0.69509  1.0000
  H   H1354     1.0  0.53500  0.41401  0.74383  1.0000
  H   H1355     1.0  0.51131  0.36700  0.75980  1.0000
  H   H1356     1.0  0.64703  0.10006  0.88234  1.0000
  H   H1357     1.0  0.49562  0.99435  0.76084  1.0000
  H   H1358     1.0  0.52785  0.10125  0.70411  1.0000
  H   H1359     1.0  0.55276  0.45719  0.59409  1.0000
  C   C769      1.0  0.68146  0.05211  0.52392  1.0000
  C   C770      1.0  0.72348  0.03274  0.52742  1.0000
  H   H1360     1.0  0.70499  0.10334  0.52417  1.0000
  H   H1361     1.0  0.67041  0.45554  0.50482  1.0000
  H   H1362     1.0  0.61258  0.03349  0.79032  1.0000
  H   H1363     1.0  0.49360  0.42855  0.59854  1.0000
  N   N42       1.0  0.64235  0.02586  0.81566  1.0000
  H   H1364     1.0  0.52919  0.47779  0.84988  1.0000
  H   H1365     1.0  0.49464  0.04912  0.80870  1.0000
  S   S168      1.0  0.47924  0.15144  0.89391  1.0000
  H   H1366     1.0  0.62444  0.06350  0.83667  1.0000
  H   H1367     1.0  0.60620  0.15350  0.60331  1.0000
  N   N43       1.0  0.60373  0.12077  0.66677  1.0000
  C   C771      1.0  0.64530  0.04159  0.85294  1.0000
  H   H1368     1.0  0.57336  0.00286  0.74946  1.0000
  H   H1369     1.0  0.71504  0.01616  0.50659  1.0000
  C   C772      1.0  0.53313  0.44593  0.58130  1.0000
  H   H1370     1.0  0.63350  0.07022  0.90892  1.0000
  H   H1371     1.0  0.71624  0.11524  0.88868  1.0000
  H   H1372     1.0  0.55128  0.45116  0.71276  1.0000
  C   C773      1.0  0.53959  0.46110  0.70633  1.0000
  H   H1373     1.0  0.66913  0.06134  0.51578  1.0000
  H   H1374     1.0  0.51889  0.35932  0.71119  1.0000
  H   H1375     1.0  0.66416  0.04650  0.86755  1.0000
  H   H1376     1.0  0.63112  0.99393  0.88663  1.0000
  H   H1377     1.0  0.66046  0.03063  0.59750  1.0000
  C   C774      1.0  0.70215  0.99357  0.94928  1.0000
  C   C775      1.0  0.54713  0.48321  0.73630  1.0000
  C   C776      1.0  0.71824  0.10556  0.49938  1.0000
  H   H1378     1.0  0.48654  0.01320  0.61782  1.0000
  N   N44       1.0  0.70086  0.05596  0.49160  1.0000
  H   H1379     1.0  0.47945  0.02210  0.74841  1.0000
  H   H1380     1.0  0.71525  0.03020  0.98106  1.0000
  H   H1381     1.0  0.72117  0.03282  0.92865  1.0000
  H   H1382     1.0  0.72372  0.26188  0.77204  1.0000
  Fe  Fe84      1.0  0.57222  0.94706  0.12424  1.0000
  S   S169      1.0  0.54986  0.91236  0.16165  1.0000
  H   H1383     1.0  0.58845  0.72901  0.06661  1.0000
  Fe  Fe85      1.0  0.55179  0.91573  0.04594  1.0000
  S   S170      1.0  0.52799  0.87886  0.07863  1.0000
  S   S171      1.0  0.71766  0.65722  0.32397  1.0000
  Fe  Fe86      1.0  0.51658  0.90285  0.11964  1.0000
  H   H1384     1.0  0.64618  0.80975  0.01855  1.0000
  Fe  Fe87      1.0  0.56239  0.89054  0.11877  1.0000
  S   S172      1.0  0.58057  0.86661  0.14500  1.0000
  S   S173      1.0  0.53816  0.93906  0.08455  1.0000
  S   S174      1.0  0.58715  0.92604  0.08359  1.0000
  C   C777      1.0  0.52122  0.60889  0.03707  1.0000
  H   H1385     1.0  0.56552  0.76826  0.46095  1.0000
  Fe  Fe88      1.0  0.55156  0.66742  0.18960  1.0000
  S   S175      1.0  0.58897  0.68039  0.22276  1.0000
  S   S176      1.0  0.53214  0.62425  0.17432  1.0000
  Fe  Fe89      1.0  0.55775  0.72238  0.18936  1.0000
  S   S177      1.0  0.59485  0.73847  0.22402  1.0000
  S   S178      1.0  0.53870  0.74508  0.16197  1.0000
  Fe  Fe90      1.0  0.60554  0.71450  0.18247  1.0000
  S   S179      1.0  0.64727  0.73080  0.16111  1.0000
  Fe  Fe91      1.0  0.57550  0.70299  0.26212  1.0000
  S   S180      1.0  0.58575  0.70451  0.32848  1.0000
  S   S181      1.0  0.56935  0.69985  0.14603  1.0000
  S   S182      1.0  0.53716  0.68863  0.23063  1.0000
  H   H1386     1.0  0.71682  0.63547  0.40234  1.0000
  H   H1387     1.0  0.64776  0.50330  0.33359  1.0000
  H   H1388     1.0  0.56199  0.59099  0.29124  1.0000
  Fe  Fe92      1.0  0.65418  0.56046  0.29982  1.0000
  S   S183      1.0  0.66356  0.59700  0.26634  1.0000
  S   S184      1.0  0.61444  0.53828  0.32862  1.0000
  Fe  Fe93      1.0  0.68456  0.58335  0.22385  1.0000
  S   S185      1.0  0.68729  0.58874  0.15625  1.0000
  Fe  Fe94      1.0  0.70040  0.61505  0.30245  1.0000
  C   C778      1.0  0.54481  0.61742  0.29953  1.0000
  S   S186      1.0  0.67324  0.54584  0.25548  1.0000
  S   S187      1.0  0.68951  0.57971  0.33893  1.0000
  C   C779      1.0  0.50090  0.78325  0.21490  1.0000
  H   H1389     1.0  0.66891  0.61642  0.35406  1.0000
  C   C780      1.0  0.49878  0.54076  0.24418  1.0000
  H   H1390     1.0  0.65392  0.48913  0.26576  1.0000
  H   H1391     1.0  0.67327  0.70153  0.03738  1.0000
  H   H1392     1.0  0.62864  0.68316  0.43538  1.0000
  H   H1393     1.0  0.52278  0.56351  0.31101  1.0000
  H   H1394     1.0  0.60248  0.60360  0.99530  1.0000
  C   C781      1.0  0.65991  0.74123  0.11307  1.0000
  C   C782      1.0  0.68650  0.75747  0.10887  1.0000
  C   C783      1.0  0.69759  0.76525  0.07118  1.0000
  C   C784      1.0  0.68225  0.75644  0.03711  1.0000
  C   C785      1.0  0.65558  0.74049  0.04138  1.0000
  C   C786      1.0  0.64447  0.73292  0.07909  1.0000
  H   H1395     1.0  0.69866  0.76403  0.13496  1.0000
  H   H1396     1.0  0.60578  0.60973  0.16693  1.0000
  H   H1397     1.0  0.70927  0.75280  0.45402  1.0000
  H   H1398     1.0  0.62408  0.72013  0.08181  1.0000
  C   C787      1.0  0.54330  0.66718  0.44449  1.0000
  C   C788      1.0  0.56964  0.68449  0.44453  1.0000
  C   C789      1.0  0.58214  0.69590  0.40889  1.0000
  C   C790      1.0  0.56861  0.69012  0.37263  1.0000
  C   C791      1.0  0.54223  0.67303  0.37264  1.0000
  C   C792      1.0  0.52971  0.66166  0.40829  1.0000
  H   H1399     1.0  0.53345  0.83315  0.24613  1.0000
  H   H1400     1.0  0.60249  0.70929  0.40942  1.0000
  H   H1401     1.0  0.53145  0.66874  0.34521  1.0000
  H   H1402     1.0  0.50929  0.64851  0.40789  1.0000
  C   C793      1.0  0.63256  0.56400  0.04730  1.0000
  C   C794      1.0  0.65903  0.57228  0.04315  1.0000
  C   C795      1.0  0.67524  0.57924  0.07686  1.0000
  C   C796      1.0  0.66535  0.57792  0.11527  1.0000
  C   C797      1.0  0.63882  0.56942  0.11948  1.0000
  C   C798      1.0  0.62261  0.56267  0.08570  1.0000
  H   H1403     1.0  0.66703  0.57337  0.01395  1.0000
  H   H1404     1.0  0.69563  0.58553  0.07313  1.0000
  H   H1405     1.0  0.63087  0.56837  0.14869  1.0000
  H   H1406     1.0  0.60219  0.55625  0.08934  1.0000
  H   H1407     1.0  0.68545  0.55060  0.42085  1.0000
  C   C799      1.0  0.56839  0.83274  0.14939  1.0000
  C   C800      1.0  0.58058  0.82326  0.17570  1.0000
  C   C801      1.0  0.57196  0.79654  0.17959  1.0000
  C   C802      1.0  0.55108  0.77895  0.15702  1.0000
  C   C803      1.0  0.53895  0.78844  0.13061  1.0000
  C   C804      1.0  0.54757  0.81517  0.12673  1.0000
  H   H1408     1.0  0.59672  0.83670  0.19338  1.0000
  H   H1409     1.0  0.58123  0.78953  0.20044  1.0000
  H   H1410     1.0  0.52273  0.77500  0.11307  1.0000
  H   H1411     1.0  0.53826  0.82220  0.10601  1.0000
  S   S188      1.0  0.69534  0.76395  0.98865  1.0000
  H   H1412     1.0  0.50270  0.57000  0.15780  1.0000
  C   C805      1.0  0.65988  0.80319  0.20820  1.0000
  C   C806      1.0  0.59264  0.50470  0.32664  1.0000
  C   C807      1.0  0.50919  0.58497  0.43239  1.0000
  H   H1413     1.0  0.56623  0.50836  0.36774  1.0000
  H   H1414     1.0  0.68925  0.49159  0.45888  1.0000
  C   C808      1.0  0.49862  0.60458  0.16546  1.0000
  C   C809      1.0  0.57007  0.49516  0.34960  1.0000
  H   H1415     1.0  0.61191  0.96859  0.01097  1.0000
  C   C810      1.0  0.54676  0.87378  0.24344  1.0000
  H   H1416     1.0  0.68999  0.89960  0.06277  1.0000
  H   H1417     1.0  0.63810  0.70342  0.37387  1.0000
  C   C811      1.0  0.58402  0.60703  0.06977  1.0000
  H   H1418     1.0  0.52295  0.57700  0.43685  1.0000
  C   C812      1.0  0.52478  0.84631  0.24196  1.0000
  H   H1419     1.0  0.63439  0.64128  0.35111  1.0000
  H   H1420     1.0  0.63090  0.64755  0.01474  1.0000
  H   H1421     1.0  0.53238  0.56185  0.01891  1.0000
  H   H1422     1.0  0.70200  0.51232  0.38270  1.0000
  H   H1423     1.0  0.66284  0.79544  0.07987  1.0000
  H   H1424     1.0  0.61448  0.63661  0.13442  1.0000
  H   H1425     1.0  0.68844  0.53052  0.36043  1.0000
  H   H1426     1.0  0.68634  0.66574  0.03214  1.0000
  H   H1427     1.0  0.66596  0.78968  0.22199  1.0000
  C   C813      1.0  0.50978  0.84017  0.20195  1.0000
  H   H1428     1.0  0.57828  0.96852  0.22281  1.0000
  H   H1429     1.0  0.60702  0.62461  0.28316  1.0000
  C   C814      1.0  0.64856  0.95792  0.16577  1.0000
  C   C815      1.0  0.62323  0.93838  0.18409  1.0000
  N   N45       1.0  0.65017  0.67478  0.39034  1.0000
  C   C816      1.0  0.67649  0.69235  0.40726  1.0000
  H   H1430     1.0  0.68158  0.68243  0.43101  1.0000
  C   C817      1.0  0.67884  0.67968  0.12848  1.0000
  H   H1431     1.0  0.50139  0.61272  0.24929  1.0000
  H   H1432     1.0  0.63242  0.69870  0.28285  1.0000
  H   H1433     1.0  0.64698  0.68098  0.06880  1.0000
  C   C818      1.0  0.52402  0.55709  0.08080  1.0000
  C   C819      1.0  0.64222  0.50444  0.41019  1.0000
  C   C820      1.0  0.60545  0.77007  0.05385  1.0000
  H   H1434     1.0  0.48161  0.52641  0.26010  1.0000
  H   H1435     1.0  0.64127  0.52024  0.39319  1.0000
  H   H1436     1.0  0.71808  0.77774  0.06847  1.0000
  H   H1437     1.0  0.66129  0.94859  0.16428  1.0000
  H   H1438     1.0  0.54892  0.60078  0.98578  1.0000
  H   H1439     1.0  0.72347  0.95899  0.16416  1.0000
  H   H1440     1.0  0.54155  0.49093  0.18038  1.0000
  H   H1441     1.0  0.51704  0.75950  0.23862  1.0000
  C   C821      1.0  0.52520  0.59841  0.36238  1.0000
  C   C822      1.0  0.65057  0.48784  0.34847  1.0000
  H   H1442     1.0  0.62105  0.76932  0.03600  1.0000
  C   C823      1.0  0.64551  0.96235  0.00285  1.0000
  H   H1443     1.0  0.63247  0.67788  0.00044  1.0000
  H   H1444     1.0  0.54214  0.61951  0.26751  1.0000
  H   H1445     1.0  0.60915  0.86218  0.07612  1.0000
  H   H1446     1.0  0.69341  0.96935  0.12522  1.0000
  H   H1447     1.0  0.57708  0.62822  0.00316  1.0000
  H   H1448     1.0  0.59408  0.62282  0.46573  1.0000
  H   H1449     1.0  0.51759  0.64219  0.27699  1.0000
  H   H1450     1.0  0.52757  0.71918  0.38326  1.0000
  C   C824      1.0  0.58274  0.74295  0.05353  1.0000
  H   H1451     1.0  0.59867  0.78271  0.03930  1.0000
  H   H1452     1.0  0.59716  0.64946  0.28963  1.0000
  H   H1453     1.0  0.70654  0.71048  0.16735  1.0000
  C   C825      1.0  0.53951  0.72931  0.44438  1.0000
  H   H1454     1.0  0.57393  0.61199  0.33408  1.0000
  C   C826      1.0  0.60305  0.64574  0.41223  1.0000
  H   H1455     1.0  0.66296  0.69417  0.19798  1.0000
  C   C827      1.0  0.63037  0.86945  0.07546  1.0000
  H   H1456     1.0  0.52233  0.71202  0.45485  1.0000
  H   H1457     1.0  0.71308  0.72435  0.46210  1.0000
  H   H1458     1.0  0.61444  0.92079  0.16514  1.0000
  H   H1459     1.0  0.48822  0.61651  0.04025  1.0000
  S   S189      1.0  0.61125  0.55593  0.00572  1.0000
  H   H1460     1.0  0.60118  0.53468  0.23625  1.0000
  C   C828      1.0  0.58330  0.52863  0.21840  1.0000
  H   H1461     1.0  0.57778  0.54444  0.21951  1.0000
  C   C829      1.0  0.67623  0.66748  0.05884  1.0000
  C   C830      1.0  0.65316  0.60965  0.37604  1.0000
  H   H1462     1.0  0.51579  0.49695  0.27416  1.0000
  H   H1463     1.0  0.60285  0.62937  0.39516  1.0000
  C   C831      1.0  0.51303  0.52779  0.08130  1.0000
  C   C832      1.0  0.59826  0.49317  0.43907  1.0000
  C   C833      1.0  0.53657  0.49450  0.21084  1.0000
  H   H1464     1.0  0.49095  0.55890  0.31597  1.0000
  H   H1465     1.0  0.53719  0.60510  0.09297  1.0000
  H   H1466     1.0  0.66488  0.68623  0.30901  1.0000
  H   H1467     1.0  0.66640  0.79340  0.14922  1.0000
  H   H1468     1.0  0.68011  0.71609  0.33665  1.0000
  C   C834      1.0  0.48117  0.61474  0.16539  1.0000
  C   C835      1.0  0.71362  0.70765  0.08483  1.0000
  H   H1469     1.0  0.56629  0.74261  0.07056  1.0000
  H   H1470     1.0  0.64398  0.96178  0.13554  1.0000
  H   H1471     1.0  0.51025  0.58905  0.02482  1.0000
  H   H1472     1.0  0.66249  0.66340  0.20613  1.0000
  H   H1473     1.0  0.68719  0.49718  0.31760  1.0000
  H   H1474     1.0  0.72111  0.74019  0.41468  1.0000
  C   C836      1.0  0.61520  0.77911  0.09658  1.0000
  H   H1475     1.0  0.55542  0.72424  0.44013  1.0000
  H   H1476     1.0  0.60325  0.81670  0.10248  1.0000
  H   H1477     1.0  0.68623  0.69206  0.23065  1.0000
  H   H1478     1.0  0.64928  0.51279  0.43999  1.0000
  Fe  Fe95      1.0  0.70947  0.56774  0.29217  1.0000
  H   H1479     1.0  0.66292  0.84212  0.03736  1.0000
  H   H1480     1.0  0.66827  0.65869  0.35058  1.0000
  H   H1481     1.0  0.48797  0.63511  0.17098  1.0000
  C   C837      1.0  0.54442  0.61161  0.06274  1.0000
  C   C838      1.0  0.56187  0.50389  0.23532  1.0000
  H   H1482     1.0  0.63968  0.88958  0.08706  1.0000
  H   H1483     1.0  0.51654  0.74044  0.40573  1.0000
  H   H1484     1.0  0.59855  0.51012  0.42412  1.0000
  C   C839      1.0  0.59080  0.62933  0.27928  1.0000
  N   N46       1.0  0.63484  0.80702  0.10216  1.0000
  S   S190      1.0  0.69947  0.96496  0.47519  1.0000
  H   H1485     1.0  0.58593  0.62778  0.24725  1.0000
  C   C840      1.0  0.54377  0.56905  0.04681  1.0000
  H   H1486     1.0  0.53842  0.58981  0.36733  1.0000
  C   C841      1.0  0.63078  0.66644  0.42343  1.0000
  H   H1487     1.0  0.55767  0.87709  0.27159  1.0000
  C   C842      1.0  0.62286  0.82380  0.08946  1.0000
  H   H1488     1.0  0.65926  0.85977  0.09804  1.0000
  H   H1489     1.0  0.67662  0.82768  0.09710  1.0000
  H   H1490     1.0  0.65579  0.59637  0.39660  1.0000
  H   H1491     1.0  0.66236  0.64725  0.06641  1.0000
  H   H1492     1.0  0.64758  0.72865  0.31065  1.0000
  H   H1493     1.0  0.57624  0.73673  0.02261  1.0000
  C   C843      1.0  0.60769  0.61548  0.13542  1.0000
  H   H1494     1.0  0.53903  0.88791  0.24198  1.0000
  H   H1495     1.0  0.48994  0.48746  0.33722  1.0000
  H   H1496     1.0  0.47638  0.93410  0.13651  1.0000
  C   C844      1.0  0.56750  0.61066  0.30291  1.0000
  C   C845      1.0  0.64411  0.66806  0.00875  1.0000
  H   H1497     1.0  0.66920  0.69199  0.12357  1.0000
  H   H1498     1.0  0.55703  0.56012  0.04699  1.0000
  C   C846      1.0  0.66137  0.70083  0.32546  1.0000
  H   H1499     1.0  0.50756  0.56143  0.07689  1.0000
  H   H1500     1.0  0.66489  0.72212  0.27160  1.0000
  C   C847      1.0  0.67512  0.68440  0.20275  1.0000
  H   H1501     1.0  0.61943  0.82242  0.05710  1.0000
  H   H1502     1.0  0.72344  0.66343  0.04239  1.0000
  C   C848      1.0  0.50263  0.61544  0.06055  1.0000
  H   H1503     1.0  0.63418  0.85557  0.13237  1.0000
  C   C849      1.0  0.68744  0.82607  0.01894  1.0000
  H   H1504     1.0  0.68898  0.83327  0.98830  1.0000
  C   C850      1.0  0.70875  0.66446  0.10293  1.0000
  C   C851      1.0  0.65087  0.71332  0.29593  1.0000
  H   H1505     1.0  0.62319  0.80940  0.16233  1.0000
  C   C852      1.0  0.53300  0.73593  0.40371  1.0000
  C   C853      1.0  0.70659  0.93758  0.03636  1.0000
  N   N47       1.0  0.55922  0.59811  0.04657  1.0000
  C   C854      1.0  0.65139  0.65202  0.37077  1.0000
  H   H1506     1.0  0.61396  0.49445  0.28435  1.0000
  N   N48       1.0  0.51980  0.59889  0.31871  1.0000
  H   H1507     1.0  0.50737  0.85734  0.19355  1.0000
  H   H1508     1.0  0.59602  0.62823  0.06640  1.0000
  H   H1509     1.0  0.65659  0.48445  0.47191  1.0000
  H   H1510     1.0  0.67667  0.82271  0.20807  1.0000
  C   C855      1.0  0.63818  0.85276  0.10100  1.0000
  H   H1511     1.0  0.53263  0.56464  0.11019  1.0000
  H   H1512     1.0  0.66315  0.65975  0.13311  1.0000
  C   C856      1.0  0.58157  0.60111  0.11454  1.0000
  C   C857      1.0  0.66040  0.68128  0.04536  1.0000
  H   H1513     1.0  0.53535  0.61848  0.37456  1.0000
  H   H1514     1.0  0.60937  0.94644  0.18637  1.0000
  H   H1515     1.0  0.69169  0.69675  0.38450  1.0000
  H   H1516     1.0  0.63446  0.77411  0.16830  1.0000
  H   H1517     1.0  0.53197  0.51096  0.20870  1.0000
  H   H1518     1.0  0.52838  0.62243  0.01193  1.0000
  H   H1519     1.0  0.54997  0.75263  0.39116  1.0000
  H   H1520     1.0  0.55150  0.63716  0.31243  1.0000
  H   H1521     1.0  0.59810  0.77469  0.11572  1.0000
  H   H1522     1.0  0.56649  0.62191  0.44056  1.0000
  C   C858      1.0  0.69373  0.68938  0.16828  1.0000
  C   C859      1.0  0.64213  0.68834  0.35982  1.0000
  N   N49       1.0  0.69473  0.67997  0.09295  1.0000
  H   H1523     1.0  0.51310  0.63426  0.07633  1.0000
  C   C860      1.0  0.47661  0.62735  0.27277  1.0000
  H   H1524     1.0  0.59569  0.59792  0.05795  1.0000
  H   H1525     1.0  0.63648  0.86939  0.04437  1.0000
  C   C861      1.0  0.54788  0.75243  0.47376  1.0000
  H   H1526     1.0  0.56820  0.60694  0.12957  1.0000
  C   C862      1.0  0.65385  0.63255  0.39911  1.0000
  H   H1527     1.0  0.62314  0.76610  0.10635  1.0000
  H   H1528     1.0  0.67550  0.72966  0.40360  1.0000
  C   C863      1.0  0.58684  0.63451  0.44920  1.0000
  H   H1529     1.0  0.51232  0.84410  0.26771  1.0000
  H   H1530     1.0  0.49528  0.80187  0.14823  1.0000
  C   C864      1.0  0.65964  0.81283  0.08064  1.0000
  C   C865      1.0  0.70088  0.97776  0.98650  1.0000
  H   H1531     1.0  0.57485  0.58019  0.11880  1.0000
  H   H1532     1.0  0.62225  0.61082  0.12135  1.0000
  H   H1533     1.0  0.56029  0.87701  0.21860  1.0000
  H   H1534     1.0  0.52011  0.79834  0.20577  1.0000
  H   H1535     1.0  0.55746  0.63267  0.06648  1.0000
  H   H1536     1.0  0.63440  0.59880  0.36041  1.0000
  H   H1537     1.0  0.49176  0.56228  0.38058  1.0000
  H   H1538     1.0  0.49074  0.84261  0.12969  1.0000
  H   H1539     1.0  0.52859  0.52230  0.08679  1.0000
  C   C866      1.0  0.68107  0.93767  0.02396  1.0000
  H   H1540     1.0  0.66516  0.91760  0.02478  1.0000
  H   H1541     1.0  0.58755  0.52547  0.18735  1.0000
  H   H1542     1.0  0.72110  0.95737  0.04508  1.0000
  C   C867      1.0  0.67985  0.71822  0.42549  1.0000
  H   H1543     1.0  0.65559  0.83178  0.15179  1.0000
  H   H1544     1.0  0.64353  0.73358  0.01523  1.0000
  H   H1545     1.0  0.69708  0.64855  0.12358  1.0000
  S   S191      1.0  0.72228  0.60405  0.25761  1.0000
  C   C868      1.0  0.56650  0.60676  0.00436  1.0000
  N   N50       1.0  0.66054  0.49639  0.39010  1.0000
  H   H1546     1.0  0.64529  0.95740  0.03445  1.0000
  H   H1547     1.0  0.55911  0.50799  0.26656  1.0000
  H   H1548     1.0  0.62660  0.93283  0.21400  1.0000
  H   H1549     1.0  0.70561  0.67964  0.17517  1.0000
  C   C869      1.0  0.66236  0.82290  0.03769  1.0000
  H   H1550     1.0  0.64420  0.80359  0.22635  1.0000
  C   C870      1.0  0.59713  0.48738  0.30303  1.0000
  C   C871      1.0  0.64062  0.81162  0.14598  1.0000
  H   H1551     1.0  0.62344  0.67464  0.34604  1.0000
  N   N51       1.0  0.68141  0.94967  0.98458  1.0000
  C   C872      1.0  0.65037  0.79399  0.16607  1.0000
  H   H1552     1.0  0.51818  0.60535  0.44277  1.0000
  C   C873      1.0  0.70751  0.73480  0.43991  1.0000
  H   H1553     1.0  0.71483  0.93076  0.01226  1.0000
  H   H1554     1.0  0.48827  0.57117  0.24904  1.0000
  H   H1555     1.0  0.67666  0.94804  0.04816  1.0000
  H   H1556     1.0  0.59338  0.65442  0.39394  1.0000
  H   H1557     1.0  0.50337  0.51918  0.05268  1.0000
  C   C874      1.0  0.68719  0.51910  0.38719  1.0000
  C   C875      1.0  0.70249  0.91998  0.07154  1.0000
  H   H1558     1.0  0.51435  0.78126  0.27429  1.0000
  C   C876      1.0  0.50467  0.76823  0.24875  1.0000
  H   H1559     1.0  0.52214  0.58152  0.24015  1.0000
  H   H1560     1.0  0.68786  0.80732  0.01753  1.0000
  H   H1561     1.0  0.49246  0.76963  0.18950  1.0000
  H   H1562     1.0  0.49204  0.60015  0.08229  1.0000
  H   H1563     1.0  0.52323  0.83927  0.17934  1.0000
  H   H1564     1.0  0.63791  0.62462  0.42073  1.0000
  H   H1565     1.0  0.66704  0.71475  0.45135  1.0000
  C   C877      1.0  0.50981  0.57181  0.30241  1.0000
  H   H1566     1.0  0.63784  0.65956  0.44900  1.0000
  H   H1567     1.0  0.69358  0.92535  0.09665  1.0000
  H   H1568     1.0  0.70442  0.84007  0.03617  1.0000
  H   H1569     1.0  0.67232  0.64186  0.41574  1.0000
  C   C878      1.0  0.48937  0.57805  0.15781  1.0000
  C   C879      1.0  0.61820  0.95704  0.99168  1.0000
  C   C880      1.0  0.50509  0.56819  0.25719  1.0000
  H   H1570     1.0  0.49186  0.57388  0.45073  1.0000
  C   C881      1.0  0.50134  0.58302  0.38889  1.0000
  C   C882      1.0  0.49968  0.60826  0.31442  1.0000
  H   H1571     1.0  0.49854  0.51979  0.10525  1.0000
  H   H1572     1.0  0.53321  0.75958  0.47314  1.0000
  H   H1573     1.0  0.50152  0.62194  0.33893  1.0000
  H   H1574     1.0  0.51548  0.53706  0.24996  1.0000
  H   H1575     1.0  0.48690  0.80164  0.25796  1.0000
  H   H1576     1.0  0.60464  0.93637  0.99585  1.0000
  H   H1577     1.0  0.49445  0.53826  0.21198  1.0000
  H   H1578     1.0  0.47992  0.59189  0.31724  1.0000
  H   H1579     1.0  0.48697  0.59040  0.38669  1.0000
  H   H1580     1.0  0.56889  0.48921  0.23468  1.0000
  H   H1581     1.0  0.69743  0.63372  0.05810  1.0000
  H   H1582     1.0  0.70347  0.71969  0.08300  1.0000
  N   N52       1.0  0.48399  0.81614  0.20022  1.0000
  C   C883      1.0  0.50038  0.62300  0.27626  1.0000
  H   H1583     1.0  0.58041  0.68900  0.47198  1.0000
  H   H1584     1.0  0.48647  0.48392  0.20538  1.0000
  H   H1585     1.0  0.71908  0.70316  0.02086  1.0000
  H   H1586     1.0  0.60593  0.49882  0.46964  1.0000
  H   H1587     1.0  0.47829  0.63891  0.24609  1.0000
  H   H1588     1.0  0.72140  0.92178  0.08140  1.0000
  C   C884      1.0  0.71528  0.65084  0.06817  1.0000
  H   H1589     1.0  0.72061  0.97984  0.99069  1.0000
  H   H1590     1.0  0.49575  0.81388  0.07902  1.0000
  C   C885      1.0  0.47907  0.80541  0.15839  1.0000
  C   C886      1.0  0.47658  0.81279  0.08482  1.0000
  H   H1591     1.0  0.69324  0.53014  0.45096  1.0000
  S   S192      1.0  0.47538  0.88345  0.14471  1.0000
  H   H1592     1.0  0.58740  0.64998  0.46912  1.0000
  C   C887      1.0  0.69631  0.53921  0.42167  1.0000
  C   C888      1.0  0.48281  0.79503  0.22674  1.0000
  H   H1593     1.0  0.48583  0.75251  0.25821  1.0000
  H   H1594     1.0  0.48008  0.85280  0.25601  1.0000
  H   H1595     1.0  0.66481  0.97647  0.22066  1.0000
  C   C889      1.0  0.47553  0.82245  0.12668  1.0000
  C   C890      1.0  0.72494  0.55819  0.41828  1.0000
  C   C891      1.0  0.66120  0.98278  0.19145  1.0000
  H   H1596     1.0  0.70744  0.82476  0.48299  1.0000
  H   H1597     1.0  0.72248  0.60278  0.98422  1.0000
  Fe  Fe96      1.0  0.55756  0.85668  0.67297  1.0000
  S   S193      1.0  0.59506  0.87430  0.70622  1.0000
  S   S194      1.0  0.53544  0.81544  0.64883  1.0000
  Fe  Fe97      1.0  0.55248  0.90635  0.67758  1.0000
  S   S195      1.0  0.59012  0.92769  0.71130  1.0000
  S   S196      1.0  0.53038  0.92794  0.65742  1.0000
  Fe  Fe98      1.0  0.60602  0.90904  0.66769  1.0000
  S   S197      1.0  0.64799  0.93019  0.64623  1.0000
  Fe  Fe99      1.0  0.57651  0.89166  0.74751  1.0000
  S   S198      1.0  0.58372  0.88846  0.81392  1.0000
  S   S199      1.0  0.56944  0.89024  0.63174  1.0000
  S   S200      1.0  0.53794  0.87153  0.71646  1.0000
  Fe  Fe100     1.0  0.65286  0.55721  0.86743  1.0000
  S   S201      1.0  0.64002  0.58380  0.89847  1.0000
  S   S202      1.0  0.69490  0.57732  0.84615  1.0000
  Fe  Fe101     1.0  0.59796  0.51195  0.86922  1.0000
  S   S203      1.0  0.58202  0.53563  0.90035  1.0000
  H   H1598     1.0  0.54504  0.76856  0.73817  1.0000
  Fe  Fe102     1.0  0.60566  0.56683  0.85740  1.0000
  S   S204      1.0  0.58871  0.59204  0.83206  1.0000
  Fe  Fe103     1.0  0.61769  0.55088  0.93930  1.0000
  S   S205      1.0  0.61964  0.54236  0.82381  1.0000
  S   S206      1.0  0.63240  0.52504  0.91078  1.0000
  Fe  Fe104     1.0  0.49833  0.62956  0.63031  1.0000
  S   S207      1.0  0.51776  0.61346  0.58944  1.0000
  C   C892      1.0  0.51246  0.54843  0.65271  1.0000
  Fe  Fe105     1.0  0.54552  0.68340  0.63244  1.0000
  S   S208      1.0  0.56839  0.67035  0.59247  1.0000
  S   S209      1.0  0.56665  0.72439  0.65787  1.0000
  Fe  Fe106     1.0  0.53205  0.65091  0.55586  1.0000
  H   H1599     1.0  0.70320  0.90246  0.91460  1.0000
  Fe  Fe107     1.0  0.55230  0.63443  0.62959  1.0000
  S   S210      1.0  0.57588  0.61472  0.65103  1.0000
  S   S211      1.0  0.50991  0.66560  0.59447  1.0000
  S   S212      1.0  0.53223  0.64887  0.67177  1.0000
  H   H1600     1.0  0.70854  0.69061  0.77709  1.0000
  H   H1601     1.0  0.57944  0.89195  0.95949  1.0000
  C   C893      1.0  0.58515  0.59767  0.78141  1.0000
  C   C894      1.0  0.59464  0.58820  0.75072  1.0000
  C   C895      1.0  0.59140  0.59332  0.71098  1.0000
  C   C896      1.0  0.57850  0.60778  0.70141  1.0000
  C   C897      1.0  0.56891  0.61710  0.73213  1.0000
  C   C898      1.0  0.57234  0.61218  0.77183  1.0000
  H   H1602     1.0  0.60456  0.57702  0.75762  1.0000
  H   H1603     1.0  0.59899  0.58608  0.68750  1.0000
  H   H1604     1.0  0.55912  0.62840  0.72538  1.0000
  H   H1605     1.0  0.56500  0.61968  0.79531  1.0000
  C   C899      1.0  0.49055  0.61344  0.76053  1.0000
  H   H1606     1.0  0.63305  0.65248  0.65674  1.0000
  H   H1607     1.0  0.49826  0.94849  0.62570  1.0000
  C   C900      1.0  0.54454  0.79042  0.65169  1.0000
  C   C901      1.0  0.56900  0.79499  0.66471  1.0000
  C   C902      1.0  0.57539  0.77453  0.66644  1.0000
  C   C903      1.0  0.55743  0.74930  0.65532  1.0000
  C   C904      1.0  0.53286  0.74468  0.64273  1.0000
  C   C905      1.0  0.52652  0.76517  0.64074  1.0000
  H   H1608     1.0  0.58309  0.81432  0.67307  1.0000
  H   H1609     1.0  0.59441  0.77827  0.67640  1.0000
  H   H1610     1.0  0.51872  0.72530  0.63477  1.0000
  H   H1611     1.0  0.50747  0.76141  0.63092  1.0000
  C   C906      1.0  0.66170  0.93952  0.59821  1.0000
  C   C907      1.0  0.64664  0.93539  0.56411  1.0000
  C   C908      1.0  0.65852  0.94330  0.52685  1.0000
  H   H1612     1.0  0.62586  0.92617  0.56646  1.0000
  H   H1613     1.0  0.50577  0.51224  0.75951  1.0000
  C   C909      1.0  0.56004  0.91160  0.93313  1.0000
  C   C910      1.0  0.55340  0.91877  0.89691  1.0000
  C   C911      1.0  0.56040  0.91191  0.86025  1.0000
  C   C912      1.0  0.57440  0.89790  0.85921  1.0000
  C   C913      1.0  0.58142  0.89107  0.89542  1.0000
  C   C914      1.0  0.57419  0.89769  0.93208  1.0000
  H   H1614     1.0  0.54251  0.92954  0.89722  1.0000
  H   H1615     1.0  0.55487  0.91741  0.83284  1.0000
  H   H1616     1.0  0.59228  0.88028  0.89509  1.0000
  H   H1617     1.0  0.49455  0.94001  0.78086  1.0000
  H   H1618     1.0  0.69495  0.79915  0.51864  1.0000
  H   H1619     1.0  0.53327  0.72289  0.56474  1.0000
  C   C915      1.0  0.55864  0.77094  0.54078  1.0000
  H   H1620     1.0  0.71082  0.90601  0.62165  1.0000
  H   H1621     1.0  0.52219  0.57194  0.70504  1.0000
  H   H1622     1.0  0.52825  0.84535  0.87902  1.0000
  H   H1623     1.0  0.51592  0.59645  0.76361  1.0000
  H   H1624     1.0  0.50229  0.55832  0.63876  1.0000
  H   H1625     1.0  0.64721  0.63338  0.60348  1.0000
  H   H1626     1.0  0.57350  0.57464  0.98317  1.0000
  H   H1627     1.0  0.65278  0.95081  0.94484  1.0000
  C   C916      1.0  0.52643  0.77288  0.79278  1.0000
  H   H1628     1.0  0.61719  0.96215  0.96041  1.0000
  H   H1629     1.0  0.68430  0.86353  0.58405  1.0000
  C   C917      1.0  0.52368  0.81158  0.81726  1.0000
  S   S213      1.0  0.55039  0.92086  0.97837  1.0000
  H   H1630     1.0  0.47865  0.76320  0.76383  1.0000
  C   C918      1.0  0.58599  0.73917  0.55652  1.0000
  H   H1631     1.0  0.71957  0.88739  0.50869  1.0000
  H   H1632     1.0  0.58190  0.80265  0.50081  1.0000
  H   H1633     1.0  0.54409  0.83413  0.91367  1.0000
  H   H1634     1.0  0.72135  0.96926  0.55494  1.0000
  C   C919      1.0  0.58634  0.60381  0.93888  1.0000
  C   C920      1.0  0.54156  0.81899  0.85395  1.0000
  H   H1635     1.0  0.59196  0.75690  0.57478  1.0000
  H   H1636     1.0  0.67859  0.63467  0.81731  1.0000
  C   C921      1.0  0.58823  0.81746  0.56026  1.0000
  H   H1637     1.0  0.47779  0.51637  0.70885  1.0000
  H   H1638     1.0  0.67732  0.90326  0.88616  1.0000
  C   C922      1.0  0.66190  0.64953  0.62138  1.0000
  C   C923      1.0  0.71704  0.56483  0.83741  1.0000
  H   H1639     1.0  0.52196  0.56300  0.77165  1.0000
  H   H1640     1.0  0.57124  0.82120  0.56186  1.0000
  H   H1641     1.0  0.51867  0.79060  0.72152  1.0000
  H   H1642     1.0  0.49778  0.86812  0.59963  1.0000
  H   H1643     1.0  0.48566  0.70106  0.58021  1.0000
  H   H1644     1.0  0.67352  0.70476  0.77504  1.0000
  C   C924      1.0  0.63435  0.96154  0.86270  1.0000
  H   H1645     1.0  0.54950  0.73974  0.78806  1.0000
  C   C925      1.0  0.67426  0.90698  0.95004  1.0000
  C   C926      1.0  0.60393  0.68764  0.70196  1.0000
  C   C927      1.0  0.53612  0.53081  0.80242  1.0000
  H   H1646     1.0  0.67916  0.64638  0.62451  1.0000
  C   C928      1.0  0.52843  0.75680  0.75725  1.0000
  H   H1647     1.0  0.64542  0.61239  0.80549  1.0000
  H   H1648     1.0  0.67170  0.87498  0.91373  1.0000
  H   H1649     1.0  0.71883  0.73551  0.79843  1.0000
  C   C929      1.0  0.69197  0.81478  0.50499  1.0000
  H   H1650     1.0  0.50302  0.52780  0.64352  1.0000
  H   H1651     1.0  0.64312  0.71315  0.71796  1.0000
  H   H1652     1.0  0.49525  0.50988  0.80992  1.0000
  H   H1653     1.0  0.67592  0.82316  0.55689  1.0000
  H   H1654     1.0  0.47769  0.79277  0.77683  1.0000
  C   C930      1.0  0.47564  0.56536  0.76131  1.0000
  H   H1655     1.0  0.55046  0.54287  0.78022  1.0000
  H   H1656     1.0  0.48788  0.88130  0.68919  1.0000
  H   H1657     1.0  0.57891  0.81173  0.82175  1.0000
  H   H1658     1.0  0.66727  0.66778  0.60539  1.0000
  C   C931      1.0  0.58354  0.79576  0.53059  1.0000
  H   H1659     1.0  0.61102  0.98130  0.76904  1.0000
  C   C932      1.0  0.49734  0.59192  0.74906  1.0000
  H   H1660     1.0  0.65461  0.96814  0.87233  1.0000
  H   H1661     1.0  0.60444  0.71634  0.53522  1.0000
  H   H1662     1.0  0.60212  0.70290  0.68507  1.0000
  C   C933      1.0  0.68102  0.70077  0.74688  1.0000
  H   H1663     1.0  0.63009  0.67587  0.76029  1.0000
  C   C934      1.0  0.49638  0.91592  0.65740  1.0000
  N   N53       1.0  0.55305  0.74740  0.51565  1.0000
  H   H1664     1.0  0.65313  0.90000  0.94831  1.0000
  H   H1665     1.0  0.56285  0.83758  0.77438  1.0000
  C   C935      1.0  0.55830  0.81700  0.76996  1.0000
  H   H1666     1.0  0.67312  0.80604  0.48926  1.0000
  N   N54       1.0  0.66216  0.67506  0.72933  1.0000
  H   H1667     1.0  0.71000  0.94287  0.95240  1.0000
  C   C936      1.0  0.66145  0.65296  0.75282  1.0000
  C   C937      1.0  0.63565  0.67341  0.72966  1.0000
  H   H1668     1.0  0.52764  0.70623  0.51913  1.0000
  C   C938      1.0  0.65537  0.65293  0.79750  1.0000
  C   C939      1.0  0.68216  0.89638  0.91388  1.0000
  C   C940      1.0  0.65836  0.63154  0.81878  1.0000
  C   C941      1.0  0.47993  0.89269  0.67537  1.0000
  H   H1669     1.0  0.70313  0.89655  0.54627  1.0000
  H   H1670     1.0  0.67990  0.65187  0.74974  1.0000
  H   H1671     1.0  0.64645  0.63426  0.74073  1.0000
  H   H1672     1.0  0.62097  0.65384  0.72028  1.0000
  H   H1673     1.0  0.59583  0.68681  0.73195  1.0000
  C   C942      1.0  0.57559  0.74147  0.51539  1.0000
  H   H1674     1.0  0.63517  0.64939  0.80172  1.0000
  C   C943      1.0  0.71802  0.84560  0.56026  1.0000
  C   C944      1.0  0.67056  0.67300  0.68773  1.0000
  H   H1675     1.0  0.67602  0.69119  0.67136  1.0000
  H   H1676     1.0  0.64506  0.63156  0.67609  1.0000
  H   H1677     1.0  0.68573  0.94357  0.92234  1.0000
  H   H1678     1.0  0.51169  0.81279  0.89755  1.0000
  H   H1679     1.0  0.50860  0.93901  0.73399  1.0000
  H   H1680     1.0  0.65308  0.63143  0.85034  1.0000
  C   C945      1.0  0.53137  0.73347  0.77083  1.0000
  H   H1681     1.0  0.53865  0.51337  0.80706  1.0000
  H   H1682     1.0  0.71210  0.88717  0.66270  1.0000
  H   H1683     1.0  0.60900  0.85302  0.78931  1.0000
  H   H1684     1.0  0.70062  0.95517  0.62052  1.0000
  C   C946      1.0  0.58012  0.81259  0.78916  1.0000
  H   H1685     1.0  0.62129  0.94861  0.88558  1.0000
  C   C947      1.0  0.58289  0.59600  0.98231  1.0000
  C   C948      1.0  0.68874  0.95170  0.59439  1.0000
  H   H1686     1.0  0.59216  0.81236  0.59013  1.0000
  H   H1687     1.0  0.68845  0.67073  0.68841  1.0000
  H   H1688     1.0  0.61603  0.73212  0.58241  1.0000
  H   H1689     1.0  0.60943  0.83474  0.74585  1.0000
  C   C949      1.0  0.68554  0.95531  0.52302  1.0000
  H   H1690     1.0  0.50470  0.74256  0.54525  1.0000
  H   H1691     1.0  0.60848  0.97662  0.84753  1.0000
  H   H1692     1.0  0.53266  0.55759  0.64191  1.0000
  C   C950      1.0  0.65073  0.65039  0.66192  1.0000
  H   H1693     1.0  0.53991  0.54163  0.83093  1.0000
  H   H1694     1.0  0.68312  0.71663  0.72694  1.0000
  H   H1695     1.0  0.72394  0.57310  0.97520  1.0000
  H   H1696     1.0  0.66840  0.67138  0.81237  1.0000
  H   H1697     1.0  0.62190  0.83041  0.79234  1.0000
  H   H1698     1.0  0.47579  0.97962  0.62752  1.0000
  H   H1699     1.0  0.67695  0.89854  0.67069  1.0000
  H   H1700     1.0  0.49845  0.72584  0.49827  1.0000
  H   H1701     1.0  0.56073  0.83507  0.84690  1.0000
  C   C951      1.0  0.50322  0.95108  0.75364  1.0000
  C   C952      1.0  0.48793  0.86343  0.57032  1.0000
  S   S214      1.0  0.52629  0.65178  0.48829  1.0000
  H   H1702     1.0  0.64664  0.94000  0.50075  1.0000
  H   H1703     1.0  0.69542  0.52385  0.87458  1.0000
  H   H1704     1.0  0.57099  0.72274  0.57269  1.0000
  H   H1705     1.0  0.53995  0.77358  0.81634  1.0000
  H   H1706     1.0  0.59625  0.62511  0.93620  1.0000
  C   C953      1.0  0.67460  0.88303  0.64928  1.0000
  C   C954      1.0  0.60670  0.83405  0.77842  1.0000
  H   H1707     1.0  0.67859  0.89865  0.97658  1.0000
  H   H1708     1.0  0.60521  0.83546  0.55114  1.0000
  C   C955      1.0  0.70059  0.95962  0.55715  1.0000
  C   C956      1.0  0.53062  0.82833  0.88803  1.0000
  N   N55       1.0  0.53084  0.79964  0.78265  1.0000
  C   C957      1.0  0.51241  0.55116  0.69769  1.0000
  C   C958      1.0  0.53004  0.72467  0.53276  1.0000
  H   H1709     1.0  0.55946  0.76687  0.57263  1.0000
  H   H1710     1.0  0.48149  0.89645  0.57303  1.0000
  H   H1711     1.0  0.51799  0.81849  0.73987  1.0000
  H   H1712     1.0  0.63913  0.69427  0.67372  1.0000
  C   C959      1.0  0.50395  0.54695  0.78284  1.0000
  H   H1713     1.0  0.53650  0.49440  0.73041  1.0000
  H   H1714     1.0  0.52300  0.82952  0.80790  1.0000
  H   H1715     1.0  0.57918  0.79419  0.77835  1.0000
  H   H1716     1.0  0.59252  0.66895  0.68633  1.0000
  H   H1717     1.0  0.54387  0.80229  0.86451  1.0000
  H   H1718     1.0  0.52437  0.54269  0.71002  1.0000
  C   C960      1.0  0.51384  0.79861  0.74831  1.0000
  H   H1719     1.0  0.56059  0.81529  0.73750  1.0000
  C   C961      1.0  0.60945  0.73432  0.55251  1.0000
  H   H1720     1.0  0.63073  0.95023  0.83466  1.0000
  H   H1721     1.0  0.66318  0.88408  0.62372  1.0000
  H   H1722     1.0  0.59829  0.59609  0.92397  1.0000
  H   H1723     1.0  0.51469  0.72072  0.78921  1.0000
  C   C962      1.0  0.69229  0.83386  0.53661  1.0000
  H   H1724     1.0  0.52102  0.96886  0.76156  1.0000
  C   C963      1.0  0.71244  0.53511  0.85730  1.0000
  C   C964      1.0  0.70866  0.70438  0.75471  1.0000
  H   H1725     1.0  0.59184  0.75593  0.49790  1.0000
  C   C965      1.0  0.63226  0.69366  0.70442  1.0000
  H   H1726     1.0  0.62552  0.75077  0.53780  1.0000
  H   H1727     1.0  0.57331  0.97432  0.72855  1.0000
  C   C966      1.0  0.50388  0.72543  0.52957  1.0000
  H   H1728     1.0  0.49300  0.96736  0.70446  1.0000
  H   H1729     1.0  0.57012  0.72274  0.50002  1.0000
  H   H1730     1.0  0.53225  0.72230  0.74452  1.0000
  H   H1731     1.0  0.50172  0.55340  0.81312  1.0000
  H   H1732     1.0  0.54258  0.77606  0.53855  1.0000
  C   C967      1.0  0.48211  0.70165  0.54806  1.0000
  H   H1733     1.0  0.71736  0.70148  0.72716  1.0000
  H   H1734     1.0  0.60082  0.79257  0.53124  1.0000
  C   C968      1.0  0.50880  0.52312  0.78776  1.0000
  C   C969      1.0  0.70111  0.88687  0.63580  1.0000
  C   C970      1.0  0.47737  0.97593  0.75861  1.0000
  H   H1735     1.0  0.64014  0.92577  0.97940  1.0000
  H   H1736     1.0  0.56814  0.49639  0.73433  1.0000
  H   H1737     1.0  0.50619  0.63229  0.75114  1.0000
  H   H1738     1.0  0.68923  0.84648  0.62300  1.0000
  C   C971      1.0  0.72218  0.89950  0.53549  1.0000
  H   H1739     1.0  0.66382  0.86416  0.66398  1.0000
  H   H1740     1.0  0.56744  0.59575  0.92332  1.0000
  H   H1741     1.0  0.51073  0.74956  0.73866  1.0000
  C   C972      1.0  0.69860  0.86502  0.60678  1.0000
  H   H1742     1.0  0.49967  0.59251  0.71643  1.0000
  C   C973      1.0  0.65466  0.94632  0.97620  1.0000
  C   C974      1.0  0.48456  0.53733  0.71436  1.0000
  C   C975      1.0  0.48567  0.93051  0.63970  1.0000
  H   H1743     1.0  0.48034  0.68376  0.53346  1.0000
  H   H1744     1.0  0.48831  0.61420  0.79307  1.0000
  C   C976      1.0  0.68891  0.93686  0.95154  1.0000
  H   H1745     1.0  0.50715  0.76164  0.80634  1.0000
  H   H1746     1.0  0.50399  0.79825  0.82778  1.0000
  C   C977      1.0  0.48400  0.95777  0.73251  1.0000
  C   C978      1.0  0.48431  0.78317  0.75436  1.0000
  H   H1747     1.0  0.71074  0.51966  0.79292  1.0000
  H   H1748     1.0  0.68885  0.84874  0.52174  1.0000
  H   H1749     1.0  0.50291  0.87127  0.54706  1.0000
  H   H1750     1.0  0.71535  0.54748  0.77391  1.0000
  H   H1751     1.0  0.56693  0.97545  0.78044  1.0000
  N   N56       1.0  0.48102  0.54250  0.75730  1.0000
  H   H1752     1.0  0.65668  0.66923  0.98337  1.0000
  N   N57       1.0  0.72334  0.86801  0.58816  1.0000
  H   H1753     1.0  0.71782  0.82907  0.57670  1.0000
  H   H1754     1.0  0.47712  0.84214  0.56709  1.0000
  H   H1755     1.0  0.72515  0.93161  0.50058  1.0000
  C   C979      1.0  0.89843  0.47834  0.44201  1.0000
  C   C980      1.0  0.79435  0.00509  0.23802  1.0000
  H   H1756     1.0  0.85497  0.30863  0.46844  1.0000
  S   S215      1.0  0.81269  0.00639  0.42159  1.0000
  H   H1757     1.0  0.84065  0.02389  0.29505  1.0000
  H   H1758     1.0  0.96196  0.28668  0.01875  1.0000
  S   S216      1.0  0.76057  0.01444  0.41611  1.0000
  Fe  Fe108     1.0  0.78027  0.06617  0.01288  1.0000
  Fe  Fe109     1.0  0.79265  0.04933  0.09384  1.0000
  S   S217      1.0  0.81817  0.03431  0.06513  1.0000
  S   S218      1.0  0.78006  0.04973  0.15868  1.0000
  Fe  Fe110     1.0  0.83367  0.07049  0.02778  1.0000
  N   N58       1.0  0.83654  0.09179  0.32899  1.0000
  Fe  Fe111     1.0  0.78721  0.01690  0.01815  1.0000
  S   S219      1.0  0.81049  0.08667  0.05986  1.0000
  S   S220      1.0  0.76086  0.03006  0.04875  1.0000
  H   H1759     1.0  0.90256  0.46197  0.43503  1.0000
  S   S221      1.0  0.87646  0.09276  0.01091  1.0000
  H   H1760     1.0  0.87723  0.38985  0.03122  1.0000
  Fe  Fe112     1.0  0.84578  0.30135  0.30206  1.0000
  S   S222      1.0  0.86666  0.28494  0.26493  1.0000
  S   S223      1.0  0.80690  0.27844  0.33298  1.0000
  Fe  Fe113     1.0  0.89080  0.35650  0.29801  1.0000
  S   S224      1.0  0.91482  0.34313  0.26097  1.0000
  S   S225      1.0  0.91098  0.39852  0.32046  1.0000
  Fe  Fe114     1.0  0.87838  0.31991  0.22603  1.0000
  S   S226      1.0  0.87490  0.31246  0.15844  1.0000
  Fe  Fe115     1.0  0.90138  0.30954  0.30259  1.0000
  S   S227      1.0  0.92777  0.29274  0.32363  1.0000
  S   S228      1.0  0.85482  0.33483  0.26104  1.0000
  S   S229      1.0  0.88007  0.32432  0.34172  1.0000
  C   C981      1.0  0.90013  0.42252  0.32228  1.0000
  C   C982      1.0  0.91680  0.44726  0.33743  1.0000
  C   C983      1.0  0.90902  0.46683  0.33976  1.0000
  C   C984      1.0  0.88431  0.46185  0.32724  1.0000
  C   C985      1.0  0.86777  0.43720  0.31175  1.0000
  C   C986      1.0  0.87555  0.41765  0.30935  1.0000
  H   H1761     1.0  0.93592  0.45133  0.34731  1.0000
  H   H1762     1.0  0.87177  0.23828  0.46264  1.0000
  H   H1763     1.0  0.84869  0.43313  0.30168  1.0000
  H   H1764     1.0  0.86251  0.39882  0.29750  1.0000
  C   C987      1.0  0.94392  0.27493  0.45063  1.0000
  C   C988      1.0  0.93053  0.28942  0.44454  1.0000
  C   C989      1.0  0.92564  0.29529  0.40602  1.0000
  C   C990      1.0  0.93376  0.28638  0.37295  1.0000
  C   C991      1.0  0.94719  0.27197  0.37901  1.0000
  C   C992      1.0  0.95226  0.26628  0.41753  1.0000
  C   C993      1.0  0.84146  0.07068  0.31098  1.0000
  H   H1765     1.0  0.91556  0.30663  0.40193  1.0000
  H   H1766     1.0  0.95370  0.26508  0.35372  1.0000
  H   H1767     1.0  0.90102  0.44518  0.06305  1.0000
  C   C994      1.0  0.90614  0.35938  0.04356  1.0000
  C   C995      1.0  0.91576  0.37088  0.08083  1.0000
  C   C996      1.0  0.90615  0.35713  0.11625  1.0000
  C   C997      1.0  0.88702  0.33142  0.11493  1.0000
  C   C998      1.0  0.87755  0.31990  0.07761  1.0000
  C   C999      1.0  0.88683  0.33378  0.04222  1.0000
  H   H1768     1.0  0.93076  0.39062  0.08238  1.0000
  H   H1769     1.0  0.91368  0.36636  0.14456  1.0000
  H   H1770     1.0  0.86279  0.30004  0.07609  1.0000
  H   H1771     1.0  0.87925  0.32454  0.01395  1.0000
  H   H1772     1.0  0.90340  0.14444  0.39076  1.0000
  N   N59       1.0  0.87309  0.46907  0.46359  1.0000
  C   C1000     1.0  0.85873  0.10756  0.35700  1.0000
  S   S230      1.0  0.78397  0.99110  0.31612  1.0000
  Fe  Fe116     1.0  0.79522  0.02725  0.45616  1.0000
  C   C1001     1.0  0.94792  0.31609  0.12243  1.0000
  H   H1773     1.0  0.87099  0.46234  0.00043  1.0000
  C   C1002     1.0  0.88877  0.02682  0.46818  1.0000
  H   H1774     1.0  0.85097  0.14099  0.36689  1.0000
  C   C1003     1.0  0.75004  0.19140  0.33210  1.0000
  H   H1775     1.0  0.82621  0.22071  0.46670  1.0000
  C   C1004     1.0  0.78245  0.00765  0.27288  1.0000
  C   C1005     1.0  0.76978  0.02296  0.27203  1.0000
  C   C1006     1.0  0.76912  0.03546  0.23680  1.0000
  C   C1007     1.0  0.78133  0.03315  0.20207  1.0000
  C   C1008     1.0  0.79394  0.01782  0.20297  1.0000
  C   C1009     1.0  0.86735  0.13690  0.36074  1.0000
  H   H1776     1.0  0.76022  0.02488  0.29831  1.0000
  H   H1777     1.0  0.75919  0.04713  0.23644  1.0000
  H   H1778     1.0  0.75772  0.19939  0.43670  1.0000
  C   C1010     1.0  0.84439  0.05216  0.34070  1.0000
  H   H1779     1.0  0.81332  0.06857  0.37720  1.0000
  C   C1011     1.0  0.78989  0.22744  0.30824  1.0000
  C   C1012     1.0  0.78550  0.24480  0.33193  1.0000
  C   C1013     1.0  0.76328  0.23527  0.35565  1.0000
  H   H1780     1.0  0.75474  0.27923  0.22723  1.0000
  H   H1781     1.0  0.72624  0.01508  0.18082  1.0000
  H   H1782     1.0  0.80679  0.23447  0.28965  1.0000
  H   H1783     1.0  0.75973  0.24850  0.37421  1.0000
  C   C1014     1.0  0.85147  0.27193  0.44737  1.0000
  H   H1784     1.0  0.90366  0.04727  0.46740  1.0000
  H   H1785     1.0  0.85443  0.09944  0.38730  1.0000
  H   H1786     1.0  0.91390  0.47512  0.11981  1.0000
  S   S231      1.0  0.72882  0.15771  0.33201  1.0000
  H   H1787     1.0  0.83742  0.25944  0.38740  1.0000
  C   C1015     1.0  0.74564  0.20877  0.35570  1.0000
  H   H1788     1.0  0.82723  0.42161  0.37035  1.0000
  H   H1789     1.0  0.77964  0.20852  0.47818  1.0000
  H   H1790     1.0  0.79607  0.06419  0.33270  1.0000
  H   H1791     1.0  0.95313  0.34782  0.34546  1.0000
  H   H1792     1.0  0.86809  0.13812  0.02330  1.0000
  H   H1793     1.0  0.87356  0.04607  0.30855  1.0000
  H   H1794     1.0  0.82537  0.05799  0.29102  1.0000
  H   H1795     1.0  0.82539  0.03966  0.35397  1.0000
  H   H1796     1.0  0.89520  0.17053  0.39307  1.0000
  H   H1797     1.0  0.83203  0.12381  0.21895  1.0000
  H   H1798     1.0  0.93528  0.33707  0.16356  1.0000
  H   H1799     1.0  0.97521  0.39740  0.39628  1.0000
  H   H1800     1.0  0.80405  0.99317  0.23812  1.0000
  C   C1016     1.0  0.88716  0.14926  0.39395  1.0000
  H   H1801     1.0  0.95951  0.13454  0.08460  1.0000
  C   C1017     1.0  0.92171  0.47343  0.01737  1.0000
  C   C1018     1.0  0.85641  0.29957  0.44013  1.0000
  H   H1802     1.0  0.79496  0.08425  0.27757  1.0000
  H   H1803     1.0  0.84195  0.29987  0.41905  1.0000
  H   H1804     1.0  0.89247  0.18724  0.46159  1.0000
  H   H1805     1.0  0.87095  0.03130  0.41423  1.0000
  C   C1019     1.0  0.95249  0.32599  0.98858  1.0000
  C   C1020     1.0  0.85372  0.03462  0.31999  1.0000
  H   H1806     1.0  0.76794  0.09594  0.39893  1.0000
  C   C1021     1.0  0.87890  0.01874  0.42589  1.0000
  H   H1807     1.0  0.92854  0.30534  0.17914  1.0000
  C   C1022     1.0  0.80126  0.09755  0.36807  1.0000
  H   H1808     1.0  0.79849  0.10899  0.34438  1.0000
  H   H1809     1.0  0.87875  0.22724  0.28317  1.0000
  H   H1810     1.0  0.85524  0.19727  0.30384  1.0000
  H   H1811     1.0  0.81812  0.08026  0.24648  1.0000
  H   H1812     1.0  0.93966  0.08745  0.07953  1.0000
  H   H1813     1.0  0.96678  0.09946  0.11312  1.0000
  C   C1023     1.0  0.94301  0.32294  0.16434  1.0000
  C   C1024     1.0  0.92743  0.17919  0.98608  1.0000
  H   H1814     1.0  0.74101  0.23053  0.27620  1.0000
  C   C1025     1.0  0.89320  0.10171  0.46150  1.0000
  H   H1815     1.0  0.72884  0.20168  0.37443  1.0000
  H   H1816     1.0  0.92902  0.30679  0.10693  1.0000
  C   C1026     1.0  0.88675  0.14432  0.00973  1.0000
  H   H1817     1.0  0.81200  0.40264  0.41346  1.0000
  H   H1818     1.0  0.74136  0.25969  0.29401  1.0000
  H   H1819     1.0  0.81896  0.19413  0.43463  1.0000
  C   C1027     1.0  0.75723  0.26228  0.23615  1.0000
  H   H1820     1.0  0.93845  0.33743  0.04019  1.0000
  H   H1821     1.0  0.94899  0.36642  0.40843  1.0000
  S   S232      1.0  0.75750  0.08638  0.98944  1.0000
  H   H1822     1.0  0.89012  0.46943  0.05755  1.0000
  H   H1823     1.0  0.95998  0.35486  0.10203  1.0000
  C   C1028     1.0  0.81323  0.11338  0.23417  1.0000
  C   C1029     1.0  0.94898  0.32605  0.03414  1.0000
  H   H1824     1.0  0.85982  0.06740  0.44066  1.0000
  S   S233      1.0  0.92012  0.37739  0.99987  1.0000
  C   C1030     1.0  0.86991  0.23052  0.43198  1.0000
  H   H1825     1.0  0.89618  0.18465  0.01058  1.0000
  H   H1826     1.0  0.96242  0.12382  0.03530  1.0000
  H   H1827     1.0  0.86670  0.27291  0.46787  1.0000
  C   C1031     1.0  0.73754  0.24689  0.26761  1.0000
  H   H1828     1.0  0.80824  0.12747  0.24923  1.0000
  H   H1829     1.0  0.80330  0.01566  0.17658  1.0000
  H   H1830     1.0  0.91104  0.21721  0.43671  1.0000
  C   C1032     1.0  0.83554  0.10819  0.29548  1.0000
  H   H1831     1.0  0.92360  0.29586  0.46977  1.0000
  H   H1832     1.0  0.96036  0.16743  0.05377  1.0000
  H   H1833     1.0  0.85204  0.46323  0.40881  1.0000
  H   H1834     1.0  0.90934  0.42726  0.99392  1.0000
  H   H1835     1.0  0.87607  0.31114  0.42812  1.0000
  C   C1033     1.0  0.89407  0.20658  0.45589  1.0000
  H   H1836     1.0  0.79822  0.10270  0.21140  1.0000
  H   H1837     1.0  0.77702  0.26932  0.24839  1.0000
  H   H1838     1.0  0.93733  0.46771  0.02038  1.0000
  H   H1839     1.0  0.85819  0.06261  0.36490  1.0000
  H   H1840     1.0  0.96263  0.25519  0.42159  1.0000
  C   C1034     1.0  0.85204  0.45193  0.43516  1.0000
  H   H1841     1.0  0.81480  0.11067  0.39074  1.0000
  H   H1842     1.0  0.95142  0.20339  0.07196  1.0000
  H   H1843     1.0  0.85307  0.19079  0.45414  1.0000
  C   C1035     1.0  0.85339  0.42745  0.41985  1.0000
  H   H1844     1.0  0.77724  0.07201  0.41418  1.0000
  C   C1036     1.0  0.82962  0.41044  0.39494  1.0000
  H   H1845     1.0  0.93540  0.30623  0.04325  1.0000
  C   C1037     1.0  0.95926  0.37951  0.38376  1.0000
  H   H1846     1.0  0.76082  0.06839  0.36729  1.0000
  H   H1847     1.0  0.84574  0.22116  0.28770  1.0000
  H   H1848     1.0  0.85436  0.11690  0.27972  1.0000
  C   C1038     1.0  0.77231  0.20090  0.30850  1.0000
  H   H1849     1.0  0.77594  0.18765  0.29013  1.0000
  H   H1850     1.0  0.87048  0.43264  0.40080  1.0000
  C   C1039     1.0  0.86951  0.20390  0.43575  1.0000
  H   H1851     1.0  0.82307  0.13854  0.00698  1.0000
  H   H1852     1.0  0.95571  0.30215  0.12552  1.0000
  H   H1853     1.0  0.90680  0.09728  0.44568  1.0000
  H   H1854     1.0  0.96635  0.34265  0.27182  1.0000
  H   H1855     1.0  0.83189  0.39405  0.38198  1.0000
  H   H1856     1.0  0.87654  0.10638  0.34801  1.0000
  N   N60       1.0  0.84704  0.23058  0.41131  1.0000
  H   H1857     1.0  0.83287  0.12469  0.30670  1.0000
  C   C1040     1.0  0.85167  0.25812  0.40795  1.0000
  C   C1041     1.0  0.82313  0.21470  0.43495  1.0000
  C   C1042     1.0  0.84348  0.21904  0.37022  1.0000
  C   C1043     1.0  0.86750  0.23081  0.34310  1.0000
  C   C1044     1.0  0.81424  0.09432  0.26379  1.0000
  C   C1045     1.0  0.79798  0.21473  0.42031  1.0000
  H   H1858     1.0  0.86598  0.42545  0.02660  1.0000
  C   C1046     1.0  0.89520  0.12607  0.00041  1.0000
  C   C1047     1.0  0.86130  0.21823  0.30199  1.0000
  C   C1048     1.0  0.96871  0.20274  0.08441  1.0000
  H   H1859     1.0  0.96105  0.33114  0.18217  1.0000
  H   H1860     1.0  0.88815  0.24380  0.41725  1.0000
  H   H1861     1.0  0.75524  0.24998  0.20978  1.0000
  H   H1862     1.0  0.87069  0.27012  0.39414  1.0000
  H   H1863     1.0  0.85904  0.07920  0.29215  1.0000
  C   C1049     1.0  0.77521  0.08245  0.38827  1.0000
  C   C1050     1.0  0.77560  0.19953  0.44816  1.0000
  H   H1864     1.0  0.83656  0.19786  0.37141  1.0000
  H   H1865     1.0  0.82802  0.22134  0.35431  1.0000
  H   H1866     1.0  0.88365  0.22807  0.35540  1.0000
  H   H1867     1.0  0.87416  0.25171  0.33915  1.0000
  H   H1868     1.0  0.87791  0.14252  0.42311  1.0000
  H   H1869     1.0  0.86802  0.19468  0.40637  1.0000
  H   H1870     1.0  0.79250  0.20545  0.39067  1.0000
  H   H1871     1.0  0.80003  0.23450  0.41843  1.0000
  C   C1051     1.0  0.86661  0.08463  0.45885  1.0000
  C   C1052     1.0  0.90714  0.46582  0.05715  1.0000
  H   H1872     1.0  0.85379  0.02032  0.34124  1.0000
  C   C1053     1.0  0.81145  0.07924  0.35134  1.0000
  H   H1873     1.0  0.87660  0.14660  0.33280  1.0000
  H   H1874     1.0  0.94538  0.38440  0.36818  1.0000
  H   H1875     1.0  0.96706  0.38208  0.29945  1.0000
  H   H1876     1.0  0.86373  0.99832  0.42481  1.0000
  Fe  Fe117     1.0  0.77706  0.99189  0.38306  1.0000
  H   H1877     1.0  0.89807  0.01492  0.47734  1.0000
  C   C1054     1.0  0.96938  0.12593  0.06626  1.0000
  H   H1878     1.0  0.85431  0.41564  0.44461  1.0000
  H   H1879     1.0  0.77223  0.17928  0.45014  1.0000
  H   H1880     1.0  0.89501  0.02062  0.40652  1.0000
  H   H1881     1.0  0.96374  0.19383  0.11405  1.0000
  H   H1882     1.0  0.83259  0.26194  0.46239  1.0000
  C   C1055     1.0  0.96745  0.34039  0.10061  1.0000
  H   H1883     1.0  0.94183  0.47790  0.09340  1.0000
  C   C1056     1.0  0.86364  0.38946  0.00794  1.0000
  C   C1057     1.0  0.90278  0.17071  0.00258  1.0000
  H   H1884     1.0  0.96619  0.34651  0.46686  1.0000
  C   C1058     1.0  0.84885  0.09014  0.47919  1.0000
  H   H1885     1.0  0.72620  0.06141  0.26134  1.0000
  S   S234      1.0  0.81514  0.06947  0.47633  1.0000
  H   H1886     1.0  0.83267  0.44525  0.44824  1.0000
  H   H1887     1.0  0.73615  0.13296  0.45177  1.0000
  N   N61       1.0  0.97354  0.33673  0.05825  1.0000
  C   C1059     1.0  0.96100  0.09877  0.08166  1.0000
  C   C1060     1.0  0.96974  0.36611  0.35540  1.0000
  H   H1888     1.0  0.95393  0.28235  0.06999  1.0000
  H   H1889     1.0  0.84368  0.37804  0.01895  1.0000
  H   H1890     1.0  0.97380  0.25540  0.04639  1.0000
  C   C1061     1.0  0.86847  0.41683  0.99873  1.0000
  C   C1062     1.0  0.97020  0.29070  0.04910  1.0000
  H   H1891     1.0  0.74948  0.99058  0.15404  1.0000
  H   H1892     1.0  0.96346  0.29984  0.24515  1.0000
  H   H1893     1.0  0.96964  0.08873  0.06364  1.0000
  C   C1063     1.0  0.92463  0.48127  0.09156  1.0000
  H   H1894     1.0  0.96597  0.24517  0.87160  1.0000
  H   H1895     1.0  0.91925  0.20544  0.71974  1.0000
  S   S235      1.0  0.74073  0.22137  0.82797  1.0000
  H   H1896     1.0  0.89133  0.14759  0.52222  1.0000
  H   H1897     1.0  0.77798  0.17657  0.94961  1.0000
  Fe  Fe118     1.0  0.88387  0.33641  0.86064  1.0000
  S   S236      1.0  0.92273  0.34973  0.89035  1.0000
  S   S237      1.0  0.86249  0.29459  0.83811  1.0000
  Fe  Fe119     1.0  0.88738  0.39015  0.86645  1.0000
  S   S238      1.0  0.92572  0.40658  0.89699  1.0000
  S   S239      1.0  0.86389  0.41171  0.85537  1.0000
  Fe  Fe120     1.0  0.93633  0.38465  0.85141  1.0000
  H   H1898     1.0  0.76074  0.07939  0.84364  1.0000
  Fe  Fe121     1.0  0.90928  0.37055  0.93369  1.0000
  S   S240      1.0  0.89855  0.37001  0.81867  1.0000
  S   S241      1.0  0.86980  0.35538  0.90607  1.0000
  H   H1899     1.0  0.77921  0.36144  0.86805  1.0000
  Fe  Fe122     1.0  0.95744  0.18498  0.51683  1.0000
  S   S242      1.0  0.94176  0.20560  0.55645  1.0000
  H   H1900     1.0  0.81839  0.41949  0.74974  1.0000
  H   H1901     1.0  0.78403  0.39897  0.74938  1.0000
  C   C1064     1.0  0.90130  0.46100  0.83553  1.0000
  C   C1065     1.0  0.87509  0.44419  0.84028  1.0000
  C   C1066     1.0  0.85712  0.45362  0.83452  1.0000
  H   H1902     1.0  0.91531  0.45396  0.83934  1.0000
  H   H1903     1.0  0.83680  0.44092  0.83829  1.0000
  C   C1067     1.0  0.81277  0.03255  0.58240  1.0000
  H   H1904     1.0  0.94567  0.45058  0.95418  1.0000
  C   C1068     1.0  0.91969  0.13455  0.98319  1.0000
  H   H1905     1.0  0.93956  0.23798  0.73702  1.0000
  C   C1069     1.0  0.77471  0.24099  0.83101  1.0000
  C   C1070     1.0  0.78464  0.26256  0.85669  1.0000
  C   C1071     1.0  0.81141  0.27898  0.85953  1.0000
  C   C1072     1.0  0.82861  0.27415  0.83641  1.0000
  C   C1073     1.0  0.81873  0.25225  0.81138  1.0000
  C   C1074     1.0  0.79194  0.23583  0.80853  1.0000
  H   H1906     1.0  0.77151  0.26648  0.87470  1.0000
  H   H1907     1.0  0.81877  0.29532  0.87968  1.0000
  H   H1908     1.0  0.83183  0.24824  0.79345  1.0000
  H   H1909     1.0  0.78460  0.21939  0.78852  1.0000
  H   H1910     1.0  0.72704  0.16343  0.91225  1.0000
  H   H1911     1.0  0.80226  0.04352  0.57419  1.0000
  C   C1075     1.0  0.76508  0.31687  0.82607  1.0000
  C   C1076     1.0  0.91967  0.22174  0.73756  1.0000
  H   H1912     1.0  0.82903  0.47144  0.49550  1.0000
  H   H1913     1.0  0.94685  0.33240  0.51035  1.0000
  H   H1914     1.0  0.74158  0.18728  0.95131  1.0000
  C   C1077     1.0  0.87431  0.45482  0.49980  1.0000
  H   H1915     1.0  0.86832  0.43665  0.57667  1.0000
  H   H1916     1.0  0.83419  0.41542  0.57383  1.0000
  H   H1917     1.0  0.76553  0.15510  0.90891  1.0000
  H   H1918     1.0  0.90949  0.06050  0.60175  1.0000
  H   H1919     1.0  0.88180  0.06633  0.60259  1.0000
  H   H1920     1.0  0.85311  0.41542  0.97805  1.0000
  H   H1921     1.0  0.90647  0.02186  0.54287  1.0000
  N   N62       1.0  0.87380  0.02989  0.53941  1.0000
  H   H1922     1.0  0.76251  0.03989  0.51287  1.0000
  H   H1923     1.0  0.84489  0.45558  0.53904  1.0000
  C   C1078     1.0  0.73476  0.10255  0.93252  1.0000
  C   C1079     1.0  0.88676  0.01475  0.55534  1.0000
  H   H1924     1.0  0.86461  0.24759  0.96210  1.0000
  H   H1925     1.0  0.82402  0.30172  0.76846  1.0000
  H   H1926     1.0  0.72732  0.10893  0.95729  1.0000
  H   H1927     1.0  0.93064  0.30781  0.93530  1.0000
  H   H1928     1.0  0.79892  0.14304  0.90650  1.0000
  C   C1080     1.0  0.80590  0.38648  0.78801  1.0000
  H   H1929     1.0  0.80530  0.38897  0.72375  1.0000
  H   H1930     1.0  0.76622  0.35935  0.79903  1.0000
  C   C1081     1.0  0.83395  0.32211  0.75890  1.0000
  H   H1931     1.0  0.85592  0.40912  0.54309  1.0000
  C   C1082     1.0  0.74001  0.18410  0.91877  1.0000
  C   C1083     1.0  0.72920  0.27584  0.79720  1.0000
  H   H1932     1.0  0.83261  0.42817  0.50522  1.0000
  C   C1084     1.0  0.88457  0.13013  0.50450  1.0000
  C   C1085     1.0  0.80311  0.39914  0.75032  1.0000
  H   H1933     1.0  0.77217  0.07341  0.91233  1.0000
  H   H1934     1.0  0.82026  0.22407  0.90516  1.0000
  H   H1935     1.0  0.96299  0.28519  0.88436  1.0000
  S   S243      1.0  0.94981  0.26837  0.49996  1.0000
  H   H1936     1.0  0.80484  0.39818  0.81343  1.0000
  H   H1937     1.0  0.94367  0.26113  0.91962  1.0000
  C   C1086     1.0  0.90236  0.12449  0.48448  1.0000
  H   H1938     1.0  0.92634  0.12059  0.97561  1.0000
  H   H1939     1.0  0.76824  0.15593  0.84074  1.0000
  C   C1087     1.0  0.78428  0.35828  0.79145  1.0000
  H   H1940     1.0  0.75374  0.30842  0.76293  1.0000
  H   H1941     1.0  0.86521  0.25865  0.91207  1.0000
  H   H1942     1.0  0.94883  0.16867  0.80836  1.0000
  C   C1088     1.0  0.75011  0.03622  0.53935  1.0000
  C   C1089     1.0  0.95753  0.30227  0.77713  1.0000
  H   H1943     1.0  0.73292  0.07238  0.53275  1.0000
  H   H1944     1.0  0.93490  0.10304  0.56860  1.0000
  H   H1945     1.0  0.82617  0.35431  0.75206  1.0000
  H   H1946     1.0  0.74897  0.32070  0.83622  1.0000
  N   N63       1.0  0.92454  0.19739  0.84313  1.0000
  C   C1090     1.0  0.92941  0.20430  0.80001  1.0000
  C   C1091     1.0  0.94596  0.19209  0.85811  1.0000
  C   C1092     1.0  0.89861  0.17403  0.84696  1.0000
  C   C1093     1.0  0.92436  0.21912  0.86743  1.0000
  C   C1094     1.0  0.94811  0.24588  0.86247  1.0000
  C   C1095     1.0  0.91124  0.21349  0.78010  1.0000
  C   C1096     1.0  0.89172  0.16241  0.88904  1.0000
  H   H1947     1.0  0.76416  0.19019  0.86815  1.0000
  H   H1948     1.0  0.92834  0.14991  0.84782  1.0000
  H   H1949     1.0  0.91096  0.06253  0.52855  1.0000
  C   C1097     1.0  0.86904  0.24526  0.93079  1.0000
  C   C1098     1.0  0.86695  0.13685  0.88835  1.0000
  H   H1950     1.0  0.92775  0.18752  0.78210  1.0000
  H   H1951     1.0  0.94959  0.21941  0.79563  1.0000
  H   H1952     1.0  0.83270  0.45374  0.96052  1.0000
  H   H1953     1.0  0.94570  0.19104  0.89101  1.0000
  H   H1954     1.0  0.89687  0.15860  0.82570  1.0000
  H   H1955     1.0  0.88294  0.17877  0.83828  1.0000
  H   H1956     1.0  0.90669  0.22115  0.86124  1.0000
  H   H1957     1.0  0.92333  0.21463  0.89952  1.0000
  H   H1958     1.0  0.95050  0.25240  0.83141  1.0000
  H   H1959     1.0  0.88333  0.47739  0.91354  1.0000
  H   H1960     1.0  0.89116  0.19771  0.77905  1.0000
  H   H1961     1.0  0.91133  0.23023  0.79598  1.0000
  H   H1962     1.0  0.88881  0.17582  0.90955  1.0000
  H   H1963     1.0  0.90700  0.15843  0.90160  1.0000
  N   N64       1.0  0.90612  0.46178  0.98019  1.0000
  H   H1964     1.0  0.81369  0.12242  0.95967  1.0000
  H   H1965     1.0  0.83187  0.16585  0.90584  1.0000
  H   H1966     1.0  0.86613  0.37978  0.98107  1.0000
  H   H1967     1.0  0.85848  0.20509  0.93490  1.0000
  H   H1968     1.0  0.85355  0.02409  0.59514  1.0000
  H   H1969     1.0  0.85840  0.21623  0.88554  1.0000
  H   H1970     1.0  0.95407  0.28720  0.75428  1.0000
  H   H1971     1.0  0.78059  0.34934  0.76153  1.0000
  C   C1099     1.0  0.96159  0.35054  0.49725  1.0000
  C   C1100     1.0  0.86650  0.02341  0.49645  1.0000
  H   H1972     1.0  0.86936  0.12245  0.86941  1.0000
  H   H1973     1.0  0.86246  0.12907  0.91878  1.0000
  S   S244      1.0  0.94726  0.21274  0.97901  1.0000
  C   C1101     1.0  0.84647  0.46744  0.93910  1.0000
  N   N65       1.0  0.78929  0.34203  0.82120  1.0000
  C   C1102     1.0  0.79480  0.35618  0.86056  1.0000
  C   C1103     1.0  0.81195  0.33742  0.81027  1.0000
  C   C1104     1.0  0.81659  0.33492  0.76548  1.0000
  C   C1105     1.0  0.79838  0.34192  0.89663  1.0000
  H   H1974     1.0  0.94890  0.29262  0.80534  1.0000
  C   C1106     1.0  0.80973  0.36021  0.93212  1.0000
  H   H1975     1.0  0.76776  0.30513  0.84945  1.0000
  C   C1107     1.0  0.75564  0.29859  0.78959  1.0000
  H   H1976     1.0  0.81272  0.37469  0.85881  1.0000
  H   H1977     1.0  0.83036  0.35325  0.82201  1.0000
  H   H1978     1.0  0.81016  0.31981  0.82502  1.0000
  H   H1979     1.0  0.79859  0.32345  0.74871  1.0000
  H   H1980     1.0  0.81149  0.33353  0.88958  1.0000
  H   H1981     1.0  0.77953  0.32620  0.90603  1.0000
  H   H1982     1.0  0.82752  0.03536  0.52364  1.0000
  C   C1108     1.0  0.84922  0.44108  0.52396  1.0000
  H   H1983     1.0  0.85226  0.33240  0.77574  1.0000
  H   H1984     1.0  0.79686  0.36863  0.94101  1.0000
  H   H1985     1.0  0.81189  0.34948  0.95752  1.0000
  H   H1986     1.0  0.82906  0.37605  0.92487  1.0000
  C   C1109     1.0  0.84955  0.02307  0.56280  1.0000
  H   H1987     1.0  0.78999  0.14213  0.84443  1.0000
  H   H1988     1.0  0.88985  0.25057  0.92869  1.0000
  H   H1989     1.0  0.88493  0.06984  0.52653  1.0000
  H   H1990     1.0  0.95419  0.16710  0.96202  1.0000
  H   H1991     1.0  0.79312  0.15089  0.97505  1.0000
  C   C1110     1.0  0.94636  0.16750  0.84092  1.0000
  H   H1992     1.0  0.79201  0.17995  0.78064  1.0000
  C   C1111     1.0  0.86521  0.47960  0.82462  1.0000
  H   H1993     1.0  0.90693  0.10857  0.57041  1.0000
  C   C1112     1.0  0.83535  0.03930  0.55418  1.0000
  H   H1994     1.0  0.92137  0.28724  0.97776  1.0000
  H   H1995     1.0  0.76919  0.29050  0.78354  1.0000
  H   H1996     1.0  0.90645  0.22816  0.72357  1.0000
  C   C1113     1.0  0.85796  0.11307  0.50171  1.0000
  S   S245      1.0  0.93610  0.14500  0.48730  1.0000
  H   H1997     1.0  0.82463  0.17820  0.97879  1.0000
  C   C1114     1.0  0.89233  0.05825  0.54297  1.0000
  H   H1998     1.0  0.84439  0.11762  0.51736  1.0000
  H   H1999     1.0  0.77901  0.14551  0.77526  1.0000
  C   C1115     1.0  0.92753  0.30725  0.96774  1.0000
  H   H2000     1.0  0.95579  0.39025  0.74773  1.0000
  C   C1116     1.0  0.89922  0.06947  0.58561  1.0000
  C   C1117     1.0  0.91683  0.09856  0.58488  1.0000
  C   C1118     1.0  0.73768  0.09779  0.86130  1.0000
  C   C1119     1.0  0.82447  0.14155  0.97451  1.0000
  H   H2001     1.0  0.86538  0.44408  0.92670  1.0000
  C   C1120     1.0  0.94553  0.26638  0.88786  1.0000
  S   S246      1.0  0.77510  0.99456  0.49858  1.0000
  S   S247      1.0  0.73564  0.16342  0.75704  1.0000
  H   H2002     1.0  0.92198  0.10623  0.61558  1.0000
  H   H2003     1.0  0.83694  0.46354  0.90962  1.0000
  C   C1121     1.0  0.76002  0.08257  0.90734  1.0000
  H   H2004     1.0  0.88979  0.01797  0.58784  1.0000
  C   C1122     1.0  0.85221  0.42458  0.55631  1.0000
  C   C1123     1.0  0.75052  0.09068  0.93968  1.0000
  H   H2005     1.0  0.84814  0.06028  0.55742  1.0000
  H   H2006     1.0  0.96503  0.20851  0.85131  1.0000
  H   H2007     1.0  0.81941  0.21062  0.95193  1.0000
  C   C1124     1.0  0.93560  0.16090  0.97570  1.0000
  H   H2008     1.0  0.77868  0.21294  0.90812  1.0000
  C   C1125     1.0  0.87086  0.46408  0.93659  1.0000
  C   C1126     1.0  0.75347  0.08595  0.86841  1.0000
  C   C1127     1.0  0.85294  0.21741  0.91660  1.0000
  H   H2009     1.0  0.82534  0.38753  0.78826  1.0000
  H   H2010     1.0  0.83856  0.32237  0.72700  1.0000
  N   N66       1.0  0.80573  0.18267  0.90349  1.0000
  C   C1128     1.0  0.80777  0.18381  0.85899  1.0000
  C   C1129     1.0  0.82365  0.20902  0.92019  1.0000
  C   C1130     1.0  0.81287  0.16245  0.91788  1.0000
  C   C1131     1.0  0.77868  0.17551  0.91678  1.0000
  C   C1132     1.0  0.76660  0.19227  0.90073  1.0000
  C   C1133     1.0  0.78838  0.15954  0.83578  1.0000
  Fe  Fe123     1.0  0.96562  0.24071  0.51960  1.0000
  H   H2011     1.0  0.88117  0.44049  0.49180  1.0000
  C   C1134     1.0  0.81311  0.15950  0.96342  1.0000
  C   C1135     1.0  0.72839  0.10612  0.89362  1.0000
  C   C1136     1.0  0.79350  0.16281  0.79135  1.0000
  H   H2012     1.0  0.81297  0.16495  0.78447  1.0000
  H   H2013     1.0  0.82730  0.18718  0.84968  1.0000
  H   H2014     1.0  0.80571  0.20059  0.84775  1.0000
  H   H2015     1.0  0.84509  0.15011  0.96606  1.0000
  C   C1137     1.0  0.96333  0.47735  0.90680  1.0000
  H   H2016     1.0  0.74089  0.06426  0.48611  1.0000
  H   H2017     1.0  0.85048  0.13946  0.87706  1.0000
  H   H2018     1.0  0.83519  0.00266  0.55682  1.0000
  H   H2019     1.0  0.92845  0.26860  0.87847  1.0000
  H   H2020     1.0  0.81985  0.03777  0.61332  1.0000
  H   H2021     1.0  0.74087  0.02455  0.96045  1.0000
  H   H2022     1.0  0.88891  0.46827  0.52111  1.0000
  H   H2023     1.0  0.79913  0.01164  0.58060  1.0000
  S   S248      1.0  0.80426  0.05186  0.97893  1.0000
  H   H2024     1.0  0.73722  0.10941  0.51193  1.0000
  H   H2025     1.0  0.94783  0.31379  0.76757  1.0000
  H   H2026     1.0  0.73126  0.19570  0.90605  1.0000
  S   S249      1.0  0.72985  0.10151  0.81175  1.0000
  H   H2027     1.0  0.91388  0.46297  0.91734  1.0000
  H   H2028     1.0  0.96721  0.16296  0.89098  1.0000
  H   H2029     1.0  0.89730  0.21696  0.48474  1.0000
  H   H2030     1.0  0.73017  0.14658  0.49643  1.0000
  H   H2031     1.0  0.95135  0.46383  0.88313  1.0000
  H   H2032     1.0  0.75956  0.05253  0.56070  1.0000
  H   H2033     1.0  0.91199  0.31271  0.97395  1.0000
  C   C1138     1.0  0.89540  0.43276  0.97968  1.0000
  H   H2034     1.0  0.95802  0.34557  0.97704  1.0000
  H   H2035     1.0  0.74818  0.01841  0.55358  1.0000
  H   H2036     1.0  0.95339  0.36427  0.49532  1.0000
  H   H2037     1.0  0.72960  0.26564  0.82450  1.0000
  H   H2038     1.0  0.89340  0.42517  0.94877  1.0000
  H   H2039     1.0  0.85075  0.00339  0.49299  1.0000
  H   H2040     1.0  0.96768  0.14560  0.84684  1.0000
  C   C1139     1.0  0.92398  0.47266  0.94527  1.0000
  C   C1140     1.0  0.96856  0.16389  0.85825  1.0000
  H   H2041     1.0  0.96788  0.32076  0.98034  1.0000
  C   C1141     1.0  0.88550  0.47042  0.97672  1.0000
  H   H2042     1.0  0.85817  0.03561  0.48477  1.0000
  C   C1142     1.0  0.94941  0.47039  0.94653  1.0000
  C   C1143     1.0  0.72540  0.05755  0.50876  1.0000
  C   C1144     1.0  0.87205  0.98509  0.54854  1.0000
  H   H2043     1.0  0.76580  0.90789  0.45480  1.0000
  C   C1145     1.0  0.90231  0.78311  0.11171  1.0000
  H   H2044     1.0  0.78692  0.68410  0.34699  1.0000
  Fe  Fe124     1.0  0.89034  0.52732  0.35288  1.0000
  S   S250      1.0  0.92660  0.54859  0.38861  1.0000
  C   C1146     1.0  0.79935  0.95409  0.01012  1.0000
  Fe  Fe125     1.0  0.87825  0.57321  0.35589  1.0000
  S   S251      1.0  0.91411  0.59736  0.39200  1.0000
  S   S252      1.0  0.85499  0.59413  0.33806  1.0000
  Fe  Fe126     1.0  0.93461  0.58273  0.35011  1.0000
  C   C1147     1.0  0.72615  0.65626  0.40510  1.0000
  Fe  Fe127     1.0  0.90341  0.56170  0.42778  1.0000
  S   S253      1.0  0.89952  0.56072  0.31173  1.0000
  S   S254      1.0  0.86639  0.53834  0.39421  1.0000
  H   H2045     1.0  0.88962  0.73079  0.11576  1.0000
  Fe  Fe128     1.0  0.95743  0.79029  0.01899  1.0000
  S   S255      1.0  0.93890  0.75475  0.05560  1.0000
  C   C1148     1.0  0.74678  0.69530  0.44690  1.0000
  H   H2046     1.0  0.97165  0.87427  0.10033  1.0000
  H   H2047     1.0  0.86386  0.79253  0.14508  1.0000
  C   C1149     1.0  0.80619  0.93384  0.00930  1.0000
  C   C1150     1.0  0.86670  0.81233  0.98346  1.0000
  C   C1151     1.0  0.86279  0.67934  0.38200  1.0000
  H   H2048     1.0  0.72699  0.67677  0.11923  1.0000
  H   H2049     1.0  0.77932  0.65604  0.40008  1.0000
  C   C1152     1.0  0.75032  0.71021  0.41322  1.0000
  C   C1153     1.0  0.79040  0.91010  0.99042  1.0000
  H   H2050     1.0  0.76738  0.62938  0.46043  1.0000
  H   H2051     1.0  0.83132  0.78916  0.09536  1.0000
  S   S256      1.0  0.73314  0.54779  0.31204  1.0000
  C   C1154     1.0  0.79685  0.65355  0.39453  1.0000
  S   S257      1.0  0.93601  0.81240  0.99812  1.0000
  H   H2052     1.0  0.88505  0.61648  0.45178  1.0000
  H   H2053     1.0  0.82114  0.64164  0.42909  1.0000
  H   H2054     1.0  0.85859  0.67316  0.41311  1.0000
  C   C1155     1.0  0.82105  0.58074  0.33080  1.0000
  C   C1156     1.0  0.81081  0.59629  0.31498  1.0000
  C   C1157     1.0  0.78398  0.58669  0.30944  1.0000
  C   C1158     1.0  0.76707  0.56125  0.31932  1.0000
  C   C1159     1.0  0.77731  0.54570  0.33510  1.0000
  C   C1160     1.0  0.80411  0.55536  0.34087  1.0000
  H   H2055     1.0  0.82378  0.61568  0.30613  1.0000
  H   H2056     1.0  0.77643  0.59872  0.29672  1.0000
  H   H2057     1.0  0.76445  0.52597  0.34266  1.0000
  H   H2058     1.0  0.81166  0.54313  0.35293  1.0000
  C   C1161     1.0  0.77639  0.90063  0.47254  1.0000
  H   H2059     1.0  0.96408  0.52054  0.45600  1.0000
  H   H2060     1.0  0.89078  0.76201  0.00684  1.0000
  S   S258      1.0  0.77212  0.81120  0.00663  1.0000
  C   C1162     1.0  0.82821  0.70060  0.39710  1.0000
  H   H2061     1.0  0.96331  0.82455  0.47695  1.0000
  H   H2062     1.0  0.72745  0.62879  0.10686  1.0000
  S   S259      1.0  0.87259  0.48508  0.33179  1.0000
  H   H2063     1.0  0.78986  0.63563  0.37613  1.0000
  H   H2064     1.0  0.92197  0.78907  0.24793  1.0000
  H   H2065     1.0  0.75983  0.73101  0.41597  1.0000
  Fe  Fe129     1.0  0.96170  0.74031  0.01823  1.0000
  H   H2066     1.0  0.80848  0.73935  0.45234  1.0000
  S   S260      1.0  0.75537  0.95606  0.41976  1.0000
  C   C1163     1.0  0.79160  0.65838  0.30624  1.0000
  C   C1164     1.0  0.78273  0.66689  0.26923  1.0000
  H   H2067     1.0  0.80559  0.65152  0.29679  1.0000
  H   H2068     1.0  0.77460  0.65070  0.24745  1.0000
  H   H2069     1.0  0.76752  0.67258  0.27678  1.0000
  H   H2070     1.0  0.79918  0.68333  0.25520  1.0000
  C   C1165     1.0  0.73469  0.66826  0.44250  1.0000
  H   H2071     1.0  0.90759  0.78746  0.08002  1.0000
  C   C1166     1.0  0.97218  0.85600  0.09261  1.0000
  H   H2072     1.0  0.94266  0.74817  0.34005  1.0000
  C   C1167     1.0  0.92041  0.63769  0.29849  1.0000
  C   C1168     1.0  0.87524  0.75915  0.11154  1.0000
  H   H2073     1.0  0.83898  0.69880  0.42286  1.0000
  C   C1169     1.0  0.73470  0.64161  0.08092  1.0000
  H   H2074     1.0  0.95366  0.66849  0.35237  1.0000
  H   H2075     1.0  0.87888  0.50790  0.45281  1.0000
  C   C1170     1.0  0.87641  0.73490  0.09690  1.0000
  C   C1171     1.0  0.93483  0.78470  0.47705  1.0000
  C   C1172     1.0  0.89331  0.81989  0.98673  1.0000
  Fe  Fe130     1.0  0.74167  0.98005  0.45632  1.0000
  C   C1173     1.0  0.92267  0.49898  0.46391  1.0000
  S   S261      1.0  0.94479  0.69808  0.99733  1.0000
  H   H2076     1.0  0.84084  0.82164  0.11366  1.0000
  C   C1174     1.0  0.80576  0.64739  0.43423  1.0000
  H   H2077     1.0  0.90179  0.74715  0.47886  1.0000
  H   H2078     1.0  0.73492  0.96805  0.11432  1.0000
  H   H2079     1.0  0.91662  0.77717  0.12327  1.0000
  H   H2080     1.0  0.86191  0.76231  0.09160  1.0000
  H   H2081     1.0  0.86638  0.75501  0.14116  1.0000
  C   C1175     1.0  0.72928  0.67119  0.37157  1.0000
  C   C1176     1.0  0.95991  0.72284  0.32841  1.0000
  H   H2082     1.0  0.96077  0.83919  0.14949  1.0000
  H   H2083     1.0  0.74551  0.59631  0.01106  1.0000
  H   H2084     1.0  0.75902  0.74414  0.01380  1.0000
  H   H2085     1.0  0.79028  0.62076  0.48288  1.0000
  H   H2086     1.0  0.93090  0.80481  0.17781  1.0000
  C   C1177     1.0  0.74152  0.69821  0.37590  1.0000
  H   H2087     1.0  0.95283  0.73807  0.38396  1.0000
  C   C1178     1.0  0.74595  0.74122  0.03922  1.0000
  H   H2088     1.0  0.85689  0.71816  0.09808  1.0000
  H   H2089     1.0  0.88307  0.73715  0.06582  1.0000
  H   H2090     1.0  0.73194  0.65651  0.46828  1.0000
  C   C1179     1.0  0.84441  0.80993  0.09069  1.0000
  H   H2091     1.0  0.92186  0.83054  0.08255  1.0000
  H   H2092     1.0  0.96712  0.85134  0.06085  1.0000
  H   H2093     1.0  0.93100  0.50220  0.08800  1.0000
  H   H2094     1.0  0.81693  0.69856  0.32168  1.0000
  H   H2095     1.0  0.83871  0.74883  0.42748  1.0000
  H   H2096     1.0  0.83315  0.48665  0.44858  1.0000
  C   C1180     1.0  0.89363  0.78442  0.20242  1.0000
  S   S262      1.0  0.80034  0.88541  0.99030  1.0000
  C   C1181     1.0  0.92575  0.83055  0.11485  1.0000
  H   H2097     1.0  0.89266  0.76588  0.19223  1.0000
  H   H2098     1.0  0.91696  0.82525  0.19128  1.0000
  C   C1182     1.0  0.94717  0.50510  0.44048  1.0000
  H   H2099     1.0  0.95825  0.61351  0.44854  1.0000
  H   H2100     1.0  0.82395  0.93665  0.02329  1.0000
  C   C1183     1.0  0.90838  0.76770  0.48123  1.0000
  H   H2101     1.0  0.79334  0.69408  0.43045  1.0000
  H   H2102     1.0  0.88892  0.77204  0.26350  1.0000
  H   H2103     1.0  0.88248  0.82587  0.15302  1.0000
  H   H2104     1.0  0.87525  0.80308  0.06857  1.0000
  C   C1184     1.0  0.80334  0.68073  0.33723  1.0000
  H   H2105     1.0  0.84476  0.67932  0.32732  1.0000
  H   H2106     1.0  0.83013  0.64916  0.35115  1.0000
  H   H2107     1.0  0.75783  0.75194  0.06522  1.0000
  H   H2108     1.0  0.80048  0.71602  0.38970  1.0000
  H   H2109     1.0  0.84380  0.74859  0.00178  1.0000
  H   H2110     1.0  0.87382  0.70072  0.38185  1.0000
  H   H2111     1.0  0.95434  0.81608  0.10988  1.0000
  H   H2112     1.0  0.92589  0.84834  0.12741  1.0000
  H   H2113     1.0  0.94097  0.70548  0.33033  1.0000
  C   C1185     1.0  0.88419  0.77612  0.00076  1.0000
  C   C1186     1.0  0.83784  0.67023  0.35666  1.0000
  H   H2114     1.0  0.89875  0.67685  0.38247  1.0000
  H   H2115     1.0  0.96575  0.79407  0.24200  1.0000
  C   C1187     1.0  0.85757  0.76857  0.99765  1.0000
  H   H2116     1.0  0.84272  0.71678  0.37946  1.0000
  H   H2117     1.0  0.82969  0.72680  0.46867  1.0000
  C   C1188     1.0  0.90270  0.78835  0.24553  1.0000
  H   H2118     1.0  0.73778  0.63060  0.05630  1.0000
  C   C1189     1.0  0.89417  0.63726  0.46018  1.0000
  H   H2119     1.0  0.87409  0.78305  0.20204  1.0000
  H   H2120     1.0  0.95624  0.60099  0.25169  1.0000
  C   C1190     1.0  0.82244  0.73257  0.44224  1.0000
  H   H2121     1.0  0.88510  0.67422  0.33384  1.0000
  H   H2122     1.0  0.93744  0.67784  0.28436  1.0000
  H   H2123     1.0  0.73273  0.74929  0.03125  1.0000
  H   H2124     1.0  0.90645  0.63216  0.27352  1.0000
  C   C1191     1.0  0.88044  0.66880  0.36531  1.0000
  N   N67       1.0  0.81673  0.67617  0.37224  1.0000
  H   H2125     1.0  0.81181  0.97220  0.02464  1.0000
  H   H2126     1.0  0.92212  0.48572  0.35119  1.0000
  C   C1192     1.0  0.80899  0.70966  0.41383  1.0000
  H   H2127     1.0  0.77446  0.64180  0.31867  1.0000
  C   C1193     1.0  0.87254  0.81511  0.09174  1.0000
  C   C1194     1.0  0.95786  0.74405  0.35276  1.0000
  C   C1195     1.0  0.91274  0.80658  0.17639  1.0000
  H   H2128     1.0  0.88470  0.83564  0.08397  1.0000
  H   H2129     1.0  0.83989  0.81517  0.06127  1.0000
  C   C1196     1.0  0.88044  0.80970  0.13307  1.0000
  H   H2130     1.0  0.81277  0.66406  0.45506  1.0000
  Fe  Fe131     1.0  0.78984  0.97232  0.46046  1.0000
  H   H2131     1.0  0.94247  0.64400  0.45682  1.0000
  N   N68       1.0  0.90484  0.80683  0.13390  1.0000
  H   H2132     1.0  0.90375  0.80651  0.25790  1.0000
  H   H2133     1.0  0.87105  0.64747  0.36750  1.0000
  H   H2134     1.0  0.74494  0.70522  0.05265  1.0000
  H   H2135     1.0  0.85224  0.52968  0.48191  1.0000
  C   C1197     1.0  0.86971  0.49246  0.47514  1.0000
  S   S263      1.0  0.76688  0.97577  0.99194  1.0000
  H   H2136     1.0  0.89726  0.48663  0.41298  1.0000
  H   H2137     1.0  0.75349  0.65828  0.08871  1.0000
  C   C1198     1.0  0.94405  0.66323  0.28973  1.0000
  H   H2138     1.0  0.94597  0.51188  0.41042  1.0000
  C   C1199     1.0  0.90224  0.80186  0.99530  1.0000
  C   C1200     1.0  0.95361  0.83406  0.11859  1.0000
  H   H2139     1.0  0.77649  0.60721  0.43530  1.0000
  H   H2140     1.0  0.91061  0.63939  0.32572  1.0000
  H   H2141     1.0  0.73686  0.54789  0.41860  1.0000
  H   H2142     1.0  0.73084  0.57200  0.44363  1.0000
  C   C1201     1.0  0.84865  0.78658  0.98875  1.0000
  H   H2143     1.0  0.95244  0.66046  0.26173  1.0000
  H   H2144     1.0  0.87865  0.64246  0.46776  1.0000
  H   H2145     1.0  0.90498  0.64886  0.43448  1.0000
  H   H2146     1.0  0.74417  0.71000  0.35019  1.0000
  H   H2147     1.0  0.92609  0.62214  0.30232  1.0000
  C   C1202     1.0  0.78353  0.62480  0.45434  1.0000
  S   S264      1.0  0.81491  0.77571  0.98382  1.0000
  C   C1203     1.0  0.76752  0.87384  0.47560  1.0000
  Fe  Fe132     1.0  0.97390  0.77376  0.09555  1.0000
  S   S265      1.0  0.80208  0.78699  0.48090  1.0000
  C   C1204     1.0  0.73066  0.71247  0.04770  1.0000
  S   S266      1.0  0.95684  0.77178  0.47051  1.0000
  C   C1205     1.0  0.77654  0.95089  0.99196  1.0000
  H   H2148     1.0  0.72873  0.56928  0.39051  1.0000
  C   C1206     1.0  0.73094  0.97507  0.14282  1.0000
  H   H2149     1.0  0.75005  0.86072  0.46026  1.0000
  C   C1207     1.0  0.96413  0.67112  0.32391  1.0000
  C   C1208     1.0  0.94306  0.81123  0.48014  1.0000
  S   S267      1.0  0.96716  0.77729  0.16204  1.0000
  H   H2150     1.0  0.96373  0.72950  0.29741  1.0000
  H   H2151     1.0  0.93141  0.49489  0.01551  1.0000
  H   H2152     1.0  0.92138  0.51720  0.46800  1.0000
  C   C1209     1.0  0.84167  0.48874  0.47865  1.0000
  H   H2153     1.0  0.97075  0.65606  0.32384  1.0000
  C   C1210     1.0  0.97467  0.62022  0.46955  1.0000
  H   H2154     1.0  0.95022  0.48774  0.43775  1.0000
  H   H2155     1.0  0.96878  0.58102  0.47871  1.0000
  H   H2156     1.0  0.92420  0.61434  0.48141  1.0000
  H   H2157     1.0  0.72726  0.71611  0.11008  1.0000
  H   H2158     1.0  0.76279  0.85175  0.58676  1.0000
  Fe  Fe133     1.0  0.87950  0.55086  0.79292  1.0000
  S   S268      1.0  0.90060  0.58932  0.76227  1.0000
  S   S269      1.0  0.90291  0.52982  0.80997  1.0000
  Fe  Fe134     1.0  0.82874  0.55410  0.79352  1.0000
  S   S270      1.0  0.84603  0.59199  0.76251  1.0000
  S   S271      1.0  0.78761  0.53185  0.81687  1.0000
  Fe  Fe135     1.0  0.86570  0.57511  0.72233  1.0000
  S   S272      1.0  0.86531  0.58301  0.65539  1.0000
  Fe  Fe136     1.0  0.87970  0.60350  0.80448  1.0000
  S   S273      1.0  0.89701  0.64494  0.82984  1.0000
  S   S274      1.0  0.84570  0.53599  0.75076  1.0000
  S   S275      1.0  0.86131  0.56631  0.83777  1.0000
  H   H2159     1.0  0.86372  0.68030  0.86684  1.0000
  S   S276      1.0  0.75651  0.77347  0.92780  1.0000
  C   C1211     1.0  0.76065  0.92710  0.97321  1.0000
  H   H2160     1.0  0.95044  0.81295  0.63475  1.0000
  S   S277      1.0  0.74594  0.82366  0.92861  1.0000
  H   H2161     1.0  0.88959  0.73748  0.56995  1.0000
  C   C1212     1.0  0.78101  0.86389  0.49828  1.0000
  Fe  Fe137     1.0  0.76827  0.80870  0.89045  1.0000
  S   S278      1.0  0.76303  0.80860  0.82259  1.0000
  S   S279      1.0  0.80551  0.83165  0.92398  1.0000
  Fe  Fe138     1.0  0.78763  0.80655  0.52524  1.0000
  S   S280      1.0  0.76393  0.76993  0.55909  1.0000
  H   H2162     1.0  0.74773  0.60143  0.79650  1.0000
  Fe  Fe139     1.0  0.83492  0.79694  0.52398  1.0000
  S   S281      1.0  0.81451  0.76019  0.55750  1.0000
  Fe  Fe140     1.0  0.73693  0.78985  0.96847  1.0000
  Fe  Fe141     1.0  0.78063  0.75125  0.51697  1.0000
  Fe  Fe142     1.0  0.79941  0.78165  0.59714  1.0000
  S   S282      1.0  0.80314  0.77659  0.66419  1.0000
  S   S283      1.0  0.82202  0.81925  0.56575  1.0000
  C   C1213     1.0  0.77494  0.80004  0.77900  1.0000
  C   C1214     1.0  0.76803  0.80540  0.74156  1.0000
  C   C1215     1.0  0.77653  0.79858  0.70620  1.0000
  C   C1216     1.0  0.79193  0.78603  0.70771  1.0000
  C   C1217     1.0  0.79866  0.78050  0.74514  1.0000
  C   C1218     1.0  0.79045  0.78762  0.78048  1.0000
  H   H2163     1.0  0.75601  0.81495  0.73992  1.0000
  H   H2164     1.0  0.77106  0.80293  0.67780  1.0000
  H   H2165     1.0  0.81017  0.77046  0.74673  1.0000
  C   C1219     1.0  0.76393  0.54266  0.82103  1.0000
  C   C1220     1.0  0.76844  0.57217  0.80053  1.0000
  C   C1221     1.0  0.74508  0.58343  0.80893  1.0000
  H   H2166     1.0  0.83116  0.71617  0.58159  1.0000
  H   H2167     1.0  0.96912  0.80735  0.55141  1.0000
  H   H2168     1.0  0.85278  0.97672  0.56256  1.0000
  H   H2169     1.0  0.78540  0.58325  0.78301  1.0000
  H   H2170     1.0  0.93187  0.84110  0.49162  1.0000
  H   H2171     1.0  0.85676  0.83258  0.65364  1.0000
  C   C1222     1.0  0.91213  0.64253  0.49578  1.0000
  H   H2172     1.0  0.88875  0.79656  0.73774  1.0000
  H   H2173     1.0  0.75517  0.88876  0.95768  1.0000
  C   C1223     1.0  0.84494  0.58368  0.94475  1.0000
  H   H2174     1.0  0.76203  0.72684  0.88656  1.0000
  C   C1224     1.0  0.93028  0.68364  0.95110  1.0000
  C   C1225     1.0  0.91822  0.65658  0.94701  1.0000
  C   C1226     1.0  0.90740  0.64431  0.91051  1.0000
  C   C1227     1.0  0.90885  0.65902  0.87736  1.0000
  C   C1228     1.0  0.92057  0.68606  0.88163  1.0000
  C   C1229     1.0  0.93119  0.69830  0.91819  1.0000
  C   C1230     1.0  0.76616  0.86759  0.60803  1.0000
  H   H2175     1.0  0.89853  0.62355  0.90777  1.0000
  H   H2176     1.0  0.92175  0.69764  0.85627  1.0000
  H   H2177     1.0  0.88013  0.50114  0.50337  1.0000
  H   H2178     1.0  0.85421  0.77869  0.74018  1.0000
  H   H2179     1.0  0.86937  0.98000  0.51658  1.0000
  H   H2180     1.0  0.96137  0.69195  0.54240  1.0000
  H   H2181     1.0  0.78341  0.73160  0.92764  1.0000
  H   H2182     1.0  0.92946  0.49350  0.94166  1.0000
  H   H2183     1.0  0.73696  0.53669  0.76657  1.0000
  C   C1231     1.0  0.89678  0.56569  0.53872  1.0000
  C   C1232     1.0  0.87928  0.57584  0.53826  1.0000
  C   C1233     1.0  0.86993  0.58094  0.57417  1.0000
  C   C1234     1.0  0.87758  0.57567  0.61110  1.0000
  C   C1235     1.0  0.89501  0.56540  0.61148  1.0000
  C   C1236     1.0  0.90461  0.56060  0.57558  1.0000
  H   H2184     1.0  0.87295  0.57981  0.51031  1.0000
  H   H2185     1.0  0.85648  0.58888  0.57340  1.0000
  H   H2186     1.0  0.90122  0.56133  0.63949  1.0000
  H   H2187     1.0  0.91818  0.55282  0.57648  1.0000
  H   H2188     1.0  0.83982  0.68449  0.89557  1.0000
  H   H2189     1.0  0.93592  0.65310  0.56265  1.0000
  C   C1237     1.0  0.75541  0.60701  0.94934  1.0000
  H   H2190     1.0  0.88950  0.86769  0.88220  1.0000
  H   H2191     1.0  0.85421  0.58471  0.91573  1.0000
  Fe  Fe143     1.0  0.79264  0.79725  0.96359  1.0000
  C   C1238     1.0  0.93427  0.63566  0.48607  1.0000
  H   H2192     1.0  0.78147  0.71025  0.88702  1.0000
  H   H2193     1.0  0.82979  0.92113  0.53051  1.0000
  C   C1239     1.0  0.89882  0.80357  0.49343  1.0000
  H   H2194     1.0  0.76883  0.61044  0.86820  1.0000
  C   C1240     1.0  0.76748  0.90683  0.97244  1.0000
  C   C1241     1.0  0.87249  0.78179  0.75466  1.0000
  S   S284      1.0  0.76746  0.82990  0.50412  1.0000
  H   H2195     1.0  0.79580  0.78329  0.80888  1.0000
  H   H2196     1.0  0.87396  0.76352  0.75368  1.0000
  H   H2197     1.0  0.84827  0.72705  0.53549  1.0000
  C   C1242     1.0  0.96483  0.64283  0.88256  1.0000
  H   H2198     1.0  0.93691  0.77227  0.65991  1.0000
  H   H2199     1.0  0.82082  0.64492  0.85210  1.0000
  C   C1243     1.0  0.73577  0.52400  0.84909  1.0000
  H   H2200     1.0  0.79878  0.86457  0.63327  1.0000
  Fe  Fe144     1.0  0.78233  0.84426  0.96449  1.0000
  H   H2201     1.0  0.92866  0.61425  0.85701  1.0000
  C   C1244     1.0  0.90943  0.48706  0.82610  1.0000
  H   H2202     1.0  0.74307  0.92439  0.95883  1.0000
  C   C1245     1.0  0.87091  0.84971  0.88190  1.0000
  H   H2203     1.0  0.78550  0.88031  0.66530  1.0000
  H   H2204     1.0  0.76354  0.55825  0.88459  1.0000
  H   H2205     1.0  0.95796  0.69176  0.48906  1.0000
  H   H2206     1.0  0.88924  0.97541  0.59879  1.0000
  H   H2207     1.0  0.95637  0.61094  0.84096  1.0000
  H   H2208     1.0  0.95660  0.65617  0.88869  1.0000
  C   C1246     1.0  0.80367  0.88116  0.51774  1.0000
  H   H2209     1.0  0.94799  0.82884  0.59098  1.0000
  H   H2210     1.0  0.90806  0.73966  0.89599  1.0000
  C   C1247     1.0  0.75465  0.56772  0.86593  1.0000
  H   H2211     1.0  0.81816  0.59080  0.88318  1.0000
  H   H2212     1.0  0.81840  0.63872  0.94293  1.0000
  C   C1248     1.0  0.92517  0.82056  0.48846  1.0000
  H   H2213     1.0  0.84088  0.63348  0.87589  1.0000
  C   C1249     1.0  0.77754  0.59723  0.87230  1.0000
  H   H2214     1.0  0.81420  0.87384  0.53548  1.0000
  H   H2215     1.0  0.74282  0.56858  0.89157  1.0000
  H   H2216     1.0  0.95029  0.63649  0.82179  1.0000
  H   H2217     1.0  0.87026  0.76387  0.49243  1.0000
  H   H2218     1.0  0.75479  0.89431  0.55183  1.0000
  H   H2219     1.0  0.79722  0.56933  0.91807  1.0000
  H   H2220     1.0  0.90712  0.76294  0.93045  1.0000
  H   H2221     1.0  0.96780  0.49730  0.89852  1.0000
  H   H2222     1.0  0.83145  0.56325  0.95115  1.0000
  H   H2223     1.0  0.84878  0.51457  0.52947  1.0000
  C   C1250     1.0  0.94924  0.62509  0.84842  1.0000
  C   C1251     1.0  0.81242  0.90799  0.51498  1.0000
  H   H2224     1.0  0.76406  0.57439  0.94806  1.0000
  N   N69       1.0  0.89901  0.78323  0.61521  1.0000
  C   C1252     1.0  0.92205  0.78732  0.59042  1.0000
  C   C1253     1.0  0.87478  0.76315  0.59538  1.0000
  C   C1254     1.0  0.89721  0.80824  0.61587  1.0000
  C   C1255     1.0  0.90104  0.77584  0.65730  1.0000
  C   C1256     1.0  0.91592  0.75998  0.66413  1.0000
  C   C1257     1.0  0.87259  0.80718  0.63505  1.0000
  C   C1258     1.0  0.87311  0.73628  0.58764  1.0000
  H   H2225     1.0  0.97243  0.79216  0.59578  1.0000
  C   C1259     1.0  0.91214  0.74966  0.70622  1.0000
  C   C1260     1.0  0.87503  0.83415  0.64116  1.0000
  H   H2226     1.0  0.91841  0.79000  0.55906  1.0000
  H   H2227     1.0  0.92520  0.77002  0.58986  1.0000
  H   H2228     1.0  0.85753  0.75945  0.61345  1.0000
  H   H2229     1.0  0.87186  0.77055  0.56659  1.0000
  H   H2230     1.0  0.89830  0.81550  0.58521  1.0000
  H   H2231     1.0  0.91395  0.82354  0.63202  1.0000
  H   H2232     1.0  0.91091  0.79335  0.67646  1.0000
  H   H2233     1.0  0.88143  0.76501  0.67019  1.0000
  H   H2234     1.0  0.92353  0.73902  0.71054  1.0000
  H   H2235     1.0  0.90988  0.74340  0.64347  1.0000
  H   H2236     1.0  0.86862  0.79756  0.66414  1.0000
  H   H2237     1.0  0.85564  0.79651  0.61543  1.0000
  H   H2238     1.0  0.87596  0.95074  0.56091  1.0000
  H   H2239     1.0  0.87217  0.72668  0.61608  1.0000
  H   H2240     1.0  0.82069  0.50875  0.50053  1.0000
  H   H2241     1.0  0.92977  0.49996  0.82289  1.0000
  H   H2242     1.0  0.74557  0.90959  0.58908  1.0000
  H   H2243     1.0  0.89151  0.73615  0.71147  1.0000
  C   C1261     1.0  0.74052  0.86736  0.62111  1.0000
  H   H2244     1.0  0.86026  0.59110  0.96785  1.0000
  H   H2245     1.0  0.89099  0.84562  0.66207  1.0000
  H   H2246     1.0  0.87857  0.84426  0.61244  1.0000
  C   C1262     1.0  0.72666  0.54019  0.79246  1.0000
  C   C1263     1.0  0.84957  0.67224  0.89123  1.0000
  H   H2247     1.0  0.84545  0.62017  0.93894  1.0000
  H   H2248     1.0  0.94042  0.71910  0.92075  1.0000
  H   H2249     1.0  0.88832  0.82930  0.85175  1.0000
  H   H2250     1.0  0.96440  0.64570  0.65660  1.0000
  H   H2251     1.0  0.74618  0.88420  0.64147  1.0000
  H   H2252     1.0  0.79689  0.64277  0.91070  1.0000
  C   C1264     1.0  0.89147  0.49657  0.82059  1.0000
  C   C1265     1.0  0.84851  0.71877  0.56475  1.0000
  H   H2253     1.0  0.79212  0.60279  0.84869  1.0000
  C   C1266     1.0  0.82998  0.64455  0.88071  1.0000
  C   C1267     1.0  0.94481  0.64017  0.55763  1.0000
  C   C1268     1.0  0.80904  0.63277  0.91329  1.0000
  C   C1269     1.0  0.80911  0.59023  0.91244  1.0000
  H   H2254     1.0  0.76877  0.84565  0.65810  1.0000
  H   H2255     1.0  0.86037  0.67270  0.91855  1.0000
  N   N70       1.0  0.85233  0.77631  0.86608  1.0000
  C   C1270     1.0  0.87636  0.77757  0.88487  1.0000
  C   C1271     1.0  0.85037  0.80079  0.87537  1.0000
  C   C1272     1.0  0.82942  0.75397  0.88434  1.0000
  C   C1273     1.0  0.85126  0.77136  0.82205  1.0000
  C   C1274     1.0  0.87375  0.79123  0.79735  1.0000
  C   C1275     1.0  0.88018  0.75308  0.88075  1.0000
  C   C1276     1.0  0.80240  0.75124  0.87362  1.0000
  C   C1277     1.0  0.87598  0.82639  0.87785  1.0000
  H   H2256     1.0  0.92230  0.77319  0.88285  1.0000
  C   C1278     1.0  0.97094  0.80911  0.58415  1.0000
  C   C1279     1.0  0.90600  0.75759  0.89860  1.0000
  C   C1280     1.0  0.78111  0.72855  0.89509  1.0000
  H   H2257     1.0  0.87651  0.78184  0.91707  1.0000
  H   H2258     1.0  0.89405  0.79381  0.87330  1.0000
  H   H2259     1.0  0.83740  0.80333  0.85365  1.0000
  H   H2260     1.0  0.84113  0.79936  0.90475  1.0000
  H   H2261     1.0  0.83121  0.75515  0.91719  1.0000
  H   H2262     1.0  0.82887  0.73533  0.87555  1.0000
  H   H2263     1.0  0.84941  0.75186  0.81571  1.0000
  H   H2264     1.0  0.83359  0.77094  0.80917  1.0000
  H   H2265     1.0  0.89279  0.79504  0.80948  1.0000
  H   H2266     1.0  0.87231  0.80948  0.79606  1.0000
  H   H2267     1.0  0.86495  0.73673  0.89684  1.0000
  H   H2268     1.0  0.87995  0.74746  0.84925  1.0000
  H   H2269     1.0  0.79843  0.74754  0.84150  1.0000
  H   H2270     1.0  0.80069  0.76879  0.88202  1.0000
  H   H2271     1.0  0.88731  0.82645  0.90422  1.0000
  H   H2272     1.0  0.73312  0.50602  0.86156  1.0000
  C   C1281     1.0  0.77486  0.59577  0.94645  1.0000
  N   N71       1.0  0.79249  0.60389  0.91108  1.0000
  H   H2273     1.0  0.86087  0.84892  0.91012  1.0000
  H   H2274     1.0  0.73397  0.85107  0.53867  1.0000
  H   H2275     1.0  0.91932  0.66290  0.50487  1.0000
  S   S285      1.0  0.90997  0.55954  0.49451  1.0000
  H   H2276     1.0  0.74588  0.73357  0.77611  1.0000
  H   H2277     1.0  0.82276  0.59929  0.97443  1.0000
  H   H2278     1.0  0.74449  0.60445  0.92145  1.0000
  N   N72       1.0  0.95566  0.64293  0.51639  1.0000
  C   C1282     1.0  0.94783  0.81096  0.60218  1.0000
  H   H2279     1.0  0.91880  0.76574  0.72821  1.0000
  H   H2280     1.0  0.94266  0.65626  0.63530  1.0000
  H   H2281     1.0  0.85904  0.85047  0.85677  1.0000
  H   H2282     1.0  0.84760  0.69955  0.55988  1.0000
  H   H2283     1.0  0.96192  0.63065  0.90884  1.0000
  H   H2284     1.0  0.90025  0.63046  0.52039  1.0000
  S   S286      1.0  0.75717  0.70925  0.49492  1.0000
  C   C1283     1.0  0.83077  0.60005  0.94447  1.0000
  H   H2285     1.0  0.92879  0.62028  0.56127  1.0000
  C   C1284     1.0  0.78060  0.86435  0.64347  1.0000
  H   H2286     1.0  0.77910  0.88615  0.59397  1.0000
  H   H2287     1.0  0.85116  0.48661  0.82058  1.0000
  C   C1285     1.0  0.84090  0.51188  0.49890  1.0000
  S   S287      1.0  0.87767  0.81640  0.50753  1.0000
  H   H2288     1.0  0.91741  0.64501  0.97222  1.0000
  C   C1286     1.0  0.89044  0.77707  0.48901  1.0000
  H   H2289     1.0  0.92519  0.49235  0.49335  1.0000
  H   H2290     1.0  0.76572  0.62793  0.95652  1.0000
  C   C1287     1.0  0.88685  0.97187  0.56634  1.0000
  H   H2291     1.0  0.90611  0.97898  0.55241  1.0000
  C   C1288     1.0  0.79878  0.91790  0.49254  1.0000
  S   S288      1.0  0.81007  0.95186  0.49131  1.0000
  C   C1289     1.0  0.97070  0.69229  0.51374  1.0000
  H   H2292     1.0  0.93438  0.62238  0.63498  1.0000
  H   H2293     1.0  0.72980  0.84991  0.63950  1.0000
  H   H2294     1.0  0.78629  0.60167  0.97434  1.0000
  H   H2295     1.0  0.86016  0.82644  0.97688  1.0000
  C   C1290     1.0  0.73670  0.92757  0.52289  1.0000
  C   C1291     1.0  0.95046  0.64223  0.63213  1.0000
  H   H2296     1.0  0.95275  0.60490  0.52318  1.0000
  H   H2297     1.0  0.72816  0.74624  0.74825  1.0000
  C   C1292     1.0  0.96398  0.64532  0.59233  1.0000
  C   C1293     1.0  0.96674  0.62418  0.51208  1.0000
  H   H2298     1.0  0.74021  0.94072  0.54866  1.0000
  H   H2299     1.0  0.89412  0.49172  0.98112  1.0000
  C   C1294     1.0  0.73572  0.59397  0.98203  1.0000
  H   H2300     1.0  0.97198  0.63142  0.59174  1.0000
  C   C1295     1.0  0.72633  0.73157  0.77033  1.0000
  H   H2301     1.0  0.90710  0.83987  0.98249  1.0000
  H   H2302     1.0  0.75546  0.93157  0.50956  1.0000
  C   C1296     1.0  0.73755  0.89335  0.56724  1.0000
  H   H2303     1.0  0.85132  0.48749  0.94818  1.0000
  H   H2304     1.0  0.96286  0.48404  0.96889  1.0000
