data_image0
_chemical_formula_structural       FeS2CH2CH2S2CFeS2FeS2CHC2SHCHCH2C6H5CH2C6H6SH5C2H5C2HC2H3C2HCHCHNH2CH2CHCHC3HSFeCHCHFeC2HCNH4C2H4C3H4FeCH6NHCFeH2SH6CH4SHCHC2H2SHNHCHC2HCHCH4CH2CH4CH2SH10CSHCH9FeS2FeSFeSFeS3FeS2FeSFeSFeS2FeHSHSC2HS2NCSHC2FeSCH4C3NH3C6H6C4H2C6H4C6H7CHC3HCHCHCSH8CH3FeHCHCH2CHFeH4CHCH2C2H4NCHC2HCH3CHSHSH5CH4CHC4H7CH4CHCH3C2H5C2FeHCHC2H2C2H9NH6CH2CH3C2H4CH2SH3NCHCHCHCH2CHCHCHC3H4CH2CHSC3HSH2CHC2HCH3CH4CH3C2H2FeS2FeSFeSFeS3CHFeS2FeSHSCHSHSH2FeSHFeSFeCSH3S2HC3HC3H5C6H2C2HCH2C6H2CHC6H6N2CHC5H2CH2FeHSH14CH6C2H6CH2C2HC5H12FeHCH4C3H4C2H2CNSH2CH3SH2C4H4CH2NCH7C3H4C3H2CNHCHCHCHCH2CH5C2H5C2H4CH2CFeHC2HCH3CH2CH5CHC3HCH3C2H2CH5CH2FeS2FeCH2S2FeS2HFeS2HFeH4SHCHCH3C6H11CHC6H4C2HCHC2HC3H3NH5C3H3C2H4CH5C3HCHCH4NC11H28C2H3SH4SHCHC2Fe2HC2HCH5SFeSFeH2FeS3CH2FeSHFeSHFeSFeSHSFeS2FeS2FeSFeS3C2HC6H7C4H6C6H5C2H4C6H3NC8HC3H16C2H10FeCHSHCH2CH3SH2NC8HC2H17CH7CH2C3H2CHCH5CH5C3H3C5HCNC2HCH2CH5C3NH5CHNSHCH4C2H2CH2CH10CH4CH3FeCHC2H2CHC2H3CH3CH4CH7C2H4C2HC2H2FeS2FeS2FeSFeS3C6H4NC4H6C2H3C6H4C6H5CNC6HC5H12CH13SC2HCH4C3H2NH6C3HCHCH2CH3C2HCH2SNCH3NHCH5CH4C2H2C3H2C3H3CH2C2H3CHCH3CHCH3CH5CH4CH2CH2CH2CH5CHCH2C2HCH3CH2CH2C3H4C2H3CHC2H4C3H15C2SH4CH11SHSFeS2FeS2FeSFeS3C6H4CH2C3H3CH2CHC6H4C6H4CNHC4HCHCHCHCH2C2HCH2C2H2CH10NC4HCH2CH4NCHCH3CH2CHCH3CNCH2CHCH3SCH2CH2CH2CHCH5SH8SFeH3C2H2CH2C3HSH2CSH2CH5FeHC2H2C3HCH2CH2CH4CH5CH5CH4CH2CH4CHCHNH9SHC4HCH2CH2S2FeSFeS2Fe2SFeS2FeS2FeHFeS3FeHSFeS2FeHFeS3HC6H7C6H3C7H4C3H6C6H5CHC2H5NC5HC7H22CH5CH2C2HCHCHC2H8S2N2H2C4H4CH5CHSH5C2H2C3SC3HC2SCHCH3CH2SH2C2H3C3H6CHNH2C5FeCHCH12CH3CH2CNC3H3CHCH5CH12CHC2FeH2CHCHCHNHSH8CH4C3H3CHCHCH2CH3SH9C2SCH3FeS2FeS2FeSFeS3CH2SCS2CH3SH2CHC2H2C2H9CHC7H4C6H2NH3CH2NH2CHCFeHCHCH3CH2CSH3C2SCH2CH5C6H6SH5CHCH2CSHCHCH2C2HFeHCHCHCHFeH2NC12H22CH2CH3CHCH3CH10FeHC2H2SCH3CH3CHC2FeS2FeS2FeSFeS3FeS2FeS2Fe2S3HSCSH4C5H6C2H5C7H4C6H4C2H3CHCH2C2H4C3HN2HC2H8C2H2CH2CHFeCH3CH11C5HCH10CH3CH6CHCH6C2H2C2H3CH2CH3SH2C2HC2NC9HCH9C2H3SH2CH3CH4NHCH2FeHSH4CNH2C3H2NH2CFeC2H3CH6SHC2HNH2CHCH2NH2CHCFeS2FeS2FeSFeS3HFeS2FeSHCSCHS2CSH6C5H5CH3CH2C3H4C6H6CH3C2HCH3CH2CHCH2SHCHC2H2CH3C2HC2H2CH3CNCHC3H7NC10H10CH2CH8CH2C2HFeH7CHSCHCH2C3HNH2N2HFeH7CH2SCH3CH3CH2C3HCH2CHSH4CH2CH2CH3C2H4CHCHCH6FeC5H2FeHCH5NH2SCH3FeS2FeS2FeHFeS3HCHSH3SH2C2HSCH2C3SCH2SCH3C2SH2C6H4C6H5FeHSHCH3CH2CH4FeH2CH3NCH2C2HCHCH2CH3CSHCH3CH3CH2FeCH3SH4CHCH13CHC3HC2HC2HCHNCHC2H3SCHC4HC2H2C
_chemical_formula_sum              "Fe112 S224 C1008 H1792 N56"
_cell_length_a       49.7558
_cell_length_b       36.1879
_cell_length_c       45.2486
_cell_angle_alpha    90.4564
_cell_angle_beta     112.904
_cell_angle_gamma    90.5434

_space_group_name_H-M_alt    "P 1"
_space_group_IT_number       1

loop_
  _space_group_symop_operation_xyz
  'x, y, z'

loop_
  _atom_site_type_symbol
  _atom_site_label
  _atom_site_symmetry_multiplicity
  _atom_site_fract_x
  _atom_site_fract_y
  _atom_site_fract_z
  _atom_site_occupancy
  Fe  Fe1       1.0  0.26693  0.11708  0.37158  1.0000
  S   S1        1.0  0.26058  0.05578  0.37353  1.0000
  S   S2        1.0  0.23012  0.15977  0.35467  1.0000
  C   C1        1.0  0.17075  0.09553  0.23071  1.0000
  H   H1        1.0  0.12082  0.25266  0.41376  1.0000
  H   H2        1.0  0.25358  0.16682  0.30581  1.0000
  C   C2        1.0  0.02745  0.45395  0.23985  1.0000
  H   H3        1.0  0.09989  0.27418  0.37590  1.0000
  H   H4        1.0  0.04970  0.11072  0.32843  1.0000
  S   S3        1.0  0.29843  0.11274  0.34659  1.0000
  S   S4        1.0  0.30376  0.12008  0.42066  1.0000
  C   C3        1.0  0.31939  0.04783  0.22677  1.0000
  Fe  Fe2       1.0  0.05298  0.18929  0.28925  1.0000
  S   S5        1.0  0.03327  0.19656  0.32617  1.0000
  S   S6        1.0  0.09000  0.14724  0.29894  1.0000
  Fe  Fe3       1.0  0.02966  0.25654  0.31273  1.0000
  S   S7        1.0  0.03696  0.30502  0.34712  1.0000
  S   S8        1.0  0.05198  0.25007  0.27829  1.0000
  C   C4        1.0  0.20771  0.41445  0.41425  1.0000
  H   H5        1.0  0.06776  0.41777  0.45131  1.0000
  C   C5        1.0  0.10379  0.38881  0.44633  1.0000
  C   C6        1.0  0.06834  0.07352  0.24041  1.0000
  S   S9        1.0  0.11842  0.43322  0.33382  1.0000
  H   H6        1.0  0.09299  0.44229  0.23150  1.0000
  C   C7        1.0  0.30329  0.02775  0.27826  1.0000
  H   H7        1.0  0.17512  0.11686  0.21569  1.0000
  C   C8        1.0  0.04769  0.39590  0.23014  1.0000
  H   H8        1.0  0.10877  0.33955  0.39959  1.0000
  H   H9        1.0  0.17406  0.43387  0.42840  1.0000
  C   C9        1.0  0.05820  0.34150  0.34183  1.0000
  C   C10       1.0  0.07752  0.33520  0.32679  1.0000
  C   C11       1.0  0.09547  0.36385  0.32408  1.0000
  C   C12       1.0  0.09443  0.39898  0.33663  1.0000
  C   C13       1.0  0.07480  0.40575  0.35124  1.0000
  C   C14       1.0  0.05688  0.37687  0.35412  1.0000
  H   H10       1.0  0.07953  0.30793  0.31832  1.0000
  H   H11       1.0  0.11068  0.35848  0.31281  1.0000
  H   H12       1.0  0.07373  0.43303  0.36063  1.0000
  H   H13       1.0  0.04217  0.38179  0.36607  1.0000
  H   H14       1.0  0.24021  0.37077  0.01414  1.0000
  C   C15       1.0  0.32377  0.01180  0.23854  1.0000
  H   H15       1.0  0.11432  0.12403  0.20445  1.0000
  H   H16       1.0  0.20045  0.02112  0.33325  1.0000
  C   C16       1.0  0.19121  0.15548  0.34018  1.0000
  C   C17       1.0  0.17426  0.18765  0.33181  1.0000
  C   C18       1.0  0.14342  0.18580  0.31974  1.0000
  C   C19       1.0  0.12897  0.15158  0.31550  1.0000
  C   C20       1.0  0.14591  0.11935  0.32378  1.0000
  C   C21       1.0  0.17677  0.12125  0.33624  1.0000
  H   H17       1.0  0.18508  0.21430  0.33471  1.0000
  H   H18       1.0  0.13085  0.21084  0.31341  1.0000
  H   H19       1.0  0.13508  0.09270  0.32071  1.0000
  H   H20       1.0  0.18938  0.09626  0.34280  1.0000
  H   H21       1.0  0.01820  0.19946  0.99847  1.0000
  H   H22       1.0  0.22744  0.45875  0.03880  1.0000
  S   S10       1.0  0.11908  0.49949  0.40735  1.0000
  H   H23       1.0  0.32640  0.18350  0.30859  1.0000
  H   H24       1.0  0.24297  0.09225  0.28271  1.0000
  H   H25       1.0  0.06272  0.06691  0.29841  1.0000
  H   H26       1.0  0.13972  0.16277  0.21864  1.0000
  H   H27       1.0  0.01975  0.13610  0.48523  1.0000
  C   C22       1.0  0.19100  0.48006  0.99883  1.0000
  C   C23       1.0  0.00113  0.44366  0.13408  1.0000
  H   H28       1.0  0.02002  0.46348  0.31333  1.0000
  H   H29       1.0  0.15617  0.07498  0.21311  1.0000
  H   H30       1.0  0.05985  0.10170  0.23288  1.0000
  H   H31       1.0  0.22258  0.39067  0.41799  1.0000
  H   H32       1.0  0.12138  0.31563  0.43643  1.0000
  C   C24       1.0  0.15253  0.11351  0.24806  1.0000
  C   C25       1.0  0.22095  0.07786  0.20911  1.0000
  H   H33       1.0  0.23130  0.04106  0.24800  1.0000
  C   C26       1.0  0.12221  0.26675  0.39268  1.0000
  C   C27       1.0  0.16545  0.35581  0.47099  1.0000
  H   H34       1.0  0.23903  0.06863  0.17305  1.0000
  H   H35       1.0  0.27927  0.49790  0.37479  1.0000
  H   H36       1.0  0.03779  0.09875  0.27300  1.0000
  C   C28       1.0  0.18911  0.32590  0.47890  1.0000
  C   C29       1.0  0.23907  0.46666  0.35822  1.0000
  H   H37       1.0  0.05495  0.44045  0.18200  1.0000
  C   C30       1.0  0.22175  0.14357  0.26121  1.0000
  H   H38       1.0  0.14097  0.09178  0.25601  1.0000
  C   C31       1.0  0.12934  0.13927  0.22606  1.0000
  H   H39       1.0  0.20308  0.09487  0.19263  1.0000
  N   N1        1.0  0.01703  0.05235  0.28639  1.0000
  H   H40       1.0  0.05713  0.37792  0.18837  1.0000
  H   H41       1.0  0.00871  0.40065  0.16847  1.0000
  C   C32       1.0  0.14183  0.30119  0.40327  1.0000
  H   H42       1.0  0.21918  0.14316  0.23585  1.0000
  H   H43       1.0  0.08866  0.43908  0.26816  1.0000
  C   C33       1.0  0.22076  0.10425  0.27458  1.0000
  H   H44       1.0  0.14141  0.41954  0.44789  1.0000
  C   C34       1.0  0.18997  0.04970  0.27247  1.0000
  H   H45       1.0  0.03978  0.32240  0.20803  1.0000
  C   C35       1.0  0.06525  0.37341  0.21460  1.0000
  C   C36       1.0  0.25041  0.16392  0.28025  1.0000
  C   C37       1.0  0.21122  0.05559  0.23237  1.0000
  H   H46       1.0  0.19546  0.03365  0.21822  1.0000
  S   S11       1.0  0.17420  0.50068  0.38353  1.0000
  Fe  Fe4       1.0  0.29914  0.05809  0.42138  1.0000
  C   C38       1.0  0.06281  0.33202  0.21977  1.0000
  H   H47       1.0  0.01450  0.49846  0.28341  1.0000
  C   C39       1.0  0.31718  0.35076  0.31573  1.0000
  H   H48       1.0  0.21722  0.10872  0.29720  1.0000
  Fe  Fe5       1.0  0.12665  0.48584  0.36275  1.0000
  C   C40       1.0  0.18732  0.40859  0.43183  1.0000
  C   C41       1.0  0.08527  0.42331  0.44240  1.0000
  H   H49       1.0  0.04525  0.03986  0.33530  1.0000
  C   C42       1.0  0.03549  0.44847  0.27628  1.0000
  N   N2        1.0  0.04803  0.43729  0.22640  1.0000
  H   H50       1.0  0.08960  0.07593  0.26122  1.0000
  H   H51       1.0  0.22102  0.32691  0.00617  1.0000
  H   H52       1.0  0.14344  0.31310  0.38142  1.0000
  H   H53       1.0  0.32641  0.16058  0.48791  1.0000
  C   C43       1.0  0.03296  0.09735  0.33546  1.0000
  C   C44       1.0  0.21408  0.02294  0.29282  1.0000
  H   H54       1.0  0.05588  0.02274  0.25589  1.0000
  H   H55       1.0  0.07097  0.32579  0.24579  1.0000
  H   H56       1.0  0.22112  0.43986  0.42378  1.0000
  H   H57       1.0  0.18254  0.06447  0.28955  1.0000
  C   C45       1.0  0.03818  0.44786  0.19159  1.0000
  C   C46       1.0  0.02586  0.05712  0.32218  1.0000
  C   C47       1.0  0.12899  0.33024  0.41946  1.0000
  H   H58       1.0  0.08874  0.38116  0.22551  1.0000
  H   H59       1.0  0.02490  0.38490  0.22074  1.0000
  H   H60       1.0  0.17869  0.29826  0.47164  1.0000
  H   H61       1.0  0.05694  0.38862  0.25601  1.0000
  Fe  Fe6       1.0  0.00641  0.23967  0.24212  1.0000
  C   C48       1.0  0.01349  0.01138  0.27889  1.0000
  H   H62       1.0  0.16660  0.12958  0.26955  1.0000
  H   H63       1.0  0.15077  0.34687  0.48292  1.0000
  H   H64       1.0  0.05763  0.45941  0.29086  1.0000
  H   H65       1.0  0.07600  0.31638  0.20910  1.0000
  H   H66       1.0  0.20379  0.16048  0.26268  1.0000
  H   H67       1.0  0.99879  0.47418  0.13235  1.0000
  N   N3        1.0  0.19846  0.07716  0.25245  1.0000
  H   H68       1.0  0.01302  0.11436  0.32651  1.0000
  C   C49       1.0  0.00847  0.43127  0.16853  1.0000
  Fe  Fe7       1.0  0.29378  0.05176  0.35066  1.0000
  H   H69       1.0  0.18197  0.35112  0.41819  1.0000
  H   H70       1.0  0.21847  0.00196  0.27725  1.0000
  S   S12       1.0  0.29245  0.01366  0.30960  1.0000
  H   H71       1.0  0.01833  0.43503  0.12564  1.0000
  H   H72       1.0  0.24993  0.19205  0.27045  1.0000
  H   H73       1.0  0.08891  0.36594  0.43292  1.0000
  H   H74       1.0  0.26910  0.14891  0.27848  1.0000
  H   H75       1.0  0.23997  0.09583  0.22295  1.0000
  H   H76       1.0  0.20441  0.33116  0.46696  1.0000
  C   C50       1.0  0.03300  0.11520  0.47905  1.0000
  H   H77       1.0  0.30325  0.10158  0.23181  1.0000
  H   H78       1.0  0.20113  0.40588  0.45770  1.0000
  H   H79       1.0  0.03607  0.47837  0.18917  1.0000
  H   H80       1.0  0.13132  0.24711  0.38010  1.0000
  S   S13       1.0  0.20133  0.49946  0.47508  1.0000
  H   H81       1.0  0.23460  0.03830  0.30638  1.0000
  C   C51       1.0  0.12851  0.39554  0.43397  1.0000
  H   H82       1.0  0.11827  0.40516  0.40882  1.0000
  C   C52       1.0  0.08279  0.49412  0.24812  1.0000
  C   C53       1.0  0.16745  0.37400  0.41853  1.0000
  H   H83       1.0  0.19491  0.41786  0.38812  1.0000
  H   H84       1.0  0.03459  0.41874  0.28172  1.0000
  S   S14       1.0  0.29995  0.03703  0.46948  1.0000
  H   H85       1.0  0.28992  0.08418  0.27746  1.0000
  N   N4        1.0  0.14813  0.36322  0.43593  1.0000
  H   H86       1.0  0.04890  0.12733  0.38081  1.0000
  C   C54       1.0  0.07885  0.45150  0.24400  1.0000
  H   H87       1.0  0.06515  0.08268  0.38250  1.0000
  C   C55       1.0  0.21099  0.47987  0.03103  1.0000
  C   C56       1.0  0.30692  0.07373  0.24090  1.0000
  H   H88       1.0  0.11635  0.15060  0.23916  1.0000
  C   C57       1.0  0.04448  0.09823  0.37209  1.0000
  H   H89       1.0  0.09887  0.44687  0.45642  1.0000
  C   C58       1.0  0.29926  0.06391  0.26674  1.0000
  H   H90       1.0  0.31714  0.37438  0.33155  1.0000
  H   H91       1.0  0.16385  0.29229  0.41933  1.0000
  H   H92       1.0  0.24473  0.45188  0.38123  1.0000
  H   H93       1.0  0.15370  0.37925  0.39278  1.0000
  C   C59       1.0  0.04655  0.05071  0.24920  1.0000
  H   H94       1.0  0.07491  0.43101  0.41675  1.0000
  H   H95       1.0  0.02810  0.08613  0.38045  1.0000
  C   C60       1.0  0.04122  0.06863  0.27775  1.0000
  H   H96       1.0  0.29743  0.33343  0.31137  1.0000
  H   H97       1.0  0.24508  0.44905  0.34159  1.0000
  H   H98       1.0  0.00792  0.00586  0.25302  1.0000
  H   H99       1.0  0.12709  0.49648  0.24919  1.0000
  C   C61       1.0  0.23087  0.05205  0.18849  1.0000
  H   H100      1.0  0.24892  0.03423  0.20382  1.0000
  H   H101      1.0  0.99948  0.04135  0.48680  1.0000
  S   S15       1.0  0.00886  0.17785  0.24911  1.0000
  H   H102      1.0  0.17108  0.03224  0.25692  1.0000
  H   H103      1.0  0.31609  0.36144  0.29233  1.0000
  H   H104      1.0  0.00528  0.44168  0.22769  1.0000
  H   H105      1.0  0.02626  0.04775  0.22746  1.0000
  H   H106      1.0  0.04592  0.12948  0.46721  1.0000
  H   H107      1.0  0.08187  0.07829  0.48647  1.0000
  H   H108      1.0  0.02472  0.48401  0.23461  1.0000
  H   H109      1.0  0.20553  0.50095  0.27224  1.0000
  H   H110      1.0  0.21244  0.03426  0.17280  1.0000
  H   H111      1.0  0.07199  0.05991  0.22023  1.0000
  C   C62       1.0  0.00340  0.01200  0.48736  1.0000
  S   S16       1.0  0.32849  0.06173  0.19417  1.0000
  H   H112      1.0  0.21512  0.47100  0.34733  1.0000
  C   C63       1.0  0.01398  0.46824  0.28731  1.0000
  H   H113      1.0  0.05538  0.04548  0.48624  1.0000
  H   H114      1.0  0.00819  0.04730  0.32959  1.0000
  H   H115      1.0  0.30907  0.11715  0.49060  1.0000
  H   H116      1.0  0.17600  0.38170  0.48385  1.0000
  H   H117      1.0  0.01792  0.09472  0.46205  1.0000
  H   H118      1.0  0.12524  0.49188  0.28814  1.0000
  H   H119      1.0  0.11292  0.38205  0.47220  1.0000
  H   H120      1.0  0.15014  0.47117  0.48527  1.0000
  H   H121      1.0  0.00568  0.01028  0.44057  1.0000
  Fe  Fe8       1.0  0.22074  0.29452  0.66608  1.0000
  S   S17       1.0  0.19924  0.34936  0.65924  1.0000
  S   S18       1.0  0.19737  0.24607  0.67755  1.0000
  Fe  Fe9       1.0  0.27843  0.32774  0.66736  1.0000
  S   S19       1.0  0.26039  0.38598  0.66122  1.0000
  Fe  Fe10      1.0  0.24106  0.36957  0.69725  1.0000
  S   S20       1.0  0.23601  0.40783  0.73522  1.0000
  Fe  Fe11      1.0  0.21941  0.36149  0.62346  1.0000
  S   S21       1.0  0.18676  0.38629  0.57658  1.0000
  S   S22       1.0  0.26219  0.31384  0.70618  1.0000
  S   S23       1.0  0.23787  0.30408  0.62749  1.0000
  Fe  Fe12      1.0  0.16007  0.38749  0.86164  1.0000
  S   S24       1.0  0.11138  0.38956  0.83822  1.0000
  S   S25       1.0  0.18367  0.35405  0.83633  1.0000
  Fe  Fe13      1.0  0.16082  0.42805  0.92221  1.0000
  S   S26       1.0  0.11177  0.43268  0.90265  1.0000
  Fe  Fe14      1.0  0.11072  0.37347  0.88570  1.0000
  S   S27       1.0  0.07366  0.33336  0.88147  1.0000
  Fe  Fe15      1.0  0.11631  0.44785  0.85673  1.0000
  S   S28       1.0  0.15936  0.36740  0.90842  1.0000
  S   S29       1.0  0.16534  0.44721  0.87694  1.0000
  Fe  Fe16      1.0  0.05050  0.13791  0.59448  1.0000
  H   H122      1.0  0.15380  0.38772  0.75244  1.0000
  S   S30       1.0  0.08235  0.16878  0.57872  1.0000
  H   H123      1.0  0.06899  0.32929  0.55175  1.0000
  S   S31       1.0  0.04688  0.08998  0.69748  1.0000
  C   C64       1.0  0.28955  0.37945  0.94830  1.0000
  C   C65       1.0  0.01362  0.47973  0.71094  1.0000
  H   H124      1.0  0.31152  0.23891  0.62528  1.0000
  S   S32       1.0  0.05411  0.08032  0.61359  1.0000
  S   S33       1.0  0.03162  0.16081  0.62825  1.0000
  N   N5        1.0  0.09379  0.04720  0.53043  1.0000
  C   C66       1.0  0.07141  0.06601  0.50191  1.0000
  S   S34       1.0  0.03296  0.06975  0.87399  1.0000
  H   H125      1.0  0.05257  0.23088  0.79059  1.0000
  C   C67       1.0  0.00322  0.19176  0.78657  1.0000
  C   C68       1.0  0.10690  0.22556  0.81199  1.0000
  Fe  Fe17      1.0  0.03441  0.12495  0.89837  1.0000
  S   S35       1.0  0.07485  0.16244  0.91555  1.0000
  C   C69       1.0  0.05317  0.09629  0.50961  1.0000
  H   H126      1.0  0.05611  0.29226  0.65736  1.0000
  H   H127      1.0  0.09965  0.24098  0.78900  1.0000
  H   H128      1.0  0.01874  0.27744  0.92658  1.0000
  H   H129      1.0  0.16103  0.14792  0.55222  1.0000
  C   C70       1.0  0.00525  0.47919  0.76274  1.0000
  C   C71       1.0  0.02238  0.07895  0.77315  1.0000
  C   C72       1.0  0.22175  0.45361  0.52762  1.0000
  N   N6        1.0  0.12812  0.38716  0.70138  1.0000
  H   H130      1.0  0.07265  0.14601  0.77355  1.0000
  H   H131      1.0  0.21866  0.32671  0.95046  1.0000
  H   H132      1.0  0.03275  0.07121  0.79806  1.0000
  C   C73       1.0  0.07504  0.28578  0.89093  1.0000
  C   C74       1.0  0.04932  0.26434  0.87755  1.0000
  C   C75       1.0  0.04911  0.22655  0.88466  1.0000
  C   C76       1.0  0.07447  0.20985  0.90567  1.0000
  C   C77       1.0  0.10028  0.23119  0.91884  1.0000
  C   C78       1.0  0.10063  0.26898  0.91146  1.0000
  H   H133      1.0  0.02951  0.27699  0.86140  1.0000
  H   H134      1.0  0.02944  0.21019  0.87371  1.0000
  H   H135      1.0  0.12009  0.21848  0.93503  1.0000
  H   H136      1.0  0.12056  0.28517  0.92197  1.0000
  H   H137      1.0  0.08537  0.43981  0.66848  1.0000
  H   H138      1.0  0.25311  0.40028  0.97279  1.0000
  C   C79       1.0  0.16678  0.43413  0.52565  1.0000
  C   C80       1.0  0.19162  0.41884  0.54956  1.0000
  C   C81       1.0  0.21918  0.42892  0.55048  1.0000
  C   C82       1.0  0.07368  0.24035  0.67774  1.0000
  H   H139      1.0  0.14535  0.42679  0.52476  1.0000
  H   H140      1.0  0.23850  0.41746  0.56866  1.0000
  C   C83       1.0  0.22234  0.39245  0.76398  1.0000
  C   C84       1.0  0.21798  0.35490  0.76806  1.0000
  C   C85       1.0  0.20659  0.34371  0.79069  1.0000
  C   C86       1.0  0.19914  0.36985  0.80929  1.0000
  C   C87       1.0  0.20399  0.40740  0.80569  1.0000
  C   C88       1.0  0.21552  0.41858  0.78313  1.0000
  H   H141      1.0  0.22337  0.33445  0.75371  1.0000
  H   H142      1.0  0.20320  0.31458  0.79346  1.0000
  H   H143      1.0  0.19875  0.42783  0.82012  1.0000
  H   H144      1.0  0.21901  0.44768  0.78031  1.0000
  C   C89       1.0  0.16435  0.22700  0.64989  1.0000
  C   C90       1.0  0.14856  0.20222  0.66097  1.0000
  C   C91       1.0  0.12290  0.18494  0.63948  1.0000
  C   C92       1.0  0.11317  0.19194  0.60668  1.0000
  C   C93       1.0  0.12860  0.21727  0.59562  1.0000
  C   C94       1.0  0.15401  0.23504  0.61720  1.0000
  H   H145      1.0  0.15652  0.19590  0.68625  1.0000
  H   H146      1.0  0.11118  0.16537  0.64817  1.0000
  H   H147      1.0  0.12116  0.22271  0.57022  1.0000
  H   H148      1.0  0.16612  0.25401  0.60848  1.0000
  H   H149      1.0  0.01010  0.34827  0.84302  1.0000
  H   H150      1.0  0.08659  0.35929  0.69033  1.0000
  H   H151      1.0  0.03729  0.32570  0.61446  1.0000
  C   C95       1.0  0.99807  0.29035  0.92516  1.0000
  H   H152      1.0  0.07354  0.42125  0.69856  1.0000
  C   C96       1.0  0.24299  0.47552  0.89458  1.0000
  C   C97       1.0  0.01999  0.33834  0.56463  1.0000
  C   C98       1.0  0.32445  0.13935  0.50459  1.0000
  H   H153      1.0  0.11516  0.41588  0.63647  1.0000
  C   C99       1.0  0.08688  0.17096  0.77852  1.0000
  H   H154      1.0  0.03121  0.35544  0.81894  1.0000
  C   C100      1.0  0.07827  0.02671  0.54817  1.0000
  H   H155      1.0  0.18080  0.43406  0.65877  1.0000
  C   C101      1.0  0.14362  0.35114  0.70201  1.0000
  S   S36       1.0  0.01401  0.10140  0.93097  1.0000
  H   H156      1.0  0.14461  0.42763  0.79531  1.0000
  H   H157      1.0  0.13276  0.06033  0.57217  1.0000
  H   H158      1.0  0.03179  0.43147  0.64799  1.0000
  H   H159      1.0  0.03399  0.24282  0.61613  1.0000
  H   H160      1.0  0.05670  0.21011  0.82752  1.0000
  H   H161      1.0  0.13385  0.31920  0.59538  1.0000
  H   H162      1.0  0.14972  0.27901  0.84408  1.0000
  H   H163      1.0  0.11908  0.03571  0.50193  1.0000
  C   C102      1.0  0.09788  0.00377  0.57726  1.0000
  H   H164      1.0  0.13018  0.18265  0.77778  1.0000
  H   H165      1.0  0.30021  0.19741  0.63906  1.0000
  H   H166      1.0  0.00986  0.46416  0.68840  1.0000
  Fe  Fe18      1.0  0.00844  0.04770  0.90363  1.0000
  H   H167      1.0  0.03452  0.42770  0.80192  1.0000
  C   C103      1.0  0.14230  0.41624  0.68816  1.0000
  H   H168      1.0  0.04724  0.40219  0.62648  1.0000
  C   C104      1.0  0.24845  0.44646  0.92056  1.0000
  H   H169      1.0  0.29532  0.40578  0.96223  1.0000
  H   H170      1.0  0.11320  0.36128  0.59073  1.0000
  C   C105      1.0  0.11278  0.13393  0.74971  1.0000
  H   H171      1.0  0.13071  0.01140  0.53830  1.0000
  Fe  Fe19      1.0  0.00950  0.06996  0.57463  1.0000
  H   H172      1.0  0.22194  0.47004  0.87411  1.0000
  H   H173      1.0  0.08611  0.26348  0.83523  1.0000
  H   H174      1.0  0.15247  0.45197  0.74673  1.0000
  H   H175      1.0  0.14831  0.26146  0.73235  1.0000
  C   C106      1.0  0.04100  0.25934  0.56049  1.0000
  H   H176      1.0  0.10584  0.43334  0.77354  1.0000
  C   C107      1.0  0.02913  0.30949  0.59166  1.0000
  H   H177      1.0  0.09383  0.37075  0.65633  1.0000
  H   H178      1.0  0.19307  0.31954  0.52848  1.0000
  C   C108      1.0  0.07637  0.41507  0.67587  1.0000
  C   C109      1.0  0.12781  0.44322  0.77594  1.0000
  H   H179      1.0  0.24318  0.46102  0.52856  1.0000
  H   H180      1.0  0.08431  0.25215  0.70236  1.0000
  H   H181      1.0  0.30045  0.38144  0.93104  1.0000
  H   H182      1.0  0.17670  0.28849  0.72712  1.0000
  N   N7        1.0  0.25690  0.37582  0.93059  1.0000
  C   C110      1.0  0.24817  0.33977  0.91204  1.0000
  H   H183      1.0  0.21911  0.35154  0.52360  1.0000
  C   C111      1.0  0.24716  0.40676  0.90653  1.0000
  C   C112      1.0  0.00130  0.45759  0.73159  1.0000
  H   H184      1.0  0.11211  0.02237  0.59684  1.0000
  C   C113      1.0  0.26099  0.33274  0.88626  1.0000
  H   H185      1.0  0.03956  0.34038  0.92323  1.0000
  H   H186      1.0  0.30769  0.02245  0.53459  1.0000
  H   H187      1.0  0.29892  0.32089  0.96214  1.0000
  C   C114      1.0  0.25167  0.29471  0.87038  1.0000
  H   H188      1.0  0.22393  0.33805  0.89981  1.0000
  S   S37       1.0  0.09027  0.48890  0.81967  1.0000
  H   H189      1.0  0.99806  0.21997  0.77660  1.0000
  S   S38       1.0  0.00148  0.01274  0.54868  1.0000
  H   H190      1.0  0.22418  0.40179  0.88937  1.0000
  H   H191      1.0  0.26045  0.40744  0.89164  1.0000
  H   H192      1.0  0.21934  0.39153  0.94058  1.0000
  H   H193      1.0  0.01290  0.43094  0.73669  1.0000
  H   H194      1.0  0.02376  0.41354  0.84657  1.0000
  C   C115      1.0  0.23563  0.34404  0.96891  1.0000
  H   H195      1.0  0.25311  0.35343  0.86690  1.0000
  H   H196      1.0  0.28517  0.33370  0.89702  1.0000
  H   H197      1.0  0.02840  0.22628  0.95309  1.0000
  H   H198      1.0  0.06726  0.11798  0.52571  1.0000
  C   C116      1.0  0.03151  0.17823  0.78469  1.0000
  H   H199      1.0  0.14042  0.08857  0.52437  1.0000
  C   C117      1.0  0.01400  0.18352  0.97600  1.0000
  C   C118      1.0  0.01768  0.35265  0.91713  1.0000
  C   C119      1.0  0.24140  0.37983  0.95336  1.0000
  C   C120      1.0  0.05762  0.20424  0.80374  1.0000
  H   H200      1.0  0.26021  0.27247  0.88829  1.0000
  H   H201      1.0  0.22750  0.29231  0.85896  1.0000
  H   H202      1.0  0.26041  0.29084  0.85142  1.0000
  H   H203      1.0  0.02818  0.17711  0.75893  1.0000
  H   H204      1.0  0.08768  0.21799  0.67488  1.0000
  H   H205      1.0  0.08429  0.32364  0.61441  1.0000
  H   H206      1.0  0.03829  0.27710  0.53972  1.0000
  C   C121      1.0  0.13821  0.41100  0.65258  1.0000
  H   H207      1.0  0.11370  0.45370  0.72578  1.0000
  H   H208      1.0  0.14171  0.14189  0.57824  1.0000
  H   H209      1.0  0.10194  0.10742  0.75111  1.0000
  H   H210      1.0  0.09166  0.28254  0.65776  1.0000
  C   C122      1.0  0.02536  0.08919  0.72096  1.0000
  H   H211      1.0  0.08944  0.28790  0.55473  1.0000
  C   C123      1.0  0.04597  0.40724  0.65014  1.0000
  H   H212      1.0  0.12485  0.16491  0.84417  1.0000
  H   H213      1.0  0.12993  0.21774  0.81764  1.0000
  H   H214      1.0  0.15153  0.46718  0.64653  1.0000
  C   C124      1.0  0.08682  0.31240  0.56832  1.0000
  C   C125      1.0  0.06978  0.27056  0.65302  1.0000
  H   H215      1.0  0.06113  0.00818  0.53148  1.0000
  H   H216      1.0  0.06608  0.13467  0.84167  1.0000
  H   H217      1.0  0.14466  0.27460  0.69267  1.0000
  H   H218      1.0  0.14399  0.38292  0.64757  1.0000
  H   H219      1.0  0.00347  0.40456  0.77427  1.0000
  C   C126      1.0  0.09629  0.38127  0.68041  1.0000
  C   C127      1.0  0.12698  0.28718  0.83944  1.0000
  Fe  Fe20      1.0  0.03057  0.10215  0.64391  1.0000
  H   H220      1.0  0.16997  0.10998  0.57985  1.0000
  C   C128      1.0  0.00681  0.40336  0.82351  1.0000
  H   H221      1.0  0.25532  0.32707  0.97966  1.0000
  C   C129      1.0  0.11516  0.33515  0.57875  1.0000
  C   C130      1.0  0.13209  0.39695  0.73543  1.0000
  H   H222      1.0  0.23152  0.44978  0.93064  1.0000
  H   H223      1.0  0.05806  0.23927  0.56123  1.0000
  C   C131      1.0  0.11469  0.07489  0.55320  1.0000
  C   C132      1.0  0.08066  0.29958  0.59779  1.0000
  H   H224      1.0  0.99950  0.23855  0.49983  1.0000
  H   H225      1.0  0.11199  0.12222  0.88946  1.0000
  H   H226      1.0  0.09949  0.14797  0.72702  1.0000
  H   H227      1.0  0.16618  0.41799  0.70329  1.0000
  H   H228      1.0  0.20309  0.36719  0.98476  1.0000
  H   H229      1.0  0.08258  0.11450  0.81617  1.0000
  H   H230      1.0  0.11992  0.34230  0.55742  1.0000
  H   H231      1.0  0.05218  0.22839  0.67502  1.0000
  H   H232      1.0  0.03926  0.08410  0.52119  1.0000
  N   N8        1.0  0.05132  0.28144  0.59147  1.0000
  H   H233      1.0  0.10035  0.18414  0.85924  1.0000
  H   H234      1.0  0.07651  0.18847  0.75696  1.0000
  H   H235      1.0  0.10374  0.09090  0.56643  1.0000
  H   H236      1.0  0.00017  0.34020  0.74450  1.0000
  H   H237      1.0  0.11270  0.12161  0.52139  1.0000
  H   H238      1.0  0.26991  0.45298  0.93985  1.0000
  C   C133      1.0  0.00320  0.21800  0.51908  1.0000
  H   H239      1.0  0.06853  0.23074  0.61641  1.0000
  H   H240      1.0  0.15427  0.43365  0.61811  1.0000
  C   C134      1.0  0.13746  0.31918  0.72143  1.0000
  H   H241      1.0  0.11784  0.30219  0.81639  1.0000
  H   H242      1.0  0.00903  0.29532  0.59116  1.0000
  H   H243      1.0  0.22352  0.30251  0.52044  1.0000
  C   C135      1.0  0.05532  0.25466  0.61828  1.0000
  C   C136      1.0  0.01193  0.23729  0.55171  1.0000
  H   H244      1.0  0.03827  0.35811  0.56854  1.0000
  H   H245      1.0  0.13402  0.44424  0.68954  1.0000
  H   H246      1.0  0.13808  0.34008  0.67731  1.0000
  H   H247      1.0  0.12694  0.10046  0.86315  1.0000
  C   C137      1.0  0.10811  0.25338  0.83880  1.0000
  H   H248      1.0  0.06642  0.04623  0.55773  1.0000
  H   H249      1.0  0.11786  0.24045  0.86270  1.0000
  S   S39       1.0  0.00718  0.12685  0.55406  1.0000
  H   H250      1.0  0.11385  0.31285  0.71305  1.0000
  H   H251      1.0  0.06127  0.07202  0.76350  1.0000
  H   H252      1.0  0.11585  0.38157  0.74219  1.0000
  N   N9        1.0  0.08785  0.19154  0.80813  1.0000
  C   C138      1.0  0.19690  0.46868  0.50358  1.0000
  H   H253      1.0  0.03564  0.38288  0.65654  1.0000
  C   C139      1.0  0.08685  0.13078  0.83835  1.0000
  H   H254      1.0  0.01508  0.37515  0.89971  1.0000
  C   C140      1.0  0.03851  0.07949  0.75350  1.0000
  H   H255      1.0  0.25411  0.31570  0.92819  1.0000
  C   C141      1.0  0.00828  0.20948  0.94778  1.0000
  H   H256      1.0  0.09495  0.08116  0.86699  1.0000
  H   H257      1.0  0.12901  0.14230  0.80053  1.0000
  C   C142      1.0  0.15270  0.28385  0.71813  1.0000
  H   H258      1.0  0.12752  0.30629  0.85898  1.0000
  C   C143      1.0  0.10117  0.16891  0.83816  1.0000
  H   H259      1.0  0.13003  0.47292  0.78299  1.0000
  C   C144      1.0  0.11674  0.15842  0.77879  1.0000
  H   H260      1.0  0.09868  0.28004  0.61031  1.0000
  C   C145      1.0  0.15184  0.12706  0.56371  1.0000
  C   C146      1.0  0.12916  0.10291  0.53795  1.0000
  C   C147      1.0  0.10647  0.10735  0.86623  1.0000
  H   H261      1.0  0.16773  0.35577  0.71207  1.0000
  H   H262      1.0  0.01406  0.21539  0.56945  1.0000
  H   H263      1.0  0.01649  0.36484  0.93919  1.0000
  H   H264      1.0  0.03507  0.14987  0.79393  1.0000
  C   C148      1.0  0.13147  0.43847  0.74414  1.0000
  H   H265      1.0  0.13440  0.12756  0.74923  1.0000
  H   H266      1.0  0.14566  0.32617  0.74741  1.0000
  C   C149      1.0  0.15736  0.43824  0.64356  1.0000
  H   H267      1.0  0.03353  0.16667  0.97947  1.0000
  S   S40       1.0  0.19457  0.44674  0.97136  1.0000
  C   C150      1.0  0.20724  0.32488  0.51504  1.0000
  C   C151      1.0  0.16939  0.45907  0.50301  1.0000
  C   C152      1.0  0.01057  0.42368  0.79524  1.0000
  H   H268      1.0  0.26084  0.47549  0.88559  1.0000
  S   S41       1.0  0.32183  0.31000  0.66391  1.0000
  H   H269      1.0  0.00152  0.28654  0.65564  1.0000
  H   H270      1.0  0.00474  0.19205  0.92626  1.0000
  C   C153      1.0  0.01023  0.36164  0.82112  1.0000
  H   H271      1.0  0.99912  0.37449  0.58823  1.0000
  C   C154      1.0  0.00510  0.48411  0.81632  1.0000
  C   C155      1.0  0.30467  0.34899  0.97276  1.0000
  H   H272      1.0  0.02046  0.19857  0.51932  1.0000
  C   C156      1.0  0.11078  0.02103  0.51826  1.0000
  H   H273      1.0  0.00294  0.30136  0.94977  1.0000
  H   H274      1.0  0.30817  0.19630  0.60319  1.0000
  H   H275      1.0  0.00514  0.19197  0.81184  1.0000
  C   C157      1.0  0.31466  0.20855  0.62761  1.0000
  H   H276      1.0  0.01329  0.32530  0.54057  1.0000
  H   H277      1.0  0.02943  0.48571  0.82770  1.0000
  H   H278      1.0  0.00091  0.01947  0.97731  1.0000
  H   H279      1.0  0.31521  0.15255  0.52073  1.0000
  C   C158      1.0  0.32253  0.00473  0.52905  1.0000
  H   H280      1.0  0.03745  0.48462  0.72396  1.0000
  H   H281      1.0  0.02882  0.48687  0.77466  1.0000
  H   H282      1.0  0.99813  0.47165  0.83464  1.0000
  C   C159      1.0  0.22436  0.35292  0.99510  1.0000
  C   C160      1.0  0.32345  0.00613  0.49834  1.0000
  H   H283      1.0  0.29869  0.35163  0.99387  1.0000
  H   H284      1.0  0.05145  0.77002  0.32368  1.0000
  Fe  Fe21      1.0  0.21495  0.65444  0.16617  1.0000
  S   S42       1.0  0.19218  0.59932  0.15663  1.0000
  S   S43       1.0  0.19367  0.70559  0.17563  1.0000
  Fe  Fe22      1.0  0.27305  0.62263  0.16859  1.0000
  S   S44       1.0  0.25443  0.56425  0.16034  1.0000
  Fe  Fe23      1.0  0.21430  0.58825  0.12238  1.0000
  S   S45       1.0  0.18711  0.56998  0.07036  1.0000
  Fe  Fe24      1.0  0.23354  0.57982  0.19529  1.0000
  S   S46       1.0  0.22889  0.54137  0.23286  1.0000
  S   S47       1.0  0.23351  0.64581  0.12897  1.0000
  S   S48       1.0  0.25557  0.63578  0.20658  1.0000
  C   C161      1.0  0.00682  0.99419  0.46106  1.0000
  H   H285      1.0  0.06533  0.69897  0.12830  1.0000
  Fe  Fe25      1.0  0.11002  0.55731  0.38699  1.0000
  S   S49       1.0  0.15674  0.57659  0.41004  1.0000
  S   S50       1.0  0.07026  0.59130  0.38232  1.0000
  Fe  Fe26      1.0  0.16013  0.55703  0.36411  1.0000
  S   S51       1.0  0.17925  0.59400  0.33646  1.0000
  H   H286      1.0  0.02728  0.64809  0.36127  1.0000
  S   S52       1.0  0.11298  0.54110  0.34030  1.0000
  C   C162      1.0  0.32941  0.89102  0.00236  1.0000
  H   H287      1.0  0.10255  0.63400  0.28697  1.0000
  S   S53       1.0  0.03562  0.85873  0.37297  1.0000
  H   H288      1.0  0.06859  0.55132  0.11427  1.0000
  S   S54       1.0  0.01748  0.82095  0.42792  1.0000
  H   H289      1.0  0.07436  0.58358  0.14690  1.0000
  H   H290      1.0  0.01737  0.53996  0.11082  1.0000
  Fe  Fe27      1.0  0.03753  0.80167  0.39371  1.0000
  S   S55       1.0  0.07762  0.76520  0.40895  1.0000
  H   H291      1.0  0.13661  0.87616  0.02189  1.0000
  Fe  Fe28      1.0  0.02972  0.82712  0.14044  1.0000
  S   S56       1.0  0.04896  0.83548  0.19487  1.0000
  Fe  Fe29      1.0  0.04454  0.79134  0.08716  1.0000
  C   C163      1.0  0.14972  0.69923  0.36420  1.0000
  S   S57       1.0  0.07535  0.76104  0.06999  1.0000
  H   H292      1.0  0.12746  0.73474  0.30498  1.0000
  H   H293      1.0  0.16119  0.71507  0.35165  1.0000
  H   H294      1.0  0.10074  0.62794  0.13844  1.0000
  S   S58       1.0  0.05108  0.84879  0.10797  1.0000
  S   S59       1.0  0.02799  0.76853  0.12283  1.0000
  H   H295      1.0  0.13852  0.71899  0.37431  1.0000
  C   C164      1.0  0.25260  0.55967  0.00790  1.0000
  C   C165      1.0  0.26555  0.58482  0.36874  1.0000
  C   C166      1.0  0.09414  0.68069  0.17473  1.0000
  H   H296      1.0  0.02907  0.71530  0.37305  1.0000
  C   C167      1.0  0.02600  0.83734  0.27210  1.0000
  C   C168      1.0  0.04183  0.83444  0.25224  1.0000
  C   C169      1.0  0.02804  0.83901  0.21885  1.0000
  H   H297      1.0  0.07885  0.91629  0.01462  1.0000
  H   H298      1.0  0.22461  0.50521  0.07828  1.0000
  H   H299      1.0  0.03692  0.83401  0.29776  1.0000
  H   H300      1.0  0.06494  0.82879  0.26282  1.0000
  H   H301      1.0  0.02855  0.71858  0.18024  1.0000
  C   C170      1.0  0.07299  0.63976  0.38908  1.0000
  C   C171      1.0  0.09951  0.65723  0.40752  1.0000
  C   C172      1.0  0.10064  0.69567  0.41327  1.0000
  C   C173      1.0  0.07524  0.71693  0.40107  1.0000
  C   C174      1.0  0.04875  0.69939  0.38260  1.0000
  C   C175      1.0  0.04773  0.66113  0.37627  1.0000
  H   H302      1.0  0.11908  0.64109  0.41777  1.0000
  H   H303      1.0  0.12124  0.70895  0.42762  1.0000
  C   C176      1.0  0.08555  0.64798  0.12185  1.0000
  C   C177      1.0  0.18878  0.53424  0.04376  1.0000
  H   H304      1.0  0.19459  0.65689  0.04844  1.0000
  C   C178      1.0  0.16877  0.53444  0.01156  1.0000
  H   H305      1.0  0.02870  0.58900  0.07692  1.0000
  H   H306      1.0  0.09983  0.93858  0.47359  1.0000
  C   C179      1.0  0.21241  0.55638  0.25930  1.0000
  C   C180      1.0  0.20936  0.59394  0.26475  1.0000
  C   C181      1.0  0.19823  0.60498  0.28768  1.0000
  C   C182      1.0  0.18961  0.57866  0.30507  1.0000
  C   C183      1.0  0.19168  0.54110  0.29886  1.0000
  C   C184      1.0  0.20332  0.53005  0.27634  1.0000
  H   H307      1.0  0.21628  0.61451  0.25184  1.0000
  H   H308      1.0  0.19685  0.63411  0.29235  1.0000
  C   C185      1.0  0.99736  0.60598  0.40806  1.0000
  H   H309      1.0  0.25559  0.61345  0.47594  1.0000
  C   C186      1.0  0.10817  0.74586  0.09945  1.0000
  C   C187      1.0  0.12593  0.72198  0.09068  1.0000
  C   C188      1.0  0.15205  0.70892  0.11395  1.0000
  C   C189      1.0  0.16090  0.72072  0.14588  1.0000
  C   C190      1.0  0.14348  0.74542  0.15442  1.0000
  C   C191      1.0  0.11688  0.75742  0.13138  1.0000
  H   H310      1.0  0.11934  0.71324  0.06591  1.0000
  H   H311      1.0  0.16554  0.69014  0.10720  1.0000
  H   H312      1.0  0.15037  0.75478  0.17908  1.0000
  H   H313      1.0  0.10335  0.77600  0.13828  1.0000
  H   H314      1.0  0.13285  0.66260  0.26991  1.0000
  H   H315      1.0  0.04555  0.70975  0.48836  1.0000
  N   N10       1.0  0.06451  0.62844  0.09215  1.0000
  N   N11       1.0  0.09701  0.86199  0.02845  1.0000
  C   C192      1.0  0.09288  0.90148  0.03664  1.0000
  H   H316      1.0  0.28419  0.62380  0.32757  1.0000
  C   C193      1.0  0.06737  0.84458  0.01026  1.0000
  C   C194      1.0  0.11229  0.83977  0.05831  1.0000
  C   C195      1.0  0.14212  0.85538  0.08202  1.0000
  C   C196      1.0  0.07839  0.90676  0.06111  1.0000
  C   C197      1.0  0.25557  0.50360  0.36369  1.0000
  H   H317      1.0  0.32374  0.70472  0.04415  1.0000
  H   H318      1.0  0.25951  0.57138  0.09862  1.0000
  C   C198      1.0  0.15402  0.83208  0.11232  1.0000
  H   H319      1.0  0.32121  0.86915  0.04227  1.0000
  H   H320      1.0  0.22892  0.58153  0.47934  1.0000
  Fe  Fe30      1.0  0.16623  0.51764  0.42737  1.0000
  H   H321      1.0  0.11403  0.91698  0.04571  1.0000
  S   S60       1.0  0.00011  0.80203  0.04930  1.0000
  H   H322      1.0  0.30637  0.61689  0.38707  1.0000
  H   H323      1.0  0.24566  0.51334  0.40529  1.0000
  H   H324      1.0  0.05566  0.84035  0.02658  1.0000
  H   H325      1.0  0.09791  0.83583  0.07176  1.0000
  H   H326      1.0  0.11650  0.81130  0.05189  1.0000
  H   H327      1.0  0.14033  0.88414  0.08958  1.0000
  H   H328      1.0  0.15848  0.85489  0.07096  1.0000
  H   H329      1.0  0.05648  0.89348  0.05214  1.0000
  H   H330      1.0  0.09174  0.89475  0.08467  1.0000
  H   H331      1.0  0.00971  0.61200  0.39270  1.0000
  H   H332      1.0  0.27545  0.56765  0.35524  1.0000
  H   H333      1.0  0.31329  0.60895  0.43775  1.0000
  H   H334      1.0  0.03471  0.99739  0.29166  1.0000
  H   H335      1.0  0.04179  0.64369  0.04221  1.0000
  C   C199      1.0  0.27474  0.55871  0.08903  1.0000
  H   H336      1.0  0.02805  0.66583  0.42735  1.0000
  H   H337      1.0  0.17549  0.84341  0.12886  1.0000
  H   H338      1.0  0.13886  0.83249  0.12499  1.0000
  H   H339      1.0  0.15706  0.80300  0.10626  1.0000
  H   H340      1.0  0.02208  0.65059  0.46154  1.0000
  H   H341      1.0  0.30171  0.60676  0.10075  1.0000
  C   C200      1.0  0.11509  0.50501  0.26428  1.0000
  C   C201      1.0  0.01137  0.95579  0.46082  1.0000
  H   H342      1.0  0.27854  0.66731  0.03336  1.0000
  H   H343      1.0  0.13162  0.61559  0.04149  1.0000
  H   H344      1.0  0.11736  0.65658  0.35616  1.0000
  H   H345      1.0  0.25055  0.51576  0.33970  1.0000
  H   H346      1.0  0.04779  0.72726  0.45196  1.0000
  H   H347      1.0  0.14005  0.64891  0.33521  1.0000
  C   C202      1.0  0.08745  0.65415  0.29089  1.0000
  H   H348      1.0  0.10018  0.66692  0.11559  1.0000
  H   H349      1.0  0.27581  0.64114  0.39009  1.0000
  C   C203      1.0  0.03359  0.72455  0.46568  1.0000
  C   C204      1.0  0.11260  0.96310  0.48687  1.0000
  H   H350      1.0  0.10080  0.71659  0.26918  1.0000
  C   C205      1.0  0.08528  0.71114  0.32128  1.0000
  C   C206      1.0  0.06829  0.63149  0.30447  1.0000
  C   C207      1.0  0.05836  0.72670  0.29350  1.0000
  C   C208      1.0  0.05196  0.60015  0.28145  1.0000
  C   C209      1.0  0.03882  0.74801  0.30645  1.0000
  H   H351      1.0  0.09789  0.73566  0.33485  1.0000
  H   H352      1.0  0.07773  0.69694  0.33843  1.0000
  H   H353      1.0  0.07332  0.66361  0.26646  1.0000
  H   H354      1.0  0.05178  0.64891  0.30847  1.0000
  H   H355      1.0  0.08203  0.61876  0.32753  1.0000
  H   H356      1.0  0.06539  0.74606  0.27889  1.0000
  H   H357      1.0  0.04478  0.70441  0.27762  1.0000
  H   H358      1.0  0.03906  0.58388  0.29220  1.0000
  H   H359      1.0  0.03680  0.61139  0.25823  1.0000
  H   H360      1.0  0.06757  0.58128  0.27709  1.0000
  H   H361      1.0  0.03917  0.53042  0.44762  1.0000
  H   H362      1.0  0.00798  0.93559  0.28757  1.0000
  Fe  Fe31      1.0  0.01116  0.87630  0.40395  1.0000
  H   H363      1.0  0.11936  0.97937  0.47013  1.0000
  C   C210      1.0  0.24394  0.62031  0.05069  1.0000
  H   H364      1.0  0.26423  0.53596  0.02251  1.0000
  H   H365      1.0  0.26334  0.61328  0.42511  1.0000
  H   H366      1.0  0.18017  0.66822  0.00640  1.0000
  H   H367      1.0  0.31767  0.73526  0.22613  1.0000
  C   C211      1.0  0.22399  0.64606  0.02403  1.0000
  C   C212      1.0  0.31528  0.00169  0.26375  1.0000
  C   C213      1.0  0.17296  0.67987  0.39241  1.0000
  H   H368      1.0  0.21795  0.61498  0.44765  1.0000
  H   H369      1.0  0.09733  0.59065  0.02550  1.0000
  H   H370      1.0  0.24654  0.63292  0.07416  1.0000
  H   H371      1.0  0.23146  0.59440  0.04915  1.0000
  C   C214      1.0  0.28941  0.64952  0.05451  1.0000
  C   C215      1.0  0.01790  0.58361  0.43706  1.0000
  H   H372      1.0  0.24286  0.59022  0.35175  1.0000
  H   H373      1.0  0.25417  0.64861  0.33110  1.0000
  C   C216      1.0  0.00467  0.69873  0.04103  1.0000
  N   N12       1.0  0.27363  0.61273  0.05044  1.0000
  S   S61       1.0  0.01593  0.93493  0.42695  1.0000
  H   H374      1.0  0.02540  0.57013  0.14536  1.0000
  H   H375      1.0  0.31822  0.97357  0.27226  1.0000
  C   C217      1.0  0.27757  0.64158  0.34366  1.0000
  H   H376      1.0  0.09944  0.65511  0.18917  1.0000
  H   H377      1.0  0.18229  0.62066  0.01823  1.0000
  H   H378      1.0  0.22283  0.55088  0.42899  1.0000
  S   S62       1.0  0.31464  0.64444  0.16332  1.0000
  H   H379      1.0  0.29367  0.58784  0.02052  1.0000
  H   H380      1.0  0.06709  0.58767  0.05818  1.0000
  C   C218      1.0  0.24257  0.56865  0.44043  1.0000
  C   C219      1.0  0.24621  0.53012  0.38502  1.0000
  C   C220      1.0  0.08207  0.60495  0.07859  1.0000
  C   C221      1.0  0.10335  0.62612  0.06690  1.0000
  H   H381      1.0  0.22317  0.53789  0.37079  1.0000
  H   H382      1.0  0.32394  0.80678  0.06305  1.0000
  H   H383      1.0  0.09595  0.58528  0.09679  1.0000
  H   H384      1.0  0.12231  0.63708  0.08779  1.0000
  C   C222      1.0  0.15313  0.71287  0.26414  1.0000
  H   H385      1.0  0.02187  0.68311  0.09033  1.0000
  H   H386      1.0  0.22932  0.59907  0.39637  1.0000
  N   N13       1.0  0.10456  0.68614  0.31150  1.0000
  C   C223      1.0  0.00122  0.93441  0.01089  1.0000
  H   H387      1.0  0.09633  0.96176  0.07820  1.0000
  H   H388      1.0  0.23096  0.56215  0.00927  1.0000
  H   H389      1.0  0.26363  0.61582  0.99951  1.0000
  H   H390      1.0  0.99956  0.68647  0.01683  1.0000
  H   H391      1.0  0.11459  0.69253  0.17420  1.0000
  H   H392      1.0  0.06152  0.68066  0.06779  1.0000
  H   H393      1.0  0.00108  0.63682  0.13953  1.0000
  C   C224      1.0  0.05796  0.57202  0.12423  1.0000
  C   C225      1.0  0.19345  0.64803  0.02439  1.0000
  C   C226      1.0  0.11798  0.70822  0.29243  1.0000
  H   H394      1.0  0.03107  0.71987  0.22100  1.0000
  H   H395      1.0  0.15235  0.55560  0.00379  1.0000
  H   H396      1.0  0.18500  0.52056  0.31194  1.0000
  H   H397      1.0  0.04540  0.52808  0.14893  1.0000
  C   C227      1.0  0.01285  0.93561  0.48765  1.0000
  C   C228      1.0  0.12763  0.67079  0.34145  1.0000
  C   C229      1.0  0.04765  0.65591  0.06668  1.0000
  H   H398      1.0  0.08085  0.78635  0.01093  1.0000
  H   H399      1.0  0.16065  0.68075  0.30611  1.0000
  C   C230      1.0  0.29125  0.58916  0.07876  1.0000
  N   N14       1.0  0.26494  0.56446  0.39750  1.0000
  H   H400      1.0  0.16337  0.73848  0.27771  1.0000
  C   C231      1.0  0.01952  0.73135  0.19674  1.0000
  H   H401      1.0  0.07381  0.50806  0.22462  1.0000
  C   C232      1.0  0.07203  0.67222  0.14075  1.0000
  H   H402      1.0  0.26203  0.54041  0.06881  1.0000
  C   C233      1.0  0.14171  0.68823  0.28411  1.0000
  H   H403      1.0  0.16274  0.66460  0.40662  1.0000
  C   C234      1.0  0.04379  0.60281  0.09949  1.0000
  H   H404      1.0  0.16985  0.69784  0.25828  1.0000
  H   H405      1.0  0.08487  0.70104  0.18657  1.0000
  C   C235      1.0  0.28262  0.62196  0.37518  1.0000
  H   H406      1.0  0.18538  0.66024  0.38370  1.0000
  H   H407      1.0  0.06181  0.96155  0.04395  1.0000
  H   H408      1.0  0.30392  0.58200  0.46530  1.0000
  H   H409      1.0  0.18847  0.70072  0.40838  1.0000
  H   H410      1.0  0.13517  0.72042  0.24125  1.0000
  C   C236      1.0  0.03507  0.55132  0.13275  1.0000
  C   C237      1.0  0.07472  0.94773  0.06687  1.0000
  H   H411      1.0  0.05289  0.65906  0.14321  1.0000
  H   H412      1.0  0.06286  0.95061  0.08309  1.0000
  H   H413      1.0  0.29067  0.66760  0.34862  1.0000
  H   H414      1.0  0.07402  0.99410  0.47843  1.0000
  H   H415      1.0  0.02890  0.72903  0.31864  1.0000
  C   C238      1.0  0.27160  0.59534  0.01915  1.0000
  C   C239      1.0  0.31319  0.58061  0.44664  1.0000
  H   H416      1.0  0.29438  0.52672  0.43179  1.0000
  H   H417      1.0  0.03296  0.54717  0.40816  1.0000
  H   H418      1.0  0.02930  0.61826  0.10837  1.0000
  H   H419      1.0  0.02095  0.76118  0.28633  1.0000
  C   C240      1.0  0.99826  0.84686  0.20555  1.0000
  H   H420      1.0  0.12586  0.57623  0.06259  1.0000
  H   H421      1.0  0.11739  0.53548  0.26781  1.0000
  C   C241      1.0  0.01845  0.67009  0.06703  1.0000
  Fe  Fe32      1.0  0.00557  0.85892  0.07153  1.0000
  H   H422      1.0  0.26054  0.55076  0.45563  1.0000
  C   C242      1.0  0.25017  0.58821  0.41418  1.0000
  C   C243      1.0  0.29587  0.53480  0.11543  1.0000
  H   H423      1.0  0.22157  0.63612  0.99988  1.0000
  C   C244      1.0  0.11531  0.86200  0.00859  1.0000
  H   H424      1.0  0.23300  0.67467  0.02776  1.0000
  H   H425      1.0  0.30857  0.55204  0.13690  1.0000
  H   H426      1.0  0.22266  0.98310  0.33086  1.0000
  C   C245      1.0  0.23589  0.59652  0.46211  1.0000
  H   H427      1.0  0.30949  0.57577  0.07448  1.0000
  H   H428      1.0  0.01747  0.90645  0.48848  1.0000
  C   C246      1.0  0.32199  0.64793  0.05906  1.0000
  H   H429      1.0  0.07173  0.50513  0.26334  1.0000
  H   H430      1.0  0.03944  0.59795  0.44826  1.0000
  H   H431      1.0  0.09278  0.64948  0.05109  1.0000
  H   H432      1.0  0.12096  0.83323  0.00449  1.0000
  H   H433      1.0  0.00285  0.52865  0.41677  1.0000
  C   C247      1.0  0.11518  0.60048  0.04796  1.0000
  H   H434      1.0  0.99630  0.99025  0.31387  1.0000
  C   C248      1.0  0.00517  0.70417  0.44560  1.0000
  C   C249      1.0  0.02346  0.54512  0.42663  1.0000
  C   C250      1.0  0.29527  0.55299  0.41947  1.0000
  H   H435      1.0  0.31113  0.52049  0.10679  1.0000
  C   C251      1.0  0.01124  0.66412  0.43791  1.0000
  H   H436      1.0  0.28850  0.66483  0.07566  1.0000
  H   H437      1.0  0.00851  0.58026  0.45547  1.0000
  H   H438      1.0  0.02861  0.75274  0.47182  1.0000
  C   C252      1.0  0.99865  0.97293  0.00625  1.0000
  C   C253      1.0  0.20959  0.50637  0.05346  1.0000
  H   H439      1.0  0.30847  0.54653  0.40510  1.0000
  H   H440      1.0  0.18494  0.98477  0.30351  1.0000
  C   C254      1.0  0.20484  0.00177  0.31651  1.0000
  H   H441      1.0  0.00225  0.64715  0.06230  1.0000
  H   H442      1.0  0.02363  0.76160  0.19754  1.0000
  H   H443      1.0  0.32413  0.63608  0.03740  1.0000
  H   H444      1.0  0.28338  0.51355  0.12260  1.0000
  H   H445      1.0  0.01953  0.72284  0.04453  1.0000
  C   C255      1.0  0.10950  0.73352  0.90094  1.0000
  H   H446      1.0  0.14973  0.61885  0.81444  1.0000
  H   H447      1.0  0.22756  0.68901  0.85995  1.0000
  Fe  Fe33      1.0  0.26493  0.79675  0.86572  1.0000
  S   S63       1.0  0.28062  0.85591  0.87889  1.0000
  S   S64       1.0  0.22075  0.76930  0.83557  1.0000
  Fe  Fe34      1.0  0.31781  0.84116  0.86384  1.0000
  C   C256      1.0  0.06280  0.83388  0.87844  1.0000
  H   H448      1.0  0.06746  0.84442  0.90306  1.0000
  H   H449      1.0  0.12370  0.59344  0.82517  1.0000
  S   S65       1.0  0.29988  0.78463  0.84689  1.0000
  S   S66       1.0  0.29165  0.77511  0.91459  1.0000
  Fe  Fe35      1.0  0.05005  0.74977  0.79982  1.0000
  S   S67       1.0  0.02955  0.73909  0.83536  1.0000
  S   S68       1.0  0.08804  0.79152  0.81830  1.0000
  H   H450      1.0  0.29212  0.93892  0.80772  1.0000
  Fe  Fe36      1.0  0.03126  0.67933  0.82324  1.0000
  S   S69       1.0  0.04982  0.63786  0.86281  1.0000
  S   S70       1.0  0.05387  0.68971  0.78987  1.0000
  H   H451      1.0  0.08307  0.62084  0.77887  1.0000
  Fe  Fe37      1.0  0.30967  0.83336  0.92731  1.0000
  H   H452      1.0  0.24662  0.70137  0.90155  1.0000
  H   H453      1.0  0.03184  0.89093  0.84147  1.0000
  H   H454      1.0  0.10251  0.64875  0.83639  1.0000
  H   H455      1.0  0.10845  0.59648  0.76672  1.0000
  S   S71       1.0  0.31453  0.85097  0.97795  1.0000
  H   H456      1.0  0.01421  0.82425  0.51267  1.0000
  C   C257      1.0  0.00474  0.99175  0.51415  1.0000
  H   H457      1.0  0.00258  0.50677  0.70448  1.0000
  C   C258      1.0  0.14687  0.62600  0.88763  1.0000
  H   H458      1.0  0.16588  0.65160  0.93598  1.0000
  H   H459      1.0  0.12660  0.73569  0.92559  1.0000
  H   H460      1.0  0.01711  0.91300  0.94580  1.0000
  C   C259      1.0  0.06182  0.59695  0.85097  1.0000
  C   C260      1.0  0.05518  0.58933  0.81856  1.0000
  C   C261      1.0  0.06446  0.55630  0.80934  1.0000
  C   C262      1.0  0.08038  0.53071  0.83245  1.0000
  C   C263      1.0  0.08734  0.53843  0.86495  1.0000
  C   C264      1.0  0.07800  0.57151  0.87418  1.0000
  H   H461      1.0  0.04238  0.60855  0.80048  1.0000
  H   H462      1.0  0.05892  0.55042  0.78414  1.0000
  H   H463      1.0  0.06520  0.99880  0.59820  1.0000
  H   H464      1.0  0.08303  0.57724  0.89930  1.0000
  H   H465      1.0  0.10908  0.67432  0.89973  1.0000
  H   H466      1.0  0.20465  0.68009  0.91373  1.0000
  H   H467      1.0  0.11185  0.98446  0.57068  1.0000
  H   H468      1.0  0.16577  0.56682  0.92874  1.0000
  H   H469      1.0  0.10937  0.64633  0.76825  1.0000
  H   H470      1.0  0.07560  0.85011  0.86755  1.0000
  H   H471      1.0  0.19498  0.71609  0.88450  1.0000
  C   C265      1.0  0.01969  0.87655  0.85419  1.0000
  H   H472      1.0  0.08778  0.73481  0.90248  1.0000
  C   C266      1.0  0.18434  0.77490  0.83283  1.0000
  C   C267      1.0  0.17661  0.80268  0.84961  1.0000
  C   C268      1.0  0.14712  0.80702  0.84526  1.0000
  C   C269      1.0  0.12505  0.78351  0.82438  1.0000
  C   C270      1.0  0.13286  0.75550  0.80788  1.0000
  C   C271      1.0  0.16229  0.75131  0.81205  1.0000
  H   H473      1.0  0.19324  0.82119  0.86554  1.0000
  H   H474      1.0  0.14131  0.82899  0.85794  1.0000
  H   H475      1.0  0.11609  0.73773  0.79123  1.0000
  H   H476      1.0  0.16794  0.72999  0.79867  1.0000
  C   C272      1.0  0.16848  0.62658  0.92310  1.0000
  C   C273      1.0  0.32846  0.83745  0.78080  1.0000
  H   H477      1.0  0.19120  0.62527  0.92453  1.0000
  C   C274      1.0  0.17674  0.66172  0.86409  1.0000
  H   H478      1.0  0.07503  0.80960  0.97412  1.0000
  C   C275      1.0  0.01197  0.92995  0.96260  1.0000
  C   C276      1.0  0.10578  0.62108  0.78011  1.0000
  H   H479      1.0  0.09953  0.51873  0.88291  1.0000
  C   C277      1.0  0.14167  0.69461  0.88149  1.0000
  C   C278      1.0  0.00921  0.95333  0.51385  1.0000
  C   C279      1.0  0.99890  0.54337  0.84358  1.0000
  H   H480      1.0  0.02209  0.54118  0.86020  1.0000
  H   H481      1.0  0.12189  0.67868  0.82031  1.0000
  H   H482      1.0  0.02662  0.82365  0.83404  1.0000
  N   N15       1.0  0.14776  0.65892  0.86778  1.0000
  H   H483      1.0  0.05339  0.86347  0.99143  1.0000
  H   H484      1.0  0.09362  0.69619  0.86106  1.0000
  H   H485      1.0  0.17363  0.67354  0.84028  1.0000
  H   H486      1.0  0.18586  0.63369  0.86426  1.0000
  H   H487      1.0  0.25479  0.95360  0.79455  1.0000
  C   C280      1.0  0.12766  0.61975  0.81494  1.0000
  C   C281      1.0  0.10187  0.88182  0.97583  1.0000
  C   C282      1.0  0.20104  0.68651  0.88862  1.0000
  H   H488      1.0  0.27124  0.92767  0.83127  1.0000
  H   H489      1.0  0.15149  0.60025  0.87696  1.0000
  H   H490      1.0  0.08680  0.96821  0.51492  1.0000
  C   C283      1.0  0.27004  0.93101  0.80640  1.0000
  C   C284      1.0  0.16354  0.59289  0.94070  1.0000
  H   H491      1.0  0.12447  0.62170  0.88695  1.0000
  H   H492      1.0  0.14283  0.71813  0.86627  1.0000
  H   H493      1.0  0.02764  0.88989  0.87840  1.0000
  H   H494      1.0  0.14143  0.59350  0.94132  1.0000
  C   C285      1.0  0.11192  0.69707  0.88490  1.0000
  H   H495      1.0  0.23429  0.57198  0.95677  1.0000
  H   H496      1.0  0.12199  0.84693  0.95077  1.0000
  H   H497      1.0  0.11167  0.75732  0.88660  1.0000
  H   H498      1.0  0.00888  0.88338  0.99129  1.0000
  H   H499      1.0  0.11111  0.89180  0.93345  1.0000
  C   C286      1.0  0.16972  0.50744  0.98927  1.0000
  C   C287      1.0  0.12403  0.65328  0.83477  1.0000
  C   C288      1.0  0.00929  0.96848  0.95790  1.0000
  H   H500      1.0  0.15863  0.70067  0.90562  1.0000
  C   C289      1.0  0.03605  0.79056  0.97884  1.0000
  H   H501      1.0  0.09381  0.96523  0.61190  1.0000
  C   C290      1.0  0.23004  0.68214  0.88478  1.0000
  H   H502      1.0  0.03621  0.76394  0.96652  1.0000
  H   H503      1.0  0.15419  0.50804  0.96464  1.0000
  H   H504      1.0  0.23805  0.65344  0.89018  1.0000
  H   H505      1.0  0.31649  0.81773  0.78898  1.0000
  N   N16       1.0  0.21550  0.85043  0.76264  1.0000
  C   C291      1.0  0.18843  0.83906  0.76789  1.0000
  C   C292      1.0  0.23663  0.81873  0.77141  1.0000
  C   C293      1.0  0.22985  0.88195  0.78575  1.0000
  C   C294      1.0  0.20907  0.86308  0.72881  1.0000
  C   C295      1.0  0.18258  0.84459  0.70145  1.0000
  C   C296      1.0  0.16684  0.87056  0.76585  1.0000
  C   C297      1.0  0.26024  0.89482  0.78740  1.0000
  C   C298      1.0  0.22618  0.78219  0.75213  1.0000
  C   C299      1.0  0.24849  0.75165  0.76599  1.0000
  C   C300      1.0  0.18213  0.85457  0.66850  1.0000
  C   C301      1.0  0.13685  0.85519  0.76174  1.0000
  H   H506      1.0  0.02123  0.80980  0.96101  1.0000
  H   H507      1.0  0.19463  0.82689  0.79210  1.0000
  H   H508      1.0  0.17621  0.81664  0.75108  1.0000
  H   H509      1.0  0.25699  0.82644  0.76815  1.0000
  H   H510      1.0  0.24337  0.81243  0.79734  1.0000
  H   H511      1.0  0.23246  0.87444  0.81061  1.0000
  H   H512      1.0  0.21573  0.90673  0.77955  1.0000
  H   H513      1.0  0.20483  0.89334  0.72667  1.0000
  H   H514      1.0  0.22869  0.85949  0.72295  1.0000
  H   H515      1.0  0.16181  0.85421  0.70238  1.0000
  H   H516      1.0  0.18257  0.81414  0.70304  1.0000
  H   H517      1.0  0.17523  0.88724  0.78845  1.0000
  H   H518      1.0  0.16412  0.88938  0.74569  1.0000
  H   H519      1.0  0.26015  0.89904  0.76309  1.0000
  H   H520      1.0  0.27683  0.87390  0.79987  1.0000
  H   H521      1.0  0.20526  0.77201  0.75255  1.0000
  H   H522      1.0  0.22392  0.78611  0.72700  1.0000
  H   H523      1.0  0.24115  0.72624  0.75093  1.0000
  H   H524      1.0  0.27019  0.76020  0.76651  1.0000
  H   H525      1.0  0.25059  0.74492  0.79070  1.0000
  H   H526      1.0  0.16261  0.84181  0.64942  1.0000
  H   H527      1.0  0.18114  0.88501  0.66532  1.0000
  H   H528      1.0  0.20190  0.84402  0.66564  1.0000
  H   H529      1.0  0.13876  0.83648  0.78177  1.0000
  H   H530      1.0  0.12228  0.87823  0.76178  1.0000
  H   H531      1.0  0.12672  0.83970  0.73867  1.0000
  H   H532      1.0  0.17992  0.59283  0.96576  1.0000
  H   H533      1.0  0.32922  0.73557  0.81338  1.0000
  C   C302      1.0  0.12078  0.87667  0.95640  1.0000
  C   C303      1.0  0.03018  0.83594  0.85784  1.0000
  H   H534      1.0  0.01048  0.93725  0.53440  1.0000
  H   H535      1.0  0.01866  0.81855  0.86938  1.0000
  H   H536      1.0  0.01623  0.94706  0.82676  1.0000
  S   S72       1.0  0.00601  0.75559  0.75869  1.0000
  H   H537      1.0  0.06984  0.80469  0.87999  1.0000
  H   H538      1.0  0.13231  0.95332  0.50702  1.0000
  H   H539      1.0  0.07968  0.87120  0.96105  1.0000
  H   H540      1.0  0.23398  0.52372  0.96608  1.0000
  S   S73       1.0  0.01415  0.98821  0.92390  1.0000
  H   H541      1.0  0.26784  0.54593  0.96998  1.0000
  C   C304      1.0  0.07939  0.98074  0.59067  1.0000
  H   H542      1.0  0.06544  0.96061  0.57233  1.0000
  C   C305      1.0  0.00278  0.98984  0.98016  1.0000
  C   C306      1.0  0.00772  0.91303  0.98865  1.0000
  Fe  Fe38      1.0  0.32730  0.76693  0.89672  1.0000
  Fe  Fe39      1.0  0.00827  0.69367  0.75249  1.0000
  H   H543      1.0  0.32153  0.80729  0.73690  1.0000
  C   C307      1.0  0.09374  0.98633  0.49944  1.0000
  C   C308      1.0  0.24694  0.54989  0.97302  1.0000
  H   H544      1.0  0.14318  0.88779  0.96987  1.0000
  C   C309      1.0  0.06702  0.80672  0.99370  1.0000
  H   H545      1.0  0.00509  0.54088  0.79929  1.0000
  H   H546      1.0  0.10041  0.91199  0.97955  1.0000
  H   H547      1.0  0.00214  0.85875  0.90202  1.0000
  H   H548      1.0  0.24217  0.50336  0.90468  1.0000
  H   H549      1.0  0.02756  0.78513  0.99779  1.0000
  S   S74       1.0  0.38160  0.12508  0.40887  1.0000
  Fe  Fe40      1.0  0.36054  0.03367  0.17634  1.0000
  S   S75       1.0  0.40647  0.02917  0.21215  1.0000
  Fe  Fe41      1.0  0.33411  0.10941  0.39575  1.0000
  H   H550      1.0  0.63304  0.28224  0.40879  1.0000
  H   H551      1.0  0.58716  0.25929  0.41606  1.0000
  Fe  Fe42      1.0  0.42023  0.05449  0.17496  1.0000
  S   S76       1.0  0.45811  0.09631  0.19346  1.0000
  S   S77       1.0  0.57994  0.07595  0.42385  1.0000
  S   S78       1.0  0.61952  0.03325  0.37594  1.0000
  C   C310      1.0  0.61462  0.32598  0.42616  1.0000
  H   H552      1.0  0.36173  0.01357  0.32608  1.0000
  H   H553      1.0  0.62722  0.06468  0.01147  1.0000
  Fe  Fe43      1.0  0.54851  0.27742  0.47000  1.0000
  S   S79       1.0  0.50602  0.26737  0.42837  1.0000
  H   H554      1.0  0.55806  0.18892  0.35539  1.0000
  Fe  Fe44      1.0  0.53155  0.35566  0.48430  1.0000
  S   S80       1.0  0.48855  0.35132  0.44196  1.0000
  H   H555      1.0  0.45556  0.44424  0.36597  1.0000
  Fe  Fe45      1.0  0.48572  0.29410  0.45949  1.0000
  S   S81       1.0  0.44202  0.28010  0.46162  1.0000
  Fe  Fe46      1.0  0.51222  0.32506  0.41367  1.0000
  S   S82       1.0  0.49669  0.33011  0.35904  1.0000
  H   H556      1.0  0.58904  0.19852  0.19731  1.0000
  S   S83       1.0  0.55577  0.33427  0.45415  1.0000
  Fe  Fe47      1.0  0.55958  0.30355  0.15835  1.0000
  S   S84       1.0  0.51630  0.31659  0.11955  1.0000
  S   S85       1.0  0.58571  0.26709  0.13875  1.0000
  Fe  Fe48      1.0  0.54385  0.34294  0.20943  1.0000
  S   S86       1.0  0.49959  0.35854  0.17329  1.0000
  S   S87       1.0  0.56153  0.35709  0.26325  1.0000
  Fe  Fe49      1.0  0.49761  0.29956  0.15540  1.0000
  S   S88       1.0  0.45896  0.25884  0.13960  1.0000
  Fe  Fe50      1.0  0.52296  0.37412  0.14057  1.0000
  S   S89       1.0  0.51021  0.42565  0.10764  1.0000
  S   S90       1.0  0.54050  0.28357  0.19291  1.0000
  S   S91       1.0  0.56751  0.36189  0.17804  1.0000
  C   C311      1.0  0.52571  0.45591  0.08682  1.0000
  C   C312      1.0  0.55413  0.45215  0.08801  1.0000
  H   H557      1.0  0.56764  0.43019  0.10198  1.0000
  C   C313      1.0  0.51539  0.33786  0.33310  1.0000
  C   C314      1.0  0.54400  0.35175  0.34420  1.0000
  C   C315      1.0  0.55777  0.35755  0.32254  1.0000
  C   C316      1.0  0.54310  0.34970  0.28953  1.0000
  C   C317      1.0  0.51441  0.33607  0.27844  1.0000
  C   C318      1.0  0.50070  0.33021  0.30010  1.0000
  H   H558      1.0  0.55533  0.35859  0.36933  1.0000
  H   H559      1.0  0.57986  0.36843  0.33135  1.0000
  H   H560      1.0  0.50277  0.33010  0.25313  1.0000
  H   H561      1.0  0.47848  0.31976  0.29113  1.0000
  H   H562      1.0  0.44002  0.15106  0.42698  1.0000
  H   H563      1.0  0.47546  0.25819  0.07038  1.0000
  H   H564      1.0  0.62907  0.12121  0.46682  1.0000
  C   C319      1.0  0.58441  0.19251  0.46762  1.0000
  C   C320      1.0  0.55770  0.17650  0.44778  1.0000
  C   C321      1.0  0.55675  0.14080  0.43468  1.0000
  C   C322      1.0  0.58244  0.12065  0.44127  1.0000
  H   H565      1.0  0.39847  0.01793  0.35584  1.0000
  H   H566      1.0  0.50529  0.17602  0.34450  1.0000
  H   H567      1.0  0.53777  0.19157  0.44271  1.0000
  H   H568      1.0  0.53597  0.12865  0.41944  1.0000
  H   H569      1.0  0.40694  0.15254  0.21098  1.0000
  H   H570      1.0  0.53981  0.05350  0.18070  1.0000
  C   C323      1.0  0.45654  0.14257  0.18001  1.0000
  C   C324      1.0  0.47993  0.16703  0.19621  1.0000
  C   C325      1.0  0.48068  0.20303  0.18472  1.0000
  C   C326      1.0  0.45812  0.21488  0.15667  1.0000
  C   C327      1.0  0.43438  0.19071  0.14104  1.0000
  C   C328      1.0  0.43352  0.15483  0.15265  1.0000
  H   H571      1.0  0.49775  0.15797  0.21753  1.0000
  H   H572      1.0  0.49885  0.22148  0.19731  1.0000
  H   H573      1.0  0.41669  0.19963  0.11950  1.0000
  H   H574      1.0  0.41533  0.13640  0.13996  1.0000
  H   H575      1.0  0.59102  0.27747  0.33510  1.0000
  C   C329      1.0  0.63022  0.25400  0.19725  1.0000
  C   C330      1.0  0.61794  0.24592  0.16439  1.0000
  H   H576      1.0  0.49693  0.02251  0.25035  1.0000
  H   H577      1.0  0.62598  0.22191  0.42823  1.0000
  H   H578      1.0  0.61988  0.27370  0.20742  1.0000
  H   H579      1.0  0.60742  0.07559  0.20106  1.0000
  C   C331      1.0  0.39758  0.16857  0.42334  1.0000
  C   C332      1.0  0.38153  0.19775  0.42822  1.0000
  C   C333      1.0  0.39540  0.23195  0.44001  1.0000
  C   C334      1.0  0.42520  0.23716  0.44654  1.0000
  C   C335      1.0  0.44116  0.20799  0.44154  1.0000
  C   C336      1.0  0.42740  0.17374  0.43018  1.0000
  H   H580      1.0  0.35855  0.19389  0.42315  1.0000
  H   H581      1.0  0.38303  0.25443  0.44410  1.0000
  H   H582      1.0  0.46420  0.21165  0.44691  1.0000
  N   N17       1.0  0.51742  0.16367  0.11826  1.0000
  C   C337      1.0  0.53356  0.18621  0.14832  1.0000
  C   C338      1.0  0.49755  0.18884  0.09281  1.0000
  C   C339      1.0  0.49811  0.13600  0.12586  1.0000
  C   C340      1.0  0.53766  0.14300  0.10638  1.0000
  C   C341      1.0  0.56806  0.16092  0.11309  1.0000
  C   C342      1.0  0.55005  0.16347  0.17888  1.0000
  C   C343      1.0  0.47689  0.11265  0.09718  1.0000
  C   C344      1.0  0.51226  0.22085  0.08199  1.0000
  H   H583      1.0  0.34275  0.30348  0.31550  1.0000
  C   C345      1.0  0.58449  0.13922  0.09640  1.0000
  C   C346      1.0  0.57221  0.18727  0.20534  1.0000
  C   C347      1.0  0.46320  0.08073  0.10869  1.0000
  H   H584      1.0  0.51818  0.20453  0.15377  1.0000
  H   H585      1.0  0.54935  0.20577  0.14488  1.0000
  H   H586      1.0  0.48488  0.17303  0.07048  1.0000
  H   H587      1.0  0.48116  0.20116  0.10116  1.0000
  H   H588      1.0  0.48459  0.15034  0.13689  1.0000
  H   H589      1.0  0.51153  0.11596  0.14395  1.0000
  H   H590      1.0  0.54233  0.11503  0.11721  1.0000
  H   H591      1.0  0.52674  0.13777  0.08005  1.0000
  H   H592      1.0  0.58185  0.16114  0.13915  1.0000
  H   H593      1.0  0.56639  0.18985  0.10494  1.0000
  H   H594      1.0  0.53428  0.15218  0.18848  1.0000
  H   H595      1.0  0.56165  0.13993  0.17358  1.0000
  H   H596      1.0  0.48829  0.10085  0.08260  1.0000
  H   H597      1.0  0.45866  0.12996  0.08154  1.0000
  H   H598      1.0  0.52622  0.23823  0.10254  1.0000
  H   H599      1.0  0.52546  0.20981  0.06913  1.0000
  C   C348      1.0  0.40494  0.02522  0.45320  1.0000
  C   C349      1.0  0.62551  0.09131  0.25246  1.0000
  H   H600      1.0  0.57627  0.02258  0.25234  1.0000
  H   H601      1.0  0.36510  0.12233  0.48218  1.0000
  H   H602      1.0  0.58749  0.11014  0.10463  1.0000
  H   H603      1.0  0.57247  0.13968  0.06995  1.0000
  H   H604      1.0  0.62190  0.12916  0.30336  1.0000
  H   H605      1.0  0.55896  0.37640  0.00317  1.0000
  H   H606      1.0  0.63662  0.00288  0.31581  1.0000
  H   H607      1.0  0.44790  0.06476  0.08771  1.0000
  H   H608      1.0  0.51611  0.08004  0.19397  1.0000
  H   H609      1.0  0.45064  0.09141  0.12248  1.0000
  Fe  Fe51      1.0  0.61831  0.04139  0.42444  1.0000
  C   C350      1.0  0.55977  0.07385  0.23020  1.0000
  H   H610      1.0  0.41942  0.37123  0.45367  1.0000
  S   S92       1.0  0.58674  0.23784  0.48389  1.0000
  H   H611      1.0  0.40899  0.41149  0.35192  1.0000
  C   C351      1.0  0.49787  0.49758  0.15168  1.0000
  H   H612      1.0  0.35156  0.14259  0.28237  1.0000
  H   H613      1.0  0.64531  0.06398  0.22230  1.0000
  C   C352      1.0  0.53359  0.05910  0.20136  1.0000
  H   H614      1.0  0.36973  0.37878  0.34384  1.0000
  H   H615      1.0  0.62228  0.21455  0.12588  1.0000
  H   H616      1.0  0.50092  0.05543  0.31487  1.0000
  S   S93       1.0  0.33113  0.04776  0.39855  1.0000
  H   H617      1.0  0.64570  0.01681  0.06185  1.0000
  H   H618      1.0  0.39240  0.39335  0.39785  1.0000
  N   N18       1.0  0.39243  0.11389  0.30382  1.0000
  C   C353      1.0  0.37994  0.08065  0.31423  1.0000
  C   C354      1.0  0.37344  0.14681  0.30221  1.0000
  C   C355      1.0  0.39054  0.10659  0.27010  1.0000
  C   C356      1.0  0.42403  0.12197  0.32532  1.0000
  C   C357      1.0  0.43462  0.11002  0.36093  1.0000
  C   C358      1.0  0.39215  0.04266  0.30984  1.0000
  C   C359      1.0  0.39838  0.13998  0.25343  1.0000
  C   C360      1.0  0.36801  0.15610  0.33280  1.0000
  H   H619      1.0  0.52465  0.03341  0.20752  1.0000
  C   C361      1.0  0.46562  0.12421  0.38041  1.0000
  C   C362      1.0  0.63527  0.02780  0.27081  1.0000
  H   H620      1.0  0.35597  0.07898  0.30056  1.0000
  H   H621      1.0  0.38242  0.08341  0.33963  1.0000
  H   H622      1.0  0.38293  0.17232  0.29638  1.0000
  H   H623      1.0  0.56682  0.10002  0.22283  1.0000
  H   H624      1.0  0.36810  0.09718  0.25432  1.0000
  H   H625      1.0  0.40510  0.08355  0.26978  1.0000
  H   H626      1.0  0.43900  0.10814  0.31581  1.0000
  H   H627      1.0  0.42902  0.15202  0.32518  1.0000
  H   H628      1.0  0.43499  0.07946  0.36268  1.0000
  H   H629      1.0  0.42035  0.12032  0.37262  1.0000
  H   H630      1.0  0.38191  0.03382  0.28423  1.0000
  H   H631      1.0  0.41611  0.04395  0.31668  1.0000
  H   H632      1.0  0.41883  0.15398  0.26958  1.0000
  H   H633      1.0  0.38047  0.16036  0.24618  1.0000
  H   H634      1.0  0.58223  0.09299  0.33320  1.0000
  H   H635      1.0  0.38881  0.16306  0.35286  1.0000
  H   H636      1.0  0.39321  0.30797  0.39963  1.0000
  C   C363      1.0  0.39557  0.36611  0.44096  1.0000
  H   H637      1.0  0.59802  0.04993  0.30294  1.0000
  H   H638      1.0  0.48097  0.11455  0.36965  1.0000
  H   H639      1.0  0.46612  0.15485  0.38167  1.0000
  H   H640      1.0  0.47313  0.11366  0.40529  1.0000
  H   H641      1.0  0.60675  0.17997  0.40975  1.0000
  H   H642      1.0  0.60572  0.19766  0.35731  1.0000
  H   H643      1.0  0.60642  0.15192  0.10235  1.0000
  C   C364      1.0  0.40197  0.29444  0.34975  1.0000
  H   H644      1.0  0.34821  0.33150  0.00336  1.0000
  H   H645      1.0  0.38381  0.38837  0.44780  1.0000
  C   C365      1.0  0.50823  0.09192  0.28170  1.0000
  C   C366      1.0  0.42622  0.35465  0.35780  1.0000
  C   C367      1.0  0.43095  0.27411  0.36822  1.0000
  H   H646      1.0  0.42131  0.10922  0.22919  1.0000
  H   H647      1.0  0.51922  0.23772  0.32975  1.0000
  C   C368      1.0  0.42725  0.23236  0.36289  1.0000
  H   H648      1.0  0.44706  0.34271  0.37432  1.0000
  C   C369      1.0  0.50489  0.20165  0.35797  1.0000
  H   H649      1.0  0.59520  0.34393  0.41821  1.0000
  H   H650      1.0  0.43894  0.27964  0.39437  1.0000
  H   H651      1.0  0.44800  0.28333  0.35968  1.0000
  H   H652      1.0  0.42816  0.14640  0.49380  1.0000
  H   H653      1.0  0.64742  0.09997  0.27033  1.0000
  C   C370      1.0  0.52659  0.23031  0.35542  1.0000
  H   H654      1.0  0.57101  0.41251  0.03363  1.0000
  H   H655      1.0  0.53139  0.02647  0.28296  1.0000
  H   H656      1.0  0.41092  0.22170  0.37193  1.0000
  H   H657      1.0  0.42026  0.22526  0.33704  1.0000
  H   H658      1.0  0.48020  0.06172  0.12407  1.0000
  C   C371      1.0  0.65099  0.18298  0.41387  1.0000
  C   C372      1.0  0.65743  0.20316  0.17102  1.0000
  C   C373      1.0  0.38518  0.01313  0.32992  1.0000
  H   H659      1.0  0.56281  0.20625  0.39355  1.0000
  H   H660      1.0  0.55195  0.07952  0.24960  1.0000
  H   H661      1.0  0.53920  0.02583  0.34952  1.0000
  C   C374      1.0  0.63155  0.22045  0.15136  1.0000
  C   C375      1.0  0.55255  0.25171  0.27480  1.0000
  C   C376      1.0  0.56511  0.47671  0.07095  1.0000
  C   C377      1.0  0.62206  0.20169  0.40838  1.0000
  C   C378      1.0  0.60915  0.13644  0.46143  1.0000
  H   H662      1.0  0.48255  0.21309  0.34769  1.0000
  C   C379      1.0  0.37270  0.35021  0.33672  1.0000
  N   N19       1.0  0.61394  0.05910  0.26527  1.0000
  C   C380      1.0  0.34450  0.32760  0.33156  1.0000
  C   C381      1.0  0.61270  0.06948  0.29719  1.0000
  H   H663      1.0  0.58631  0.21852  0.30733  1.0000
  C   C382      1.0  0.40833  0.07586  0.49375  1.0000
  H   H664      1.0  0.45129  0.41068  0.33473  1.0000
  H   H665      1.0  0.34462  0.31692  0.35453  1.0000
  C   C383      1.0  0.55809  0.21504  0.36855  1.0000
  H   H666      1.0  0.36974  0.04142  0.46628  1.0000
  H   H667      1.0  0.51012  0.19488  0.38349  1.0000
  H   H668      1.0  0.50812  0.00183  0.35192  1.0000
  H   H669      1.0  0.62646  0.23814  0.37221  1.0000
  H   H670      1.0  0.44835  0.21886  0.37651  1.0000
  C   C384      1.0  0.39367  0.03854  0.47837  1.0000
  C   C385      1.0  0.61007  0.17215  0.47460  1.0000
  C   C386      1.0  0.50870  0.48490  0.06837  1.0000
  N   N20       1.0  0.58158  0.24142  0.36801  1.0000
  H   H671      1.0  0.63427  0.34379  0.43136  1.0000
  H   H672      1.0  0.63460  0.06638  0.31686  1.0000
  H   H673      1.0  0.56114  0.21047  0.21182  1.0000
  H   H674      1.0  0.35705  0.13276  0.33950  1.0000
  H   H675      1.0  0.61658  0.31187  0.44864  1.0000
  C   C387      1.0  0.57318  0.25902  0.33557  1.0000
  H   H676      1.0  0.43384  0.40035  0.39228  1.0000
  N   N21       1.0  0.40061  0.33398  0.36013  1.0000
  S   S94       1.0  0.37421  0.06218  0.13988  1.0000
  H   H677      1.0  0.63083  0.18422  0.49004  1.0000
  C   C388      1.0  0.61232  0.29767  0.40003  1.0000
  H   H678      1.0  0.58703  0.47313  0.07204  1.0000
  H   H679      1.0  0.63962  0.11557  0.18506  1.0000
  H   H680      1.0  0.65923  0.16933  0.43761  1.0000
  H   H681      1.0  0.37382  0.35312  0.31270  1.0000
  C   C389      1.0  0.40244  0.33409  0.39431  1.0000
  C   C390      1.0  0.63754  0.12063  0.20831  1.0000
  H   H682      1.0  0.56602  0.28916  0.38548  1.0000
  H   H683      1.0  0.55434  0.27764  0.33074  1.0000
  C   C391      1.0  0.40247  0.12800  0.22305  1.0000
  H   H684      1.0  0.55044  0.20974  0.30668  1.0000
  H   H685      1.0  0.38985  0.33921  0.44886  1.0000
  C   C392      1.0  0.60385  0.10966  0.30142  1.0000
  H   H686      1.0  0.52529  0.25523  0.36917  1.0000
  H   H687      1.0  0.47162  0.05663  0.27604  1.0000
  H   H688      1.0  0.58414  0.11850  0.28111  1.0000
  H   H689      1.0  0.62111  0.14247  0.20464  1.0000
  H   H690      1.0  0.36299  0.36212  0.39320  1.0000
  H   H691      1.0  0.34515  0.19566  0.35039  1.0000
  H   H692      1.0  0.42568  0.33432  0.41131  1.0000
  H   H693      1.0  0.58885  0.14168  0.33259  1.0000
  H   H694      1.0  0.58314  0.17056  0.22708  1.0000
  H   H695      1.0  0.38251  0.11374  0.20600  1.0000
  C   C393      1.0  0.58562  0.27139  0.39287  1.0000
  H   H696      1.0  0.50614  0.47158  0.16487  1.0000
  H   H697      1.0  0.38430  0.27754  0.35254  1.0000
  H   H698      1.0  0.48676  0.48840  0.06726  1.0000
  H   H699      1.0  0.42613  0.35131  0.33321  1.0000
  C   C394      1.0  0.49578  0.05588  0.28881  1.0000
  H   H700      1.0  0.56752  0.27378  0.27302  1.0000
  H   H701      1.0  0.51926  0.43361  0.01564  1.0000
  H   H702      1.0  0.65894  0.13086  0.22602  1.0000
  Fe  Fe52      1.0  0.37731  0.00458  0.12124  1.0000
  C   C395      1.0  0.65635  0.23711  0.21685  1.0000
  H   H703      1.0  0.50419  0.09353  0.25585  1.0000
  C   C396      1.0  0.62842  0.08488  0.21993  1.0000
  C   C397      1.0  0.50770  0.02165  0.27709  1.0000
  H   H704      1.0  0.61882  0.11159  0.35350  1.0000
  H   H705      1.0  0.35331  0.08001  0.49189  1.0000
  C   C398      1.0  0.58458  0.04534  0.24176  1.0000
  H   H706      1.0  0.39806  0.29305  0.32376  1.0000
  C   C399      1.0  0.59812  0.11410  0.33206  1.0000
  C   C400      1.0  0.42900  0.39639  0.36636  1.0000
  H   H707      1.0  0.50042  0.26899  0.05153  1.0000
  H   H708      1.0  0.63451  0.01643  0.24756  1.0000
  H   H709      1.0  0.35802  0.21421  0.32132  1.0000
  C   C401      1.0  0.38702  0.36583  0.40463  1.0000
  H   H710      1.0  0.47416  0.49388  0.13717  1.0000
  H   H711      1.0  0.58672  0.03254  0.22035  1.0000
  H   H712      1.0  0.53144  0.26408  0.27222  1.0000
  C   C402      1.0  0.45432  0.41422  0.36025  1.0000
  H   H713      1.0  0.61185  0.11604  0.24949  1.0000
  H   H714      1.0  0.54587  0.37721  0.03518  1.0000
  H   H715      1.0  0.47532  0.23041  0.03683  1.0000
  H   H716      1.0  0.49759  0.11583  0.28804  1.0000
  C   C403      1.0  0.56606  0.23176  0.30671  1.0000
  H   H717      1.0  0.61056  0.31309  0.37828  1.0000
  H   H718      1.0  0.47077  0.00479  0.30673  1.0000
  H   H719      1.0  0.42877  0.02022  0.46442  1.0000
  H   H720      1.0  0.54825  0.23176  0.25471  1.0000
  H   H721      1.0  0.53205  0.09391  0.29603  1.0000
  H   H722      1.0  0.64809  0.16151  0.39515  1.0000
  H   H723      1.0  0.47536  0.40170  0.37576  1.0000
  C   C404      1.0  0.60934  0.22029  0.37514  1.0000
  C   C405      1.0  0.48936  0.24603  0.05872  1.0000
  H   H724      1.0  0.39822  0.01651  0.49651  1.0000
  H   H725      1.0  0.40368  0.09531  0.47350  1.0000
  H   H726      1.0  0.65141  0.12411  0.02292  1.0000
  H   H727      1.0  0.40049  0.04593  0.43393  1.0000
  C   C406      1.0  0.34818  0.18949  0.32778  1.0000
  C   C407      1.0  0.55220  0.39471  0.01879  1.0000
  H   H728      1.0  0.65807  0.03813  0.28370  1.0000
  C   C408      1.0  0.52636  0.41833  0.99861  1.0000
  C   C409      1.0  0.40555  0.16889  0.66660  1.0000
  H   H729      1.0  0.41464  0.22369  0.62724  1.0000
  H   H730      1.0  0.59582  0.41950  0.59751  1.0000
  Fe  Fe53      1.0  0.55177  0.24500  0.74667  1.0000
  S   S95       1.0  0.53998  0.25851  0.78869  1.0000
  S   S96       1.0  0.58847  0.26976  0.73403  1.0000
  Fe  Fe54      1.0  0.50618  0.18196  0.72425  1.0000
  S   S97       1.0  0.49196  0.19028  0.76520  1.0000
  S   S98       1.0  0.48687  0.13805  0.68556  1.0000
  Fe  Fe55      1.0  0.49264  0.25072  0.75437  1.0000
  S   S99       1.0  0.45631  0.28770  0.75694  1.0000
  Fe  Fe56      1.0  0.53990  0.19684  0.79526  1.0000
  S   S100      1.0  0.56387  0.17051  0.84372  1.0000
  S   S101      1.0  0.50455  0.24220  0.71163  1.0000
  S   S102      1.0  0.55400  0.18393  0.75507  1.0000
  C   C410      1.0  0.35885  0.30281  0.69079  1.0000
  C   C411      1.0  0.36955  0.31319  0.72324  1.0000
  C   C412      1.0  0.39925  0.30787  0.74313  1.0000
  C   C413      1.0  0.41855  0.29118  0.73122  1.0000
  C   C414      1.0  0.40779  0.28032  0.69888  1.0000
  C   C415      1.0  0.37833  0.28671  0.67876  1.0000
  H   H731      1.0  0.41577  0.10907  0.73200  1.0000
  H   H732      1.0  0.40730  0.31678  0.76798  1.0000
  H   H733      1.0  0.42234  0.26790  0.68922  1.0000
  H   H734      1.0  0.37052  0.27928  0.65360  1.0000
  N   N22       1.0  0.39903  0.09212  0.51915  1.0000
  C   C416      1.0  0.63574  0.34953  0.64325  1.0000
  C   C417      1.0  0.64746  0.28308  0.75267  1.0000
  C   C418      1.0  0.62364  0.28324  0.76214  1.0000
  C   C419      1.0  0.62813  0.29578  0.79303  1.0000
  H   H735      1.0  0.42374  0.19212  0.60163  1.0000
  H   H736      1.0  0.46258  0.17808  0.54324  1.0000
  H   H737      1.0  0.64417  0.27368  0.72874  1.0000
  H   H738      1.0  0.60998  0.29655  0.80053  1.0000
  H   H739      1.0  0.59632  0.32074  0.58976  1.0000
  H   H740      1.0  0.62112  0.34740  0.52561  1.0000
  C   C420      1.0  0.47648  0.44742  0.89166  1.0000
  C   C421      1.0  0.51843  0.42833  0.58964  1.0000
  H   H741      1.0  0.42741  0.48308  0.61540  1.0000
  H   H742      1.0  0.61951  0.05434  0.50977  1.0000
  H   H743      1.0  0.44329  0.38876  0.77774  1.0000
  C   C422      1.0  0.58900  0.04925  0.84250  1.0000
  C   C423      1.0  0.59787  0.06887  0.87151  1.0000
  C   C424      1.0  0.59083  0.10645  0.87170  1.0000
  C   C425      1.0  0.57469  0.12438  0.84285  1.0000
  C   C426      1.0  0.56638  0.10481  0.81386  1.0000
  C   C427      1.0  0.57370  0.06749  0.81368  1.0000
  H   H744      1.0  0.60952  0.05468  0.89364  1.0000
  H   H745      1.0  0.59705  0.12141  0.89418  1.0000
  H   H746      1.0  0.55356  0.11806  0.79156  1.0000
  H   H747      1.0  0.56680  0.05249  0.79110  1.0000
  C   C428      1.0  0.45344  0.03211  0.71519  1.0000
  C   C429      1.0  0.46331  0.06208  0.73656  1.0000
  C   C430      1.0  0.47458  0.09399  0.72803  1.0000
  C   C431      1.0  0.47508  0.09682  0.69751  1.0000
  C   C432      1.0  0.46506  0.06689  0.67589  1.0000
  C   C433      1.0  0.45448  0.03438  0.68481  1.0000
  H   H748      1.0  0.46195  0.06075  0.75973  1.0000
  H   H749      1.0  0.48252  0.11652  0.74502  1.0000
  H   H750      1.0  0.46560  0.06880  0.65228  1.0000
  H   H751      1.0  0.40510  0.19850  0.67330  1.0000
  H   H752      1.0  0.63117  0.11548  0.81633  1.0000
  C   C434      1.0  0.34660  0.20052  0.64811  1.0000
  N   N23       1.0  0.45916  0.39422  0.68075  1.0000
  C   C435      1.0  0.44407  0.35728  0.66943  1.0000
  C   C436      1.0  0.44871  0.41078  0.70510  1.0000
  C   C437      1.0  0.44955  0.41961  0.65217  1.0000
  C   C438      1.0  0.49211  0.39172  0.69430  1.0000
  C   C439      1.0  0.50573  0.35536  0.71159  1.0000
  C   C440      1.0  0.44787  0.34004  0.63977  1.0000
  H   H753      1.0  0.36719  0.14201  0.71160  1.0000
  C   C441      1.0  0.45399  0.38815  0.73566  1.0000
  C   C442      1.0  0.43877  0.40543  0.75584  1.0000
  C   C443      1.0  0.53878  0.35945  0.72934  1.0000
  C   C444      1.0  0.43939  0.29909  0.63567  1.0000
  C   C445      1.0  0.43990  0.18785  0.53060  1.0000
  H   H754      1.0  0.42013  0.35972  0.66315  1.0000
  H   H755      1.0  0.45126  0.33662  0.68886  1.0000
  H   H756      1.0  0.45962  0.43789  0.71411  1.0000
  H   H757      1.0  0.42483  0.41625  0.69348  1.0000
  H   H758      1.0  0.42525  0.41969  0.64022  1.0000
  H   H759      1.0  0.45754  0.40940  0.63380  1.0000
  H   H760      1.0  0.50057  0.39512  0.67497  1.0000
  H   H761      1.0  0.50202  0.41528  0.71118  1.0000
  H   H762      1.0  0.50167  0.33243  0.69389  1.0000
  H   H763      1.0  0.49658  0.34662  0.72916  1.0000
  H   H764      1.0  0.43348  0.35419  0.61762  1.0000
  H   H765      1.0  0.47070  0.34296  0.64162  1.0000
  C   C446      1.0  0.52265  0.41119  0.56350  1.0000
  H   H766      1.0  0.64832  0.13482  0.93781  1.0000
  H   H767      1.0  0.44528  0.35972  0.72971  1.0000
  H   H768      1.0  0.47764  0.38750  0.75092  1.0000
  H   H769      1.0  0.34284  0.08659  0.66375  1.0000
  H   H770      1.0  0.60887  0.12833  0.70716  1.0000
  H   H771      1.0  0.50838  0.39949  0.98377  1.0000
  H   H772      1.0  0.54909  0.36763  0.71254  1.0000
  H   H773      1.0  0.54416  0.38050  0.74886  1.0000
  H   H774      1.0  0.54805  0.33263  0.74020  1.0000
  H   H775      1.0  0.60218  0.01821  0.96867  1.0000
  H   H776      1.0  0.44160  0.28787  0.61382  1.0000
  H   H777      1.0  0.35068  0.10259  0.54061  1.0000
  H   H778      1.0  0.62810  0.16701  0.98876  1.0000
  S   S103      1.0  0.52777  0.29926  0.50307  1.0000
  C   C447      1.0  0.53799  0.42968  0.54767  1.0000
  C   C448      1.0  0.49230  0.43524  0.92711  1.0000
  H   H779      1.0  0.63842  0.21595  0.95565  1.0000
  C   C449      1.0  0.50792  0.09610  0.84920  1.0000
  H   H780      1.0  0.44693  0.01129  0.66816  1.0000
  H   H781      1.0  0.60642  0.14208  0.95208  1.0000
  H   H782      1.0  0.43623  0.13833  0.78538  1.0000
  H   H783      1.0  0.54834  0.28465  0.65334  1.0000
  C   C450      1.0  0.65250  0.11982  0.83657  1.0000
  C   C451      1.0  0.61710  0.07403  0.98624  1.0000
  C   C452      1.0  0.53501  0.44586  0.97751  1.0000
  H   H784      1.0  0.43790  0.41211  0.88060  1.0000
  H   H785      1.0  0.49249  0.45265  0.88059  1.0000
  N   N24       1.0  0.38247  0.14689  0.67292  1.0000
  H   H786      1.0  0.50992  0.06656  0.80881  1.0000
  H   H787      1.0  0.46399  0.47308  0.88945  1.0000
  H   H788      1.0  0.59524  0.30245  0.65039  1.0000
  H   H789      1.0  0.50121  0.12133  0.83439  1.0000
  H   H790      1.0  0.64276  0.01776  0.50690  1.0000
  H   H791      1.0  0.63086  0.34881  0.68970  1.0000
  C   C453      1.0  0.64727  0.35660  0.67984  1.0000
  C   C454      1.0  0.64235  0.04443  0.51908  1.0000
  C   C455      1.0  0.55405  0.31433  0.65286  1.0000
  H   H792      1.0  0.56400  0.32466  0.67805  1.0000
  C   C456      1.0  0.35213  0.15834  0.65104  1.0000
  H   H793      1.0  0.60681  0.10085  0.98655  1.0000
  C   C457      1.0  0.38606  0.10653  0.66691  1.0000
  H   H794      1.0  0.41454  0.13706  0.55425  1.0000
  H   H795      1.0  0.48430  0.46218  0.67161  1.0000
  C   C458      1.0  0.52918  0.46434  0.60030  1.0000
  H   H796      1.0  0.43095  0.08487  0.59044  1.0000
  H   H797      1.0  0.50662  0.02659  0.86721  1.0000
  H   H798      1.0  0.65594  0.06513  0.51297  1.0000
  C   C459      1.0  0.40458  0.16597  0.63196  1.0000
  C   C460      1.0  0.41985  0.15609  0.51193  1.0000
  H   H799      1.0  0.38220  0.16865  0.61351  1.0000
  C   C461      1.0  0.36777  0.10417  0.50285  1.0000
  H   H800      1.0  0.56802  0.47685  0.94523  1.0000
  H   H801      1.0  0.50680  0.41350  0.60175  1.0000
  S   S104      1.0  0.52458  0.48378  0.63469  1.0000
  N   N25       1.0  0.60740  0.36761  0.62285  1.0000
  C   C462      1.0  0.59768  0.35143  0.58930  1.0000
  H   H802      1.0  0.48388  0.46394  0.97982  1.0000
  H   H803      1.0  0.61784  0.16461  0.78729  1.0000
  H   H804      1.0  0.47680  0.05984  0.81551  1.0000
  N   N26       1.0  0.51012  0.46441  0.95107  1.0000
  H   H805      1.0  0.45388  0.28326  0.65666  1.0000
  C   C463      1.0  0.60719  0.14512  0.72700  1.0000
  H   H806      1.0  0.35997  0.21406  0.63648  1.0000
  H   H807      1.0  0.37990  0.03459  0.58816  1.0000
  H   H808      1.0  0.46712  0.39125  0.87205  1.0000
  H   H809      1.0  0.64913  0.13397  0.85667  1.0000
  H   H810      1.0  0.60688  0.48500  0.62095  1.0000
  C   C464      1.0  0.62995  0.23297  0.86359  1.0000
  H   H811      1.0  0.62913  0.00274  0.78938  1.0000
  H   H812      1.0  0.57667  0.04487  0.97902  1.0000
  H   H813      1.0  0.44220  0.11410  0.54642  1.0000
  H   H814      1.0  0.40914  0.09806  0.67984  1.0000
  C   C465      1.0  0.36613  0.07920  0.67563  1.0000
  C   C466      1.0  0.61735  0.36086  0.57071  1.0000
  H   H815      1.0  0.53273  0.01204  0.80458  1.0000
  H   H816      1.0  0.41475  0.40560  0.74213  1.0000
  C   C467      1.0  0.45535  0.41735  0.87152  1.0000
  C   C468      1.0  0.64239  0.41782  0.75554  1.0000
  C   C469      1.0  0.63606  0.17509  0.78125  1.0000
  H   H817      1.0  0.58343  0.43511  0.64182  1.0000
  H   H818      1.0  0.35559  0.02055  0.67268  1.0000
  C   C470      1.0  0.61162  0.40892  0.62083  1.0000
  C   C471      1.0  0.64055  0.07633  0.97149  1.0000
  C   C472      1.0  0.46019  0.46047  0.65901  1.0000
  H   H819      1.0  0.55000  0.46694  0.99399  1.0000
  H   H820      1.0  0.56509  0.30628  0.61206  1.0000
  H   H821      1.0  0.41319  0.13877  0.62850  1.0000
  C   C473      1.0  0.42353  0.19600  0.62590  1.0000
  H   H822      1.0  0.58168  0.05454  0.94243  1.0000
  H   H823      1.0  0.35505  0.32586  0.73290  1.0000
  C   C474      1.0  0.50087  0.06186  0.82738  1.0000
  C   C475      1.0  0.40788  0.07527  0.57849  1.0000
  H   H824      1.0  0.60308  0.38870  0.72431  1.0000
  H   H825      1.0  0.65119  0.04881  0.97644  1.0000
  H   H826      1.0  0.59193  0.13070  0.73574  1.0000
  C   C476      1.0  0.60704  0.43401  0.64650  1.0000
  H   H827      1.0  0.53372  0.32971  0.63970  1.0000
  C   C477      1.0  0.41571  0.14907  0.76705  1.0000
  H   H828      1.0  0.36815  0.14629  0.53882  1.0000
  H   H829      1.0  0.44635  0.19468  0.64386  1.0000
  H   H830      1.0  0.65198  0.16170  0.74334  1.0000
  C   C478      1.0  0.40176  0.06245  0.54358  1.0000
  H   H831      1.0  0.43239  0.07161  0.50380  1.0000
  C   C479      1.0  0.54865  0.46569  0.55832  1.0000
  H   H832      1.0  0.58875  0.37207  0.65892  1.0000
  H   H833      1.0  0.62915  0.07765  0.94499  1.0000
  H   H834      1.0  0.54098  0.45054  0.91366  1.0000
  C   C480      1.0  0.65996  0.20643  0.83426  1.0000
  H   H835      1.0  0.63357  0.41520  0.62080  1.0000
  H   H836      1.0  0.61373  0.37883  0.76634  1.0000
  H   H837      1.0  0.39384  0.09825  0.57954  1.0000
  H   H838      1.0  0.33563  0.14641  0.65937  1.0000
  H   H839      1.0  0.38549  0.18422  0.71171  1.0000
  C   C481      1.0  0.59296  0.04619  0.96785  1.0000
  H   H840      1.0  0.43392  0.15212  0.73157  1.0000
  H   H841      1.0  0.39197  0.03079  0.67563  1.0000
  H   H842      1.0  0.56309  0.37385  0.61897  1.0000
  H   H843      1.0  0.53165  0.09833  0.86389  1.0000
  C   C482      1.0  0.58344  0.35989  0.63471  1.0000
  H   H844      1.0  0.45008  0.47475  0.67382  1.0000
  H   H845      1.0  0.51430  0.38352  0.55581  1.0000
  C   C483      1.0  0.33789  0.35306  0.98523  1.0000
  H   H846      1.0  0.42772  0.15960  0.68227  1.0000
  H   H847      1.0  0.61351  0.22083  0.81322  1.0000
  C   C484      1.0  0.45153  0.48206  0.62782  1.0000
  H   H848      1.0  0.44686  0.43412  0.76325  1.0000
  H   H849      1.0  0.59815  0.17250  0.71738  1.0000
  C   C485      1.0  0.41437  0.13950  0.73355  1.0000
  H   H850      1.0  0.41637  0.29530  0.63303  1.0000
  H   H851      1.0  0.38149  0.10169  0.64107  1.0000
  H   H852      1.0  0.38187  0.04431  0.53503  1.0000
  H   H853      1.0  0.59994  0.20907  0.94562  1.0000
  H   H854      1.0  0.49603  0.09492  0.86547  1.0000
  C   C486      1.0  0.38596  0.15399  0.70716  1.0000
  H   H855      1.0  0.34550  0.34957  0.96533  1.0000
  C   C487      1.0  0.60755  0.33922  0.53906  1.0000
  H   H856      1.0  0.63408  0.31905  0.63912  1.0000
  H   H857      1.0  0.39694  0.13635  0.77091  1.0000
  C   C488      1.0  0.65356  0.03945  0.55543  1.0000
  C   C489      1.0  0.57560  0.31860  0.63650  1.0000
  H   H858      1.0  0.58449  0.34531  0.52408  1.0000
  C   C490      1.0  0.54416  0.48296  0.58421  1.0000
  H   H859      1.0  0.47568  0.42292  0.93511  1.0000
  H   H860      1.0  0.44815  0.48285  0.92830  1.0000
  H   H861      1.0  0.46075  0.46920  0.61149  1.0000
  C   C491      1.0  0.65604  0.30824  0.81406  1.0000
  H   H862      1.0  0.60975  0.30900  0.54336  1.0000
  H   H863      1.0  0.61620  0.39074  0.56497  1.0000
  C   C492      1.0  0.62201  0.38405  0.74718  1.0000
  H   H864      1.0  0.63364  0.35923  0.74420  1.0000
  H   H865      1.0  0.56059  0.48041  0.54648  1.0000
  C   C493      1.0  0.41943  0.12426  0.53462  1.0000
  C   C494      1.0  0.52329  0.49314  0.93647  1.0000
  C   C495      1.0  0.40313  0.04364  0.59817  1.0000
  H   H866      1.0  0.50623  0.41161  0.92634  1.0000
  H   H867      1.0  0.35189  0.21360  0.67200  1.0000
  H   H868      1.0  0.41702  0.01970  0.59830  1.0000
  H   H869      1.0  0.54860  0.43021  0.96730  1.0000
  C   C496      1.0  0.49196  0.48374  0.96643  1.0000
  C   C497      1.0  0.51382  0.02655  0.84682  1.0000
  H   H870      1.0  0.65963  0.40980  0.80615  1.0000
  H   H871      1.0  0.43201  0.20002  0.54831  1.0000
  H   H872      1.0  0.62898  0.20285  0.77067  1.0000
  C   C498      1.0  0.54665  0.47857  0.92455  1.0000
  H   H873      1.0  0.65917  0.31826  0.83779  1.0000
  C   C499      1.0  0.61988  0.19610  0.94504  1.0000
  C   C500      1.0  0.62930  0.20852  0.83562  1.0000
  H   H874      1.0  0.44494  0.42637  0.84620  1.0000
  H   H875      1.0  0.63783  0.26128  0.86155  1.0000
  H   H876      1.0  0.62944  0.44164  0.75780  1.0000
  H   H877      1.0  0.65360  0.35872  0.63592  1.0000
  C   C501      1.0  0.36898  0.03981  0.66485  1.0000
  C   C502      1.0  0.35425  0.12326  0.52446  1.0000
  C   C503      1.0  0.61762  0.47357  0.64543  1.0000
  H   H878      1.0  0.61844  0.42393  0.67116  1.0000
  H   H879      1.0  0.57519  0.36067  0.57424  1.0000
  H   H880      1.0  0.41555  0.17953  0.77034  1.0000
  H   H881      1.0  0.40874  0.05307  0.62326  1.0000
  H   H882      1.0  0.60757  0.23500  0.86327  1.0000
  H   H883      1.0  0.64045  0.35387  0.58456  1.0000
  H   H884      1.0  0.46085  0.00379  0.79966  1.0000
  H   H885      1.0  0.36121  0.03794  0.63830  1.0000
  H   H886      1.0  0.64918  0.42213  0.73523  1.0000
  H   H887      1.0  0.62074  0.18101  0.83822  1.0000
  H   H888      1.0  0.49565  0.00711  0.77936  1.0000
  H   H889      1.0  0.42020  0.04376  0.54608  1.0000
  H   H890      1.0  0.34613  0.14676  0.62639  1.0000
  H   H891      1.0  0.61615  0.19051  0.91953  1.0000
  H   H892      1.0  0.37200  0.07896  0.70193  1.0000
  C   C504      1.0  0.62583  0.16017  0.96397  1.0000
  C   C505      1.0  0.63731  0.14965  0.75407  1.0000
  S   S105      1.0  0.54602  0.40870  0.51594  1.0000
  H   H893      1.0  0.64434  0.22098  0.88681  1.0000
  H   H894      1.0  0.65254  0.06670  0.56630  1.0000
  H   H895      1.0  0.65207  0.49203  0.75418  1.0000
  H   H896      1.0  0.63842  0.01981  0.56006  1.0000
  C   C506      1.0  0.65338  0.14125  0.96348  1.0000
  H   H897      1.0  0.44013  0.20987  0.51371  1.0000
  H   H898      1.0  0.56816  0.49361  0.89269  1.0000
  H   H899      1.0  0.53802  0.03038  0.85762  1.0000
  H   H900      1.0  0.64164  0.47445  0.65250  1.0000
  H   H901      1.0  0.65385  0.38595  0.68550  1.0000
  H   H902      1.0  0.64943  0.06626  0.85659  1.0000
  H   H903      1.0  0.64501  0.12169  0.76308  1.0000
  H   H904      1.0  0.61207  0.49140  0.66230  1.0000
  H   H905      1.0  0.65966  0.00461  0.61152  1.0000
  H   H906      1.0  0.34512  0.38059  0.99683  1.0000
  H   H907      1.0  0.39777  0.16758  0.49934  1.0000
  S   S106      1.0  0.42597  0.92791  0.22150  1.0000
  H   H908      1.0  0.54984  0.94961  0.27665  1.0000
  S   S107      1.0  0.60497  0.93878  0.34243  1.0000
  Fe  Fe57      1.0  0.48569  0.68799  0.25338  1.0000
  S   S108      1.0  0.50277  0.69192  0.21416  1.0000
  S   S109      1.0  0.45086  0.64694  0.25441  1.0000
  Fe  Fe58      1.0  0.52375  0.75360  0.29047  1.0000
  S   S110      1.0  0.54292  0.76256  0.25371  1.0000
  S   S111      1.0  0.53439  0.78980  0.33474  1.0000
  Fe  Fe59      1.0  0.49727  0.75306  0.21792  1.0000
  S   S112      1.0  0.47632  0.78983  0.17513  1.0000
  Fe  Fe60      1.0  0.54753  0.70078  0.25377  1.0000
  S   S113      1.0  0.58846  0.67908  0.24784  1.0000
  S   S114      1.0  0.47765  0.74845  0.25476  1.0000
  S   S115      1.0  0.53094  0.69213  0.29304  1.0000
  C   C507      1.0  0.41282  0.64822  0.22971  1.0000
  C   C508      1.0  0.39300  0.62714  0.23817  1.0000
  C   C509      1.0  0.36286  0.62623  0.21861  1.0000
  C   C510      1.0  0.35215  0.64605  0.19001  1.0000
  C   C511      1.0  0.37195  0.66727  0.18160  1.0000
  C   C512      1.0  0.40202  0.66854  0.20137  1.0000
  H   H909      1.0  0.40106  0.61117  0.25993  1.0000
  H   H910      1.0  0.34801  0.60969  0.22541  1.0000
  H   H911      1.0  0.36401  0.68262  0.15952  1.0000
  H   H912      1.0  0.41698  0.68453  0.19431  1.0000
  C   C513      1.0  0.34395  0.79986  0.08415  1.0000
  H   H913      1.0  0.42608  0.77284  0.08493  1.0000
  H   H914      1.0  0.49370  0.55489  0.16050  1.0000
  C   C514      1.0  0.62304  0.66319  0.27487  1.0000
  C   C515      1.0  0.62830  0.65337  0.30646  1.0000
  C   C516      1.0  0.53599  0.53528  0.19597  1.0000
  H   H915      1.0  0.38334  0.83684  0.06747  1.0000
  H   H916      1.0  0.50061  0.92713  0.27293  1.0000
  H   H917      1.0  0.61102  0.65565  0.31521  1.0000
  C   C517      1.0  0.35222  0.95227  0.01206  1.0000
  H   H918      1.0  0.58380  0.53689  0.27672  1.0000
  H   H919      1.0  0.43182  0.86519  0.04926  1.0000
  C   C518      1.0  0.35202  0.90799  0.22746  1.0000
  H   H920      1.0  0.53457  0.53636  0.25316  1.0000
  C   C519      1.0  0.55266  0.83226  0.33642  1.0000
  C   C520      1.0  0.55637  0.84592  0.30944  1.0000
  C   C521      1.0  0.57249  0.87862  0.31175  1.0000
  C   C522      1.0  0.58450  0.89835  0.34086  1.0000
  C   C523      1.0  0.58005  0.88545  0.36765  1.0000
  C   C524      1.0  0.56426  0.85234  0.36544  1.0000
  H   H921      1.0  0.54691  0.83128  0.28679  1.0000
  H   H922      1.0  0.57583  0.88850  0.29092  1.0000
  H   H923      1.0  0.58914  0.90060  0.39016  1.0000
  H   H924      1.0  0.56132  0.84200  0.38638  1.0000
  C   C525      1.0  0.44159  0.89195  0.20763  1.0000
  C   C526      1.0  0.43444  0.88564  0.17487  1.0000
  C   C527      1.0  0.44578  0.85477  0.16473  1.0000
  C   C528      1.0  0.46456  0.83067  0.18738  1.0000
  C   C529      1.0  0.47267  0.83818  0.22006  1.0000
  C   C530      1.0  0.46081  0.86827  0.23012  1.0000
  H   H925      1.0  0.41955  0.90387  0.15737  1.0000
  H   H926      1.0  0.43955  0.84917  0.13941  1.0000
  H   H927      1.0  0.48786  0.82053  0.23772  1.0000
  H   H928      1.0  0.46647  0.87285  0.25546  1.0000
  C   C531      1.0  0.50299  0.53012  0.17498  1.0000
  N   N27       1.0  0.54406  0.56862  0.21805  1.0000
  H   H929      1.0  0.35899  0.73887  0.20871  1.0000
  C   C532      1.0  0.63113  0.99459  0.29040  1.0000
  C   C533      1.0  0.53032  0.56430  0.24227  1.0000
  C   C534      1.0  0.53301  0.60373  0.19974  1.0000
  C   C535      1.0  0.39988  0.82535  0.01617  1.0000
  H   H930      1.0  0.58372  0.59810  0.24750  1.0000
  C   C536      1.0  0.53947  0.59364  0.26973  1.0000
  H   H931      1.0  0.39219  0.73892  0.04248  1.0000
  C   C537      1.0  0.51969  0.50949  0.05138  1.0000
  H   H932      1.0  0.64667  0.57851  0.37973  1.0000
  C   C538      1.0  0.52403  0.58649  0.29251  1.0000
  H   H933      1.0  0.34307  0.98283  0.46781  1.0000
  C   C539      1.0  0.35728  0.86977  0.21620  1.0000
  H   H934      1.0  0.62995  0.72446  0.33390  1.0000
  H   H935      1.0  0.43747  0.96992  0.32562  1.0000
  C   C540      1.0  0.61841  0.78804  0.30287  1.0000
  C   C541      1.0  0.42701  0.79545  0.06881  1.0000
  H   H936      1.0  0.50889  0.60568  0.19178  1.0000
  C   C542      1.0  0.60278  0.75030  0.35444  1.0000
  H   H937      1.0  0.33450  0.92200  0.20751  1.0000
  H   H938      1.0  0.45525  0.76195  0.31471  1.0000
  C   C543      1.0  0.63682  0.53476  0.11968  1.0000
  C   C544      1.0  0.34250  0.98271  0.49145  1.0000
  H   H939      1.0  0.53349  0.62169  0.25989  1.0000
  H   H940      1.0  0.56330  0.59344  0.28417  1.0000
  C   C545      1.0  0.59214  0.53973  0.25742  1.0000
  H   H941      1.0  0.61347  0.89894  0.01603  1.0000
  H   H942      1.0  0.54584  0.92428  0.22440  1.0000
  H   H943      1.0  0.65160  0.99089  0.01368  1.0000
  H   H944      1.0  0.40205  0.74817  0.20697  1.0000
  H   H945      1.0  0.58883  0.51296  0.24427  1.0000
  H   H946      1.0  0.59750  0.79559  0.23661  1.0000
  H   H947      1.0  0.56491  0.61045  0.17716  1.0000
  H   H948      1.0  0.53128  0.58811  0.15165  1.0000
  H   H949      1.0  0.57056  0.97335  0.37945  1.0000
  H   H950      1.0  0.63471  0.54957  0.25528  1.0000
  N   N28       1.0  0.38738  0.80984  0.23669  1.0000
  C   C546      1.0  0.41682  0.79897  0.26116  1.0000
  C   C547      1.0  0.38711  0.80658  0.20319  1.0000
  C   C548      1.0  0.38268  0.84992  0.24302  1.0000
  C   C549      1.0  0.36294  0.78719  0.23969  1.0000
  H   H951      1.0  0.59698  0.79534  0.30344  1.0000
  C   C550      1.0  0.42164  0.80401  0.29694  1.0000
  H   H952      1.0  0.33653  0.85386  0.20876  1.0000
  H   H953      1.0  0.43164  0.92119  0.31647  1.0000
  C   C551      1.0  0.45219  0.79166  0.31883  1.0000
  H   H954      1.0  0.45777  0.81048  0.04624  1.0000
  H   H955      1.0  0.42152  0.76964  0.25817  1.0000
  H   H956      1.0  0.41801  0.91827  0.01197  1.0000
  H   H957      1.0  0.37847  0.85264  0.26536  1.0000
  N   N29       1.0  0.64053  0.78276  0.33658  1.0000
  C   C552      1.0  0.62503  0.54701  0.27353  1.0000
  H   H958      1.0  0.62485  0.55930  0.12276  1.0000
  C   C553      1.0  0.62576  0.81866  0.28325  1.0000
  H   H959      1.0  0.41980  0.83344  0.30287  1.0000
  H   H960      1.0  0.40564  0.78722  0.30278  1.0000
  H   H961      1.0  0.35544  0.81939  0.03240  1.0000
  C   C554      1.0  0.34488  0.56852  0.46308  1.0000
  H   H962      1.0  0.34151  0.79631  0.22201  1.0000
  H   H963      1.0  0.62852  0.84597  0.29545  1.0000
  C   C555      1.0  0.40499  0.77478  0.19681  1.0000
  H   H964      1.0  0.53981  0.67023  0.17168  1.0000
  C   C556      1.0  0.65591  0.64004  0.32666  1.0000
  H   H965      1.0  0.46913  0.80828  0.31440  1.0000
  H   H966      1.0  0.45535  0.79556  0.34434  1.0000
  H   H967      1.0  0.48562  0.81156  0.10564  1.0000
  C   C557      1.0  0.60130  0.82227  0.25007  1.0000
  N   N30       1.0  0.39821  0.79814  0.04049  1.0000
  C   C558      1.0  0.50254  0.95541  0.26449  1.0000
  H   H968      1.0  0.58443  0.75262  0.33078  1.0000
  H   H969      1.0  0.40286  0.86657  0.24726  1.0000
  C   C559      1.0  0.43682  0.94803  0.30802  1.0000
  H   H970      1.0  0.49998  0.58812  0.27947  1.0000
  C   C560      1.0  0.59742  0.71526  0.37007  1.0000
  H   H971      1.0  0.37208  0.92546  0.23485  1.0000
  H   H972      1.0  0.43156  0.82092  0.08405  1.0000
  H   H973      1.0  0.60741  0.84359  0.23620  1.0000
  S   S116      1.0  0.62199  0.98013  0.43485  1.0000
  C   C561      1.0  0.52642  0.92420  0.23076  1.0000
  H   H974      1.0  0.48306  0.95904  0.24178  1.0000
  H   H975      1.0  0.50620  0.53151  0.03754  1.0000
  C   C562      1.0  0.47346  0.98222  0.29151  1.0000
  H   H976      1.0  0.62962  0.57282  0.28821  1.0000
  H   H977      1.0  0.65898  0.74894  0.29006  1.0000
  C   C563      1.0  0.54094  0.61001  0.17017  1.0000
  H   H978      1.0  0.64559  0.95187  0.26580  1.0000
  H   H979      1.0  0.54827  0.53547  0.17998  1.0000
  C   C564      1.0  0.64569  0.65926  0.26378  1.0000
  H   H980      1.0  0.50080  0.78011  0.08527  1.0000
  C   C565      1.0  0.35301  0.95329  0.04354  1.0000
  H   H981      1.0  0.65966  0.63254  0.35100  1.0000
  H   H982      1.0  0.64186  0.66660  0.23935  1.0000
  H   H983      1.0  0.39668  0.83205  0.19722  1.0000
  H   H984      1.0  0.52681  0.94526  0.32573  1.0000
  H   H985      1.0  0.65927  0.58249  0.42277  1.0000
  S   S117      1.0  0.56287  0.53446  0.02998  1.0000
  H   H986      1.0  0.45163  0.76150  0.04739  1.0000
  H   H987      1.0  0.50613  0.56580  0.23019  1.0000
  H   H988      1.0  0.54180  0.62811  0.21578  1.0000
  H   H989      1.0  0.57606  0.71721  0.37243  1.0000
  H   H990      1.0  0.50664  0.92838  0.20857  1.0000
  H   H991      1.0  0.38598  0.77571  0.09478  1.0000
  H   H992      1.0  0.33311  0.99154  0.22775  1.0000
  H   H993      1.0  0.35880  0.68498  0.06724  1.0000
  S   S118      1.0  0.36704  0.99364  0.06784  1.0000
  Fe  Fe61      1.0  0.62706  0.97344  0.38763  1.0000
  H   H994      1.0  0.49056  0.52430  0.19020  1.0000
  H   H995      1.0  0.43430  0.81515  0.25724  1.0000
  H   H996      1.0  0.34232  0.92322  0.07837  1.0000
  C   C566      1.0  0.63212  0.74859  0.35005  1.0000
  C   C567      1.0  0.33572  0.68662  0.06470  1.0000
  H   H997      1.0  0.46536  0.92187  0.28953  1.0000
  H   H998      1.0  0.61806  0.82445  0.35278  1.0000
  C   C568      1.0  0.39720  0.76878  0.16106  1.0000
  H   H999      1.0  0.59675  0.69055  0.35508  1.0000
  H   H1000     1.0  0.47960  0.76231  0.10660  1.0000
  C   C569      1.0  0.41017  0.86507  0.02908  1.0000
  C   C570      1.0  0.33958  0.72513  0.24177  1.0000
  C   C571      1.0  0.36680  0.78343  0.07323  1.0000
  H   H1001     1.0  0.42848  0.78219  0.20783  1.0000
  S   S119      1.0  0.35924  0.97694  0.15442  1.0000
  H   H1002     1.0  0.41205  0.74803  0.15755  1.0000
  H   H1003     1.0  0.53092  0.60774  0.31197  1.0000
  C   C572      1.0  0.48165  0.78537  0.09148  1.0000
  S   S120      1.0  0.42462  0.99909  0.15436  1.0000
  H   H1004     1.0  0.58076  0.83084  0.25224  1.0000
  H   H1005     1.0  0.53493  0.65066  0.13316  1.0000
  C   C573      1.0  0.52748  0.97521  0.32034  1.0000
  H   H1006     1.0  0.60216  0.77405  0.36978  1.0000
  H   H1007     1.0  0.36246  0.87389  0.19468  1.0000
  H   H1008     1.0  0.50542  0.64827  0.14684  1.0000
  H   H1009     1.0  0.37443  0.75828  0.14927  1.0000
  H   H1010     1.0  0.33502  0.63115  0.08010  1.0000
  Fe  Fe62      1.0  0.40636  0.97486  0.18808  1.0000
  H   H1011     1.0  0.39987  0.79505  0.14990  1.0000
  C   C574      1.0  0.37562  0.81122  0.05263  1.0000
  C   C575      1.0  0.65107  0.96268  0.29053  1.0000
  H   H1012     1.0  0.40618  0.75251  0.01388  1.0000
  H   H1013     1.0  0.38455  0.73273  0.24971  1.0000
  C   C576      1.0  0.45410  0.78796  0.06079  1.0000
  C   C577      1.0  0.52958  0.95485  0.25542  1.0000
  C   C578      1.0  0.57688  0.57139  0.23418  1.0000
  H   H1014     1.0  0.34598  0.54053  0.47338  1.0000
  C   C579      1.0  0.46637  0.94587  0.30521  1.0000
  H   H1015     1.0  0.52472  0.89670  0.24074  1.0000
  H   H1016     1.0  0.52965  0.55884  0.30356  1.0000
  C   C580      1.0  0.64069  0.81676  0.35624  1.0000
  H   H1017     1.0  0.63059  0.52994  0.09354  1.0000
  H   H1018     1.0  0.34016  0.69499  0.23725  1.0000
  C   C581      1.0  0.54929  0.97942  0.38080  1.0000
  H   H1019     1.0  0.39431  0.87818  0.03751  1.0000
  H   H1020     1.0  0.33536  0.69903  0.08710  1.0000
  H   H1021     1.0  0.35266  0.82521  0.09898  1.0000
  H   H1022     1.0  0.33781  0.77943  0.09868  1.0000
  C   C582      1.0  0.52950  0.64707  0.15458  1.0000
  H   H1023     1.0  0.41927  0.95403  0.28435  1.0000
  H   H1024     1.0  0.35573  0.56827  0.44576  1.0000
  H   H1025     1.0  0.48296  0.94036  0.32951  1.0000
  H   H1026     1.0  0.38992  0.98528  0.32292  1.0000
  H   H1027     1.0  0.36423  0.80459  0.18513  1.0000
  C   C583      1.0  0.36345  0.74493  0.23429  1.0000
  H   H1028     1.0  0.34300  0.72938  0.26733  1.0000
  H   H1029     1.0  0.36180  0.79212  0.26346  1.0000
  H   H1030     1.0  0.35715  0.75799  0.05935  1.0000
  H   H1031     1.0  0.62993  0.51012  0.12961  1.0000
  H   H1032     1.0  0.61476  0.71199  0.39438  1.0000
  C   C584      1.0  0.34214  0.92277  0.05439  1.0000
  H   H1033     1.0  0.53924  0.95308  0.38418  1.0000
  H   H1034     1.0  0.58672  0.57193  0.21595  1.0000
  H   H1035     1.0  0.34508  0.90563  0.24794  1.0000
  H   H1036     1.0  0.61424  0.76166  0.28879  1.0000
  C   C585      1.0  0.39029  0.76060  0.02447  1.0000
  H   H1037     1.0  0.60846  0.98365  0.28049  1.0000
  H   H1038     1.0  0.65150  0.79148  0.40383  1.0000
  C   C586      1.0  0.33022  0.89206  0.03383  1.0000
  H   H1039     1.0  0.64604  0.81233  0.27964  1.0000
  H   H1040     1.0  0.64821  0.93992  0.30544  1.0000
  H   H1041     1.0  0.64967  0.74108  0.37334  1.0000
  H   H1042     1.0  0.39366  0.99893  0.44214  1.0000
  C   C587      1.0  0.66264  0.56791  0.40280  1.0000
  H   H1043     1.0  0.53221  0.98140  0.24476  1.0000
  C   C588      1.0  0.63334  0.89916  0.01050  1.0000
  H   H1044     1.0  0.34204  0.76702  0.00378  1.0000
  N   N31       1.0  0.50288  0.98418  0.28906  1.0000
  H   H1045     1.0  0.54894  0.97917  0.31846  1.0000
  H   H1046     1.0  0.63392  0.85384  0.40809  1.0000
  H   H1047     1.0  0.35064  0.69985  0.00497  1.0000
  H   H1048     1.0  0.41405  0.81478  0.00415  1.0000
  H   H1049     1.0  0.35698  0.58821  0.48289  1.0000
  H   H1050     1.0  0.65835  0.53787  0.40386  1.0000
  H   H1051     1.0  0.63563  0.52375  0.28958  1.0000
  H   H1052     1.0  0.64935  0.84107  0.34770  1.0000
  H   H1053     1.0  0.45585  0.98671  0.26745  1.0000
  S   S121      1.0  0.55655  0.64401  0.01075  1.0000
  H   H1054     1.0  0.36043  0.97577  0.00334  1.0000
  C   C589      1.0  0.65666  0.85013  0.41005  1.0000
  C   C590      1.0  0.41259  0.88944  0.00278  1.0000
  C   C591      1.0  0.65903  0.81453  0.39283  1.0000
  C   C592      1.0  0.54801  0.50549  0.05231  1.0000
  H   H1055     1.0  0.55299  0.99782  0.40183  1.0000
  C   C593      1.0  0.52948  0.99821  0.35012  1.0000
  H   H1056     1.0  0.54274  0.50948  0.21004  1.0000
  H   H1057     1.0  0.50903  0.50265  0.13505  1.0000
  C   C594      1.0  0.66051  0.89661  0.04152  1.0000
  H   H1058     1.0  0.66005  0.91999  0.05733  1.0000
  H   H1059     1.0  0.65862  0.87079  0.05350  1.0000
  S   S122      1.0  0.42677  0.88852  0.71753  1.0000
  S   S123      1.0  0.44030  0.92235  0.65827  1.0000
  Fe  Fe63      1.0  0.43936  0.86584  0.67846  1.0000
  S   S124      1.0  0.47842  0.82699  0.69432  1.0000
  Fe  Fe64      1.0  0.42315  0.94358  0.69407  1.0000
  S   S125      1.0  0.62125  0.95987  0.93137  1.0000
  S   S126      1.0  0.62354  0.90810  0.87263  1.0000
  Fe  Fe65      1.0  0.62436  0.96875  0.88367  1.0000
  Fe  Fe66      1.0  0.62464  0.89890  0.92197  1.0000
  S   S127      1.0  0.59187  0.85743  0.92665  1.0000
  Fe  Fe67      1.0  0.57476  0.61101  0.67203  1.0000
  S   S128      1.0  0.53118  0.59618  0.63328  1.0000
  S   S129      1.0  0.60694  0.63745  0.65419  1.0000
  Fe  Fe68      1.0  0.55719  0.58156  0.72516  1.0000
  S   S130      1.0  0.51270  0.56394  0.68998  1.0000
  S   S131      1.0  0.57545  0.57711  0.77980  1.0000
  Fe  Fe69      1.0  0.53554  0.54196  0.65862  1.0000
  H   H1060     1.0  0.40498  0.61020  0.65742  1.0000
  Fe  Fe70      1.0  0.51272  0.61958  0.66763  1.0000
  S   S132      1.0  0.47346  0.65778  0.65132  1.0000
  S   S133      1.0  0.58027  0.55574  0.69592  1.0000
  S   S134      1.0  0.55598  0.63814  0.70436  1.0000
  Fe  Fe71      1.0  0.51209  0.65347  0.97226  1.0000
  H   H1061     1.0  0.61434  0.75616  0.83652  1.0000
  S   S135      1.0  0.48461  0.69615  0.98401  1.0000
  Fe  Fe72      1.0  0.52471  0.60517  0.92345  1.0000
  S   S136      1.0  0.56971  0.59235  0.95890  1.0000
  S   S137      1.0  0.50467  0.58659  0.87094  1.0000
  Fe  Fe73      1.0  0.54878  0.58401  0.99507  1.0000
  H   H1062     1.0  0.50275  0.97418  0.73554  1.0000
  Fe  Fe74      1.0  0.57278  0.65330  0.97131  1.0000
  S   S138      1.0  0.61124  0.69042  0.97419  1.0000
  S   S139      1.0  0.50327  0.59332  0.95836  1.0000
  S   S140      1.0  0.52891  0.66595  0.93408  1.0000
  H   H1063     1.0  0.46687  0.98981  0.83898  1.0000
  C   C595      1.0  0.55524  0.58068  0.80452  1.0000
  C   C596      1.0  0.57029  0.58582  0.83781  1.0000
  C   C597      1.0  0.55510  0.58853  0.85834  1.0000
  C   C598      1.0  0.52465  0.58526  0.84585  1.0000
  C   C599      1.0  0.50962  0.57977  0.81260  1.0000
  C   C600      1.0  0.52479  0.57776  0.79199  1.0000
  H   H1064     1.0  0.59387  0.58741  0.84783  1.0000
  H   H1065     1.0  0.56701  0.59250  0.88389  1.0000
  H   H1066     1.0  0.48614  0.57665  0.80272  1.0000
  H   H1067     1.0  0.51298  0.57323  0.76650  1.0000
  H   H1068     1.0  0.60774  0.65310  0.84638  1.0000
  H   H1069     1.0  0.57108  0.70557  0.62089  1.0000
  H   H1070     1.0  0.59920  0.70595  0.74078  1.0000
  C   C601      1.0  0.59831  0.81165  0.94130  1.0000
  C   C602      1.0  0.57422  0.78913  0.93830  1.0000
  C   C603      1.0  0.57797  0.75235  0.94888  1.0000
  C   C604      1.0  0.60591  0.73747  0.96253  1.0000
  C   C605      1.0  0.63013  0.76018  0.96601  1.0000
  C   C606      1.0  0.62638  0.79715  0.95550  1.0000
  H   H1071     1.0  0.55245  0.80019  0.92774  1.0000
  H   H1072     1.0  0.55918  0.73561  0.94655  1.0000
  H   H1073     1.0  0.37092  0.90823  0.75037  1.0000
  C   C607      1.0  0.56888  0.85549  0.75329  1.0000
  C   C608      1.0  0.47664  0.78030  0.68136  1.0000
  C   C609      1.0  0.45205  0.76544  0.65653  1.0000
  C   C610      1.0  0.45159  0.72811  0.64709  1.0000
  C   C611      1.0  0.47562  0.70525  0.66239  1.0000
  C   C612      1.0  0.50011  0.72012  0.68726  1.0000
  C   C613      1.0  0.50070  0.75746  0.69660  1.0000
  H   H1074     1.0  0.43339  0.78270  0.64454  1.0000
  H   H1075     1.0  0.43242  0.71686  0.62792  1.0000
  H   H1076     1.0  0.51833  0.70254  0.69966  1.0000
  H   H1077     1.0  0.51974  0.76865  0.71592  1.0000
  C   C614      1.0  0.63885  0.67645  0.70973  1.0000
  C   C615      1.0  0.63404  0.66926  0.67766  1.0000
  C   C616      1.0  0.46428  0.50347  0.94368  1.0000
  H   H1078     1.0  0.50625  0.50756  0.91643  1.0000
  H   H1079     1.0  0.62694  0.66081  0.72107  1.0000
  H   H1080     1.0  0.62021  0.66573  0.90007  1.0000
  H   H1081     1.0  0.53249  0.77799  0.65897  1.0000
  H   H1082     1.0  0.58530  0.81575  0.61755  1.0000
  H   H1083     1.0  0.55689  0.53239  0.91003  1.0000
  C   C617      1.0  0.38727  0.70825  0.92341  1.0000
  C   C618      1.0  0.40165  0.67598  0.92083  1.0000
  C   C619      1.0  0.43154  0.67182  0.93941  1.0000
  C   C620      1.0  0.44711  0.69992  0.96073  1.0000
  C   C621      1.0  0.43260  0.73195  0.96371  1.0000
  C   C622      1.0  0.40277  0.73619  0.94499  1.0000
  H   H1084     1.0  0.38967  0.65419  0.90432  1.0000
  H   H1085     1.0  0.44254  0.64690  0.93730  1.0000
  H   H1086     1.0  0.44461  0.75365  0.98031  1.0000
  H   H1087     1.0  0.58806  0.68644  0.81798  1.0000
  H   H1088     1.0  0.53408  0.51558  0.95436  1.0000
  C   C623      1.0  0.58997  0.75440  0.71028  1.0000
  H   H1089     1.0  0.39156  0.88963  0.98155  1.0000
  C   C624      1.0  0.52634  0.79810  0.61260  1.0000
  C   C625      1.0  0.62752  0.64996  0.79940  1.0000
  H   H1090     1.0  0.66233  0.70999  0.75171  1.0000
  H   H1091     1.0  0.63982  0.81235  0.64408  1.0000
  H   H1092     1.0  0.52599  0.66579  0.58178  1.0000
  H   H1093     1.0  0.37507  0.76000  0.69932  1.0000
  H   H1094     1.0  0.35904  0.77337  0.97577  1.0000
  N   N32       1.0  0.41227  0.79017  0.84635  1.0000
  C   C626      1.0  0.38322  0.77168  0.84029  1.0000
  C   C627      1.0  0.41738  0.82066  0.87102  1.0000
  C   C628      1.0  0.41026  0.80815  0.81556  1.0000
  C   C629      1.0  0.43749  0.76356  0.85661  1.0000
  C   C630      1.0  0.43496  0.72865  0.87507  1.0000
  H   H1095     1.0  0.36617  0.91865  0.80257  1.0000
  C   C631      1.0  0.43682  0.83271  0.81794  1.0000
  C   C632      1.0  0.41961  0.80863  0.90456  1.0000
  C   C633      1.0  0.42300  0.84208  0.92663  1.0000
  C   C634      1.0  0.46398  0.70839  0.88842  1.0000
  C   C635      1.0  0.43610  0.65228  0.76014  1.0000
  C   C636      1.0  0.43794  0.83826  0.78507  1.0000
  C   C637      1.0  0.35970  0.75709  0.99670  1.0000
  H   H1096     1.0  0.38377  0.75615  0.86157  1.0000
  H   H1097     1.0  0.43810  0.83588  0.87532  1.0000
  H   H1098     1.0  0.39966  0.84146  0.86187  1.0000
  H   H1099     1.0  0.39054  0.82568  0.80589  1.0000
  H   H1100     1.0  0.40735  0.78681  0.79667  1.0000
  H   H1101     1.0  0.44137  0.75292  0.83544  1.0000
  H   H1102     1.0  0.45814  0.77828  0.87168  1.0000
  H   H1103     1.0  0.41829  0.70907  0.85899  1.0000
  H   H1104     1.0  0.42871  0.73547  0.89533  1.0000
  H   H1105     1.0  0.63855  0.77038  0.62164  1.0000
  H   H1106     1.0  0.38921  0.72816  0.80880  1.0000
  H   H1107     1.0  0.45783  0.82057  0.83375  1.0000
  H   H1108     1.0  0.43497  0.86038  0.82780  1.0000
  H   H1109     1.0  0.39976  0.79330  0.90296  1.0000
  H   H1110     1.0  0.43907  0.79126  0.91618  1.0000
  H   H1111     1.0  0.40426  0.86100  0.91615  1.0000
  H   H1112     1.0  0.42369  0.83255  0.95018  1.0000
  H   H1113     1.0  0.44358  0.85744  0.93062  1.0000
  H   H1114     1.0  0.47219  0.70264  0.86930  1.0000
  H   H1115     1.0  0.48050  0.72513  0.90786  1.0000
  H   H1116     1.0  0.46110  0.68158  0.89864  1.0000
  H   H1117     1.0  0.58470  0.77287  0.59641  1.0000
  C   C638      1.0  0.42149  0.71369  0.73754  1.0000
  H   H1118     1.0  0.53686  0.87511  0.77158  1.0000
  H   H1119     1.0  0.44327  0.81197  0.77587  1.0000
  H   H1120     1.0  0.41658  0.84820  0.76780  1.0000
  H   H1121     1.0  0.45513  0.85901  0.78692  1.0000
  H   H1122     1.0  0.50564  0.93504  0.78212  1.0000
  C   C639      1.0  0.44951  0.52418  0.96276  1.0000
  H   H1123     1.0  0.54818  0.73988  0.59690  1.0000
  H   H1124     1.0  0.36972  0.70514  0.97847  1.0000
  C   C640      1.0  0.52365  0.96060  0.85030  1.0000
  C   C641      1.0  0.35922  0.95656  0.54555  1.0000
  H   H1125     1.0  0.53015  0.50555  0.87800  1.0000
  C   C642      1.0  0.44030  0.63459  0.81606  1.0000
  H   H1126     1.0  0.36916  0.63024  0.64172  1.0000
  C   C643      1.0  0.51348  0.99351  0.79923  1.0000
  H   H1127     1.0  0.38519  0.67976  0.68251  1.0000
  C   C644      1.0  0.34061  0.92132  0.99162  1.0000
  C   C645      1.0  0.42874  0.94209  0.79873  1.0000
  H   H1128     1.0  0.46936  0.52375  0.92832  1.0000
  H   H1129     1.0  0.41607  0.96319  0.78125  1.0000
  H   H1130     1.0  0.53130  0.82812  0.75695  1.0000
  H   H1131     1.0  0.65050  0.93807  0.50771  1.0000
  H   H1132     1.0  0.62664  0.81327  0.60098  1.0000
  H   H1133     1.0  0.55999  0.80965  0.65967  1.0000
  H   H1134     1.0  0.47475  0.65908  0.80524  1.0000
  H   H1135     1.0  0.64937  0.73886  0.85943  1.0000
  S   S141      1.0  0.37566  0.93647  0.66222  1.0000
  S   S142      1.0  0.35030  0.84822  0.70299  1.0000
  N   N33       1.0  0.61358  0.70927  0.86544  1.0000
  N   N34       1.0  0.56722  0.75352  0.64784  1.0000
  H   H1136     1.0  0.46284  0.94051  0.78151  1.0000
  H   H1137     1.0  0.63051  0.62320  0.81211  1.0000
  C   C646      1.0  0.58387  0.71929  0.86470  1.0000
  C   C647      1.0  0.56424  0.68648  0.86662  1.0000
  C   C648      1.0  0.53382  0.69962  0.86223  1.0000
  C   C649      1.0  0.58932  0.73362  0.73929  1.0000
  H   H1138     1.0  0.54735  0.96652  0.85694  1.0000
  H   H1139     1.0  0.64941  0.86973  0.80694  1.0000
  H   H1140     1.0  0.57152  0.73502  0.84255  1.0000
  H   H1141     1.0  0.58599  0.73783  0.88527  1.0000
  C   C650      1.0  0.37154  0.74521  0.81071  1.0000
  H   H1142     1.0  0.57370  0.67311  0.89043  1.0000
  H   H1143     1.0  0.56155  0.66526  0.84788  1.0000
  H   H1144     1.0  0.52309  0.71356  0.83888  1.0000
  H   H1145     1.0  0.52012  0.67542  0.86284  1.0000
  H   H1146     1.0  0.53524  0.71907  0.88193  1.0000
  C   C651      1.0  0.63662  0.82221  0.77608  1.0000
  H   H1147     1.0  0.39178  0.76098  0.94728  1.0000
  S   S143      1.0  0.59484  0.00145  0.84122  1.0000
  H   H1148     1.0  0.52977  0.93883  0.74422  1.0000
  H   H1149     1.0  0.61241  0.78609  0.88583  1.0000
  H   H1150     1.0  0.41242  0.64741  0.75419  1.0000
  H   H1151     1.0  0.46462  0.54510  0.97914  1.0000
  H   H1152     1.0  0.39864  0.79637  0.69617  1.0000
  C   C652      1.0  0.36027  0.95820  0.51491  1.0000
  C   C653      1.0  0.59621  0.76742  0.64864  1.0000
  H   H1153     1.0  0.45219  0.64041  0.84211  1.0000
  H   H1154     1.0  0.58559  0.70715  0.67889  1.0000
  C   C654      1.0  0.60927  0.68181  0.83840  1.0000
  C   C655      1.0  0.65002  0.68915  0.66329  1.0000
  C   C656      1.0  0.51009  0.83289  0.61509  1.0000
  S   S144      1.0  0.34761  0.82277  0.91318  1.0000
  C   C657      1.0  0.51885  0.95533  0.88191  1.0000
  C   C658      1.0  0.33142  0.83155  0.75130  1.0000
  C   C659      1.0  0.45066  0.66141  0.79663  1.0000
  H   H1155     1.0  0.65088  0.93171  0.76577  1.0000
  C   C660      1.0  0.34761  0.71939  0.81212  1.0000
  C   C661      1.0  0.53563  0.92211  0.90031  1.0000
  S   S145      1.0  0.34996  0.71261  0.89937  1.0000
  C   C662      1.0  0.65883  0.70428  0.72697  1.0000
  H   H1156     1.0  0.55933  0.92609  0.90634  1.0000
  C   C663      1.0  0.34704  0.85682  0.74025  1.0000
  H   H1157     1.0  0.52566  0.85613  0.62594  1.0000
  H   H1158     1.0  0.33914  0.70156  0.79026  1.0000
  H   H1159     1.0  0.65186  0.74902  0.97667  1.0000
  C   C664      1.0  0.35947  0.88821  0.75896  1.0000
  H   H1160     1.0  0.60691  0.78656  0.66930  1.0000
  H   H1161     1.0  0.36613  0.79291  0.83669  1.0000
  S   S146      1.0  0.39307  0.85371  0.64521  1.0000
  H   H1162     1.0  0.41612  0.73416  0.68939  1.0000
  H   H1163     1.0  0.49545  0.95071  0.87712  1.0000
  C   C665      1.0  0.57326  0.73271  0.67856  1.0000
  C   C666      1.0  0.55434  0.72617  0.62039  1.0000
  H   H1164     1.0  0.56659  0.73022  0.73761  1.0000
  H   H1165     1.0  0.54052  0.65525  0.76777  1.0000
  H   H1166     1.0  0.61428  0.94478  0.80645  1.0000
  C   C667      1.0  0.52743  0.70374  0.62001  1.0000
  C   C668      1.0  0.63229  0.68221  0.82296  1.0000
  C   C669      1.0  0.63056  0.69229  0.89761  1.0000
  H   H1167     1.0  0.44473  0.60559  0.81132  1.0000
  H   H1168     1.0  0.64653  0.68350  0.63853  1.0000
  H   H1169     1.0  0.36199  0.76158  0.78841  1.0000
  H   H1170     1.0  0.43001  0.53867  0.94603  1.0000
  H   H1171     1.0  0.53227  0.91904  0.92304  1.0000
  H   H1172     1.0  0.64460  0.91257  0.71799  1.0000
  C   C670      1.0  0.63311  0.88543  0.71235  1.0000
  H   H1173     1.0  0.51965  0.93333  0.83787  1.0000
  N   N35       1.0  0.44018  0.68087  0.73802  1.0000
  H   H1174     1.0  0.53460  0.68182  0.63840  1.0000
  H   H1175     1.0  0.60868  0.85403  0.66857  1.0000
  C   C671      1.0  0.47155  0.69365  0.74936  1.0000
  C   C672      1.0  0.43141  0.66369  0.70505  1.0000
  C   C673      1.0  0.39853  0.65444  0.68704  1.0000
  C   C674      1.0  0.42076  0.74491  0.71389  1.0000
  C   C675      1.0  0.49382  0.66308  0.75125  1.0000
  Fe  Fe75      1.0  0.39278  0.91201  0.62690  1.0000
  C   C676      1.0  0.39283  0.63645  0.65442  1.0000
  H   H1176     1.0  0.63319  0.52588  0.79024  1.0000
  C   C677      1.0  0.52519  0.67692  0.76874  1.0000
  H   H1177     1.0  0.62822  0.81416  0.75041  1.0000
  H   H1178     1.0  0.49710  0.82765  0.62988  1.0000
  H   H1179     1.0  0.47847  0.70813  0.77300  1.0000
  H   H1180     1.0  0.47406  0.71467  0.73282  1.0000
  H   H1181     1.0  0.43825  0.68163  0.68941  1.0000
  H   H1182     1.0  0.44332  0.63744  0.70633  1.0000
  H   H1183     1.0  0.39084  0.63497  0.70098  1.0000
  H   H1184     1.0  0.54327  0.94786  0.80254  1.0000
  H   H1185     1.0  0.44197  0.76011  0.72248  1.0000
  H   H1186     1.0  0.54104  0.98605  0.75628  1.0000
  H   H1187     1.0  0.49128  0.65415  0.72674  1.0000
  H   H1188     1.0  0.49072  0.63856  0.76403  1.0000
  C   C678      1.0  0.47339  0.98392  0.81851  1.0000
  H   H1189     1.0  0.49269  0.66798  0.58867  1.0000
  H   H1190     1.0  0.39973  0.65536  0.63934  1.0000
  H   H1191     1.0  0.65295  0.83011  0.89761  1.0000
  C   C679      1.0  0.65194  0.53688  0.78531  1.0000
  H   H1192     1.0  0.52929  0.70229  0.75744  1.0000
  H   H1193     1.0  0.52952  0.68291  0.79422  1.0000
  C   C680      1.0  0.62021  0.88102  0.67581  1.0000
  N   N36       1.0  0.61834  0.88922  0.76145  1.0000
  C   C681      1.0  0.60884  0.88247  0.72581  1.0000
  C   C682      1.0  0.59257  0.88518  0.77119  1.0000
  C   C683      1.0  0.62958  0.92870  0.76831  1.0000
  H   H1194     1.0  0.44433  0.62486  0.75634  1.0000
  H   H1195     1.0  0.60203  0.74932  0.76161  1.0000
  H   H1196     1.0  0.58032  0.78197  0.70991  1.0000
  C   C684      1.0  0.52166  0.95767  0.78570  1.0000
  H   H1197     1.0  0.52696  0.97981  0.89799  1.0000
  C   C685      1.0  0.54813  0.84913  0.77040  1.0000
  H   H1198     1.0  0.53810  0.80411  0.59686  1.0000
  H   H1199     1.0  0.39960  0.78392  0.73495  1.0000
  H   H1200     1.0  0.64514  0.81423  0.95811  1.0000
  H   H1201     1.0  0.59126  0.90215  0.71245  1.0000
  H   H1202     1.0  0.59886  0.85463  0.71858  1.0000
  C   C686      1.0  0.51118  0.68463  0.58762  1.0000
  H   H1203     1.0  0.58023  0.91150  0.76704  1.0000
  H   H1204     1.0  0.61422  0.94769  0.75053  1.0000
  H   H1205     1.0  0.63792  0.88222  0.66667  1.0000
  H   H1206     1.0  0.60523  0.65063  0.78024  1.0000
  H   H1207     1.0  0.50957  0.77655  0.60043  1.0000
  H   H1208     1.0  0.60042  0.88022  0.79749  1.0000
  H   H1209     1.0  0.65079  0.92798  0.82123  1.0000
  H   H1210     1.0  0.49486  0.84113  0.59077  1.0000
  H   H1211     1.0  0.61327  0.75807  0.71404  1.0000
  H   H1212     1.0  0.47243  0.92288  0.82157  1.0000
  H   H1213     1.0  0.42526  0.94554  0.82139  1.0000
  H   H1214     1.0  0.64685  0.76543  0.91010  1.0000
  C   C687      1.0  0.59597  0.78868  0.61901  1.0000
  H   H1215     1.0  0.39864  0.70463  0.73241  1.0000
  C   C688      1.0  0.46113  0.94521  0.80488  1.0000
  C   C689      1.0  0.34026  0.98013  0.55251  1.0000
  Fe  Fe76      1.0  0.38043  0.87944  0.68376  1.0000
  H   H1216     1.0  0.62963  0.71013  0.91730  1.0000
  H   H1217     1.0  0.42033  0.91446  0.78839  1.0000
  C   C690      1.0  0.52397  0.96473  0.75349  1.0000
  H   H1218     1.0  0.44557  0.68971  0.80218  1.0000
  C   C691      1.0  0.62713  0.79660  0.62171  1.0000
  H   H1219     1.0  0.50230  0.70534  0.56836  1.0000
  C   C692      1.0  0.54708  0.78516  0.64636  1.0000
  H   H1220     1.0  0.41657  0.63764  0.81008  1.0000
  N   N37       1.0  0.50578  0.99029  0.82838  1.0000
  H   H1221     1.0  0.37799  0.82843  0.99650  1.0000
  S   S147      1.0  0.38168  0.92417  0.57368  1.0000
  H   H1222     1.0  0.62080  0.81399  0.78667  1.0000
  H   H1223     1.0  0.57820  0.82854  0.75112  1.0000
  H   H1224     1.0  0.63198  0.87513  0.99453  1.0000
  H   H1225     1.0  0.55560  0.86494  0.72859  1.0000
  H   H1226     1.0  0.55252  0.72304  0.67973  1.0000
  H   H1227     1.0  0.56022  0.83893  0.79509  1.0000
  H   H1228     1.0  0.42909  0.72711  0.76162  1.0000
  H   H1229     1.0  0.60473  0.90361  0.66455  1.0000
  C   C693      1.0  0.39711  0.77287  0.71108  1.0000
  H   H1230     1.0  0.52808  0.89624  0.88592  1.0000
  H   H1231     1.0  0.61128  0.74381  0.65245  1.0000
  H   H1232     1.0  0.44244  0.50462  0.97723  1.0000
  H   H1233     1.0  0.51189  0.72156  0.62546  1.0000
  C   C694      1.0  0.63472  0.94452  0.80214  1.0000
  C   C695      1.0  0.35654  0.89414  0.78842  1.0000
  C   C696      1.0  0.64288  0.86423  0.78085  1.0000
  H   H1234     1.0  0.64369  0.90145  0.55065  1.0000
  H   H1235     1.0  0.35632  0.70135  0.83346  1.0000
  H   H1236     1.0  0.55264  0.51059  0.59193  1.0000
  C   C697      1.0  0.64608  0.98441  0.80582  1.0000
  H   H1237     1.0  0.64335  0.55659  0.76516  1.0000
  C   C698      1.0  0.35255  0.71687  0.98557  1.0000
  H   H1238     1.0  0.65486  0.68069  0.84111  1.0000
  C   C699      1.0  0.62782  0.74439  0.86035  1.0000
  H   H1239     1.0  0.64357  0.65176  0.78792  1.0000
  H   H1240     1.0  0.63049  0.70804  0.80923  1.0000
  C   C700      1.0  0.63324  0.77548  0.88583  1.0000
  H   H1241     1.0  0.64941  0.86335  0.72236  1.0000
  H   H1242     1.0  0.66042  0.93255  0.63823  1.0000
  H   H1243     1.0  0.65523  0.97377  0.65824  1.0000
  S   S148      1.0  0.43979  0.99272  0.72760  1.0000
  H   H1244     1.0  0.34003  0.92116  0.96748  1.0000
  H   H1245     1.0  0.33898  0.97903  0.57581  1.0000
  H   H1246     1.0  0.65147  0.99420  0.83082  1.0000
  H   H1247     1.0  0.63655  0.82023  0.85519  1.0000
  H   H1248     1.0  0.37462  0.93988  0.50911  1.0000
  H   H1249     1.0  0.46024  0.51082  0.63324  1.0000
  H   H1250     1.0  0.50574  0.50443  0.98444  1.0000
  H   H1251     1.0  0.43007  0.87936  0.99537  1.0000
  H   H1252     1.0  0.65910  0.76995  0.78909  1.0000
  C   C701      1.0  0.64941  0.80831  0.87902  1.0000
  C   C702      1.0  0.34110  0.86883  0.79958  1.0000
  S   S149      1.0  0.33883  0.87745  0.83732  1.0000
  C   C703      1.0  0.55064  0.50414  0.89982  1.0000
  H   H1253     1.0  0.66283  0.87049  0.77619  1.0000
  H   H1254     1.0  0.33149  0.71534  0.96442  1.0000
  H   H1255     1.0  0.63381  0.92506  0.99773  1.0000
  Fe  Fe77      1.0  0.77810  0.11644  0.20444  1.0000
  S   S150      1.0  0.76065  0.05748  0.19694  1.0000
  S   S151      1.0  0.81947  0.13730  0.19852  1.0000
  Fe  Fe78      1.0  0.72286  0.14575  0.21070  1.0000
  S   S152      1.0  0.70156  0.08991  0.20282  1.0000
  S   S153      1.0  0.70340  0.19254  0.22882  1.0000
  Fe  Fe79      1.0  0.74489  0.07044  0.23656  1.0000
  S   S154      1.0  0.74490  0.03190  0.27605  1.0000
  Fe  Fe80      1.0  0.71827  0.08183  0.16356  1.0000
  S   S155      1.0  0.68439  0.05587  0.11765  1.0000
  S   S156      1.0  0.76592  0.12680  0.24668  1.0000
  S   S157      1.0  0.73608  0.14012  0.16871  1.0000
  C   C704      1.0  0.79445  0.05586  0.39542  1.0000
  H   H1256     1.0  0.86672  0.46659  0.23006  1.0000
  H   H1257     1.0  0.66756  0.20366  0.41366  1.0000
  S   S158      1.0  0.95416  0.15296  0.29281  1.0000
  C   C705      1.0  0.97303  0.39833  0.32540  1.0000
  S   S159      1.0  0.86931  0.46904  0.13857  1.0000
  S   S160      1.0  0.66650  0.05310  0.44791  1.0000
  C   C706      1.0  0.69550  0.14318  0.03534  1.0000
  H   H1258     1.0  0.71059  0.01014  0.36279  1.0000
  H   H1259     1.0  0.76353  0.09096  0.36250  1.0000
  H   H1260     1.0  0.74652  0.49392  0.47071  1.0000
  S   S161      1.0  0.94271  0.43083  0.20236  1.0000
  H   H1261     1.0  0.73560  0.05163  0.10098  1.0000
  H   H1262     1.0  0.78774  0.07102  0.43880  1.0000
  C   C707      1.0  0.73456  0.44960  0.19141  1.0000
  H   H1263     1.0  0.86180  0.08392  0.40060  1.0000
  C   C708      1.0  0.83108  0.08285  0.32382  1.0000
  C   C709      1.0  0.97401  0.06802  0.23305  1.0000
  H   H1264     1.0  0.94052  0.50172  0.29138  1.0000
  H   H1265     1.0  0.87520  0.15982  0.43467  1.0000
  C   C710      1.0  0.95390  0.37157  0.16987  1.0000
  C   C711      1.0  0.95672  0.38707  0.19934  1.0000
  H   H1266     1.0  0.88712  0.41228  0.30649  1.0000
  H   H1267     1.0  0.93013  0.07895  0.23090  1.0000
  H   H1268     1.0  0.79346  0.05817  0.32935  1.0000
  H   H1269     1.0  0.94331  0.38688  0.14800  1.0000
  H   H1270     1.0  0.71654  0.13365  0.03509  1.0000
  H   H1271     1.0  0.82124  0.46133  0.46001  1.0000
  H   H1272     1.0  0.98970  0.40236  0.35012  1.0000
  H   H1273     1.0  0.72753  0.42324  0.19881  1.0000
  H   H1274     1.0  0.91734  0.40081  0.28272  1.0000
  C   C712      1.0  0.70010  0.14872  0.07056  1.0000
  H   H1275     1.0  0.71809  0.16903  0.08222  1.0000
  C   C713      1.0  0.78561  0.13093  0.33299  1.0000
  C   C714      1.0  0.85654  0.14247  0.22589  1.0000
  C   C715      1.0  0.86670  0.12905  0.25723  1.0000
  C   C716      1.0  0.89656  0.13276  0.27749  1.0000
  C   C717      1.0  0.91647  0.15065  0.26699  1.0000
  C   C718      1.0  0.90616  0.16477  0.23591  1.0000
  C   C719      1.0  0.87653  0.16013  0.21540  1.0000
  H   H1276     1.0  0.85167  0.11530  0.26561  1.0000
  H   H1277     1.0  0.90429  0.12163  0.30144  1.0000
  H   H1278     1.0  0.92119  0.17832  0.22736  1.0000
  H   H1279     1.0  0.86915  0.16979  0.19106  1.0000
  C   C720      1.0  0.72662  0.04481  0.30121  1.0000
  C   C721      1.0  0.86345  0.45050  0.32334  1.0000
  C   C722      1.0  0.71165  0.02970  0.34530  1.0000
  C   C723      1.0  0.70090  0.06537  0.34478  1.0000
  C   C724      1.0  0.70256  0.09046  0.32196  1.0000
  C   C725      1.0  0.71475  0.07999  0.29981  1.0000
  H   H1280     1.0  0.87038  0.39555  0.24677  1.0000
  H   H1281     1.0  0.78634  0.18352  0.35841  1.0000
  N   N38       1.0  0.90830  0.45837  0.26908  1.0000
  H   H1282     1.0  0.71565  0.09946  0.28217  1.0000
  H   H1283     1.0  0.89747  0.11926  0.44579  1.0000
  H   H1284     1.0  0.96022  0.37285  0.32493  1.0000
  C   C726      1.0  0.87453  0.43785  0.29783  1.0000
  H   H1285     1.0  0.78779  0.11516  0.39691  1.0000
  H   H1286     1.0  0.84560  0.10214  0.42719  1.0000
  N   N39       1.0  0.80475  0.10666  0.35986  1.0000
  H   H1287     1.0  0.76085  0.48626  0.43069  1.0000
  H   H1288     1.0  0.93428  0.33306  0.25687  1.0000
  C   C727      1.0  0.74559  0.50158  0.40987  1.0000
  H   H1289     1.0  0.94349  0.43565  0.33394  1.0000
  C   C728      1.0  0.85434  0.10930  0.40881  1.0000
  Fe  Fe81      1.0  0.91826  0.46682  0.15965  1.0000
  H   H1290     1.0  0.89393  0.39188  0.22541  1.0000
  C   C729      1.0  0.75007  0.18378  0.31308  1.0000
  H   H1291     1.0  0.73249  0.16504  0.29719  1.0000
  C   C730      1.0  0.87282  0.42219  0.01386  1.0000
  H   H1292     1.0  0.97277  0.06564  0.28042  1.0000
  H   H1293     1.0  0.69442  0.11817  0.32141  1.0000
  H   H1294     1.0  0.97395  0.37944  0.25053  1.0000
  C   C731      1.0  0.67009  0.21188  0.20375  1.0000
  H   H1295     1.0  0.74153  0.02581  0.05282  1.0000
  H   H1296     1.0  0.70609  0.12227  0.08373  1.0000
  C   C732      1.0  0.92907  0.42667  0.28182  1.0000
  S   S162      1.0  0.68648  0.08026  0.37297  1.0000
  H   H1297     1.0  0.93995  0.42053  0.26500  1.0000
  H   H1298     1.0  0.93160  0.21304  0.14203  1.0000
  H   H1299     1.0  0.93452  0.08440  0.19344  1.0000
  C   C733      1.0  0.83084  0.12952  0.38072  1.0000
  C   C734      1.0  0.94523  0.08882  0.21980  1.0000
  S   S163      1.0  0.92343  0.47508  0.11291  1.0000
  C   C735      1.0  0.97770  0.31546  0.19682  1.0000
  H   H1300     1.0  0.81737  0.03316  0.29384  1.0000
  H   H1301     1.0  0.96190  0.32371  0.14575  1.0000
  C   C736      1.0  0.95325  0.43202  0.31586  1.0000
  H   H1302     1.0  0.82883  0.49960  0.18539  1.0000
  H   H1303     1.0  0.85212  0.09674  0.33838  1.0000
  H   H1304     1.0  0.85519  0.41291  0.17590  1.0000
  H   H1305     1.0  0.83142  0.42232  0.19679  1.0000
  H   H1306     1.0  0.84596  0.38383  0.10975  1.0000
  C   C737      1.0  0.96452  0.33589  0.16865  1.0000
  C   C738      1.0  0.69024  0.03615  0.08471  1.0000
  C   C739      1.0  0.88631  0.44926  0.23561  1.0000
  C   C740      1.0  0.87611  0.40830  0.22786  1.0000
  C   C741      1.0  0.84534  0.43044  0.01371  1.0000
  C   C742      1.0  0.72056  0.02366  0.05474  1.0000
  H   H1307     1.0  0.75644  0.15325  0.35542  1.0000
  H   H1308     1.0  0.82652  0.05405  0.36285  1.0000
  H   H1309     1.0  0.90917  0.47940  0.31444  1.0000
  H   H1310     1.0  0.94082  0.48385  0.25465  1.0000
  H   H1311     1.0  0.76250  0.19495  0.29929  1.0000
  H   H1312     1.0  0.85484  0.35322  0.08307  1.0000
  S   S164      1.0  0.98412  0.24936  0.27589  1.0000
  H   H1313     1.0  0.81873  0.10070  0.30336  1.0000
  H   H1314     1.0  0.80785  0.48380  0.22562  1.0000
  H   H1315     1.0  0.85496  0.43170  0.27574  1.0000
  H   H1316     1.0  0.88198  0.45634  0.34652  1.0000
  H   H1317     1.0  0.90010  0.32350  0.26103  1.0000
  C   C743      1.0  0.89314  0.46852  0.29109  1.0000
  H   H1318     1.0  0.79844  0.14407  0.32042  1.0000
  C   C744      1.0  0.88121  0.13408  0.42529  1.0000
  H   H1319     1.0  0.84157  0.14263  0.36589  1.0000
  H   H1320     1.0  0.84951  0.42845  0.32719  1.0000
  C   C745      1.0  0.77015  0.16320  0.34269  1.0000
  S   S165      1.0  0.84092  0.45350  0.04654  1.0000
  H   H1321     1.0  0.89226  0.43038  0.03423  1.0000
  C   C746      1.0  0.71729  0.03830  0.08209  1.0000
  H   H1322     1.0  0.93084  0.29372  0.27930  1.0000
  C   C747      1.0  0.78700  0.09387  0.37864  1.0000
  H   H1323     1.0  0.87816  0.39217  0.10168  1.0000
  H   H1324     1.0  0.78672  0.03331  0.37707  1.0000
  C   C748      1.0  0.81338  0.07400  0.34464  1.0000
  C   C749      1.0  0.98147  0.33171  0.22632  1.0000
  H   H1325     1.0  0.72960  0.44789  0.16528  1.0000
  Fe  Fe82      1.0  0.66789  0.04075  0.39950  1.0000
  H   H1326     1.0  0.85055  0.05446  0.29474  1.0000
  C   C750      1.0  0.83447  0.48599  0.46902  1.0000
  H   H1327     1.0  0.76842  0.11381  0.31450  1.0000
  C   C751      1.0  0.84943  0.40473  0.19629  1.0000
  H   H1328     1.0  0.96844  0.00357  0.27606  1.0000
  C   C752      1.0  0.72487  0.01972  0.32396  1.0000
  H   H1329     1.0  0.78347  0.02238  0.42889  1.0000
  Fe  Fe83      1.0  0.87441  0.48118  0.09193  1.0000
  H   H1330     1.0  0.73970  0.20719  0.32045  1.0000
  H   H1331     1.0  0.84145  0.37565  0.19234  1.0000
  N   N40       1.0  0.87877  0.28846  0.16617  1.0000
  C   C753      1.0  0.86298  0.31592  0.14033  1.0000
  C   C754      1.0  0.85729  0.26114  0.17050  1.0000
  C   C755      1.0  0.89327  0.30994  0.19725  1.0000
  C   C756      1.0  0.90229  0.26844  0.15947  1.0000
  C   C757      1.0  0.89277  0.24738  0.12710  1.0000
  C   C758      1.0  0.88205  0.34656  0.13399  1.0000
  C   C759      1.0  0.90915  0.28666  0.22767  1.0000
  C   C760      1.0  0.82954  0.25094  0.14040  1.0000
  C   C761      1.0  0.81273  0.21858  0.14692  1.0000
  C   C762      1.0  0.91931  0.23198  0.12226  1.0000
  C   C763      1.0  0.86404  0.37023  0.10541  1.0000
  C   C764      1.0  0.91913  0.31089  0.25798  1.0000
  H   H1332     1.0  0.84588  0.33000  0.14633  1.0000
  H   H1333     1.0  0.85107  0.30187  0.11693  1.0000
  H   H1334     1.0  0.86848  0.23501  0.18098  1.0000
  H   H1335     1.0  0.84875  0.27192  0.18829  1.0000
  H   H1336     1.0  0.87687  0.32721  0.20181  1.0000
  H   H1337     1.0  0.91019  0.32933  0.19581  1.0000
  H   H1338     1.0  0.92026  0.28781  0.16126  1.0000
  H   H1339     1.0  0.91277  0.24754  0.17826  1.0000
  H   H1340     1.0  0.88125  0.26552  0.10653  1.0000
  H   H1341     1.0  0.87854  0.22352  0.12686  1.0000
  H   H1342     1.0  0.89143  0.36557  0.15497  1.0000
  H   H1343     1.0  0.89994  0.33438  0.12845  1.0000
  H   H1344     1.0  0.92887  0.27396  0.22637  1.0000
  H   H1345     1.0  0.89502  0.26425  0.23054  1.0000
  H   H1346     1.0  0.81464  0.27491  0.13359  1.0000
  H   H1347     1.0  0.83473  0.24328  0.11952  1.0000
  H   H1348     1.0  0.79176  0.21407  0.12608  1.0000
  H   H1349     1.0  0.82550  0.19283  0.15053  1.0000
  H   H1350     1.0  0.80787  0.22407  0.16853  1.0000
  H   H1351     1.0  0.91210  0.21634  0.09920  1.0000
  H   H1352     1.0  0.93418  0.25480  0.12158  1.0000
  H   H1353     1.0  0.89153  0.14140  0.40827  1.0000
  C   C765      1.0  0.71841  0.48176  0.19889  1.0000
  H   H1354     1.0  0.89519  0.45660  0.21727  1.0000
  H   H1355     1.0  0.94931  0.11893  0.22464  1.0000
  C   C766      1.0  0.97101  0.36732  0.22755  1.0000
  H   H1356     1.0  0.77144  0.48847  0.38185  1.0000
  H   H1357     1.0  0.82381  0.15304  0.39186  1.0000
  H   H1358     1.0  0.96906  0.03856  0.22593  1.0000
  C   C767      1.0  0.98895  0.07288  0.26987  1.0000
  H   H1359     1.0  0.85011  0.47579  0.31551  1.0000
  C   C768      1.0  0.77929  0.05058  0.41873  1.0000
  H   H1360     1.0  0.98804  0.07986  0.22148  1.0000
  H   H1361     1.0  0.96743  0.45626  0.31710  1.0000
  H   H1362     1.0  0.81813  0.05240  0.40901  1.0000
  C   C769      1.0  0.83791  0.04749  0.30953  1.0000
  H   H1363     1.0  0.75533  0.05391  0.40629  1.0000
  H   H1364     1.0  0.74258  0.45584  0.37737  1.0000
  H   H1365     1.0  0.66614  0.24396  0.24217  1.0000
  H   H1366     1.0  0.98011  0.43074  0.11803  1.0000
  H   H1367     1.0  0.72397  0.48156  0.22513  1.0000
  H   H1368     1.0  0.85108  0.02854  0.32881  1.0000
  H   H1369     1.0  0.69022  0.17041  0.02353  1.0000
  H   H1370     1.0  0.69473  0.47636  0.18583  1.0000
  H   H1371     1.0  0.75849  0.45300  0.20479  1.0000
  H   H1372     1.0  0.87781  0.49160  0.28097  1.0000
  Fe  Fe84      1.0  0.98924  0.18877  0.28548  1.0000
  H   H1373     1.0  0.67717  0.08831  0.03215  1.0000
  C   C770      1.0  0.92614  0.49163  0.26701  1.0000
  C   C771      1.0  0.74856  0.48568  0.37991  1.0000
  H   H1374     1.0  0.72285  0.49620  0.40735  1.0000
  H   H1375     1.0  0.66799  0.18384  0.16078  1.0000
  S   S166      1.0  0.98825  0.26938  0.19458  1.0000
  C   C772      1.0  0.66667  0.01870  0.05994  1.0000
  H   H1376     1.0  0.98457  0.39449  0.30895  1.0000
  H   H1377     1.0  0.73385  0.50005  0.35807  1.0000
  H   H1378     1.0  0.99275  0.10312  0.27432  1.0000
  C   C773      1.0  0.69691  0.00665  0.02981  1.0000
  H   H1379     1.0  0.99151  0.45727  0.27395  1.0000
  H   H1380     1.0  0.99247  0.31688  0.24829  1.0000
  H   H1381     1.0  0.68001  0.15933  0.07262  1.0000
  C   C774      1.0  0.66996  0.00397  0.03262  1.0000
  H   H1382     1.0  0.99051  0.44060  0.17539  1.0000
  C   C775      1.0  0.67071  0.11455  0.01863  1.0000
  C   C776      1.0  0.87516  0.40307  0.98762  1.0000
  Fe  Fe85      1.0  0.81347  0.28511  0.82972  1.0000
  S   S167      1.0  0.84176  0.33604  0.84226  1.0000
  S   S168      1.0  0.83007  0.23333  0.81412  1.0000
  Fe  Fe86      1.0  0.76057  0.32563  0.83209  1.0000
  S   S169      1.0  0.78546  0.38005  0.84420  1.0000
  S   S170      1.0  0.71460  0.32310  0.83276  1.0000
  Fe  Fe87      1.0  0.80265  0.36375  0.80656  1.0000
  S   S171      1.0  0.80733  0.40548  0.77137  1.0000
  Fe  Fe88      1.0  0.82249  0.34793  0.87905  1.0000
  S   S172      1.0  0.85470  0.36753  0.92868  1.0000
  S   S173      1.0  0.77484  0.31226  0.79180  1.0000
  S   S174      1.0  0.79712  0.29404  0.86918  1.0000
  Fe  Fe89      1.0  0.88019  0.44112  0.58072  1.0000
  S   S175      1.0  0.92861  0.45210  0.60771  1.0000
  S   S176      1.0  0.85270  0.45160  0.52752  1.0000
  Fe  Fe90      1.0  0.87448  0.40005  0.63775  1.0000
  S   S177      1.0  0.92183  0.40853  0.66715  1.0000
  S   S178      1.0  0.85062  0.36237  0.66001  1.0000
  Fe  Fe91      1.0  0.91576  0.46661  0.64906  1.0000
  Fe  Fe92      1.0  0.93017  0.39274  0.62369  1.0000
  S   S179      1.0  0.96777  0.35223  0.63454  1.0000
  S   S180      1.0  0.86733  0.45900  0.62146  1.0000
  S   S181      1.0  0.88290  0.38086  0.59465  1.0000
  H   H1383     1.0  0.89453  0.05316  0.93020  1.0000
  S   S182      1.0  0.95215  0.18902  0.57505  1.0000
  C   C777      1.0  0.91412  0.31654  0.93391  1.0000
  S   S183      1.0  0.93851  0.14480  0.90757  1.0000
  H   H1384     1.0  0.98631  0.24856  0.96622  1.0000
  H   H1385     1.0  0.84148  0.14994  0.89243  1.0000
  H   H1386     1.0  0.90235  0.04112  0.77348  1.0000
  H   H1387     1.0  0.86226  0.28878  0.74944  1.0000
  C   C778      1.0  0.71020  0.42626  0.85771  1.0000
  C   C779      1.0  0.96214  0.30648  0.61876  1.0000
  C   C780      1.0  0.93808  0.29683  0.59089  1.0000
  C   C781      1.0  0.93518  0.26070  0.57801  1.0000
  C   C782      1.0  0.95624  0.23382  0.59280  1.0000
  H   H1388     1.0  0.67891  0.21882  0.78503  1.0000
  H   H1389     1.0  0.94816  0.04900  0.94551  1.0000
  H   H1390     1.0  0.92190  0.31735  0.57893  1.0000
  H   H1391     1.0  0.91665  0.25366  0.55622  1.0000
  H   H1392     1.0  0.72968  0.24649  0.80023  1.0000
  H   H1393     1.0  0.69820  0.04358  0.56029  1.0000
  C   C783      1.0  0.85017  0.39216  0.96075  1.0000
  C   C784      1.0  0.82268  0.40057  0.96051  1.0000
  H   H1394     1.0  0.68811  0.45674  0.74881  1.0000
  H   H1395     1.0  0.67632  0.20170  0.85900  1.0000
  H   H1396     1.0  0.89653  0.39674  0.98811  1.0000
  H   H1397     1.0  0.73640  0.44825  0.83295  1.0000
  H   H1398     1.0  0.80325  0.39234  0.94015  1.0000
  C   C785      1.0  0.88781  0.04187  0.81298  1.0000
  C   C786      1.0  0.82070  0.39295  0.74156  1.0000
  C   C787      1.0  0.83025  0.42074  0.72618  1.0000
  C   C788      1.0  0.83999  0.41187  0.70158  1.0000
  C   C789      1.0  0.83975  0.37509  0.69170  1.0000
  C   C790      1.0  0.83012  0.34734  0.70699  1.0000
  C   C791      1.0  0.82098  0.35611  0.73204  1.0000
  H   H1399     1.0  0.83002  0.44932  0.73325  1.0000
  H   H1400     1.0  0.84717  0.43355  0.68990  1.0000
  H   H1401     1.0  0.82944  0.31890  0.69920  1.0000
  H   H1402     1.0  0.81351  0.33446  0.74348  1.0000
  C   C792      1.0  0.86235  0.21271  0.84050  1.0000
  C   C793      1.0  0.87009  0.21407  0.87367  1.0000
  C   C794      1.0  0.89370  0.19331  0.89396  1.0000
  C   C795      1.0  0.91031  0.17213  0.88136  1.0000
  C   C796      1.0  0.90351  0.17218  0.84833  1.0000
  C   C797      1.0  0.87927  0.19197  0.82790  1.0000
  H   H1403     1.0  0.85710  0.22985  0.88355  1.0000
  H   H1404     1.0  0.89892  0.19344  0.91952  1.0000
  H   H1405     1.0  0.91630  0.15606  0.83843  1.0000
  H   H1406     1.0  0.87331  0.19078  0.80222  1.0000
  C   C798      1.0  0.74738  0.01462  0.59392  1.0000
  C   C799      1.0  0.72692  0.41976  0.73427  1.0000
  H   H1407     1.0  0.72654  0.14549  0.62822  1.0000
  H   H1408     1.0  0.92769  0.25648  0.90511  1.0000
  H   H1409     1.0  0.96250  0.21545  0.93910  1.0000
  C   C800      1.0  0.71710  0.42937  0.82712  1.0000
  H   H1410     1.0  0.91764  0.06763  0.89002  1.0000
  C   C801      1.0  0.94487  0.27851  0.91198  1.0000
  H   H1411     1.0  0.87060  0.02068  0.80105  1.0000
  H   H1412     1.0  0.71382  0.22765  0.84338  1.0000
  C   C802      1.0  0.94844  0.41979  0.75537  1.0000
  C   C803      1.0  0.67445  0.33375  0.69729  1.0000
  H   H1413     1.0  0.90580  0.39538  0.72789  1.0000
  H   H1414     1.0  0.88864  0.25614  0.77377  1.0000
  H   H1415     1.0  0.72771  0.04679  0.96539  1.0000
  H   H1416     1.0  0.92720  0.25232  0.84974  1.0000
  C   C804      1.0  0.71774  0.08717  0.61649  1.0000
  C   C805      1.0  0.71946  0.41293  0.76352  1.0000
  C   C806      1.0  0.82462  0.13601  0.87126  1.0000
  H   H1417     1.0  0.98532  0.10554  0.68321  1.0000
  N   N41       1.0  0.87242  0.05464  0.86092  1.0000
  N   N42       1.0  0.97376  0.26182  0.91594  1.0000
  H   H1418     1.0  0.71303  0.05331  0.92272  1.0000
  C   C807      1.0  0.67422  0.14235  0.82668  1.0000
  C   C808      1.0  0.68722  0.19420  0.80038  1.0000
  H   H1419     1.0  0.92889  0.22186  0.65237  1.0000
  H   H1420     1.0  0.95667  0.10411  0.71765  1.0000
  H   H1421     1.0  0.99282  0.23755  0.88501  1.0000
  H   H1422     1.0  0.81027  0.11868  0.87930  1.0000
  H   H1423     1.0  0.66442  0.23503  0.82836  1.0000
  H   H1424     1.0  0.90946  0.33733  0.91466  1.0000
  H   H1425     1.0  0.90771  0.27050  0.62816  1.0000
  H   H1426     1.0  0.85653  0.24820  0.59757  1.0000
  C   C809      1.0  0.73817  0.22085  0.81386  1.0000
  C   C810      1.0  0.70493  0.44717  0.77166  1.0000
  H   H1427     1.0  0.89433  0.31454  0.63398  1.0000
  H   H1428     1.0  0.69224  0.34132  0.68930  1.0000
  C   C811      1.0  0.71351  0.12268  0.63262  1.0000
  H   H1429     1.0  0.79692  0.48799  0.51089  1.0000
  H   H1430     1.0  0.75524  0.43613  0.89137  1.0000
  C   C812      1.0  0.96026  0.18870  0.68740  1.0000
  H   H1431     1.0  0.85186  0.24121  0.75034  1.0000
  Fe  Fe93      1.0  0.98843  0.14649  0.58940  1.0000
  C   C813      1.0  0.67553  0.29485  0.77397  1.0000
  H   H1432     1.0  0.91226  0.08260  0.79765  1.0000
  H   H1433     1.0  0.95346  0.28721  0.85144  1.0000
  H   H1434     1.0  0.97675  0.19033  0.71240  1.0000
  C   C814      1.0  0.98167  0.33504  0.72119  1.0000
  H   H1435     1.0  0.70244  0.45280  0.86371  1.0000
  H   H1436     1.0  0.85795  0.25146  0.70015  1.0000
  H   H1437     1.0  0.99199  0.34976  0.80002  1.0000
  H   H1438     1.0  0.99379  0.25565  0.55042  1.0000
  H   H1439     1.0  0.86559  0.28892  0.58047  1.0000
  H   H1440     1.0  0.90630  0.42678  0.75920  1.0000
  H   H1441     1.0  0.89653  0.29507  0.92612  1.0000
  H   H1442     1.0  0.82282  0.03834  0.80431  1.0000
  H   H1443     1.0  0.68609  0.08411  0.86896  1.0000
  H   H1444     1.0  0.84945  0.07124  0.89086  1.0000
  H   H1445     1.0  0.87841  0.10173  0.89309  1.0000
  C   C815      1.0  0.87728  0.06978  0.83232  1.0000
  C   C816      1.0  0.70068  0.05445  0.62304  1.0000
  C   C817      1.0  0.68515  0.02464  0.56878  1.0000
  C   C818      1.0  0.97989  0.24324  0.62118  1.0000
  C   C819      1.0  0.98295  0.27945  0.63393  1.0000
  H   H1446     1.0  0.99037  0.32271  0.70420  1.0000
  C   C820      1.0  0.94392  0.29921  0.94167  1.0000
  H   H1447     1.0  0.88633  0.22191  0.72552  1.0000
  H   H1448     1.0  0.84336  0.29311  0.60363  1.0000
  H   H1449     1.0  0.95399  0.39628  0.77211  1.0000
  H   H1450     1.0  0.68145  0.12440  0.81116  1.0000
  H   H1451     1.0  0.74145  0.08134  0.62679  1.0000
  H   H1452     1.0  0.82137  0.09903  0.83272  1.0000
  H   H1453     1.0  0.74217  0.44376  0.73875  1.0000
  H   H1454     1.0  0.97062  0.28240  0.73480  1.0000
  H   H1455     1.0  0.94021  0.25042  0.80212  1.0000
  H   H1456     1.0  0.84962  0.01032  0.87372  1.0000
  C   C821      1.0  0.85312  0.02053  0.85237  1.0000
  H   H1457     1.0  0.79052  0.00761  0.59359  1.0000
  H   H1458     1.0  0.87493  0.07510  0.76965  1.0000
  H   H1459     1.0  0.91132  0.02082  0.87646  1.0000
  C   C822      1.0  0.96228  0.45635  0.77320  1.0000
  H   H1460     1.0  0.72721  0.18174  0.84268  1.0000
  H   H1461     1.0  0.94758  0.28003  0.96183  1.0000
  H   H1462     1.0  0.74873  0.04492  0.59196  1.0000
  H   H1463     1.0  0.69373  0.29417  0.76656  1.0000
  H   H1464     1.0  0.90783  0.02747  0.82827  1.0000
  H   H1465     1.0  0.97167  0.18235  0.67121  1.0000
  C   C823      1.0  0.68690  0.07720  0.94669  1.0000
  H   H1466     1.0  0.98263  0.20197  0.51368  1.0000
  C   C824      1.0  0.91515  0.42186  0.74045  1.0000
  H   H1467     1.0  0.90800  0.44444  0.72266  1.0000
  H   H1468     1.0  0.97458  0.34232  0.55939  1.0000
  H   H1469     1.0  0.74510  0.38786  0.88272  1.0000
  H   H1470     1.0  0.98518  0.40847  0.82438  1.0000
  H   H1471     1.0  0.94464  0.16570  0.68530  1.0000
  H   H1472     1.0  0.71115  0.04968  0.64926  1.0000
  C   C825      1.0  0.97960  0.09749  0.72783  1.0000
  C   C826      1.0  0.90196  0.04397  0.88546  1.0000
  H   H1473     1.0  0.70688  0.42488  0.71264  1.0000
  H   H1474     1.0  0.71057  0.09275  0.59053  1.0000
  C   C827      1.0  0.99400  0.36063  0.56463  1.0000
  C   C828      1.0  0.71674  0.20570  0.82764  1.0000
  H   H1475     1.0  0.99505  0.31384  0.87974  1.0000
  H   H1476     1.0  0.93729  0.29824  0.89187  1.0000
  H   H1477     1.0  0.72091  0.11903  0.65895  1.0000
  C   C829      1.0  0.93430  0.02367  0.94142  1.0000
  H   H1478     1.0  0.95290  0.32110  0.74459  1.0000
  H   H1479     1.0  0.67832  0.06391  0.61899  1.0000
  C   C830      1.0  0.95032  0.25716  0.85306  1.0000
  H   H1480     1.0  0.67820  0.38463  0.78679  1.0000
  H   H1481     1.0  0.74221  0.20012  0.79788  1.0000
  H   H1482     1.0  0.73791  0.39511  0.72959  1.0000
  S   S184      1.0  0.97142  0.08746  0.78401  1.0000
  H   H1483     1.0  0.85712  0.08174  0.81450  1.0000
  H   H1484     1.0  0.80862  0.04136  0.83549  1.0000
  C   C831      1.0  0.99364  0.32341  0.90240  1.0000
  C   C832      1.0  0.95500  0.23839  0.82508  1.0000
  H   H1485     1.0  0.74022  0.40664  0.78377  1.0000
  C   C833      1.0  0.83891  0.11240  0.85340  1.0000
  C   C834      1.0  0.85268  0.48869  0.50185  1.0000
  N   N43       1.0  0.91200  0.27136  0.69357  1.0000
  C   C835      1.0  0.93217  0.30310  0.69417  1.0000
  C   C836      1.0  0.88544  0.27057  0.66217  1.0000
  C   C837      1.0  0.90162  0.27818  0.72042  1.0000
  C   C838      1.0  0.92727  0.23460  0.69916  1.0000
  C   C839      1.0  0.94418  0.22525  0.67771  1.0000
  C   C840      1.0  0.95942  0.30878  0.72584  1.0000
  C   C841      1.0  0.87817  0.25061  0.72227  1.0000
  C   C842      1.0  0.88957  0.28439  0.63179  1.0000
  C   C843      1.0  0.86198  0.27814  0.60158  1.0000
  H   H1486     1.0  0.95408  0.45920  0.79278  1.0000
  C   C844      1.0  0.86984  0.25987  0.75066  1.0000
  H   H1487     1.0  0.91984  0.32949  0.68940  1.0000
  H   H1488     1.0  0.94004  0.30051  0.67441  1.0000
  H   H1489     1.0  0.87554  0.24232  0.65691  1.0000
  H   H1490     1.0  0.86796  0.28836  0.66391  1.0000
  H   H1491     1.0  0.89240  0.30655  0.71844  1.0000
  H   H1492     1.0  0.92018  0.27733  0.74416  1.0000
  H   H1493     1.0  0.94259  0.23217  0.72466  1.0000
  H   H1494     1.0  0.91127  0.21156  0.69537  1.0000
  H   H1495     1.0  0.96078  0.24675  0.67959  1.0000
  C   C845      1.0  0.97094  0.24110  0.88567  1.0000
  C   C846      1.0  0.73737  0.41543  0.88672  1.0000
  H   H1496     1.0  0.97783  0.24272  0.82728  1.0000
  H   H1497     1.0  0.93469  0.01439  0.96493  1.0000
  H   H1498     1.0  0.73210  0.41392  0.90839  1.0000
  S   S185      1.0  0.96480  0.06314  0.86594  1.0000
  H   H1499     1.0  0.91378  0.33073  0.95563  1.0000
  H   H1500     1.0  0.95020  0.20828  0.82449  1.0000
  C   C847      1.0  0.66887  0.41229  0.78749  1.0000
  H   H1501     1.0  0.96239  0.21252  0.88573  1.0000
  H   H1502     1.0  0.70503  0.38826  0.75831  1.0000
  H   H1503     1.0  0.81123  0.15769  0.85505  1.0000
  C   C848      1.0  0.67997  0.30750  0.80483  1.0000
  H   H1504     1.0  0.75935  0.22769  0.83371  1.0000
  H   H1505     1.0  0.95613  0.41323  0.73618  1.0000
  H   H1506     1.0  0.89329  0.09324  0.84024  1.0000
  H   H1507     1.0  0.72453  0.40150  0.82341  1.0000
  N   N44       1.0  0.69925  0.01906  0.60460  1.0000
  H   H1508     1.0  0.73048  0.09163  0.94926  1.0000
  C   C849      1.0  0.82033  0.41942  0.98688  1.0000
  H   H1509     1.0  0.72180  0.46970  0.77941  1.0000
  H   H1510     1.0  0.69019  0.13070  0.62258  1.0000
  Fe  Fe94      1.0  0.97162  0.11767  0.89183  1.0000
  H   H1511     1.0  0.97153  0.36185  0.71153  1.0000
  S   S186      1.0  0.98612  0.08842  0.60653  1.0000
  H   H1512     1.0  0.69400  0.14642  0.84907  1.0000
  H   H1513     1.0  0.69268  0.17364  0.78524  1.0000
  H   H1514     1.0  0.66724  0.06534  0.82883  1.0000
  H   H1515     1.0  0.98496  0.17272  0.77254  1.0000
  C   C850      1.0  0.71638  0.06671  0.94608  1.0000
  N   N45       1.0  0.69246  0.44182  0.79696  1.0000
  H   H1516     1.0  0.85105  0.13142  0.84378  1.0000
  H   H1517     1.0  0.96053  0.32177  0.94972  1.0000
  C   C851      1.0  0.68124  0.47811  0.80433  1.0000
  C   C852      1.0  0.86031  0.08420  0.87606  1.0000
  C   C853      1.0  0.89467  0.06149  0.78687  1.0000
  H   H1518     1.0  0.89005  0.00575  0.91639  1.0000
  H   H1519     1.0  0.79019  0.01195  0.63319  1.0000
  N   N46       1.0  0.99525  0.46014  0.78636  1.0000
  H   H1520     1.0  0.69334  0.40459  0.85451  1.0000
  H   H1521     1.0  0.70687  0.11707  0.98479  1.0000
  C   C854      1.0  0.90296  0.03154  0.91866  1.0000
  Fe  Fe95      1.0  0.98961  0.08889  0.83867  1.0000
  C   C855      1.0  0.66465  0.08162  0.84846  1.0000
  C   C856      1.0  0.69075  0.09395  0.97995  1.0000
  H   H1522     1.0  0.97790  0.45251  0.71699  1.0000
  H   H1523     1.0  0.69932  0.49420  0.82284  1.0000
  H   H1524     1.0  0.97250  0.33714  0.89715  1.0000
  C   C857      1.0  0.72928  0.00271  0.61365  1.0000
  H   H1525     1.0  0.74273  0.00778  0.63958  1.0000
  H   H1526     1.0  0.77068  0.47994  0.52847  1.0000
  H   H1527     1.0  0.73727  0.00304  0.56915  1.0000
  H   H1528     1.0  0.98840  0.38212  0.54588  1.0000
  H   H1529     1.0  0.66495  0.47290  0.81519  1.0000
  H   H1530     1.0  0.95207  0.47952  0.75670  1.0000
  S   S187      1.0  0.99235  0.14487  0.86159  1.0000
  H   H1531     1.0  0.67668  0.09699  0.92704  1.0000
  C   C858      1.0  0.98149  0.23423  0.94283  1.0000
  C   C859      1.0  0.99281  0.08804  0.76040  1.0000
  H   H1532     1.0  0.67134  0.16221  0.97035  1.0000
  N   N47       1.0  0.66330  0.10697  0.98343  1.0000
  H   H1533     1.0  0.79897  0.42558  0.98649  1.0000
  H   H1534     1.0  0.66941  0.30373  0.69294  1.0000
  C   C860      1.0  0.78006  0.50126  0.51759  1.0000
  H   H1535     1.0  0.67318  0.05170  0.94116  1.0000
  C   C861      1.0  0.82223  0.02488  0.82596  1.0000
  H   H1536     1.0  0.68231  0.33915  0.72345  1.0000
  H   H1537     1.0  0.99369  0.00739  0.80944  1.0000
  N   N48       1.0  0.66391  0.17900  0.81084  1.0000
  H   H1538     1.0  0.99504  0.16453  0.97124  1.0000
  H   H1539     1.0  0.99573  0.22257  0.63338  1.0000
  C   C862      1.0  0.99579  0.09827  0.70823  1.0000
  H   H1540     1.0  0.70165  0.07266  0.99825  1.0000
  C   C863      1.0  0.93644  0.94887  0.39502  1.0000
  Fe  Fe96      1.0  0.81956  0.59315  0.38102  1.0000
  S   S188      1.0  0.79482  0.64664  0.36988  1.0000
  S   S189      1.0  0.85064  0.58343  0.43306  1.0000
  Fe  Fe97      1.0  0.79630  0.57077  0.30978  1.0000
  S   S190      1.0  0.76886  0.62153  0.29379  1.0000
  S   S191      1.0  0.79827  0.52674  0.27439  1.0000
  Fe  Fe98      1.0  0.80893  0.65095  0.32859  1.0000
  S   S192      1.0  0.82476  0.70193  0.31138  1.0000
  Fe  Fe99      1.0  0.75660  0.61301  0.33628  1.0000
  S   S193      1.0  0.71282  0.61859  0.34207  1.0000
  S   S194      1.0  0.83688  0.60067  0.34217  1.0000
  S   S195      1.0  0.78082  0.55907  0.34967  1.0000
  H   H1541     1.0  0.73808  0.93964  0.05825  1.0000
  Fe  Fe100     1.0  0.92444  0.53638  0.12404  1.0000
  S   S196      1.0  0.87587  0.54323  0.10012  1.0000
  S   S197      1.0  0.96123  0.57552  0.12575  1.0000
  Fe  Fe101     1.0  0.87475  0.53012  0.14833  1.0000
  S   S198      1.0  0.85402  0.56852  0.17359  1.0000
  H   H1542     1.0  0.73755  0.88482  0.11326  1.0000
  C   C864      1.0  0.90958  0.89456  0.46598  1.0000
  S   S199      1.0  0.92333  0.52708  0.17237  1.0000
  C   C865      1.0  0.69571  0.54380  0.24081  1.0000
  H   H1543     1.0  0.68244  0.81061  0.39765  1.0000
  S   S200      1.0  0.94533  0.77148  0.40546  1.0000
  S   S201      1.0  0.96747  0.86018  0.36557  1.0000
  C   C866      1.0  0.91340  0.80664  0.12580  1.0000
  S   S202      1.0  0.94589  0.74238  0.07756  1.0000
  H   H1544     1.0  0.72102  0.74003  0.34140  1.0000
  H   H1545     1.0  0.78914  0.53917  0.47234  1.0000
  H   H1546     1.0  0.75846  0.63094  0.16031  1.0000
  H   H1547     1.0  0.71991  0.58047  0.15421  1.0000
  H   H1548     1.0  0.95957  0.85667  0.21500  1.0000
  H   H1549     1.0  0.77325  0.92297  0.00162  1.0000
  C   C867      1.0  0.95599  0.62205  0.11289  1.0000
  C   C868      1.0  0.92877  0.63514  0.09241  1.0000
  C   C869      1.0  0.92595  0.67206  0.08187  1.0000
  C   C870      1.0  0.95024  0.69622  0.09165  1.0000
  C   C871      1.0  0.74195  0.90938  0.05806  1.0000
  H   H1550     1.0  0.79239  0.60340  0.42477  1.0000
  H   H1551     1.0  0.90999  0.61670  0.08428  1.0000
  H   H1552     1.0  0.90489  0.68179  0.06573  1.0000
  H   H1553     1.0  0.71300  0.77328  0.04015  1.0000
  H   H1554     1.0  0.69544  0.56049  0.38377  1.0000
  C   C872      1.0  0.85071  0.54656  0.45894  1.0000
  H   H1555     1.0  0.71198  0.57715  0.28469  1.0000
  H   H1556     1.0  0.94937  0.93306  0.38414  1.0000
  H   H1557     1.0  0.91127  0.64633  0.31172  1.0000
  C   C873      1.0  0.81512  0.53806  0.24753  1.0000
  H   H1558     1.0  0.98408  0.69264  0.18354  1.0000
  H   H1559     1.0  0.67460  0.55855  0.23094  1.0000
  C   C874      1.0  0.83940  0.55571  0.20210  1.0000
  C   C875      1.0  0.83816  0.58236  0.22429  1.0000
  C   C876      1.0  0.82628  0.57356  0.24703  1.0000
  H   H1560     1.0  0.71366  0.57585  0.45669  1.0000
  H   H1561     1.0  0.97039  0.93588  0.28289  1.0000
  H   H1562     1.0  0.84636  0.61006  0.22383  1.0000
  H   H1563     1.0  0.82527  0.59451  0.26376  1.0000
  C   C877      1.0  0.85838  0.72108  0.33744  1.0000
  C   C878      1.0  0.86954  0.71323  0.37017  1.0000
  C   C879      1.0  0.89592  0.72964  0.39078  1.0000
  C   C880      1.0  0.91187  0.75282  0.37868  1.0000
  C   C881      1.0  0.90086  0.76062  0.34593  1.0000
  C   C882      1.0  0.87394  0.74509  0.32540  1.0000
  H   H1564     1.0  0.85752  0.69508  0.37969  1.0000
  H   H1565     1.0  0.90392  0.72443  0.41622  1.0000
  H   H1566     1.0  0.91289  0.77882  0.33649  1.0000
  H   H1567     1.0  0.86527  0.75138  0.30010  1.0000
  H   H1568     1.0  0.89646  0.51914  0.22333  1.0000
  H   H1569     1.0  0.97666  0.73452  0.16011  1.0000
  C   C883      1.0  0.70507  0.74462  0.31652  1.0000
  H   H1570     1.0  0.92985  0.78996  0.27481  1.0000
  H   H1571     1.0  0.91968  0.83561  0.12322  1.0000
  H   H1572     1.0  0.95911  0.68677  0.38955  1.0000
  C   C884      1.0  0.87810  0.82281  0.43170  1.0000
  C   C885      1.0  0.92895  0.55853  0.25138  1.0000
  H   H1573     1.0  0.95824  0.62056  0.34642  1.0000
  C   C886      1.0  0.92651  0.66355  0.33179  1.0000
  H   H1574     1.0  0.94464  0.87448  0.41506  1.0000
  H   H1575     1.0  0.66800  0.57463  0.17524  1.0000
  H   H1576     1.0  0.77680  0.54532  0.41787  1.0000
  C   C887      1.0  0.83361  0.51460  0.44766  1.0000
  H   H1577     1.0  0.93979  0.56840  0.27662  1.0000
  H   H1578     1.0  0.94293  0.93960  0.47881  1.0000
  C   C888      1.0  0.93191  0.92142  0.49035  1.0000
  H   H1579     1.0  0.98000  0.76977  0.21118  1.0000
  C   C889      1.0  0.93963  0.65699  0.42884  1.0000
  H   H1580     1.0  0.67106  0.84869  0.43591  1.0000
  H   H1581     1.0  0.81630  0.66034  0.45181  1.0000
  S   S203      1.0  0.98454  0.84106  0.10592  1.0000
  H   H1582     1.0  0.76276  0.90432  0.07896  1.0000
  C   C890      1.0  0.85216  0.80656  0.40338  1.0000
  H   H1583     1.0  0.90223  0.83718  0.40255  1.0000
  C   C891      1.0  0.72282  0.84730  0.05937  1.0000
  C   C892      1.0  0.75540  0.60357  0.43953  1.0000
  H   H1584     1.0  0.93892  0.81565  0.45138  1.0000
  H   H1585     1.0  0.96776  0.75045  0.26700  1.0000
  C   C893      1.0  0.67402  0.74587  0.31547  1.0000
  H   H1586     1.0  0.75126  0.65487  0.19183  1.0000
  H   H1587     1.0  0.76927  0.57374  0.19268  1.0000
  H   H1588     1.0  0.94696  0.68599  0.43484  1.0000
  C   C894      1.0  0.94701  0.63872  0.35782  1.0000
  C   C895      1.0  0.93627  0.89321  0.42910  1.0000
  H   H1589     1.0  0.90326  0.62751  0.18123  1.0000
  C   C896      1.0  0.92850  0.75931  0.27483  1.0000
  C   C897      1.0  0.90865  0.52569  0.24914  1.0000
  H   H1590     1.0  0.73965  0.95061  0.10887  1.0000
  H   H1591     1.0  0.90588  0.94030  0.41692  1.0000
  C   C898      1.0  0.67915  0.54895  0.17261  1.0000
  H   H1592     1.0  0.94581  0.55081  0.24213  1.0000
  H   H1593     1.0  0.95152  0.96527  0.41577  1.0000
  H   H1594     1.0  0.67905  0.80378  0.33063  1.0000
  C   C899      1.0  0.89501  0.85169  0.42005  1.0000
  N   N49       1.0  0.71705  0.88795  0.06148  1.0000
  C   C900      1.0  0.69365  0.57473  0.40471  1.0000
  H   H1595     1.0  0.86948  0.83554  0.44853  1.0000
  C   C901      1.0  0.98247  0.84996  0.22543  1.0000
  C   C902      1.0  0.70971  0.77993  0.06253  1.0000
  C   C903      1.0  0.97383  0.84950  0.48158  1.0000
  H   H1596     1.0  0.90065  0.87706  0.48021  1.0000
  H   H1597     1.0  0.77446  0.57108  0.49170  1.0000
  H   H1598     1.0  0.68640  0.77156  0.36183  1.0000
  H   H1599     1.0  0.69051  0.64351  0.27510  1.0000
  H   H1600     1.0  0.70989  0.61038  0.17957  1.0000
  H   H1601     1.0  0.71679  0.59116  0.23147  1.0000
  H   H1602     1.0  0.69618  0.60493  0.40246  1.0000
  N   N50       1.0  0.94077  0.73579  0.19636  1.0000
  C   C904      1.0  0.92464  0.75214  0.16360  1.0000
  C   C905      1.0  0.93210  0.69546  0.19664  1.0000
  C   C906      1.0  0.93173  0.75665  0.22005  1.0000
  C   C907      1.0  0.98011  0.64642  0.12317  1.0000
  C   C908      1.0  0.86879  0.54938  0.49177  1.0000
  C   C909      1.0  0.76345  0.63198  0.18646  1.0000
  C   C910      1.0  0.94436  0.74242  0.25513  1.0000
  C   C911      1.0  0.92319  0.67284  0.16484  1.0000
  C   C912      1.0  0.91949  0.63175  0.17024  1.0000
  C   C913      1.0  0.67076  0.77765  0.33708  1.0000
  H   H1603     1.0  0.69123  0.51411  0.23472  1.0000
  H   H1604     1.0  0.90143  0.90954  0.38371  1.0000
  H   H1605     1.0  0.90065  0.74971  0.15709  1.0000
  H   H1606     1.0  0.92878  0.73653  0.14459  1.0000
  H   H1607     1.0  0.94988  0.68027  0.21548  1.0000
  H   H1608     1.0  0.91279  0.69292  0.20330  1.0000
  H   H1609     1.0  0.90744  0.75669  0.21143  1.0000
  H   H1610     1.0  0.93870  0.78617  0.22205  1.0000
  H   H1611     1.0  0.78718  0.63778  0.19935  1.0000
  H   H1612     1.0  0.92763  0.81167  0.17649  1.0000
  C   C914      1.0  0.93196  0.79303  0.15941  1.0000
  H   H1613     1.0  0.72755  0.51629  0.16464  1.0000
  H   H1614     1.0  0.91692  0.78946  0.10725  1.0000
  C   C915      1.0  0.75339  0.54329  0.41403  1.0000
  H   H1615     1.0  0.79098  0.92711  0.04470  1.0000
  H   H1616     1.0  0.94254  0.71198  0.25638  1.0000
  H   H1617     1.0  0.90194  0.68262  0.14716  1.0000
  H   H1618     1.0  0.93947  0.67548  0.15393  1.0000
  H   H1619     1.0  0.94068  0.61976  0.18591  1.0000
  H   H1620     1.0  0.74462  0.84032  0.07792  1.0000
  H   H1621     1.0  0.91154  0.61663  0.14689  1.0000
  H   H1622     1.0  0.85950  0.79397  0.38537  1.0000
  C   C916      1.0  0.74753  0.90166  0.02714  1.0000
  H   H1623     1.0  0.74239  0.61522  0.41558  1.0000
  H   H1624     1.0  0.76201  0.59728  0.22394  1.0000
  C   C917      1.0  0.67334  0.64611  0.28401  1.0000
  C   C918      1.0  0.97340  0.74006  0.20713  1.0000
  H   H1625     1.0  0.98754  0.85125  0.18001  1.0000
  Fe  Fe102     1.0  0.99236  0.83905  0.33654  1.0000
  H   H1626     1.0  0.90519  0.75047  0.26503  1.0000
  H   H1627     1.0  0.92346  0.65605  0.40368  1.0000
  H   H1628     1.0  0.74951  0.61962  0.45725  1.0000
  H   H1629     1.0  0.71069  0.77074  0.30738  1.0000
  H   H1630     1.0  0.99359  0.98991  0.02314  1.0000
  H   H1631     1.0  0.74180  0.55722  0.39073  1.0000
  H   H1632     1.0  0.89226  0.79944  0.44391  1.0000
  C   C919      1.0  0.72278  0.58532  0.17956  1.0000
  H   H1633     1.0  0.93905  0.68218  0.32230  1.0000
  S   S204      1.0  0.97502  0.84806  0.28247  1.0000
  C   C920      1.0  0.79353  0.65453  0.44930  1.0000
  H   H1634     1.0  0.93875  0.74997  0.30005  1.0000
  C   C921      1.0  0.72805  0.51900  0.18937  1.0000
  H   H1635     1.0  0.95517  0.79601  0.16270  1.0000
  H   H1636     1.0  0.67428  0.97181  0.30088  1.0000
  C   C922      1.0  0.91761  0.92295  0.40567  1.0000
  C   C923      1.0  0.70763  0.54766  0.27734  1.0000
  C   C924      1.0  0.78766  0.61288  0.44556  1.0000
  H   H1637     1.0  0.91333  0.68044  0.34164  1.0000
  N   N51       1.0  0.92084  0.87067  0.44587  1.0000
  H   H1638     1.0  0.87867  0.87227  0.40596  1.0000
  H   H1639     1.0  0.98470  0.72701  0.23087  1.0000
  N   N52       1.0  0.74818  0.56309  0.44073  1.0000
  N   N53       1.0  0.71156  0.55268  0.19227  1.0000
  H   H1640     1.0  0.73033  0.77518  0.08358  1.0000
  Fe  Fe103     1.0  0.97511  0.80421  0.38811  1.0000
  H   H1641     1.0  0.75668  0.87370  0.02766  1.0000
  H   H1642     1.0  0.72418  0.93006  0.15274  1.0000
  H   H1643     1.0  0.72816  0.53195  0.28842  1.0000
  H   H1644     1.0  0.82014  0.51162  0.42240  1.0000
  H   H1645     1.0  0.88988  0.80574  0.12161  1.0000
  H   H1646     1.0  0.68053  0.51614  0.13180  1.0000
  H   H1647     1.0  0.70683  0.72138  0.30118  1.0000
  C   C925      1.0  0.71753  0.93832  0.10265  1.0000
  H   H1648     1.0  0.97979  0.94841  0.24965  1.0000
  H   H1649     1.0  0.93365  0.62090  0.36684  1.0000
  S   S205      1.0  0.67589  0.98024  0.40871  1.0000
  C   C926      1.0  0.71662  0.56039  0.43677  1.0000
  H   H1650     1.0  0.66921  0.52646  0.18163  1.0000
  H   H1651     1.0  0.98263  0.85341  0.46271  1.0000
  H   H1652     1.0  0.99143  0.70414  0.45984  1.0000
  C   C927      1.0  0.67864  0.63630  0.31562  1.0000
  H   H1653     1.0  0.95602  0.90731  0.44652  1.0000
  H   H1654     1.0  0.90461  0.66369  0.44575  1.0000
  H   H1655     1.0  0.93347  0.83201  0.48542  1.0000
  C   C928      1.0  0.66983  0.54117  0.13613  1.0000
  H   H1656     1.0  0.98405  0.70860  0.04227  1.0000
  H   H1657     1.0  0.80334  0.59967  0.46741  1.0000
  C   C929      1.0  0.76815  0.54856  0.47317  1.0000
  C   C930      1.0  0.82844  0.52011  0.20274  1.0000
  C   C931      1.0  0.69991  0.81989  0.06228  1.0000
  H   H1658     1.0  0.67529  0.56497  0.12409  1.0000
  C   C932      1.0  0.71764  0.89657  0.09446  1.0000
  H   H1659     1.0  0.69005  0.92743  0.02702  1.0000
  H   H1660     1.0  0.91499  0.61652  0.44422  1.0000
  C   C933      1.0  0.75568  0.59515  0.19763  1.0000
  H   H1661     1.0  0.76172  0.95789  0.02253  1.0000
  S   S206      1.0  0.99555  0.78141  0.35572  1.0000
  H   H1662     1.0  0.84123  0.78468  0.41196  1.0000
  H   H1663     1.0  0.67897  0.82233  0.04120  1.0000
  H   H1664     1.0  0.83603  0.82832  0.39162  1.0000
  H   H1665     1.0  0.89068  0.91103  0.45039  1.0000
  C   C934      1.0  0.92350  0.64533  0.45003  1.0000
  H   H1666     1.0  0.68520  0.88144  0.01288  1.0000
  H   H1667     1.0  0.91599  0.58151  0.23666  1.0000
  C   C935      1.0  0.98680  0.72311  0.18459  1.0000
  H   H1668     1.0  0.89286  0.53504  0.25928  1.0000
  H   H1669     1.0  0.97923  0.58693  0.39360  1.0000
  C   C936      1.0  0.94063  0.84093  0.46610  1.0000
  H   H1670     1.0  0.69621  0.82458  0.08462  1.0000
  H   H1671     1.0  0.95522  0.60318  0.42503  1.0000
  H   H1672     1.0  0.77846  0.66922  0.42787  1.0000
  C   C937      1.0  0.71723  0.56081  0.22716  1.0000
  C   C938      1.0  0.76975  0.92915  0.02394  1.0000
  H   H1673     1.0  0.69265  0.76083  0.06398  1.0000
  H   H1674     1.0  0.72370  0.84039  0.03578  1.0000
  H   H1675     1.0  0.71039  0.97476  0.13712  1.0000
  H   H1676     1.0  0.92233  0.96833  0.37688  1.0000
  C   C939      1.0  0.68877  0.89859  0.03466  1.0000
  H   H1677     1.0  0.70217  0.95355  0.08199  1.0000
  C   C940      1.0  0.70908  0.94471  0.13132  1.0000
  H   H1678     1.0  0.66954  0.71876  0.32394  1.0000
  C   C941      1.0  0.97723  0.68324  0.11270  1.0000
  H   H1679     1.0  0.75160  0.52218  0.20503  1.0000
  H   H1680     1.0  0.68633  0.93504  0.12563  1.0000
  H   H1681     1.0  0.73966  0.55230  0.24291  1.0000
  H   H1682     1.0  0.71015  0.53147  0.43890  1.0000
  H   H1683     1.0  0.69922  0.88293  0.09824  1.0000
  H   H1684     1.0  0.79084  0.66519  0.47105  1.0000
  Fe  Fe104     1.0  0.98386  0.78294  0.08690  1.0000
  C   C942      1.0  0.96546  0.63095  0.43314  1.0000
  C   C943      1.0  0.81645  0.51131  0.22543  1.0000
  C   C944      1.0  0.98697  0.95027  0.27614  1.0000
  C   C945      1.0  0.96998  0.66172  0.38540  1.0000
  C   C946      1.0  0.99011  0.99061  0.28752  1.0000
  H   H1685     1.0  0.69149  0.53661  0.28650  1.0000
  H   H1686     1.0  0.73392  0.99242  0.32519  1.0000
  Fe  Fe105     1.0  0.67047  0.99118  0.45546  1.0000
  H   H1687     1.0  0.73889  0.52792  0.49542  1.0000
  C   C947      1.0  0.75609  0.51703  0.48787  1.0000
  H   H1688     1.0  0.72710  0.90382  0.00546  1.0000
  H   H1689     1.0  0.98702  0.79182  0.48764  1.0000
  H   H1690     1.0  0.97828  0.62811  0.45937  1.0000
  H   H1691     1.0  0.90066  0.96428  0.48826  1.0000
  H   H1692     1.0  0.93816  0.64739  0.47581  1.0000
  N   N54       1.0  0.98542  0.64119  0.41622  1.0000
  H   H1693     1.0  0.98614  0.67263  0.37605  1.0000
  H   H1694     1.0  0.99460  0.72037  0.42349  1.0000
  S   S207      1.0  0.99598  0.91472  0.04466  1.0000
  C   C948      1.0  0.99616  0.84490  0.25874  1.0000
  H   H1695     1.0  0.99588  0.70168  0.12109  1.0000
  H   H1696     1.0  0.66341  0.87456  0.39972  1.0000
  H   H1697     1.0  0.97870  0.87464  0.49679  1.0000
  Fe  Fe106     1.0  0.74233  0.87941  0.73051  1.0000
  S   S208      1.0  0.76383  0.82491  0.74762  1.0000
  S   S209      1.0  0.73864  0.92634  0.76246  1.0000
  Fe  Fe107     1.0  0.71711  0.85495  0.65934  1.0000
  S   S210      1.0  0.73546  0.79766  0.67164  1.0000
  S   S211      1.0  0.98585  0.67917  0.78538  1.0000
  Fe  Fe108     1.0  0.72127  0.80018  0.71322  1.0000
  H   H1698     1.0  0.67110  0.79990  0.87980  1.0000
  Fe  Fe109     1.0  0.77683  0.82690  0.70515  1.0000
  S   S212      1.0  0.82003  0.81017  0.70159  1.0000
  S   S213      1.0  0.69963  0.85463  0.69831  1.0000
  S   S214      1.0  0.75867  0.88429  0.69054  1.0000
  H   H1699     1.0  0.91289  0.62137  0.81405  1.0000
  C   C949      1.0  0.97831  0.61996  0.70060  1.0000
  H   H1700     1.0  0.98492  0.53062  0.85489  1.0000
  S   S215      1.0  0.94798  0.76864  0.80163  1.0000
  H   H1701     1.0  0.87608  0.71346  0.73941  1.0000
  H   H1702     1.0  0.99356  0.50558  0.75480  1.0000
  H   H1703     1.0  0.70484  0.99609  0.66642  1.0000
  S   S216      1.0  0.69775  0.87767  0.87366  1.0000
  H   H1704     1.0  0.93367  0.96533  0.52398  1.0000
  H   H1705     1.0  0.82408  0.65902  0.70842  1.0000
  C   C950      1.0  0.97012  0.85984  0.85175  1.0000
  C   C951      1.0  0.98087  0.92235  0.83849  1.0000
  H   H1706     1.0  0.67800  0.69326  0.95685  1.0000
  S   S217      1.0  0.70356  0.96769  0.50214  1.0000
  C   C952      1.0  0.88991  0.60854  0.68415  1.0000
  H   H1707     1.0  0.97588  0.89523  0.89370  1.0000
  H   H1708     1.0  0.96714  0.84703  0.92708  1.0000
  C   C953      1.0  0.96158  0.56855  0.72343  1.0000
  C   C954      1.0  0.95043  0.55019  0.69362  1.0000
  C   C955      1.0  0.95327  0.56674  0.66713  1.0000
  S   S218      1.0  0.93296  0.50695  0.69121  1.0000
  C   C956      1.0  0.96047  0.84195  0.90091  1.0000
  H   H1709     1.0  0.98501  0.61597  0.75034  1.0000
  H   H1710     1.0  0.94465  0.55285  0.64400  1.0000
  S   S219      1.0  0.70209  0.99015  0.99544  1.0000
  C   C957      1.0  0.68966  0.89620  0.57920  1.0000
  H   H1711     1.0  0.91746  0.86702  0.72992  1.0000
  H   H1712     1.0  0.68105  0.80681  0.78352  1.0000
  H   H1713     1.0  0.88852  0.68580  0.66013  1.0000
  C   C958      1.0  0.72152  0.92505  0.55636  1.0000
  C   C959      1.0  0.71773  0.90449  0.58088  1.0000
  S   S220      1.0  0.69756  0.76108  0.73431  1.0000
  H   H1714     1.0  0.94652  0.86641  0.84016  1.0000
  H   H1715     1.0  0.73653  0.89546  0.60126  1.0000
  C   C960      1.0  0.85539  0.79889  0.73013  1.0000
  C   C961      1.0  0.86220  0.79814  0.76319  1.0000
  C   C962      1.0  0.89055  0.78863  0.78464  1.0000
  C   C963      1.0  0.91238  0.77943  0.77340  1.0000
  C   C964      1.0  0.90560  0.78030  0.74038  1.0000
  C   C965      1.0  0.87735  0.79009  0.71897  1.0000
  H   H1716     1.0  0.84562  0.80486  0.77221  1.0000
  H   H1717     1.0  0.89554  0.78830  0.81014  1.0000
  H   H1718     1.0  0.92222  0.77405  0.73135  1.0000
  H   H1719     1.0  0.87245  0.79102  0.69350  1.0000
  C   C966      1.0  0.72799  0.91313  0.79399  1.0000
  C   C967      1.0  0.71940  0.94006  0.81101  1.0000
  C   C968      1.0  0.71045  0.92984  0.83586  1.0000
  C   C969      1.0  0.71033  0.89263  0.84404  1.0000
  C   C970      1.0  0.71984  0.86601  0.82770  1.0000
  C   C971      1.0  0.72809  0.87606  0.80244  1.0000
  H   H1720     1.0  0.71960  0.96885  0.80487  1.0000
  H   H1721     1.0  0.71137  0.95448  0.64864  1.0000
  H   H1722     1.0  0.72065  0.83730  0.83441  1.0000
  H   H1723     1.0  0.73489  0.85504  0.78979  1.0000
  H   H1724     1.0  0.80237  0.69526  0.73940  1.0000
  Fe  Fe110     1.0  0.67037  0.95982  0.95103  1.0000
  H   H1725     1.0  0.90618  0.93039  0.51935  1.0000
  S   S221      1.0  0.68351  0.87286  0.61051  1.0000
  H   H1726     1.0  0.88597  0.56274  0.65139  1.0000
  C   C972      1.0  0.66929  0.92854  0.52782  1.0000
  H   H1727     1.0  0.86416  0.99747  0.84531  1.0000
  H   H1728     1.0  0.80510  0.97274  0.83616  1.0000
  H   H1729     1.0  0.94144  0.73629  0.69632  1.0000
  C   C973      1.0  0.68050  0.99170  0.61349  1.0000
  H   H1730     1.0  0.99352  0.57315  0.83969  1.0000
  H   H1731     1.0  0.67411  0.96791  0.59623  1.0000
  C   C974      1.0  0.80693  0.98731  0.81548  1.0000
  H   H1732     1.0  0.99065  0.93248  0.86384  1.0000
  H   H1733     1.0  0.66706  0.55222  0.80682  1.0000
  H   H1734     1.0  0.67309  0.80577  0.81938  1.0000
  H   H1735     1.0  0.96991  0.52513  0.79674  1.0000
  Fe  Fe111     1.0  0.67228  0.91202  0.89574  1.0000
  H   H1736     1.0  0.95701  0.92673  0.83092  1.0000
  H   H1737     1.0  0.72751  0.97212  0.61063  1.0000
  C   C975      1.0  0.91703  0.94680  0.50637  1.0000
  H   H1738     1.0  0.81900  0.96968  0.80471  1.0000
  H   H1739     1.0  0.79052  0.52330  0.53581  1.0000
  H   H1740     1.0  0.85648  0.65072  0.67067  1.0000
  N   N55       1.0  0.88628  0.66349  0.71947  1.0000
  C   C976      1.0  0.92702  0.71961  0.67532  1.0000
  H   H1741     1.0  0.93699  0.84872  0.88867  1.0000
  H   H1742     1.0  0.90277  0.59182  0.70526  1.0000
  C   C977      1.0  0.97856  0.86879  0.80244  1.0000
  C   C978      1.0  0.86980  0.52065  0.51313  1.0000
  H   H1743     1.0  0.98324  0.81280  0.52236  1.0000
  C   C979      1.0  0.86473  0.69145  0.72147  1.0000
  H   H1744     1.0  0.68173  0.73288  0.66907  1.0000
  C   C980      1.0  0.94626  0.87506  0.77990  1.0000
  H   H1745     1.0  0.96124  0.99277  0.81490  1.0000
  H   H1746     1.0  0.70110  0.66388  0.94480  1.0000
  C   C981      1.0  0.66778  0.50553  0.77620  1.0000
  H   H1747     1.0  0.85445  0.70618  0.69836  1.0000
  H   H1748     1.0  0.67514  0.70775  0.90212  1.0000
  H   H1749     1.0  0.88220  0.57390  0.50077  1.0000
  C   C982      1.0  0.92752  0.64310  0.81105  1.0000
  S   S222      1.0  0.99508  0.66407  0.70451  1.0000
  H   H1750     1.0  0.77810  0.96930  0.61035  1.0000
  C   C983      1.0  0.97902  0.86599  0.88833  1.0000
  H   H1751     1.0  0.78454  0.99121  0.79713  1.0000
  H   H1752     1.0  0.85827  0.59713  0.63552  1.0000
  H   H1753     1.0  0.95328  0.88474  0.73592  1.0000
  C   C984      1.0  0.90069  0.70419  0.68081  1.0000
  H   H1754     1.0  0.94666  0.62986  0.80870  1.0000
  H   H1755     1.0  0.83482  0.72366  0.75648  1.0000
  H   H1756     1.0  0.84666  0.65807  0.75055  1.0000
  C   C985      1.0  0.83902  0.67576  0.72905  1.0000
  H   H1757     1.0  0.98201  0.94234  0.79286  1.0000
  H   H1758     1.0  0.94842  0.90573  0.50978  1.0000
  Fe  Fe112     1.0  0.98583  0.74046  0.79377  1.0000
  C   C986      1.0  0.82120  0.70698  0.73506  1.0000
  H   H1759     1.0  0.91894  0.62660  0.75037  1.0000
  H   H1760     1.0  0.93966  0.69664  0.67093  1.0000
  H   H1761     1.0  0.96898  0.61465  0.65005  1.0000
  S   S223      1.0  0.67325  0.97335  0.90361  1.0000
  H   H1762     1.0  0.92595  0.68900  0.78072  1.0000
  H   H1763     1.0  0.90520  0.62304  0.67555  1.0000
  H   H1764     1.0  0.97110  0.82973  0.84711  1.0000
  H   H1765     1.0  0.70387  0.95069  0.84883  1.0000
  C   C987      1.0  0.91108  0.66656  0.78172  1.0000
  H   H1766     1.0  0.94370  0.00148  0.93139  1.0000
  C   C988      1.0  0.87040  0.63617  0.69286  1.0000
  H   H1767     1.0  0.93552  0.66100  0.83291  1.0000
  H   H1768     1.0  0.95918  0.55615  0.74392  1.0000
  H   H1769     1.0  0.93157  0.85719  0.78700  1.0000
  H   H1770     1.0  0.91954  0.73748  0.65386  1.0000
  H   H1771     1.0  0.74335  0.93174  0.55817  1.0000
  H   H1772     1.0  0.89267  0.67953  0.78578  1.0000
  H   H1773     1.0  0.81268  0.72539  0.71395  1.0000
  H   H1774     1.0  0.88665  0.72787  0.68060  1.0000
  H   H1775     1.0  0.98192  0.83849  0.80158  1.0000
  H   H1776     1.0  0.88386  0.52321  0.53828  1.0000
  H   H1777     1.0  0.88453  0.62155  0.75283  1.0000
  H   H1778     1.0  0.92089  0.70467  0.73228  1.0000
  H   H1779     1.0  0.68469  0.99804  0.55623  1.0000
  C   C989      1.0  0.69739  0.93766  0.52993  1.0000
  H   H1780     1.0  0.85485  0.61910  0.69939  1.0000
  C   C990      1.0  0.91025  0.68357  0.71321  1.0000
  C   C991      1.0  0.94111  0.86526  0.74519  1.0000
  C   C992      1.0  0.66986  0.71721  0.68047  1.0000
  H   H1781     1.0  0.85679  0.56494  0.66541  1.0000
  C   C993      1.0  0.97578  0.60293  0.72702  1.0000
  C   C994      1.0  0.87146  0.58182  0.65748  1.0000
  H   H1782     1.0  0.92817  0.66441  0.71486  1.0000
  C   C995      1.0  0.89997  0.64267  0.75047  1.0000
  C   C996      1.0  0.67809  0.67088  0.93992  1.0000
  H   H1783     1.0  0.94830  0.83665  0.74344  1.0000
  C   C997      1.0  0.66550  0.90790  0.55230  1.0000
  H   H1784     1.0  0.96347  0.81218  0.89695  1.0000
  N   N56       1.0  0.98728  0.88187  0.83669  1.0000
  C   C998      1.0  0.96705  0.60170  0.67062  1.0000
  H   H1785     1.0  0.93970  0.90415  0.78040  1.0000
  C   C999      1.0  0.99366  0.52435  0.81150  1.0000
  C   C1000     1.0  0.69443  0.97480  0.64762  1.0000
  H   H1786     1.0  0.66611  0.98650  0.80068  1.0000
  H   H1787     1.0  0.66698  0.64601  0.94437  1.0000
  H   H1788     1.0  0.68256  0.94077  0.68006  1.0000
  S   S224      1.0  0.67352  0.89831  0.94480  1.0000
  C   C1001     1.0  0.67409  0.72505  0.71227  1.0000
  H   H1789     1.0  0.68540  0.51823  0.77013  1.0000
  C   C1002     1.0  0.98519  0.98894  0.82344  1.0000
  C   C1003     1.0  0.67165  0.95429  0.65646  1.0000
  C   C1004     1.0  0.99048  0.81754  0.50235  1.0000
  C   C1005     1.0  0.66418  0.79996  0.79314  1.0000
  H   H1790     1.0  0.99298  0.88144  0.79155  1.0000
  C   C1006     1.0  0.99222  0.94881  0.81892  1.0000
  C   C1007     1.0  0.77844  0.99994  0.60880  1.0000
  H   H1791     1.0  0.66426  0.66035  0.88958  1.0000
  H   H1792     1.0  0.99566  0.99721  0.84913  1.0000
  C   C1008     1.0  0.66286  0.68340  0.90520  1.0000
