data_image0
_chemical_formula_structural       FeS2FeS2FeSFeS3FeSHFeSFeSFeS2FeSFeS2Fe2HS2FeS2FeS2HFeS3C9H4NC3H3C2HCFeH2C6H4C3H3C6HNH2CH4C2HCH2SC6H8SH6CH4C2H2CH3CHCHCHCH13CHCNC12H27CH2FeHCH3C2H4C6H3CH2CH2CH3CH2C2NCHC3HCH3CH10C2H2CH2CHC2H5CSCHCH6SH9SC3NCNHCH5CHSH3CHCHC2H2CHCH3CH2CH3C2H5C2HC2H6CHCFeH4CH2CSC2H3NHCHFeH6C4HCH5CH2CSHCHCSH2CHNH2CFeS2FeS2FeSFeS3FeS2FeH2FeHS2FeSH2SFeSFeS2H2SHCSFeS2FeSFeS3FeSHC3HC6H5CH4CH2CH3C6H4C2HFeC6H5C2SH3C6H4C2H5C3H10NC12H33C2HCHCH5CHCH2CH3CH4CH2CSC2HC3HCNC12H18CH8CHCSCH7CH2CSH2CHCH2SFeSCNHNH3CHCH2FeHCH3CH3CH2SC4H2C3H6C2HC2HC2H3FeS2FeS2FeSFeS4H2SHNHSCH3C2H3SHNSHC7H4C6H4C6H4C3HCHCH3CHSH3CHCH2C3H5CHCH3C2H2CH5CNHCHC5HNC12H16CSH10FeHCH3CH2NC5HCH2C2H2CHFeCH11CH6CH2CHCH2CHCH5FeHCH3CHCH2CH5CHCH3CH2CH5SCH4CH2CH9C3H15C2H3CH2FeS2FeS2FeSFeS4H3CH3CH2CH2CHC6H4C6H5CHC6H4CH2C2H4CHCH4C2HCH7CHCSH2SHCH2CH2CHCHCH3CH2C2HC2H2CHCH3NH6C2H3CFeHC2H3C2HCHC2HCHC3HCH3CH3C2SH2NSH5NC4HC3H2CSH8CH8CH4CH3CHN2CHCH8CHCHCHC2H2CH2CH6SH5CH3C2H2C2FeS2FeS2FeSFeS3FeSFeSCFeSFeS2HSFeS2FeSFeS2FeS2FeS2Fe2S3H3CH2CH2C6H4C3H2CHCHCSC6H5CHCHSH3C6H4C6H4C3H3CH3SC2H2C2HCHCH2C2H9C2HSH3CH2CH3NC12H27CHNC12H29C5H3NH2SH2CH4CH3CHCH2CNH3CH2NC2HC3HC4H11CH6FeH8C2HCHCHCSHC2H2CH6C2H4CHCH3CH2CHCH8C2H4CHCFeH3NH2CHC2HCHC3HC3H2CH4C2H3CSH3CNHFeH4FeS2FeS2FeSFeS3CSFeS2FeSFeS2FeSFeS2HFeHS2HSFeS2FeSFeS3CH2C2HCHCH5CH3C6H4C3HCHC2H2C6H4C6H4CH2CHFeC4HC7H4NC3H4C2HCH5SH6CH14CHNC12H38Fe2HCHCH3CH2CH2CHC2HCH2SHCHNFeH6CH5C2H2C2H4CHCHNH2CH4CHSCH3C3HCNC12H16CNH4CH2CH2CH4C6SCHCH2SC2H2CH3NSFeH3C2HCH3C3H2CH3CH4C2HC3HNH8CH8CH3CSCHSHFeS2FeS2FeSFeS3C7H5C2H2C6H4CH2CH2CFeSC6H4C3H2CH3CH9CH2C2SCH3CNHSHCHCH6CH3C2HS2C3H5CH5CHCFeHCH12CHNH2C2H4CH4CHC2HCH7CH4C2HC2NH2CH3CNH7C6H2CH6CH5CH2C2H4CHCH4SCH4NHCHNH4CHC3H2C3H4CHC2H5CH2SHCH3CH2S2FeS2FeS2FeSFeS3HC2HCHC6H4C6H8C6H3CH3CH2CHFeH4CH3CHCH7C3H4CH2C3H3C2H2NCHC2HC2H2C4H7CH3CHNSCH3CH2NC7H3CSH16CHC3HCHCNH5C2H5CNH5C2H2CH8CH4SH2FeH2C2H5CH2CH3CHCH5CH3C2H3NH2C2H2CHCHCHC2H4CHCH5S2HFeS2FeS2FeSFeS3HC6H5C2H2C6H4C7H3C3H8SC2H2C3HC3H2CHCH15CH10CHCH4C3H2CH3C2H7NH5CHCHSCHC2H10CH3CH3CNCH2CNH7CHCNC10HCH2Fe2C2H3S2CH5CH8CH5CH2C2H2CH2CHCHC3H4CH3CSH2CH5CHCFeS2FeS2FeS2FeSFeS4CH4C6H4C6H5C4H4CH4C2H5C5H11C3FeH2CH4CSC2HCHCH3CHNH3CHC2HCH7CHC3H3CH2CHCHCH9CNHCHCH6CHNCHC5H2CH3CH2CH4CH4CH8CHSCH2CH2SCHCHCH2CH2CH7CHCH2CHCHC2H5CNCHC2H7C3H2NH3CHCHC2H5NHCHSHC2HFeS2FeS2FeS2FeSFeS3FeSFeSHFeSFeS2FeSFeSHFeSFeHSHCHFeS2FeS2Fe2S3C6H14C6H5C2H4C2HSCH3C6H4C6H4C2HCH9CH3C2H4C2H8C2HCHCHC2H2CNCH3C3HC2HCH9NC5HC2H3CH8C2H6CH3CHNC2H3CHCH4CH8CHCHCH4CH2SHCHSH8CH6C2H2C2H4C4HCH8C2H3CH5NHSCHSFeCHC2HSHSH4C2HC2H3NC12HCHC2SHC2H2C4NH2C3H2SH2C2NHCH7FeS2FeS2FeS2FeSFeS3FeSHCSFeSFeS2FeSFeSHFeSFeS2H2FeS2FeS2CFeSCSC3HC3H3C6H4C2H3CH2NHC6H4C6H4C2H2CHC2H4C6H5C2HC2NSNHCH2CFeHCH4CH5CH2CH2C2H6FeH3CSHCH2C2SCH7CSH3C2H2C3HCHCH5CH5FeHCH7CH2CHCHCH6SHCNC12H28C2H5NC12H22CH5C2HNHCH4CHCHCHCH7CHCHCHFeH3CNH5S2H2C2HC2H4C3HCHCH4C3H3CHCH3CH2C2H5CH4FeS2FeS2FeSFeS4CSH4CHCH6C8H2CHC2H2SC2H2C2HCH2C6H4CH2NC3HC6HCH8CH8CH3CH7C2H2CHC2HCH3NCH5CH2CH2CH9C2H4NCH2SH2CHCH2CH2CNH4CHC2H5CHCHCHC2H7NHC2H3C3H2CH3CH4CH4CHC2H2CH3CH2CH3C2H4CH6FeHNH6C3HCHFeS2FeS2FeSFeS3H2SH3CHNH9CHC7HFeH2C6H7CH4C6H4CH2CHCH5SH2CH2FeCH4C2HSCH3C3HC2H4CH3C5H3SH2C2H4CHCHC2HCHCHC2H4CHCH4SCH5CHCH3CH12CSH4C2NH2CH2C2HCHNHCH3C6HC2NCH2CH6C3H9CH5CH3SHC2HC3H3CSHCHCH3CH4CHCH2FeS2FeS2FeSFeS3FeS2FeSFeSCS2H7SFeS2FeSFeS2FeS2FeS2FeSFeS2C2SC3HC6H7CHC3H2CH4SC6H4C6H5CH3CH2CHCHC6H4CHCH5CH2CHCH2C2H5CH2NH7CH13SHCHCHCH3CHCHCH7C2HC2H2CH4CH3CH2C3H4CHCH2NC12H31CNH4C3H3NFeHCH14NH2C2H2C5H3NCH5FeCH7CHCH5CHNHCHC2HC4H2CH3CHCHCHCH2CH5C2FeC2SC3HCHCHCH6CH2CHCH2C5HCH4C2HC4H4CH3CHCH5C2FeS2FeS2FeSFeS3FeSCFeSFeSFeS2H4FeSHFeSFeSFeS2FeS2FeS2Fe2SCSCS2C6H5C2H2CHC2H2FeCHCH6C6H4CHCHC6H4C2SH4C6H5C2SNC12H30C3H3C2H2C3H3CH6CHCSH2CHCNC9H20CH2C2HCH4CH2C2NCH5SH2CHCH4CFeHCHCHNC2H2CH3NC10H21C3H2CH2C4H3CH8C2H2CHCHSC2HCH4CH3CH3SH8SC2H4CH2FeHCH7CH4C2H3NHC2SH5CHC
_chemical_formula_sum              "Fe192 S384 H3072 C1728 N96"
_cell_length_a       64.0986
_cell_length_b       64.2364
_cell_length_c       50.7671
_cell_angle_alpha    88.6844
_cell_angle_beta     88.5324
_cell_angle_gamma    89.1817

_space_group_name_H-M_alt    "P 1"
_space_group_IT_number       1

loop_
  _space_group_symop_operation_xyz
  'x, y, z'

loop_
  _atom_site_type_symbol
  _atom_site_label
  _atom_site_symmetry_multiplicity
  _atom_site_fract_x
  _atom_site_fract_y
  _atom_site_fract_z
  _atom_site_occupancy
  Fe  Fe1       1.0  0.13714  0.16876  0.13925  1.0000
  S   S1        1.0  0.11988  0.14008  0.12734  1.0000
  S   S2        1.0  0.17265  0.16769  0.14456  1.0000
  Fe  Fe2       1.0  0.09717  0.19566  0.13751  1.0000
  S   S3        1.0  0.07707  0.16882  0.12731  1.0000
  S   S4        1.0  0.08773  0.22999  0.13662  1.0000
  Fe  Fe3       1.0  0.09522  0.14994  0.15707  1.0000
  S   S5        1.0  0.08471  0.12576  0.18847  1.0000
  Fe  Fe4       1.0  0.10302  0.16096  0.09819  1.0000
  S   S6        1.0  0.08987  0.15288  0.05821  1.0000
  S   S7        1.0  0.11331  0.17781  0.17019  1.0000
  S   S8        1.0  0.12240  0.18854  0.10734  1.0000
  Fe  Fe5       1.0  0.48357  0.16093  0.13719  1.0000
  S   S9        1.0  0.45072  0.15899  0.12329  1.0000
  H   H1        1.0  0.29130  0.04404  0.45924  1.0000
  Fe  Fe6       1.0  0.48227  0.20861  0.13917  1.0000
  S   S10       1.0  0.44902  0.20988  0.12603  1.0000
  Fe  Fe7       1.0  0.44328  0.18298  0.15386  1.0000
  S   S11       1.0  0.41768  0.17808  0.18505  1.0000
  Fe  Fe8       1.0  0.45928  0.18607  0.09624  1.0000
  S   S12       1.0  0.44547  0.19138  0.05562  1.0000
  S   S13       1.0  0.47569  0.18334  0.16943  1.0000
  Fe  Fe9       1.0  0.31819  0.04603  0.40061  1.0000
  S   S14       1.0  0.33286  0.05537  0.43904  1.0000
  Fe  Fe10      1.0  0.30371  0.06075  0.34594  1.0000
  S   S15       1.0  0.29947  0.02775  0.33317  1.0000
  S   S16       1.0  0.29637  0.08406  0.31275  1.0000
  Fe  Fe11      1.0  0.28473  0.02181  0.37311  1.0000
  Fe  Fe12      1.0  0.33036  0.02113  0.35199  1.0000
  H   H2        1.0  0.39694  0.02475  0.48630  1.0000
  S   S17       1.0  0.28679  0.05540  0.38493  1.0000
  S   S18       1.0  0.33549  0.05432  0.36242  1.0000
  Fe  Fe13      1.0  0.30643  0.21815  0.22028  1.0000
  S   S19       1.0  0.31782  0.22785  0.25959  1.0000
  S   S20       1.0  0.32703  0.21907  0.18330  1.0000
  Fe  Fe14      1.0  0.26087  0.21451  0.23946  1.0000
  S   S21       1.0  0.26907  0.22439  0.28022  1.0000
  S   S22       1.0  0.22594  0.20926  0.23391  1.0000
  H   H3        1.0  0.05415  0.08844  0.11979  1.0000
  Fe  Fe15      1.0  0.29661  0.20257  0.27559  1.0000
  S   S23       1.0  0.30589  0.18255  0.31087  1.0000
  S   S24       1.0  0.27925  0.24069  0.22063  1.0000
  S   S25       1.0  0.28733  0.19116  0.23602  1.0000
  C   C1        1.0  0.38174  0.16931  0.04360  1.0000
  C   C2        1.0  0.06439  0.09854  0.10709  1.0000
  C   C3        1.0  0.08060  0.23264  0.05339  1.0000
  C   C4        1.0  0.30032  0.11126  0.31272  1.0000
  C   C5        1.0  0.30410  0.12191  0.33579  1.0000
  C   C6        1.0  0.30598  0.14376  0.33493  1.0000
  C   C7        1.0  0.30407  0.15509  0.31106  1.0000
  C   C8        1.0  0.30066  0.14438  0.28796  1.0000
  C   C9        1.0  0.29880  0.12257  0.28881  1.0000
  H   H4        1.0  0.30529  0.11337  0.35433  1.0000
  H   H5        1.0  0.30872  0.15194  0.35289  1.0000
  H   H6        1.0  0.29959  0.15289  0.26943  1.0000
  H   H7        1.0  0.29620  0.11438  0.27084  1.0000
  N   N1        1.0  0.38409  0.01060  0.43555  1.0000
  C   C10       1.0  0.08766  0.15257  0.00416  1.0000
  C   C11       1.0  0.41223  0.02461  0.33889  1.0000
  C   C12       1.0  0.39047  0.02177  0.34073  1.0000
  H   H8        1.0  0.41926  0.03679  0.34988  1.0000
  H   H9        1.0  0.38075  0.03178  0.35284  1.0000
  H   H10       1.0  0.37032  0.19960  0.11312  1.0000
  C   C13       1.0  0.32253  0.05010  0.47123  1.0000
  C   C14       1.0  0.30156  0.04513  0.47574  1.0000
  H   H11       1.0  0.06278  0.02901  0.06340  1.0000
  C   C15       1.0  0.45763  0.18606  0.02464  1.0000
  Fe  Fe16      1.0  0.01001  0.02624  0.21986  1.0000
  H   H12       1.0  0.44515  0.16220  0.31931  1.0000
  H   H13       1.0  0.48426  0.16968  0.04021  1.0000
  C   C16       1.0  0.39283  0.19021  0.18458  1.0000
  C   C17       1.0  0.37775  0.18423  0.20371  1.0000
  C   C18       1.0  0.35758  0.19310  0.20365  1.0000
  C   C19       1.0  0.35235  0.20803  0.18439  1.0000
  C   C20       1.0  0.36745  0.21412  0.16533  1.0000
  C   C21       1.0  0.38770  0.20534  0.16551  1.0000
  H   H14       1.0  0.38164  0.17256  0.21857  1.0000
  H   H15       1.0  0.34603  0.18828  0.21840  1.0000
  H   H16       1.0  0.36349  0.22579  0.15052  1.0000
  H   H17       1.0  0.39933  0.21016  0.15091  1.0000
  C   C22       1.0  0.35584  0.16230  0.09410  1.0000
  C   C23       1.0  0.47177  0.10718  0.16576  1.0000
  C   C24       1.0  0.46396  0.08928  0.17895  1.0000
  H   H18       1.0  0.02123  0.10594  0.11079  1.0000
  H   H19       1.0  0.46116  0.11908  0.15849  1.0000
  H   H20       1.0  0.44729  0.08752  0.18167  1.0000
  C   C25       1.0  0.06498  0.10653  0.18962  1.0000
  C   C26       1.0  0.04776  0.10757  0.17324  1.0000
  C   C27       1.0  0.03256  0.09186  0.17487  1.0000
  C   C28       1.0  0.03431  0.07499  0.19293  1.0000
  C   C29       1.0  0.05131  0.07416  0.20967  1.0000
  C   C30       1.0  0.06649  0.08989  0.20806  1.0000
  H   H21       1.0  0.04612  0.12054  0.15950  1.0000
  N   N2        1.0  0.37780  0.17041  0.09451  1.0000
  H   H22       1.0  0.05283  0.06135  0.22372  1.0000
  H   H23       1.0  0.07963  0.08903  0.22101  1.0000
  C   C31       1.0  0.10017  0.15705  0.02567  1.0000
  H   H24       1.0  0.10089  0.20575  0.06323  1.0000
  H   H25       1.0  0.40503  0.16868  0.11894  1.0000
  H   H26       1.0  0.35182  0.05568  0.48964  1.0000
  H   H27       1.0  0.13021  0.16777  0.03700  1.0000
  C   C32       1.0  0.06146  0.23860  0.13476  1.0000
  C   C33       1.0  0.04486  0.22512  0.13993  1.0000
  H   H28       1.0  0.07004  0.07361  0.06003  1.0000
  C   C34       1.0  0.47754  0.07379  0.18890  1.0000
  H   H29       1.0  0.04796  0.20893  0.14491  1.0000
  H   H30       1.0  0.41394  0.11433  0.21722  1.0000
  S   S26       1.0  0.46675  0.05227  0.20674  1.0000
  C   C35       1.0  0.18712  0.17826  0.17047  1.0000
  C   C36       1.0  0.20906  0.17632  0.16976  1.0000
  C   C37       1.0  0.22122  0.18533  0.18922  1.0000
  C   C38       1.0  0.21154  0.19637  0.20970  1.0000
  C   C39       1.0  0.18961  0.19796  0.21070  1.0000
  C   C40       1.0  0.17747  0.18904  0.19120  1.0000
  H   H31       1.0  0.21670  0.16801  0.15383  1.0000
  H   H32       1.0  0.23803  0.18394  0.18816  1.0000
  H   H33       1.0  0.18192  0.20647  0.22641  1.0000
  H   H34       1.0  0.16064  0.19067  0.19205  1.0000
  H   H35       1.0  0.46802  0.13420  0.20762  1.0000
  H   H36       1.0  0.10399  0.05147  0.07249  1.0000
  H   H37       1.0  0.38263  0.24264  0.20303  1.0000
  H   H38       1.0  0.23824  0.22018  0.13170  1.0000
  S   S27       1.0  0.01688  0.02229  0.26294  1.0000
  H   H39       1.0  0.42166  0.02304  0.26542  1.0000
  H   H40       1.0  0.25301  0.24405  0.12836  1.0000
  H   H41       1.0  0.37172  0.04104  0.25378  1.0000
  H   H42       1.0  0.37596  0.00659  0.49149  1.0000
  H   H43       1.0  0.34888  0.04935  0.30357  1.0000
  H   H44       1.0  0.39801  0.14476  0.02179  1.0000
  C   C41       1.0  0.39755  0.20529  0.08850  1.0000
  H   H45       1.0  0.16681  0.21329  0.13705  1.0000
  H   H46       1.0  0.03914  0.12518  0.22830  1.0000
  H   H47       1.0  0.23587  0.22677  0.18156  1.0000
  H   H48       1.0  0.37698  0.00545  0.39468  1.0000
  C   C42       1.0  0.39497  0.22882  0.09137  1.0000
  C   C43       1.0  0.42490  0.01208  0.32246  1.0000
  H   H49       1.0  0.19863  0.02248  0.35631  1.0000
  H   H50       1.0  0.38313  0.03625  0.28465  1.0000
  C   C44       1.0  0.11885  0.23368  0.06524  1.0000
  H   H51       1.0  0.34121  0.18301  0.12376  1.0000
  H   H52       1.0  0.46895  0.14784  0.32552  1.0000
  H   H53       1.0  0.03265  0.18435  0.10486  1.0000
  C   C45       1.0  0.37594  0.22677  0.25154  1.0000
  H   H54       1.0  0.44056  0.24593  0.19538  1.0000
  C   C46       1.0  0.38129  0.00580  0.32707  1.0000
  H   H55       1.0  0.00834  0.11384  0.26943  1.0000
  C   C47       1.0  0.39043  0.03325  0.43453  1.0000
  H   H56       1.0  0.42611  0.03291  0.23298  1.0000
  C   C48       1.0  0.26830  0.21918  0.14906  1.0000
  H   H57       1.0  0.02815  0.14428  0.25043  1.0000
  H   H58       1.0  0.37526  0.19700  0.27252  1.0000
  H   H59       1.0  0.43165  0.12711  0.19419  1.0000
  H   H60       1.0  0.41959  0.14145  0.22096  1.0000
  H   H61       1.0  0.06937  0.19247  0.06751  1.0000
  H   H62       1.0  0.05864  0.06293  0.08929  1.0000
  H   H63       1.0  0.39478  0.04188  0.39270  1.0000
  H   H64       1.0  0.40674  0.16661  0.07198  1.0000
  H   H65       1.0  0.01936  0.09276  0.16203  1.0000
  H   H66       1.0  0.40769  0.03460  0.43596  1.0000
  H   H67       1.0  0.36625  0.16244  0.04037  1.0000
  H   H68       1.0  0.23304  0.07637  0.26196  1.0000
  H   H69       1.0  0.35690  0.01986  0.45874  1.0000
  C   C49       1.0  0.33561  0.05172  0.49292  1.0000
  H   H70       1.0  0.07201  0.14692  0.00774  1.0000
  C   C50       1.0  0.38427  0.04604  0.40949  1.0000
  N   N3        1.0  0.23295  0.14146  0.27121  1.0000
  C   C51       1.0  0.21346  0.15316  0.26318  1.0000
  C   C52       1.0  0.24967  0.14535  0.25033  1.0000
  C   C53       1.0  0.22795  0.11861  0.27404  1.0000
  C   C54       1.0  0.24069  0.14875  0.29721  1.0000
  C   C55       1.0  0.24501  0.17239  0.29880  1.0000
  C   C56       1.0  0.19551  0.15416  0.28419  1.0000
  C   C57       1.0  0.24680  0.10370  0.27903  1.0000
  C   C58       1.0  0.24564  0.13643  0.22280  1.0000
  C   C59       1.0  0.26389  0.14098  0.20367  1.0000
  C   C60       1.0  0.24977  0.17826  0.32701  1.0000
  C   C61       1.0  0.17697  0.16677  0.27368  1.0000
  C   C62       1.0  0.23996  0.08101  0.28074  1.0000
  H   H71       1.0  0.20679  0.14613  0.24547  1.0000
  H   H72       1.0  0.21719  0.16938  0.25684  1.0000
  H   H73       1.0  0.25183  0.16239  0.24716  1.0000
  H   H74       1.0  0.26502  0.13929  0.25699  1.0000
  H   H75       1.0  0.21973  0.11322  0.25644  1.0000
  H   H76       1.0  0.21677  0.11597  0.29086  1.0000
  H   H77       1.0  0.22977  0.14412  0.31364  1.0000
  H   H78       1.0  0.25571  0.14084  0.30202  1.0000
  H   H79       1.0  0.23156  0.18212  0.29244  1.0000
  H   H80       1.0  0.25880  0.17651  0.28617  1.0000
  H   H81       1.0  0.18994  0.13833  0.28959  1.0000
  H   H82       1.0  0.20054  0.16181  0.30228  1.0000
  H   H83       1.0  0.25420  0.10711  0.29794  1.0000
  H   H84       1.0  0.25880  0.10496  0.26298  1.0000
  H   H85       1.0  0.24373  0.11930  0.22385  1.0000
  H   H86       1.0  0.23141  0.14356  0.21423  1.0000
  H   H87       1.0  0.26612  0.15804  0.20118  1.0000
  H   H88       1.0  0.27852  0.13367  0.21099  1.0000
  H   H89       1.0  0.26063  0.13455  0.18409  1.0000
  H   H90       1.0  0.25402  0.19495  0.32746  1.0000
  H   H91       1.0  0.23592  0.17575  0.34021  1.0000
  H   H92       1.0  0.26312  0.16884  0.33453  1.0000
  H   H93       1.0  0.16412  0.16701  0.28877  1.0000
  H   H94       1.0  0.18162  0.18309  0.26912  1.0000
  H   H95       1.0  0.17106  0.15978  0.25553  1.0000
  H   H96       1.0  0.25376  0.07080  0.28455  1.0000
  H   H97       1.0  0.22844  0.07863  0.29721  1.0000
  C   C63       1.0  0.37599  0.21379  0.27714  1.0000
  H   H98       1.0  0.10959  0.06717  0.16824  1.0000
  H   H99       1.0  0.14094  0.02134  0.35126  1.0000
  Fe  Fe17      1.0  0.47391  0.00888  0.28575  1.0000
  H   H100      1.0  0.36544  0.19982  0.07910  1.0000
  C   C64       1.0  0.03273  0.17671  0.08544  1.0000
  H   H101      1.0  0.09915  0.11453  0.08871  1.0000
  H   H102      1.0  0.12589  0.08475  0.07954  1.0000
  H   H103      1.0  0.37431  0.13201  0.12333  1.0000
  C   C65       1.0  0.08761  0.04812  0.07819  1.0000
  C   C66       1.0  0.03026  0.11848  0.10053  1.0000
  H   H104      1.0  0.46956  0.16535  0.28113  1.0000
  H   H105      1.0  0.10301  0.09236  0.12748  1.0000
  H   H106      1.0  0.20356  0.24020  0.20163  1.0000
  H   H107      1.0  0.38363  0.04163  0.45178  1.0000
  C   C67       1.0  0.04985  0.10954  0.08692  1.0000
  C   C68       1.0  0.34866  0.06217  0.28850  1.0000
  C   C69       1.0  0.03604  0.19272  0.06307  1.0000
  C   C70       1.0  0.07907  0.03340  0.05798  1.0000
  C   C71       1.0  0.38640  0.06942  0.41342  1.0000
  C   C72       1.0  0.49616  0.14979  0.24169  1.0000
  H   H108      1.0  0.04486  0.09858  0.07180  1.0000
  H   H109      1.0  0.27596  0.21303  0.13092  1.0000
  H   H110      1.0  0.10903  0.06889  0.11141  1.0000
  C   C73       1.0  0.09572  0.07871  0.11828  1.0000
  H   H111      1.0  0.49767  0.14942  0.19834  1.0000
  H   H112      1.0  0.02244  0.20359  0.06358  1.0000
  C   C74       1.0  0.05680  0.20451  0.06612  1.0000
  H   H113      1.0  0.17443  0.03355  0.36872  1.0000
  H   H114      1.0  0.20242  0.22024  0.16113  1.0000
  C   C75       1.0  0.12715  0.10866  0.04960  1.0000
  H   H115      1.0  0.36804  0.04308  0.40386  1.0000
  H   H116      1.0  0.38126  0.17038  0.13684  1.0000
  H   H117      1.0  0.10885  0.04376  0.14890  1.0000
  C   C76       1.0  0.41361  0.03049  0.24839  1.0000
  H   H118      1.0  0.41878  0.22913  0.19114  1.0000
  H   H119      1.0  0.13396  0.22501  0.06417  1.0000
  C   C77       1.0  0.45480  0.14852  0.31332  1.0000
  C   C78       1.0  0.36090  0.01011  0.44146  1.0000
  N   N4        1.0  0.40388  0.05118  0.25619  1.0000
  C   C79       1.0  0.38228  0.04791  0.26808  1.0000
  H   H120      1.0  0.38987  0.23267  0.11176  1.0000
  C   C80       1.0  0.41701  0.06037  0.27723  1.0000
  C   C81       1.0  0.40380  0.06633  0.23304  1.0000
  C   C82       1.0  0.39011  0.06075  0.20968  1.0000
  H   H121      1.0  0.08027  0.00670  0.29038  1.0000
  C   C83       1.0  0.44073  0.06224  0.27077  1.0000
  H   H122      1.0  0.34117  0.07608  0.29753  1.0000
  H   H123      1.0  0.03094  0.22703  0.03107  1.0000
  H   H124      1.0  0.48034  0.09841  0.24413  1.0000
  C   C84       1.0  0.45192  0.07215  0.29348  1.0000
  H   H125      1.0  0.34860  0.15776  0.13669  1.0000
  H   H126      1.0  0.38341  0.23518  0.07727  1.0000
  H   H127      1.0  0.35226  0.01751  0.42499  1.0000
  H   H128      1.0  0.33907  0.05745  0.27180  1.0000
  H   H129      1.0  0.41539  0.05100  0.29586  1.0000
  H   H130      1.0  0.41141  0.07636  0.28192  1.0000
  H   H131      1.0  0.39923  0.08219  0.23959  1.0000
  H   H132      1.0  0.41985  0.06795  0.22441  1.0000
  H   H133      1.0  0.38016  0.18647  0.04163  1.0000
  H   H134      1.0  0.31236  0.16712  0.09948  1.0000
  C   C85       1.0  0.17826  0.24259  0.15156  1.0000
  C   C86       1.0  0.34218  0.16619  0.11931  1.0000
  H   H135      1.0  0.44367  0.07216  0.25302  1.0000
  H   H136      1.0  0.44804  0.04674  0.26741  1.0000
  C   C87       1.0  0.37716  0.25040  0.25695  1.0000
  H   H137      1.0  0.02778  0.14889  0.21525  1.0000
  H   H138      1.0  0.03602  0.18419  0.04435  1.0000
  C   C88       1.0  0.23733  0.23987  0.16694  1.0000
  H   H139      1.0  0.03455  0.13031  0.11499  1.0000
  C   C89       1.0  0.38867  0.16319  0.11919  1.0000
  C   C90       1.0  0.09494  0.10044  0.07773  1.0000
  H   H140      1.0  0.07941  0.19680  0.02298  1.0000
  H   H141      1.0  0.09029  0.04764  0.17572  1.0000
  H   H142      1.0  0.45070  0.06208  0.31152  1.0000
  H   H143      1.0  0.46871  0.07400  0.28813  1.0000
  H   H144      1.0  0.44508  0.08770  0.29778  1.0000
  C   C91       1.0  0.47653  0.17502  0.02255  1.0000
  S   S28       1.0  0.49298  0.18642  0.10767  1.0000
  C   C92       1.0  0.07382  0.06816  0.08038  1.0000
  H   H145      1.0  0.37896  0.07343  0.29627  1.0000
  C   C93       1.0  0.49905  0.07602  0.18473  1.0000
  H   H146      1.0  0.34797  0.24900  0.21828  1.0000
  H   H147      1.0  0.10974  0.02805  0.32823  1.0000
  H   H148      1.0  0.10721  0.21795  0.03206  1.0000
  H   H149      1.0  0.08237  0.24729  0.04145  1.0000
  H   H150      1.0  0.11760  0.11526  0.03338  1.0000
  H   H151      1.0  0.11132  0.07972  0.05021  1.0000
  S   S29       1.0  0.31525  0.01217  0.39113  1.0000
  H   H152      1.0  0.45655  0.15165  0.23003  1.0000
  H   H153      1.0  0.38030  0.07393  0.17215  1.0000
  H   H154      1.0  0.34733  0.16957  0.07733  1.0000
  H   H155      1.0  0.38862  0.00777  0.25566  1.0000
  H   H156      1.0  0.36970  0.07998  0.26373  1.0000
  H   H157      1.0  0.17123  0.23313  0.11172  1.0000
  H   H158      1.0  0.07942  0.04086  0.03800  1.0000
  H   H159      1.0  0.08545  0.10616  0.06094  1.0000
  H   H160      1.0  0.07701  0.03239  0.30343  1.0000
  S   S30       1.0  0.25371  0.00601  0.38327  1.0000
  C   C94       1.0  0.31993  0.15861  0.11605  1.0000
  C   C95       1.0  0.29361  0.04263  0.50174  1.0000
  C   C96       1.0  0.46084  0.15065  0.28407  1.0000
  N   N5        1.0  0.06216  0.22038  0.04468  1.0000
  C   C97       1.0  0.38985  0.13925  0.12415  1.0000
  N   N6        1.0  0.48117  0.13207  0.24642  1.0000
  H   H161      1.0  0.12073  0.24891  0.05471  1.0000
  C   C98       1.0  0.11520  0.09157  0.06478  1.0000
  H   H162      1.0  0.39045  0.21646  0.28809  1.0000
  H   H163      1.0  0.38944  0.22147  0.23919  1.0000
  H   H164      1.0  0.01052  0.08576  0.29675  1.0000
  H   H165      1.0  0.01141  0.22228  0.14371  1.0000
  H   H166      1.0  0.40269  0.07324  0.41823  1.0000
  C   C99       1.0  0.49137  0.11139  0.24023  1.0000
  H   H167      1.0  0.09075  0.00837  0.33705  1.0000
  S   S31       1.0  0.01476  0.05557  0.19376  1.0000
  H   H168      1.0  0.46570  0.11723  0.28014  1.0000
  H   H169      1.0  0.05349  0.20030  0.01311  1.0000
  H   H170      1.0  0.05629  0.21176  0.08585  1.0000
  C   C100      1.0  0.37083  0.06744  0.27902  1.0000
  H   H171      1.0  0.18202  0.03703  0.33426  1.0000
  C   C101      1.0  0.46287  0.13545  0.22860  1.0000
  H   H172      1.0  0.01575  0.09616  0.24423  1.0000
  C   C102      1.0  0.44451  0.12011  0.23281  1.0000
  C   C103      1.0  0.38997  0.16236  0.07096  1.0000
  H   H173      1.0  0.39678  0.04689  0.19971  1.0000
  H   H174      1.0  0.07028  0.11079  0.12016  1.0000
  C   C104      1.0  0.42635  0.12615  0.21518  1.0000
  H   H175      1.0  0.38841  0.14066  0.16712  1.0000
  C   C105      1.0  0.17106  0.00590  0.34510  1.0000
  H   H176      1.0  0.39002  0.14505  0.07111  1.0000
  H   H177      1.0  0.39923  0.11675  0.15426  1.0000
  H   H178      1.0  0.41453  0.13997  0.15279  1.0000
  C   C106      1.0  0.38976  0.07848  0.18907  1.0000
  H   H179      1.0  0.27946  0.22956  0.15859  1.0000
  H   H180      1.0  0.48763  0.16499  0.24261  1.0000
  C   C107      1.0  0.03589  0.24714  0.06433  1.0000
  H   H181      1.0  0.44552  0.13423  0.31717  1.0000
  H   H182      1.0  0.44950  0.10409  0.22775  1.0000
  H   H183      1.0  0.02016  0.12613  0.08560  1.0000
  C   C108      1.0  0.47432  0.13173  0.27504  1.0000
  C   C109      1.0  0.39851  0.13390  0.15127  1.0000
  H   H184      1.0  0.40040  0.13186  0.10930  1.0000
  H   H185      1.0  0.20638  0.23265  0.13037  1.0000
  H   H186      1.0  0.07792  0.23790  0.07400  1.0000
  H   H187      1.0  0.38217  0.07801  0.39503  1.0000
  H   H188      1.0  0.08786  0.03950  0.09737  1.0000
  C   C110      1.0  0.08874  0.02034  0.29762  1.0000
  C   C111      1.0  0.02633  0.13677  0.23114  1.0000
  H   H189      1.0  0.40584  0.08186  0.18160  1.0000
  C   C112      1.0  0.06722  0.20903  0.01956  1.0000
  C   C113      1.0  0.49330  0.10962  0.16198  1.0000
  H   H190      1.0  0.11483  0.23637  0.08632  1.0000
  H   H191      1.0  0.14888  0.23493  0.13391  1.0000
  H   H192      1.0  0.40968  0.19980  0.10220  1.0000
  H   H193      1.0  0.36216  0.21776  0.28982  1.0000
  H   H194      1.0  0.41020  0.23639  0.08704  1.0000
  H   H195      1.0  0.48818  0.13112  0.28784  1.0000
  C   C114      1.0  0.08406  0.06646  0.14077  1.0000
  H   H196      1.0  0.37566  0.07471  0.42953  1.0000
  C   C115      1.0  0.12037  0.16431  0.02071  1.0000
  Fe  Fe18      1.0  0.48418  0.02745  0.23100  1.0000
  H   H197      1.0  0.37374  0.05778  0.21606  1.0000
  H   H198      1.0  0.31060  0.16151  0.13439  1.0000
  H   H199      1.0  0.38269  0.09280  0.19759  1.0000
  H   H200      1.0  0.05790  0.12280  0.07688  1.0000
  C   C116      1.0  0.09924  0.05559  0.15947  1.0000
  H   H201      1.0  0.44616  0.15202  0.27301  1.0000
  H   H202      1.0  0.09875  0.02684  0.28135  1.0000
  C   C117      1.0  0.10195  0.22095  0.05263  1.0000
  S   S32       1.0  0.49386  0.03559  0.27158  1.0000
  C   C118      1.0  0.39653  0.16202  0.02148  1.0000
  C   C119      1.0  0.37666  0.19393  0.09400  1.0000
  H   H203      1.0  0.07447  0.07733  0.15269  1.0000
  H   H204      1.0  0.07342  0.05472  0.13309  1.0000
  H   H205      1.0  0.43842  0.11986  0.25343  1.0000
  N   N7        1.0  0.08242  0.08594  0.09563  1.0000
  H   H206      1.0  0.01750  0.16898  0.08329  1.0000
  C   C120      1.0  0.02418  0.23274  0.13932  1.0000
  H   H207      1.0  0.40331  0.20262  0.06809  1.0000
  Fe  Fe19      1.0  0.28958  0.24888  0.26117  1.0000
  H   H208      1.0  0.31995  0.14163  0.11235  1.0000
  H   H209      1.0  0.14924  0.01927  0.31799  1.0000
  H   H210      1.0  0.26328  0.00951  0.48240  1.0000
  H   H211      1.0  0.17134  0.23974  0.17161  1.0000
  H   H212      1.0  0.36151  0.22317  0.24121  1.0000
  H   H213      1.0  0.35591  0.14531  0.09020  1.0000
  C   C121      1.0  0.39863  0.01349  0.23891  1.0000
  C   C122      1.0  0.18212  0.02603  0.35147  1.0000
  C   C123      1.0  0.42346  0.24565  0.19226  1.0000
  C   C124      1.0  0.16561  0.23022  0.13234  1.0000
  H   H214      1.0  0.08883  0.01897  0.05734  1.0000
  C   C125      1.0  0.10182  0.01400  0.32134  1.0000
  H   H215      1.0  0.13129  0.12139  0.06290  1.0000
  H   H216      1.0  0.04878  0.24740  0.02497  1.0000
  H   H217      1.0  0.04525  0.16459  0.08475  1.0000
  H   H218      1.0  0.26474  0.20583  0.16266  1.0000
  H   H219      1.0  0.41225  0.16876  0.02357  1.0000
  C   C126      1.0  0.39259  0.00815  0.48521  1.0000
  H   H220      1.0  0.38823  0.01941  0.22332  1.0000
  H   H221      1.0  0.40405  0.00802  0.40058  1.0000
  C   C127      1.0  0.04416  0.23524  0.03987  1.0000
  S   S33       1.0  0.49427  0.24065  0.14894  1.0000
  H   H222      1.0  0.14177  0.10207  0.04081  1.0000
  C   C128      1.0  0.24830  0.23113  0.14196  1.0000
  H   H223      1.0  0.41533  0.24719  0.23334  1.0000
  C   C129      1.0  0.20161  0.23576  0.15106  1.0000
  S   S34       1.0  0.45220  0.01626  0.32084  1.0000
  H   H224      1.0  0.49527  0.11062  0.21886  1.0000
  H   H225      1.0  0.03091  0.23630  0.08051  1.0000
  C   C130      1.0  0.14812  0.01026  0.33699  1.0000
  H   H226      1.0  0.24870  0.25073  0.17520  1.0000
  N   N8        1.0  0.21634  0.25051  0.16365  1.0000
  H   H227      1.0  0.43311  0.20135  0.00284  1.0000
  H   H228      1.0  0.00394  0.25135  0.05123  1.0000
  C   C131      1.0  0.00507  0.12637  0.23002  1.0000
  Fe  Fe20      1.0  0.08472  0.14738  0.85598  1.0000
  S   S35       1.0  0.09394  0.17324  0.82738  1.0000
  S   S36       1.0  0.05856  0.12430  0.84737  1.0000
  Fe  Fe21      1.0  0.11162  0.16436  0.89977  1.0000
  S   S37       1.0  0.12263  0.19092  0.87356  1.0000
  S   S38       1.0  0.12646  0.16505  0.94045  1.0000
  Fe  Fe22      1.0  0.08935  0.19470  0.86147  1.0000
  S   S39       1.0  0.07976  0.22907  0.85893  1.0000
  Fe  Fe23      1.0  0.12694  0.16800  0.84129  1.0000
  S   S40       1.0  0.15288  0.17006  0.80879  1.0000
  S   S41       1.0  0.07796  0.16958  0.88964  1.0000
  S   S42       1.0  0.11799  0.14061  0.86798  1.0000
  Fe  Fe24      1.0  0.44311  0.19635  0.86281  1.0000
  S   S43       1.0  0.46247  0.18658  0.82761  1.0000
  S   S44       1.0  0.41106  0.21203  0.86083  1.0000
  Fe  Fe25      1.0  0.47422  0.17793  0.90253  1.0000
  H   H229      1.0  0.02216  0.11266  0.73617  1.0000
  H   H230      1.0  0.41440  0.11087  0.80769  1.0000
  Fe  Fe26      1.0  0.46639  0.15607  0.84986  1.0000
  H   H231      1.0  0.13582  0.01998  0.67614  1.0000
  S   S45       1.0  0.47015  0.20991  0.88416  1.0000
  S   S46       1.0  0.44562  0.16539  0.88418  1.0000
  Fe  Fe27      1.0  0.34853  0.02956  0.63106  1.0000
  S   S47       1.0  0.33297  0.05970  0.61790  1.0000
  H   H232      1.0  0.04901  0.09246  0.71018  1.0000
  H   H233      1.0  0.02840  0.09976  0.76653  1.0000
  S   S48       1.0  0.28819  0.03648  0.62985  1.0000
  Fe  Fe28      1.0  0.31124  0.03945  0.59547  1.0000
  S   S49       1.0  0.29532  0.04231  0.55569  1.0000
  Fe  Fe29      1.0  0.31142  0.05412  0.65295  1.0000
  S   S50       1.0  0.30562  0.07671  0.68651  1.0000
  S   S51       1.0  0.32790  0.02476  0.66681  1.0000
  H   H234      1.0  0.23205  0.03272  0.61946  1.0000
  H   H235      1.0  0.33473  0.14248  0.74200  1.0000
  S   S52       1.0  0.01549  0.02634  0.72195  1.0000
  H   H236      1.0  0.01373  0.07792  0.71645  1.0000
  C   C132      1.0  0.02337  0.07941  0.73408  1.0000
  S   S53       1.0  0.29728  0.23104  0.77393  1.0000
  Fe  Fe30      1.0  0.28770  0.19494  0.71561  1.0000
  S   S54       1.0  0.29409  0.18255  0.75624  1.0000
  S   S55       1.0  0.28335  0.17364  0.68099  1.0000
  Fe  Fe31      1.0  0.27146  0.20764  0.76985  1.0000
  S   S56       1.0  0.24772  0.20138  0.80386  1.0000
  Fe  Fe32      1.0  0.31898  0.20689  0.75657  1.0000
  S   S57       1.0  0.35331  0.19898  0.76271  1.0000
  S   S58       1.0  0.26374  0.21892  0.72898  1.0000
  S   S59       1.0  0.31386  0.21785  0.71477  1.0000
  Fe  Fe33      1.0  0.02418  0.02190  0.76449  1.0000
  S   S60       1.0  0.05106  0.04201  0.77855  1.0000
  H   H237      1.0  0.19168  0.02415  0.65211  1.0000
  C   C133      1.0  0.30660  0.04448  0.52347  1.0000
  C   C134      1.0  0.32775  0.04869  0.51893  1.0000
  C   C135      1.0  0.11368  0.21372  0.78373  1.0000
  H   H238      1.0  0.33788  0.05029  0.53546  1.0000
  C   C136      1.0  0.30025  0.10377  0.68400  1.0000
  C   C137      1.0  0.30084  0.11559  0.70691  1.0000
  C   C138      1.0  0.29610  0.13705  0.70613  1.0000
  C   C139      1.0  0.29030  0.14685  0.68250  1.0000
  C   C140      1.0  0.28958  0.13500  0.65960  1.0000
  C   C141      1.0  0.29472  0.11357  0.66027  1.0000
  H   H239      1.0  0.30499  0.10810  0.72539  1.0000
  H   H240      1.0  0.29673  0.14593  0.72386  1.0000
  H   H241      1.0  0.28508  0.14244  0.64123  1.0000
  H   H242      1.0  0.29407  0.10460  0.64253  1.0000
  H   H243      1.0  0.44319  0.10121  0.69664  1.0000
  C   C142      1.0  0.40250  0.07751  0.78273  1.0000
  H   H244      1.0  0.37636  0.09789  0.77639  1.0000
  H   H245      1.0  0.26121  0.02496  0.58811  1.0000
  H   H246      1.0  0.24670  0.03607  0.56132  1.0000
  H   H247      1.0  0.02112  0.06540  0.74685  1.0000
  C   C143      1.0  0.47447  0.10778  0.81471  1.0000
  H   H248      1.0  0.38860  0.10687  0.81881  1.0000
  H   H249      1.0  0.49977  0.16177  0.99610  1.0000
  C   C144      1.0  0.36322  0.14047  0.76425  1.0000
  H   H250      1.0  0.36582  0.15654  0.79995  1.0000
  H   H251      1.0  0.49415  0.22232  0.96684  1.0000
  H   H252      1.0  0.21701  0.04382  0.59264  1.0000
  C   C145      1.0  0.39507  0.20897  0.83333  1.0000
  C   C146      1.0  0.40369  0.20500  0.80835  1.0000
  C   C147      1.0  0.39061  0.20272  0.78681  1.0000
  C   C148      1.0  0.36883  0.20419  0.79002  1.0000
  C   C149      1.0  0.36016  0.20869  0.81481  1.0000
  C   C150      1.0  0.37327  0.21112  0.83638  1.0000
  H   H253      1.0  0.42045  0.20372  0.80564  1.0000
  H   H254      1.0  0.39744  0.19970  0.76755  1.0000
  H   H255      1.0  0.34339  0.20988  0.81751  1.0000
  H   H256      1.0  0.36651  0.21441  0.85561  1.0000
  C   C151      1.0  0.45650  0.18833  0.97640  1.0000
  C   C152      1.0  0.47528  0.17708  0.97433  1.0000
  H   H257      1.0  0.40041  0.10567  0.75974  1.0000
  Fe  Fe34      1.0  0.48985  0.19766  0.85061  1.0000
  C   C153      1.0  0.05702  0.10138  0.82817  1.0000
  C   C154      1.0  0.03866  0.08955  0.82984  1.0000
  C   C155      1.0  0.03662  0.07129  0.81513  1.0000
  C   C156      1.0  0.05275  0.06481  0.79798  1.0000
  C   C157      1.0  0.07113  0.07660  0.79636  1.0000
  C   C158      1.0  0.07328  0.09474  0.81129  1.0000
  H   H258      1.0  0.02608  0.09431  0.84308  1.0000
  H   H259      1.0  0.02279  0.06195  0.81762  1.0000
  H   H260      1.0  0.08386  0.07166  0.78347  1.0000
  H   H261      1.0  0.08753  0.10357  0.80979  1.0000
  H   H262      1.0  0.10928  0.21564  0.76280  1.0000
  C   C159      1.0  0.03670  0.22605  0.85544  1.0000
  C   C160      1.0  0.05391  0.23907  0.85698  1.0000
  S   S61       1.0  0.45776  0.12487  0.83265  1.0000
  H   H263      1.0  0.08190  0.01496  0.74274  1.0000
  H   H264      1.0  0.03904  0.20933  0.85539  1.0000
  H   H265      1.0  0.12371  0.00604  0.63304  1.0000
  C   C161      1.0  0.17898  0.17956  0.80814  1.0000
  C   C162      1.0  0.19093  0.18030  0.83078  1.0000
  C   C163      1.0  0.21178  0.18718  0.82907  1.0000
  C   C164      1.0  0.22110  0.19334  0.80474  1.0000
  C   C165      1.0  0.20906  0.19291  0.78215  1.0000
  C   C166      1.0  0.18823  0.18591  0.78383  1.0000
  H   H266      1.0  0.18426  0.17515  0.84957  1.0000
  H   H267      1.0  0.22087  0.18746  0.84673  1.0000
  H   H268      1.0  0.21576  0.19809  0.76342  1.0000
  H   H269      1.0  0.17917  0.18548  0.76617  1.0000
  C   C167      1.0  0.09530  0.15513  0.97797  1.0000
  C   C168      1.0  0.11567  0.16200  0.97297  1.0000
  H   H270      1.0  0.36887  0.12662  0.75360  1.0000
  H   H271      1.0  0.08557  0.15149  0.96163  1.0000
  H   H272      1.0  0.39794  0.06736  0.76648  1.0000
  H   H273      1.0  0.42797  0.03035  0.64163  1.0000
  H   H274      1.0  0.44869  0.19351  0.95873  1.0000
  C   C169      1.0  0.40646  0.14609  0.77636  1.0000
  C   C170      1.0  0.43041  0.14484  0.77972  1.0000
  C   C171      1.0  0.44196  0.15509  0.75626  1.0000
  H   H275      1.0  0.40215  0.16284  0.77397  1.0000
  H   H276      1.0  0.40330  0.13917  0.75712  1.0000
  H   H277      1.0  0.39986  0.16393  0.82053  1.0000
  H   H278      1.0  0.43499  0.15318  0.79752  1.0000
  H   H279      1.0  0.43592  0.12842  0.78116  1.0000
  H   H280      1.0  0.36924  0.15445  0.75337  1.0000
  H   H281      1.0  0.33304  0.15510  0.77324  1.0000
  H   H282      1.0  0.43745  0.17182  0.75437  1.0000
  H   H283      1.0  0.45904  0.15403  0.75939  1.0000
  H   H284      1.0  0.43851  0.14709  0.73773  1.0000
  N   N9        1.0  0.23235  0.13661  0.73630  1.0000
  C   C172      1.0  0.24795  0.13239  0.75760  1.0000
  C   C173      1.0  0.23661  0.12179  0.71405  1.0000
  C   C174      1.0  0.23609  0.15839  0.72537  1.0000
  C   C175      1.0  0.20993  0.13532  0.74633  1.0000
  C   C176      1.0  0.20507  0.11964  0.76938  1.0000
  C   C177      1.0  0.24818  0.14872  0.77963  1.0000
  C   C178      1.0  0.22345  0.16491  0.70074  1.0000
  C   C179      1.0  0.23516  0.09822  0.72074  1.0000
  C   C180      1.0  0.24199  0.08527  0.69704  1.0000
  C   C181      1.0  0.18155  0.11818  0.77479  1.0000
  C   C182      1.0  0.26074  0.14097  0.80314  1.0000
  C   C183      1.0  0.22463  0.18832  0.69499  1.0000
  H   H285      1.0  0.26406  0.13161  0.74881  1.0000
  H   H286      1.0  0.24552  0.11692  0.76721  1.0000
  H   H287      1.0  0.22542  0.12461  0.69794  1.0000
  H   H288      1.0  0.25243  0.12470  0.70513  1.0000
  H   H289      1.0  0.25293  0.16050  0.72020  1.0000
  H   H290      1.0  0.23232  0.17010  0.74061  1.0000
  H   H291      1.0  0.20429  0.15074  0.75348  1.0000
  H   H292      1.0  0.19951  0.13173  0.72986  1.0000
  H   H293      1.0  0.21207  0.12473  0.78787  1.0000
  H   H294      1.0  0.21119  0.10382  0.76547  1.0000
  H   H295      1.0  0.25553  0.16323  0.77201  1.0000
  H   H296      1.0  0.23219  0.15281  0.78671  1.0000
  H   H297      1.0  0.20675  0.16088  0.70343  1.0000
  H   H298      1.0  0.22993  0.15701  0.68302  1.0000
  H   H299      1.0  0.24530  0.09347  0.73723  1.0000
  H   H300      1.0  0.21876  0.09410  0.72562  1.0000
  H   H301      1.0  0.23199  0.08885  0.67991  1.0000
  H   H302      1.0  0.25850  0.08843  0.69132  1.0000
  H   H303      1.0  0.24072  0.06843  0.70217  1.0000
  H   H304      1.0  0.17846  0.10740  0.79182  1.0000
  H   H305      1.0  0.17485  0.13371  0.77973  1.0000
  H   H306      1.0  0.17360  0.11221  0.75737  1.0000
  H   H307      1.0  0.25348  0.12694  0.81244  1.0000
  H   H308      1.0  0.27708  0.13727  0.79685  1.0000
  H   H309      1.0  0.26102  0.15336  0.81806  1.0000
  H   H310      1.0  0.24103  0.19287  0.69069  1.0000
  H   H311      1.0  0.21530  0.19245  0.67744  1.0000
  H   H312      1.0  0.21833  0.19727  0.71197  1.0000
  H   H313      1.0  0.35861  0.24379  0.75811  1.0000
  H   H314      1.0  0.47276  0.06019  0.78569  1.0000
  H   H315      1.0  0.40593  0.14207  0.87837  1.0000
  H   H316      1.0  0.24104  0.05567  0.60185  1.0000
  H   H317      1.0  0.01782  0.14089  0.75903  1.0000
  C   C184      1.0  0.14504  0.00564  0.68108  1.0000
  C   C185      1.0  0.23458  0.00599  0.57651  1.0000
  H   H318      1.0  0.35653  0.24124  0.68451  1.0000
  C   C186      1.0  0.08427  0.01060  0.72180  1.0000
  H   H319      1.0  0.17003  0.03904  0.66558  1.0000
  C   C187      1.0  0.39788  0.11345  0.80193  1.0000
  H   H320      1.0  0.07243  0.19773  0.96740  1.0000
  H   H321      1.0  0.44949  0.01907  0.67957  1.0000
  H   H322      1.0  0.25660  0.01339  0.53147  1.0000
  H   H323      1.0  0.15894  0.00782  0.64099  1.0000
  H   H324      1.0  0.12445  0.24496  0.78483  1.0000
  C   C188      1.0  0.16931  0.21851  0.89546  1.0000
  H   H325      1.0  0.38009  0.14997  0.88916  1.0000
  C   C189      1.0  0.37035  0.14061  0.79328  1.0000
  H   H326      1.0  0.14426  0.22582  0.77670  1.0000
  H   H327      1.0  0.41427  0.14148  0.83042  1.0000
  C   C190      1.0  0.36388  0.24115  0.70409  1.0000
  H   H328      1.0  0.36061  0.22599  0.71420  1.0000
  H   H329      1.0  0.12241  0.22646  0.83176  1.0000
  H   H330      1.0  0.50162  0.12705  0.81498  1.0000
  C   C191      1.0  0.38304  0.14349  0.84742  1.0000
  H   H331      1.0  0.18476  0.22358  0.85811  1.0000
  H   H332      1.0  0.21930  0.00992  0.56762  1.0000
  H   H333      1.0  0.46291  0.23819  0.94749  1.0000
  H   H334      1.0  0.36052  0.12956  0.80522  1.0000
  C   C192      1.0  0.40175  0.00415  0.70308  1.0000
  H   H335      1.0  0.05010  0.06453  0.71490  1.0000
  H   H336      1.0  0.14429  0.21167  0.82165  1.0000
  C   C193      1.0  0.24539  0.02716  0.58026  1.0000
  S   S62       1.0  0.49506  0.02523  0.71445  1.0000
  C   C194      1.0  0.49535  0.22823  0.94614  1.0000
  C   C195      1.0  0.13062  0.22922  0.78989  1.0000
  H   H337      1.0  0.35825  0.03108  0.72271  1.0000
  C   C196      1.0  0.39192  0.15141  0.87289  1.0000
  C   C197      1.0  0.39347  0.09944  0.77839  1.0000
  C   C198      1.0  0.47909  0.07475  0.79193  1.0000
  H   H338      1.0  0.16902  0.24572  0.79189  1.0000
  C   C199      1.0  0.01773  0.09938  0.74948  1.0000
  N   N10       1.0  0.38024  0.09377  0.67879  1.0000
  C   C200      1.0  0.38587  0.08099  0.65495  1.0000
  C   C201      1.0  0.36582  0.08170  0.69746  1.0000
  C   C202      1.0  0.36849  0.11295  0.66914  1.0000
  C   C203      1.0  0.39933  0.10079  0.69276  1.0000
  C   C204      1.0  0.41457  0.08348  0.70244  1.0000
  C   C205      1.0  0.39972  0.09179  0.63330  1.0000
  C   C206      1.0  0.35856  0.12703  0.69072  1.0000
  C   C207      1.0  0.36912  0.05774  0.69956  1.0000
  C   C208      1.0  0.35615  0.04828  0.72236  1.0000
  C   C209      1.0  0.43456  0.09275  0.71274  1.0000
  C   C210      1.0  0.40553  0.07683  0.61124  1.0000
  C   C211      1.0  0.34728  0.14580  0.67830  1.0000
  H   H339      1.0  0.37136  0.07589  0.64545  1.0000
  H   H340      1.0  0.39407  0.06632  0.66059  1.0000
  H   H341      1.0  0.36624  0.08809  0.71765  1.0000
  H   H342      1.0  0.34933  0.08366  0.69130  1.0000
  H   H343      1.0  0.35564  0.10834  0.65608  1.0000
  H   H344      1.0  0.37890  0.12321  0.65695  1.0000
  H   H345      1.0  0.40829  0.11207  0.68013  1.0000
  H   H346      1.0  0.39469  0.10958  0.71059  1.0000
  H   H347      1.0  0.41927  0.07269  0.68656  1.0000
  H   H348      1.0  0.40726  0.07453  0.71906  1.0000
  H   H349      1.0  0.39134  0.10517  0.62404  1.0000
  H   H350      1.0  0.41447  0.09728  0.64152  1.0000
  H   H351      1.0  0.37060  0.13319  0.70361  1.0000
  H   H352      1.0  0.34695  0.11842  0.70317  1.0000
  H   H353      1.0  0.36403  0.05056  0.68114  1.0000
  H   H354      1.0  0.38560  0.05314  0.70237  1.0000
  H   H355      1.0  0.36120  0.05430  0.74147  1.0000
  H   H356      1.0  0.33930  0.05193  0.71985  1.0000
  C   C212      1.0  0.04621  0.07947  0.72459  1.0000
  H   H357      1.0  0.44484  0.08002  0.72037  1.0000
  H   H358      1.0  0.43101  0.10357  0.72905  1.0000
  H   H359      1.0  0.41495  0.08505  0.59568  1.0000
  H   H360      1.0  0.41492  0.06348  0.61898  1.0000
  H   H361      1.0  0.33495  0.14063  0.66504  1.0000
  H   H362      1.0  0.33976  0.15537  0.69394  1.0000
  H   H363      1.0  0.35843  0.15575  0.66682  1.0000
  H   H364      1.0  0.27718  0.03977  0.50507  1.0000
  C   C213      1.0  0.08346  0.20985  0.97336  1.0000
  H   H365      1.0  0.08276  0.02494  0.70931  1.0000
  C   C214      1.0  0.16849  0.22145  0.86553  1.0000
  S   S63       1.0  0.48718  0.17117  0.94342  1.0000
  C   C215      1.0  0.15431  0.24029  0.85779  1.0000
  H   H366      1.0  0.09953  0.21638  0.79640  1.0000
  H   H367      1.0  0.01127  0.23619  0.91435  1.0000
  H   H368      1.0  0.17804  0.22633  0.81409  1.0000
  H   H369      1.0  0.45045  0.08496  0.81116  1.0000
  H   H370      1.0  0.37286  0.00794  0.68219  1.0000
  H   H371      1.0  0.00767  0.15516  0.80260  1.0000
  H   H372      1.0  0.17614  0.23237  0.90447  1.0000
  C   C216      1.0  0.42054  0.02316  0.65883  1.0000
  H   H373      1.0  0.11949  0.19752  0.78689  1.0000
  H   H374      1.0  0.04673  0.22189  0.91229  1.0000
  C   C217      1.0  0.48526  0.17054  0.99751  1.0000
  S   S64       1.0  0.49529  0.16616  0.86975  1.0000
  H   H375      1.0  0.13899  0.23790  0.86821  1.0000
  H   H376      1.0  0.16265  0.20690  0.85735  1.0000
  C   C218      1.0  0.02342  0.24470  0.92478  1.0000
  H   H377      1.0  0.06020  0.23146  0.98765  1.0000
  C   C219      1.0  0.23300  0.04060  0.59975  1.0000
  H   H378      1.0  0.08727  0.21993  0.95588  1.0000
  H   H379      1.0  0.15346  0.21587  0.90415  1.0000
  S   S65       1.0  0.38410  0.02841  0.63173  1.0000
  Fe  Fe35      1.0  0.30652  0.00772  0.64051  1.0000
  S   S66       1.0  0.48330  0.00846  0.77470  1.0000
  C   C220      1.0  0.42346  0.00709  0.70252  1.0000
  N   N11       1.0  0.15116  0.24387  0.82862  1.0000
  H   H380      1.0  0.09816  0.20222  0.97986  1.0000
  N   N12       1.0  0.39324  0.13644  0.79832  1.0000
  H   H381      1.0  0.50016  0.24426  0.86956  1.0000
  H   H382      1.0  0.21535  0.23730  0.81458  1.0000
  H   H383      1.0  0.39620  0.16807  0.87057  1.0000
  C   C221      1.0  0.39862  0.14681  0.82372  1.0000
  H   H384      1.0  0.41982  0.07792  0.78298  1.0000
  C   C222      1.0  0.13689  0.22727  0.81921  1.0000
  H   H385      1.0  0.39651  0.07054  0.80163  1.0000
  H   H386      1.0  0.47835  0.25083  0.92183  1.0000
  Fe  Fe36      1.0  0.29094  0.24087  0.73182  1.0000
  H   H387      1.0  0.14387  0.17194  0.99090  1.0000
  C   C223      1.0  0.39884  0.02007  0.65931  1.0000
  H   H388      1.0  0.11777  0.01198  0.72303  1.0000
  H   H389      1.0  0.03579  0.21685  0.94479  1.0000
  H   H390      1.0  0.00688  0.24102  0.96179  1.0000
  C   C224      1.0  0.38950  0.01056  0.68160  1.0000
  H   H391      1.0  0.05446  0.23759  0.93908  1.0000
  H   H392      1.0  0.17920  0.20467  0.90031  1.0000
  H   H393      1.0  0.33254  0.12694  0.77194  1.0000
  C   C225      1.0  0.04114  0.22931  0.93078  1.0000
  H   H394      1.0  0.36824  0.15224  0.84405  1.0000
  H   H395      1.0  0.37925  0.12686  0.85075  1.0000
  S   S67       1.0  0.32872  0.00996  0.60556  1.0000
  C   C226      1.0  0.46645  0.08885  0.80628  1.0000
  C   C227      1.0  0.17154  0.24252  0.81320  1.0000
  C   C228      1.0  0.33942  0.14125  0.76288  1.0000
  C   C229      1.0  0.01642  0.23469  0.85389  1.0000
  H   H396      1.0  0.38101  0.24270  0.70107  1.0000
  H   H397      1.0  0.39126  0.07081  0.60221  1.0000
  C   C230      1.0  0.12810  0.16662  0.99453  1.0000
  C   C231      1.0  0.17863  0.02393  0.66694  1.0000
  C   C232      1.0  0.43280  0.01676  0.68032  1.0000
  H   H398      1.0  0.05672  0.08106  0.74146  1.0000
  H   H399      1.0  0.39252  0.25107  0.78706  1.0000
  H   H400      1.0  0.39046  0.16722  0.00208  1.0000
  H   H401      1.0  0.18536  0.02203  0.68682  1.0000
  H   H402      1.0  0.49184  0.21532  0.93303  1.0000
  H   H403      1.0  0.15081  0.00827  0.70124  1.0000
  C   C233      1.0  0.49527  0.11256  0.80854  1.0000
  C   C234      1.0  0.44772  0.19276  0.00144  1.0000
  H   H404      1.0  0.46246  0.00652  0.83151  1.0000
  C   C235      1.0  0.47843  0.24497  0.94260  1.0000
  C   C236      1.0  0.49992  0.07947  0.78587  1.0000
  H   H405      1.0  0.10366  0.00597  0.67607  1.0000
  C   C237      1.0  0.16417  0.00588  0.66158  1.0000
  C   C238      1.0  0.07398  0.22294  0.99551  1.0000
  H   H406      1.0  0.23208  0.00274  0.52510  1.0000
  H   H407      1.0  0.00403  0.11670  0.79454  1.0000
  H   H408      1.0  0.08572  0.23456  0.00062  1.0000
  Fe  Fe37      1.0  0.37080  0.41531  0.35344  1.0000
  S   S68       1.0  0.35075  0.40381  0.32117  1.0000
  S   S69       1.0  0.40470  0.42644  0.35094  1.0000
  Fe  Fe38      1.0  0.33716  0.40642  0.39683  1.0000
  S   S70       1.0  0.31461  0.39447  0.36751  1.0000
  S   S71       1.0  0.32508  0.40993  0.43935  1.0000
  Fe  Fe39      1.0  0.34207  0.37735  0.34919  1.0000
  S   S72       1.0  0.34333  0.34229  0.34072  1.0000
  Fe  Fe40      1.0  0.32461  0.42163  0.34188  1.0000
  S   S73       1.0  0.30223  0.44280  0.31944  1.0000
  S   S74       1.0  0.36402  0.38761  0.38047  1.0000
  S   S75       1.0  0.34520  0.43487  0.37216  1.0000
  S   S76       1.0  0.28808  0.28367  0.27053  1.0000
  H   H409      1.0  0.45757  0.48322  0.44410  1.0000
  H   H410      1.0  0.01666  0.42682  0.13427  1.0000
  S   S77       1.0  0.45238  0.47783  0.25836  1.0000
  H   H411      1.0  0.32895  0.45736  0.46499  1.0000
  N   N13       1.0  0.39037  0.45434  0.43275  1.0000
  H   H412      1.0  0.37334  0.46656  0.48311  1.0000
  S   S78       1.0  0.02045  0.45414  0.17803  1.0000
  C   C239      1.0  0.21861  0.27093  0.14846  1.0000
  H   H413      1.0  0.31741  0.26423  0.19324  1.0000
  H   H414      1.0  0.04131  0.34916  0.09708  1.0000
  H   H415      1.0  0.36301  0.44134  0.47716  1.0000
  C   C240      1.0  0.36689  0.39450  0.49637  1.0000
  C   C241      1.0  0.21667  0.27034  0.11803  1.0000
  H   H416      1.0  0.19261  0.47363  0.26831  1.0000
  H   H417      1.0  0.07073  0.35786  0.21181  1.0000
  H   H418      1.0  0.32942  0.29491  0.49876  1.0000
  S   S79       1.0  0.01673  0.46085  0.25604  1.0000
  H   H419      1.0  0.42616  0.42604  0.44349  1.0000
  N   N14       1.0  0.37462  0.26484  0.23330  1.0000
  S   S80       1.0  0.22339  0.48387  0.37771  1.0000
  H   H420      1.0  0.06042  0.36768  0.10731  1.0000
  C   C242      1.0  0.41359  0.42066  0.43078  1.0000
  C   C243      1.0  0.41771  0.44066  0.32494  1.0000
  C   C244      1.0  0.43855  0.44665  0.32807  1.0000
  C   C245      1.0  0.44949  0.45790  0.30795  1.0000
  C   C246      1.0  0.43969  0.46329  0.28439  1.0000
  C   C247      1.0  0.41884  0.45733  0.28133  1.0000
  C   C248      1.0  0.40788  0.44618  0.30146  1.0000
  H   H421      1.0  0.44634  0.44246  0.34611  1.0000
  H   H422      1.0  0.46550  0.46233  0.31066  1.0000
  H   H423      1.0  0.41113  0.46110  0.26312  1.0000
  H   H424      1.0  0.39192  0.44163  0.29866  1.0000
  C   C249      1.0  0.28118  0.45514  0.33643  1.0000
  C   C250      1.0  0.27503  0.44863  0.36188  1.0000
  C   C251      1.0  0.25751  0.45790  0.37438  1.0000
  C   C252      1.0  0.24628  0.47409  0.36186  1.0000
  C   C253      1.0  0.25266  0.48092  0.33659  1.0000
  C   C254      1.0  0.26992  0.47131  0.32383  1.0000
  H   H425      1.0  0.28353  0.43619  0.37175  1.0000
  H   H426      1.0  0.22638  0.25788  0.10913  1.0000
  H   H427      1.0  0.05109  0.32711  0.13536  1.0000
  H   H428      1.0  0.27460  0.47638  0.30412  1.0000
  C   C255      1.0  0.32845  0.32651  0.31996  1.0000
  C   C256      1.0  0.33293  0.30499  0.31905  1.0000
  C   C257      1.0  0.32108  0.29170  0.30365  1.0000
  C   C258      1.0  0.30434  0.29973  0.28925  1.0000
  C   C259      1.0  0.29995  0.32126  0.29006  1.0000
  C   C260      1.0  0.31199  0.33459  0.30514  1.0000
  H   H429      1.0  0.34563  0.29855  0.33041  1.0000
  H   H430      1.0  0.32467  0.27520  0.30329  1.0000
  H   H431      1.0  0.28714  0.32769  0.27890  1.0000
  H   H432      1.0  0.30849  0.35110  0.30537  1.0000
  C   C261      1.0  0.35739  0.39674  0.47168  1.0000
  C   C262      1.0  0.33787  0.40659  0.46980  1.0000
  C   C263      1.0  0.06796  0.29842  0.17428  1.0000
  H   H433      1.0  0.36511  0.39080  0.45416  1.0000
  C   C264      1.0  0.01709  0.26097  0.05755  1.0000
  H   H434      1.0  0.20660  0.28249  0.15519  1.0000
  C   C265      1.0  0.03648  0.26721  0.12755  1.0000
  H   H435      1.0  0.03335  0.28336  0.12242  1.0000
  H   H436      1.0  0.42773  0.38979  0.42933  1.0000
  H   H437      1.0  0.09001  0.27252  0.17495  1.0000
  C   C266      1.0  0.00939  0.42900  0.17584  1.0000
  H   H438      1.0  0.39083  0.49711  0.29570  1.0000
  S   S81       1.0  0.06116  0.48490  0.29770  1.0000
  H   H439      1.0  0.06999  0.27001  0.12395  1.0000
  H   H440      1.0  0.29348  0.49913  0.47720  1.0000
  H   H441      1.0  0.18991  0.49127  0.32413  1.0000
  C   C267      1.0  0.03804  0.35816  0.13824  1.0000
  H   H442      1.0  0.29614  0.28610  0.40141  1.0000
  C   C268      1.0  0.38109  0.28639  0.24065  1.0000
  H   H443      1.0  0.38990  0.49928  0.35720  1.0000
  H   H444      1.0  0.33901  0.48283  0.47199  1.0000
  C   C269      1.0  0.36704  0.29721  0.26178  1.0000
  C   C270      1.0  0.39262  0.43128  0.43883  1.0000
  C   C271      1.0  0.37516  0.31883  0.26769  1.0000
  H   H445      1.0  0.01303  0.32865  0.16777  1.0000
  H   H446      1.0  0.36547  0.47742  0.43635  1.0000
  H   H447      1.0  0.38220  0.29684  0.22288  1.0000
  H   H448      1.0  0.39714  0.28590  0.24854  1.0000
  H   H449      1.0  0.36931  0.48171  0.39264  1.0000
  C   C272      1.0  0.36254  0.45790  0.47077  1.0000
  H   H450      1.0  0.35679  0.45189  0.42961  1.0000
  C   C273      1.0  0.01832  0.30864  0.20139  1.0000
  H   H451      1.0  0.10148  0.29739  0.18085  1.0000
  H   H452      1.0  0.36675  0.28799  0.28053  1.0000
  H   H453      1.0  0.35076  0.29926  0.25516  1.0000
  C   C274      1.0  0.41241  0.39703  0.43470  1.0000
  C   C275      1.0  0.22769  0.42023  0.32464  1.0000
  H   H454      1.0  0.39083  0.42801  0.46033  1.0000
  H   H455      1.0  0.38292  0.44666  0.39300  1.0000
  C   C276      1.0  0.09441  0.49987  0.32419  1.0000
  H   H456      1.0  0.36486  0.32628  0.28278  1.0000
  H   H457      1.0  0.39118  0.31773  0.27549  1.0000
  H   H458      1.0  0.37526  0.32894  0.24964  1.0000
  H   H459      1.0  0.01176  0.26963  0.07525  1.0000
  H   H460      1.0  0.42595  0.48210  0.41804  1.0000
  C   C277      1.0  0.19471  0.48628  0.28245  1.0000
  N   N15       1.0  0.04555  0.33217  0.17702  1.0000
  H   H461      1.0  0.03406  0.49692  0.12115  1.0000
  C   C278      1.0  0.39266  0.45788  0.40333  1.0000
  H   H462      1.0  0.02126  0.27250  0.04172  1.0000
  C   C279      1.0  0.05160  0.34003  0.14959  1.0000
  C   C280      1.0  0.22208  0.26717  0.20909  1.0000
  C   C281      1.0  0.04385  0.36295  0.10937  1.0000
  C   C282      1.0  0.40564  0.46676  0.44802  1.0000
  C   C283      1.0  0.32212  0.27994  0.19932  1.0000
  H   H463      1.0  0.13804  0.45659  0.33729  1.0000
  N   N16       1.0  0.28784  0.32893  0.38948  1.0000
  C   C284      1.0  0.30864  0.32972  0.40281  1.0000
  C   C285      1.0  0.28710  0.31039  0.37162  1.0000
  C   C286      1.0  0.28585  0.34849  0.37251  1.0000
  C   C287      1.0  0.26978  0.32874  0.40912  1.0000
  C   C288      1.0  0.26968  0.31078  0.42993  1.0000
  C   C289      1.0  0.31155  0.34800  0.42184  1.0000
  C   C290      1.0  0.26733  0.34954  0.35331  1.0000
  C   C291      1.0  0.29888  0.29019  0.38036  1.0000
  C   C292      1.0  0.38659  0.47993  0.39271  1.0000
  C   C293      1.0  0.25242  0.31410  0.45082  1.0000
  C   C294      1.0  0.33312  0.34705  0.43399  1.0000
  C   C295      1.0  0.26677  0.37046  0.33829  1.0000
  H   H464      1.0  0.32147  0.33040  0.38762  1.0000
  H   H465      1.0  0.31187  0.31529  0.41442  1.0000
  H   H466      1.0  0.27062  0.30643  0.36769  1.0000
  H   H467      1.0  0.29421  0.31433  0.35192  1.0000
  H   H468      1.0  0.30037  0.35077  0.36028  1.0000
  H   H469      1.0  0.28411  0.36244  0.38499  1.0000
  H   H470      1.0  0.26869  0.34379  0.41956  1.0000
  H   H471      1.0  0.25476  0.32764  0.39882  1.0000
  H   H472      1.0  0.28464  0.30947  0.44032  1.0000
  H   H473      1.0  0.26648  0.29585  0.42033  1.0000
  H   H474      1.0  0.31023  0.36329  0.41145  1.0000
  H   H475      1.0  0.29980  0.34746  0.43826  1.0000
  H   H476      1.0  0.25215  0.34788  0.36403  1.0000
  H   H477      1.0  0.26871  0.33716  0.33844  1.0000
  H   H478      1.0  0.31596  0.29232  0.37709  1.0000
  H   H479      1.0  0.41179  0.48196  0.36294  1.0000
  C   C296      1.0  0.38805  0.25784  0.21022  1.0000
  S   S82       1.0  0.49162  0.49749  0.20672  1.0000
  H   H480      1.0  0.22147  0.28159  0.24731  1.0000
  H   H481      1.0  0.23690  0.31512  0.44157  1.0000
  H   H482      1.0  0.34149  0.26706  0.24299  1.0000
  H   H483      1.0  0.25508  0.32859  0.46173  1.0000
  H   H484      1.0  0.33528  0.33234  0.44559  1.0000
  H   H485      1.0  0.34552  0.34819  0.41832  1.0000
  H   H486      1.0  0.33479  0.36035  0.44735  1.0000
  H   H487      1.0  0.25376  0.37073  0.32426  1.0000
  H   H488      1.0  0.26436  0.38350  0.35213  1.0000
  H   H489      1.0  0.28158  0.37295  0.32689  1.0000
  Fe  Fe41      1.0  0.03663  0.48812  0.26587  1.0000
  H   H490      1.0  0.09029  0.50176  0.25762  1.0000
  C   C297      1.0  0.00986  0.41899  0.15144  1.0000
  H   H491      1.0  0.40852  0.39285  0.45559  1.0000
  H   H492      1.0  0.22803  0.28147  0.19897  1.0000
  H   H493      1.0  0.30467  0.37467  0.48281  1.0000
  C   C298      1.0  0.05082  0.38510  0.21225  1.0000
  H   H494      1.0  0.41794  0.42369  0.40980  1.0000
  H   H495      1.0  0.40044  0.39057  0.42182  1.0000
  N   N17       1.0  0.18083  0.45962  0.31732  1.0000
  C   C299      1.0  0.08753  0.28765  0.18486  1.0000
  C   C300      1.0  0.17153  0.45825  0.34495  1.0000
  C   C301      1.0  0.20293  0.45110  0.31834  1.0000
  C   C302      1.0  0.16846  0.44682  0.29868  1.0000
  C   C303      1.0  0.15046  0.45825  0.28387  1.0000
  H   H496      1.0  0.16657  0.48957  0.30718  1.0000
  C   C304      1.0  0.20564  0.42875  0.33009  1.0000
  H   H497      1.0  0.27577  0.26781  0.36863  1.0000
  H   H498      1.0  0.44510  0.46890  0.47091  1.0000
  C   C305      1.0  0.13605  0.44282  0.27122  1.0000
  C   C306      1.0  0.05876  0.36525  0.19905  1.0000
  H   H499      1.0  0.06151  0.31651  0.20932  1.0000
  H   H500      1.0  0.40811  0.45917  0.46768  1.0000
  C   C307      1.0  0.39450  0.48344  0.36430  1.0000
  H   H501      1.0  0.17132  0.44183  0.35230  1.0000
  Fe  Fe42      1.0  0.01699  0.47393  0.21478  1.0000
  C   C308      1.0  0.20766  0.25499  0.19098  1.0000
  H   H502      1.0  0.21031  0.45102  0.29826  1.0000
  H   H503      1.0  0.17886  0.44013  0.28301  1.0000
  H   H504      1.0  0.16183  0.43300  0.30940  1.0000
  H   H505      1.0  0.15693  0.46850  0.26788  1.0000
  H   H506      1.0  0.14066  0.46825  0.29679  1.0000
  H   H507      1.0  0.19723  0.28405  0.23012  1.0000
  H   H508      1.0  0.39900  0.48248  0.45234  1.0000
  H   H509      1.0  0.19435  0.41793  0.32173  1.0000
  H   H510      1.0  0.20332  0.42887  0.35186  1.0000
  H   H511      1.0  0.31336  0.28406  0.21769  1.0000
  H   H512      1.0  0.15188  0.47241  0.39060  1.0000
  C   C309      1.0  0.36836  0.46065  0.44099  1.0000
  H   H513      1.0  0.23381  0.27817  0.15280  1.0000
  H   H514      1.0  0.05480  0.28758  0.17792  1.0000
  H   H515      1.0  0.12374  0.45149  0.26030  1.0000
  H   H516      1.0  0.14497  0.43287  0.25716  1.0000
  H   H517      1.0  0.12828  0.43282  0.28658  1.0000
  H   H518      1.0  0.31786  0.29137  0.18356  1.0000
  C   C310      1.0  0.27686  0.50018  0.48386  1.0000
  H   H519      1.0  0.07825  0.32863  0.18590  1.0000
  H   H520      1.0  0.23975  0.29419  0.10860  1.0000
  C   C311      1.0  0.05719  0.25961  0.12837  1.0000
  H   H521      1.0  0.22103  0.29035  0.08335  1.0000
  C   C312      1.0  0.14875  0.46613  0.34866  1.0000
  H   H522      1.0  0.37987  0.42273  0.42932  1.0000
  H   H523      1.0  0.29445  0.27495  0.34288  1.0000
  C   C313      1.0  0.21058  0.27342  0.23449  1.0000
  H   H524      1.0  0.40878  0.45439  0.39614  1.0000
  C   C314      1.0  0.34036  0.46590  0.47668  1.0000
  H   H525      1.0  0.22947  0.40461  0.33418  1.0000
  H   H526      1.0  0.42779  0.49256  0.16135  1.0000
  H   H527      1.0  0.03632  0.34383  0.21532  1.0000
  H   H528      1.0  0.38204  0.38695  0.49764  1.0000
  H   H529      1.0  0.23949  0.43066  0.33278  1.0000
  Fe  Fe43      1.0  0.48580  0.48916  0.24983  1.0000
  H   H530      1.0  0.25259  0.45245  0.39385  1.0000
  C   C315      1.0  0.35205  0.26460  0.22552  1.0000
  H   H531      1.0  0.06412  0.39544  0.21593  1.0000
  H   H532      1.0  0.17641  0.25941  0.14657  1.0000
  H   H533      1.0  0.21165  0.48700  0.28658  1.0000
  C   C316      1.0  0.22308  0.29103  0.10497  1.0000
  H   H534      1.0  0.20025  0.26754  0.11280  1.0000
  C   C317      1.0  0.34563  0.28044  0.20355  1.0000
  H   H535      1.0  0.14713  0.48270  0.34249  1.0000
  H   H536      1.0  0.41841  0.27204  0.21684  1.0000
  C   C318      1.0  0.29238  0.27159  0.36433  1.0000
  H   H537      1.0  0.03384  0.37594  0.10188  1.0000
  H   H538      1.0  0.21325  0.30402  0.11269  1.0000
  H   H539      1.0  0.42025  0.25381  0.17322  1.0000
  H   H540      1.0  0.43477  0.45651  0.42692  1.0000
  H   H541      1.0  0.21274  0.46148  0.33003  1.0000
  C   C319      1.0  0.08560  0.49732  0.29940  1.0000
  H   H542      1.0  0.06652  0.36990  0.18012  1.0000
  C   C320      1.0  0.42739  0.47080  0.43478  1.0000
  H   H543      1.0  0.39222  0.25309  0.26670  1.0000
  H   H544      1.0  0.34948  0.29662  0.20853  1.0000
  H   H545      1.0  0.33642  0.46328  0.49792  1.0000
  C   C321      1.0  0.04069  0.34987  0.19526  1.0000
  H   H546      1.0  0.44834  0.48475  0.18350  1.0000
  H   H547      1.0  0.03331  0.49408  0.15626  1.0000
  C   C322      1.0  0.44283  0.49722  0.16969  1.0000
  H   H548      1.0  0.06807  0.34530  0.14862  1.0000
  H   H549      1.0  0.23078  0.41877  0.30312  1.0000
  H   H550      1.0  0.12542  0.47087  0.37977  1.0000
  H   H551      1.0  0.04815  0.25734  0.07174  1.0000
  H   H552      1.0  0.07027  0.30073  0.15270  1.0000
  S   S83       1.0  0.03947  0.49975  0.22371  1.0000
  C   C323      1.0  0.18223  0.48222  0.30872  1.0000
  H   H553      1.0  0.23554  0.25725  0.21508  1.0000
  H   H554      1.0  0.14090  0.44741  0.38387  1.0000
  H   H555      1.0  0.01104  0.27849  0.18526  1.0000
  H   H556      1.0  0.02129  0.35437  0.13945  1.0000
  C   C324      1.0  0.06360  0.31954  0.18775  1.0000
  H   H557      1.0  0.18148  0.46679  0.35872  1.0000
  H   H558      1.0  0.02863  0.30688  0.16014  1.0000
  C   C325      1.0  0.14138  0.46406  0.37750  1.0000
  H   H559      1.0  0.19279  0.26410  0.18982  1.0000
  H   H560      1.0  0.35741  0.29264  0.49530  1.0000
  H   H561      1.0  0.03981  0.39369  0.19924  1.0000
  H   H562      1.0  0.45457  0.49889  0.15332  1.0000
  H   H563      1.0  0.03111  0.30166  0.21301  1.0000
  H   H564      1.0  0.04021  0.37265  0.14926  1.0000
  H   H565      1.0  0.02659  0.35871  0.18873  1.0000
  H   H566      1.0  0.38635  0.26884  0.19316  1.0000
  H   H567      1.0  0.26742  0.49102  0.47032  1.0000
  C   C326      1.0  0.32790  0.41390  0.49289  1.0000
  C   C327      1.0  0.44234  0.48002  0.45423  1.0000
  C   C328      1.0  0.02629  0.31908  0.17518  1.0000
  H   H568      1.0  0.04276  0.38137  0.23138  1.0000
  H   H569      1.0  0.20480  0.25936  0.24542  1.0000
  H   H570      1.0  0.25233  0.30077  0.46516  1.0000
  H   H571      1.0  0.30215  0.25775  0.36950  1.0000
  H   H572      1.0  0.35354  0.27664  0.18453  1.0000
  H   H573      1.0  0.43592  0.49488  0.46202  1.0000
  H   H574      1.0  0.08574  0.28451  0.20640  1.0000
  H   H575      1.0  0.31278  0.42152  0.49164  1.0000
  H   H576      1.0  0.39291  0.49224  0.40509  1.0000
  H   H577      1.0  0.40826  0.49771  0.25235  1.0000
  H   H578      1.0  0.36493  0.25388  0.27228  1.0000
  H   H579      1.0  0.38759  0.47189  0.35119  1.0000
  H   H580      1.0  0.01000  0.32038  0.21368  1.0000
  H   H581      1.0  0.08611  0.49434  0.34176  1.0000
  H   H582      1.0  0.24404  0.49327  0.32669  1.0000
  C   C329      1.0  0.41185  0.25624  0.21510  1.0000
  C   C330      1.0  0.01988  0.25381  0.13329  1.0000
  H   H583      1.0  0.06853  0.50258  0.13882  1.0000
  H   H584      1.0  0.00433  0.50089  0.04525  1.0000
  H   H585      1.0  0.50257  0.32911  0.09600  1.0000
  C   C331      1.0  0.38870  0.26644  0.79571  1.0000
  H   H586      1.0  0.25973  0.44958  0.53017  1.0000
  H   H587      1.0  0.50055  0.45711  0.67566  1.0000
  Fe  Fe44      1.0  0.37109  0.41528  0.64811  1.0000
  S   S84       1.0  0.33928  0.40788  0.66585  1.0000
  S   S85       1.0  0.39682  0.42286  0.67731  1.0000
  Fe  Fe45      1.0  0.35673  0.40412  0.59183  1.0000
  S   S86       1.0  0.32422  0.39627  0.60605  1.0000
  S   S87       1.0  0.36965  0.39857  0.54995  1.0000
  Fe  Fe46      1.0  0.32648  0.42526  0.63033  1.0000
  S   S88       1.0  0.30553  0.45441  0.63175  1.0000
  Fe  Fe47      1.0  0.33954  0.37936  0.64049  1.0000
  S   S89       1.0  0.33660  0.34404  0.64966  1.0000
  S   S90       1.0  0.35841  0.43400  0.61397  1.0000
  S   S91       1.0  0.37202  0.38591  0.62473  1.0000
  S   S92       1.0  0.28864  0.27615  0.72288  1.0000
  H   H588      1.0  0.15125  0.27712  0.83422  1.0000
  H   H589      1.0  0.39532  0.32968  0.75664  1.0000
  H   H590      1.0  0.04902  0.41319  0.59287  1.0000
  C   C332      1.0  0.50151  0.42391  0.68595  1.0000
  H   H591      1.0  0.05163  0.32051  0.92588  1.0000
  H   H592      1.0  0.07698  0.47206  0.62819  1.0000
  H   H593      1.0  0.07641  0.42475  0.65412  1.0000
  C   C333      1.0  0.49211  0.42687  0.71417  1.0000
  H   H594      1.0  0.19095  0.25763  0.84272  1.0000
  H   H595      1.0  0.50147  0.43907  0.72354  1.0000
  C   C334      1.0  0.35691  0.40184  0.51946  1.0000
  H   H596      1.0  0.33777  0.25782  0.72101  1.0000
  H   H597      1.0  0.18404  0.27408  0.81512  1.0000
  C   C335      1.0  0.36558  0.31625  0.76969  1.0000
  H   H598      1.0  0.32948  0.41724  0.53518  1.0000
  C   C336      1.0  0.27823  0.45939  0.63351  1.0000
  C   C337      1.0  0.27121  0.48014  0.63580  1.0000
  C   C338      1.0  0.24975  0.48519  0.63615  1.0000
  C   C339      1.0  0.23501  0.46953  0.63395  1.0000
  C   C340      1.0  0.24199  0.44874  0.63186  1.0000
  C   C341      1.0  0.26349  0.44365  0.63167  1.0000
  H   H599      1.0  0.33116  0.30249  0.79764  1.0000
  H   H600      1.0  0.37082  0.31415  0.79022  1.0000
  H   H601      1.0  0.23069  0.43650  0.63031  1.0000
  H   H602      1.0  0.26867  0.42763  0.62994  1.0000
  C   C342      1.0  0.32368  0.32563  0.67120  1.0000
  C   C343      1.0  0.30843  0.33145  0.68993  1.0000
  C   C344      1.0  0.29803  0.31610  0.70556  1.0000
  C   C345      1.0  0.30266  0.29473  0.70276  1.0000
  C   C346      1.0  0.31801  0.28893  0.68412  1.0000
  C   C347      1.0  0.32848  0.30428  0.66859  1.0000
  H   H603      1.0  0.30444  0.34774  0.69216  1.0000
  H   H604      1.0  0.28615  0.32084  0.71979  1.0000
  H   H605      1.0  0.32153  0.27261  0.68129  1.0000
  H   H606      1.0  0.34014  0.29953  0.65409  1.0000
  H   H607      1.0  0.49597  0.41625  0.77238  1.0000
  C   C348      1.0  0.03034  0.26942  0.85555  1.0000
  H   H608      1.0  0.02803  0.28613  0.85555  1.0000
  C   C349      1.0  0.44739  0.47343  0.68109  1.0000
  C   C350      1.0  0.43573  0.47148  0.65816  1.0000
  C   C351      1.0  0.41998  0.45639  0.65671  1.0000
  C   C352      1.0  0.41572  0.44297  0.67822  1.0000
  C   C353      1.0  0.42714  0.44521  0.70132  1.0000
  C   C354      1.0  0.44275  0.46041  0.70282  1.0000
  H   H609      1.0  0.43904  0.48156  0.64125  1.0000
  H   H610      1.0  0.41134  0.45494  0.63883  1.0000
  H   H611      1.0  0.42371  0.43519  0.71823  1.0000
  H   H612      1.0  0.45115  0.46217  0.72080  1.0000
  C   C355      1.0  0.25135  0.49213  0.52179  1.0000
  H   H613      1.0  0.05425  0.42703  0.70698  1.0000
  H   H614      1.0  0.02707  0.25938  0.96280  1.0000
  C   C356      1.0  0.22556  0.47766  0.55368  1.0000
  C   C357      1.0  0.26199  0.44952  0.55176  1.0000
  H   H615      1.0  0.48094  0.25816  0.95588  1.0000
  H   H616      1.0  0.39270  0.47239  0.71644  1.0000
  H   H617      1.0  0.29572  0.44482  0.54748  1.0000
  H   H618      1.0  0.29139  0.33106  0.63167  1.0000
  C   C358      1.0  0.18671  0.47960  0.54459  1.0000
  H   H619      1.0  0.32931  0.28896  0.74834  1.0000
  C   C359      1.0  0.45989  0.43407  0.79021  1.0000
  H   H620      1.0  0.29580  0.34409  0.54471  1.0000
  H   H621      1.0  0.39662  0.33632  0.58628  1.0000
  H   H622      1.0  0.22245  0.47261  0.57460  1.0000
  H   H623      1.0  0.22474  0.46334  0.54187  1.0000
  C   C360      1.0  0.38934  0.48719  0.72673  1.0000
  C   C361      1.0  0.00731  0.28915  0.92979  1.0000
  H   H624      1.0  0.47629  0.37760  0.73465  1.0000
  C   C362      1.0  0.05061  0.26077  0.85707  1.0000
  H   H625      1.0  0.39329  0.28073  0.83369  1.0000
  H   H626      1.0  0.12134  0.30135  0.84291  1.0000
  H   H627      1.0  0.27416  0.31179  0.61951  1.0000
  H   H628      1.0  0.13417  0.46328  0.62510  1.0000
  H   H629      1.0  0.18309  0.47248  0.56431  1.0000
  H   H630      1.0  0.08056  0.46692  0.69929  1.0000
  H   H631      1.0  0.04518  0.45276  0.71513  1.0000
  C   C363      1.0  0.02885  0.29728  0.93800  1.0000
  H   H632      1.0  0.48684  0.38353  0.70312  1.0000
  C   C364      1.0  0.49575  0.44210  0.66749  1.0000
  S   S93       1.0  0.00993  0.37017  0.82539  1.0000
  H   H633      1.0  0.44936  0.44792  0.79148  1.0000
  H   H634      1.0  0.45694  0.40978  0.69589  1.0000
  S   S94       1.0  0.06248  0.50089  0.72859  1.0000
  H   H635      1.0  0.24319  0.48102  0.50916  1.0000
  C   C365      1.0  0.27455  0.49161  0.51212  1.0000
  H   H636      1.0  0.04105  0.28491  0.93667  1.0000
  H   H637      1.0  0.36214  0.31299  0.53478  1.0000
  C   C366      1.0  0.47844  0.39070  0.72016  1.0000
  H   H638      1.0  0.45105  0.42010  0.79694  1.0000
  H   H639      1.0  0.32672  0.26402  0.76335  1.0000
  C   C367      1.0  0.06941  0.44060  0.73936  1.0000
  H   H640      1.0  0.45370  0.37330  0.68175  1.0000
  C   C368      1.0  0.01410  0.25420  0.95045  1.0000
  H   H641      1.0  0.01392  0.50221  0.63018  1.0000
  C   C369      1.0  0.36813  0.29601  0.75396  1.0000
  H   H642      1.0  0.29336  0.30034  0.80459  1.0000
  H   H643      1.0  0.06383  0.27095  0.85829  1.0000
  H   H644      1.0  0.03278  0.45808  0.67178  1.0000
  C   C370      1.0  0.44503  0.37900  0.69944  1.0000
  H   H645      1.0  0.03714  0.31040  0.89915  1.0000
  H   H646      1.0  0.36122  0.28421  0.80690  1.0000
  C   C371      1.0  0.33424  0.27935  0.76572  1.0000
  C   C372      1.0  0.01769  0.49133  0.64675  1.0000
  H   H647      1.0  0.24462  0.50119  0.63810  1.0000
  C   C373      1.0  0.37842  0.33380  0.75683  1.0000
  C   C374      1.0  0.36380  0.25867  0.74844  1.0000
  H   H648      1.0  0.34905  0.32159  0.76968  1.0000
  H   H649      1.0  0.29914  0.30573  0.77018  1.0000
  C   C375      1.0  0.36509  0.27153  0.79309  1.0000
  H   H650      1.0  0.47638  0.43392  0.71205  1.0000
  C   C376      1.0  0.05506  0.43496  0.62375  1.0000
  H   H651      1.0  0.07069  0.40581  0.61314  1.0000
  H   H652      1.0  0.06547  0.44417  0.61036  1.0000
  H   H653      1.0  0.02166  0.40011  0.78465  1.0000
  N   N18       1.0  0.49131  0.40758  0.73176  1.0000
  H   H654      1.0  0.45417  0.43034  0.74919  1.0000
  H   H655      1.0  0.27867  0.47767  0.56004  1.0000
  H   H656      1.0  0.20806  0.25272  0.78591  1.0000
  H   H657      1.0  0.08840  0.44132  0.69077  1.0000
  H   H658      1.0  0.47605  0.44635  0.75615  1.0000
  H   H659      1.0  0.33205  0.36414  0.51323  1.0000
  C   C377      1.0  0.45631  0.39724  0.71126  1.0000
  C   C378      1.0  0.07470  0.45214  0.69142  1.0000
  H   H660      1.0  0.03887  0.44123  0.62274  1.0000
  H   H661      1.0  0.38506  0.29306  0.75015  1.0000
  H   H662      1.0  0.01085  0.43701  0.77592  1.0000
  C   C379      1.0  0.28212  0.43742  0.55774  1.0000
  Fe  Fe48      1.0  0.49251  0.49791  0.71211  1.0000
  H   H663      1.0  0.29182  0.27980  0.78124  1.0000
  C   C380      1.0  0.46785  0.43173  0.76179  1.0000
  C   C381      1.0  0.35500  0.25919  0.72021  1.0000
  H   H664      1.0  0.38474  0.25404  0.83596  1.0000
  H   H665      1.0  0.11214  0.29569  0.81038  1.0000
  H   H666      1.0  0.47529  0.39903  0.76878  1.0000
  C   C382      1.0  0.03601  0.31532  0.91999  1.0000
  C   C383      1.0  0.06230  0.43496  0.65257  1.0000
  H   H667      1.0  0.47317  0.43637  0.80347  1.0000
  C   C384      1.0  0.01075  0.40772  0.79801  1.0000
  H   H668      1.0  0.11748  0.26394  0.85620  1.0000
  C   C385      1.0  0.26248  0.47197  0.56239  1.0000
  C   C386      1.0  0.11154  0.29083  0.83153  1.0000
  H   H669      1.0  0.00864  0.28476  0.90869  1.0000
  C   C387      1.0  0.29033  0.31778  0.61815  1.0000
  H   H670      1.0  0.24882  0.44094  0.56143  1.0000
  C   C388      1.0  0.34419  0.29423  0.50974  1.0000
  C   C389      1.0  0.30057  0.29388  0.78636  1.0000
  C   C390      1.0  0.05474  0.41282  0.61335  1.0000
  H   H671      1.0  0.30114  0.30512  0.62461  1.0000
  C   C391      1.0  0.05926  0.44275  0.71249  1.0000
  H   H672      1.0  0.34736  0.32735  0.51121  1.0000
  H   H673      1.0  0.28096  0.42120  0.55086  1.0000
  H   H674      1.0  0.11192  0.45584  0.66422  1.0000
  C   C392      1.0  0.14173  0.26531  0.82446  1.0000
  H   H675      1.0  0.36176  0.29992  0.73426  1.0000
  H   H676      1.0  0.38999  0.34051  0.55220  1.0000
  H   H677      1.0  0.02814  0.30303  0.95843  1.0000
  C   C393      1.0  0.33730  0.41149  0.51761  1.0000
  C   C394      1.0  0.48298  0.41276  0.75916  1.0000
  S   S95       1.0  0.46744  0.49239  0.68160  1.0000
  H   H678      1.0  0.10313  0.44225  0.63585  1.0000
  H   H679      1.0  0.04997  0.42668  0.66429  1.0000
  N   N19       1.0  0.35778  0.27681  0.76563  1.0000
  S   S96       1.0  0.48710  0.49377  0.75558  1.0000
  H   H680      1.0  0.28480  0.43688  0.57929  1.0000
  H   H681      1.0  0.10641  0.49938  0.71734  1.0000
  H   H682      1.0  0.02496  0.32874  0.92162  1.0000
  H   H683      1.0  0.28071  0.47537  0.51223  1.0000
  H   H684      1.0  0.38670  0.48351  0.74803  1.0000
  N   N20       1.0  0.32661  0.33730  0.55958  1.0000
  C   C395      1.0  0.34706  0.34844  0.56161  1.0000
  C   C396      1.0  0.31145  0.35126  0.54493  1.0000
  C   C397      1.0  0.31782  0.33410  0.58731  1.0000
  C   C398      1.0  0.32899  0.31636  0.54671  1.0000
  H   H685      1.0  0.08330  0.43009  0.73831  1.0000
  C   C399      1.0  0.36333  0.33747  0.57961  1.0000
  C   C400      1.0  0.29559  0.32479  0.58982  1.0000
  C   C401      1.0  0.31682  0.35630  0.51560  1.0000
  H   H686      1.0  0.07418  0.45609  0.74626  1.0000
  H   H687      1.0  0.42922  0.38425  0.69333  1.0000
  C   C402      1.0  0.38558  0.34437  0.57283  1.0000
  S   S97       1.0  0.20786  0.47532  0.63310  1.0000
  H   H688      1.0  0.34429  0.36427  0.56964  1.0000
  H   H689      1.0  0.35441  0.35148  0.54192  1.0000
  H   H690      1.0  0.34418  0.28030  0.52313  1.0000
  H   H691      1.0  0.30936  0.36631  0.55533  1.0000
  H   H692      1.0  0.31737  0.34913  0.59791  1.0000
  H   H693      1.0  0.32823  0.32357  0.59894  1.0000
  H   H694      1.0  0.33202  0.30383  0.56175  1.0000
  H   H695      1.0  0.31399  0.31202  0.53782  1.0000
  C   C403      1.0  0.01315  0.25639  0.85391  1.0000
  H   H696      1.0  0.05803  0.43399  0.75406  1.0000
  H   H697      1.0  0.35990  0.34147  0.60044  1.0000
  H   H698      1.0  0.36281  0.32029  0.57842  1.0000
  H   H699      1.0  0.29406  0.31115  0.57704  1.0000
  H   H700      1.0  0.28368  0.33673  0.58433  1.0000
  H   H701      1.0  0.35899  0.27374  0.70923  1.0000
  H   H702      1.0  0.25978  0.47059  0.58405  1.0000
  H   H703      1.0  0.49590  0.40958  0.67691  1.0000
  C   C404      1.0  0.08237  0.46813  0.64829  1.0000
  H   H704      1.0  0.04415  0.40290  0.62575  1.0000
  H   H705      1.0  0.44321  0.36605  0.71416  1.0000
  H   H706      1.0  0.44668  0.40248  0.72830  1.0000
  H   H707      1.0  0.37344  0.33697  0.73628  1.0000
  C   C405      1.0  0.11862  0.47103  0.62719  1.0000
  H   H708      1.0  0.02986  0.25680  0.91111  1.0000
  H   H709      1.0  0.38702  0.36140  0.57537  1.0000
  H   H710      1.0  0.37603  0.34828  0.76814  1.0000
  C   C406      1.0  0.34671  0.31405  0.52539  1.0000
  H   H711      1.0  0.39852  0.27845  0.78576  1.0000
  N   N21       1.0  0.06624  0.45592  0.66415  1.0000
  N   N22       1.0  0.24695  0.48721  0.55068  1.0000
  C   C407      1.0  0.04614  0.46851  0.66682  1.0000
  H   H712      1.0  0.47865  0.44261  0.66446  1.0000
  C   C408      1.0  0.10424  0.45771  0.64495  1.0000
  H   H713      1.0  0.42180  0.49434  0.73097  1.0000
  H   H714      1.0  0.18794  0.46722  0.52970  1.0000
  H   H715      1.0  0.28248  0.49241  0.63729  1.0000
  H   H716      1.0  0.14230  0.26999  0.80321  1.0000
  H   H717      1.0  0.10804  0.25847  0.82408  1.0000
  H   H718      1.0  0.16085  0.25433  0.86683  1.0000
  H   H719      1.0  0.32393  0.27653  0.80722  1.0000
  H   H720      1.0  0.09513  0.29237  0.83891  1.0000
  C   C409      1.0  0.11892  0.26823  0.83494  1.0000
  H   H721      1.0  0.11206  0.47325  0.60727  1.0000
  C   C410      1.0  0.00467  0.42862  0.79304  1.0000
  H   H722      1.0  0.22121  0.26459  0.81260  1.0000
  C   C411      1.0  0.18855  0.25794  0.82118  1.0000
  H   H723      1.0  0.04693  0.47925  0.68369  1.0000
  C   C412      1.0  0.39478  0.26519  0.82464  1.0000
  C   C413      1.0  0.32348  0.28835  0.79089  1.0000
  H   H724      1.0  0.42439  0.49914  0.77572  1.0000
  H   H725      1.0  0.12087  0.48652  0.63588  1.0000
  C   C414      1.0  0.03998  0.48290  0.64317  1.0000
  H   H726      1.0  0.08464  0.48345  0.65751  1.0000
  H   H727      1.0  0.41124  0.25970  0.82611  1.0000
  C   C415      1.0  0.20696  0.49182  0.54518  1.0000
  H   H728      1.0  0.37491  0.49423  0.71847  1.0000
  H   H729      1.0  0.00787  0.33964  0.98260  1.0000
  H   H730      1.0  0.17367  0.49034  0.53925  1.0000
  H   H731      1.0  0.35650  0.25768  0.80114  1.0000
  H   H732      1.0  0.29851  0.38524  0.51473  1.0000
  H   H733      1.0  0.05052  0.49648  0.64173  1.0000
  S   S98       1.0  0.00627  0.47568  0.73231  1.0000
  H   H734      1.0  0.31702  0.34189  0.50400  1.0000
  H   H735      1.0  0.00588  0.28573  0.98346  1.0000
  H   H736      1.0  0.01598  0.49991  0.66542  1.0000
  H   H737      1.0  0.38108  0.25731  0.74608  1.0000
  H   H738      1.0  0.20979  0.49898  0.52533  1.0000
  C   C416      1.0  0.40772  0.50190  0.72261  1.0000
  H   H739      1.0  0.04105  0.47495  0.62412  1.0000
  H   H740      1.0  0.00632  0.47842  0.64709  1.0000
  H   H741      1.0  0.28469  0.50073  0.52467  1.0000
  C   C417      1.0  0.20952  0.25279  0.80767  1.0000
  C   C418      1.0  0.30015  0.37061  0.50356  1.0000
  H   H742      1.0  0.28482  0.36276  0.50368  1.0000
  H   H743      1.0  0.05790  0.58747  0.22517  1.0000
  C   C419      1.0  0.06892  0.58944  0.26584  1.0000
  C   C420      1.0  0.39877  0.58869  0.19464  1.0000
  Fe  Fe49      1.0  0.42189  0.64096  0.12561  1.0000
  S   S99       1.0  0.41250  0.66329  0.15748  1.0000
  S   S100      1.0  0.42941  0.60619  0.13247  1.0000
  Fe  Fe50      1.0  0.41564  0.67385  0.08097  1.0000
  S   S101      1.0  0.40656  0.69848  0.11018  1.0000
  S   S102      1.0  0.41461  0.68688  0.03858  1.0000
  Fe  Fe51      1.0  0.43285  0.68609  0.13427  1.0000
  S   S103      1.0  0.45677  0.70523  0.15512  1.0000
  Fe  Fe52      1.0  0.38662  0.67425  0.13090  1.0000
  S   S104      1.0  0.35187  0.68292  0.13752  1.0000
  S   S105      1.0  0.44366  0.66310  0.10384  1.0000
  S   S106      1.0  0.39440  0.65019  0.10034  1.0000
  Fe  Fe53      1.0  0.01934  0.68678  0.12923  1.0000
  S   S107      1.0  0.04588  0.70563  0.11302  1.0000
  Fe  Fe54      1.0  0.04525  0.64611  0.12748  1.0000
  S   S108      1.0  0.07372  0.66269  0.11044  1.0000
  C   C421      1.0  0.45832  0.56136  0.27162  1.0000
  Fe  Fe55      1.0  0.06636  0.68719  0.14042  1.0000
  S   S109      1.0  0.08620  0.70351  0.17040  1.0000
  Fe  Fe56      1.0  0.05085  0.67973  0.08421  1.0000
  S   S110      1.0  0.05630  0.69222  0.04215  1.0000
  S   S111      1.0  0.03930  0.66965  0.15878  1.0000
  H   H744      1.0  0.43510  0.52975  0.16910  1.0000
  S   S112      1.0  0.20901  0.54117  0.39642  1.0000
  Fe  Fe57      1.0  0.16836  0.53416  0.34165  1.0000
  S   S113      1.0  0.16814  0.56237  0.36716  1.0000
  S   S114      1.0  0.14785  0.53140  0.30580  1.0000
  Fe  Fe58      1.0  0.20294  0.56164  0.36077  1.0000
  S   S115      1.0  0.22149  0.59138  0.35577  1.0000
  Fe  Fe59      1.0  0.17430  0.53998  0.40109  1.0000
  S   S116      1.0  0.15733  0.54202  0.44083  1.0000
  S   S117      1.0  0.20315  0.53480  0.33308  1.0000
  Fe  Fe60      1.0  0.24713  0.70786  0.23104  1.0000
  S   S118      1.0  0.23419  0.70712  0.27293  1.0000
  S   S119      1.0  0.28246  0.70020  0.22824  1.0000
  Fe  Fe61      1.0  0.20289  0.71711  0.20985  1.0000
  S   S120      1.0  0.18764  0.71756  0.25012  1.0000
  S   S121      1.0  0.18456  0.71787  0.17189  1.0000
  Fe  Fe62      1.0  0.21557  0.73606  0.26166  1.0000
  Fe  Fe63      1.0  0.20748  0.68895  0.25800  1.0000
  S   S122      1.0  0.19125  0.65917  0.27162  1.0000
  S   S123      1.0  0.22981  0.73766  0.22043  1.0000
  S   S124      1.0  0.22150  0.68769  0.21712  1.0000
  H   H745      1.0  0.13786  0.58173  0.48237  1.0000
  H   H746      1.0  0.11517  0.71604  0.03337  1.0000
  H   H747      1.0  0.17650  0.58466  0.48733  1.0000
  C   C422      1.0  0.39998  0.72952  0.19470  1.0000
  H   H748      1.0  0.30162  0.60875  0.03977  1.0000
  H   H749      1.0  0.50096  0.73031  0.06588  1.0000
  C   C423      1.0  0.44031  0.51790  0.18383  1.0000
  H   H750      1.0  0.40636  0.54642  0.18674  1.0000
  H   H751      1.0  0.37966  0.58231  0.03192  1.0000
  C   C424      1.0  0.21336  0.61012  0.33210  1.0000
  C   C425      1.0  0.19843  0.60538  0.31369  1.0000
  C   C426      1.0  0.19197  0.62063  0.29525  1.0000
  C   C427      1.0  0.20043  0.64066  0.29492  1.0000
  C   C428      1.0  0.21544  0.64543  0.31328  1.0000
  C   C429      1.0  0.22186  0.63017  0.33187  1.0000
  H   H752      1.0  0.19178  0.58998  0.31373  1.0000
  H   H753      1.0  0.18042  0.61685  0.28106  1.0000
  H   H754      1.0  0.22172  0.66096  0.31348  1.0000
  H   H755      1.0  0.23319  0.63401  0.34635  1.0000
  C   C430      1.0  0.19244  0.54260  0.47176  1.0000
  C   C431      1.0  0.17066  0.54168  0.47105  1.0000
  C   C432      1.0  0.10580  0.72343  0.01750  1.0000
  H   H756      1.0  0.20162  0.54192  0.45369  1.0000
  H   H757      1.0  0.42534  0.55894  0.26908  1.0000
  C   C433      1.0  0.01182  0.59038  0.19747  1.0000
  H   H758      1.0  0.40439  0.57625  0.23334  1.0000
  C   C434      1.0  0.05339  0.59524  0.24380  1.0000
  H   H759      1.0  0.33043  0.63279  0.04706  1.0000
  C   C435      1.0  0.01728  0.52243  0.14231  1.0000
  S   S125      1.0  0.49592  0.56218  0.20883  1.0000
  C   C436      1.0  0.11348  0.70801  0.16959  1.0000
  C   C437      1.0  0.12233  0.71741  0.19133  1.0000
  C   C438      1.0  0.14403  0.72047  0.19229  1.0000
  C   C439      1.0  0.15715  0.71427  0.17139  1.0000
  C   C440      1.0  0.14823  0.70538  0.14930  1.0000
  C   C441      1.0  0.12653  0.70202  0.14851  1.0000
  H   H760      1.0  0.11237  0.72226  0.20765  1.0000
  H   H761      1.0  0.15061  0.72768  0.20917  1.0000
  H   H762      1.0  0.15821  0.70081  0.13285  1.0000
  H   H763      1.0  0.11993  0.69484  0.13160  1.0000
  H   H764      1.0  0.04331  0.62235  0.22090  1.0000
  C   C442      1.0  0.05027  0.67912  0.01300  1.0000
  H   H765      1.0  0.35630  0.74817  0.09509  1.0000
  C   C443      1.0  0.36278  0.73920  0.19648  1.0000
  H   H766      1.0  0.11999  0.51222  0.34577  1.0000
  S   S126      1.0  0.49609  0.52040  0.26326  1.0000
  H   H767      1.0  0.17349  0.61230  0.49135  1.0000
  H   H768      1.0  0.42170  0.64351  0.02316  1.0000
  H   H769      1.0  0.33038  0.60837  0.00607  1.0000
  C   C444      1.0  0.33288  0.68736  0.16326  1.0000
  C   C445      1.0  0.31239  0.69308  0.15641  1.0000
  C   C446      1.0  0.29673  0.69692  0.17588  1.0000
  C   C447      1.0  0.30140  0.69529  0.20262  1.0000
  C   C448      1.0  0.32194  0.68964  0.20951  1.0000
  C   C449      1.0  0.33753  0.68553  0.19002  1.0000
  H   H770      1.0  0.30855  0.69453  0.13581  1.0000
  H   H771      1.0  0.28109  0.70128  0.17018  1.0000
  H   H772      1.0  0.32576  0.68830  0.23011  1.0000
  H   H773      1.0  0.35310  0.68096  0.19568  1.0000
  C   C450      1.0  0.47739  0.57401  0.18730  1.0000
  C   C451      1.0  0.47192  0.59513  0.19046  1.0000
  C   C452      1.0  0.45768  0.60536  0.17357  1.0000
  C   C453      1.0  0.44849  0.59450  0.15337  1.0000
  C   C454      1.0  0.45393  0.57335  0.15025  1.0000
  C   C455      1.0  0.46845  0.56324  0.16687  1.0000
  H   H774      1.0  0.47872  0.60368  0.20613  1.0000
  H   H775      1.0  0.45364  0.62159  0.17633  1.0000
  H   H776      1.0  0.44708  0.56481  0.13459  1.0000
  H   H777      1.0  0.47306  0.54726  0.16348  1.0000
  C   C456      1.0  0.35447  0.68102  0.03660  1.0000
  C   C457      1.0  0.46410  0.73119  0.14727  1.0000
  C   C458      1.0  0.48290  0.73864  0.15691  1.0000
  H   H778      1.0  0.39807  0.54462  0.25378  1.0000
  H   H779      1.0  0.35312  0.70969  0.05846  1.0000
  H   H780      1.0  0.19950  0.67261  0.45363  1.0000
  C   C459      1.0  0.02113  0.60340  0.17784  1.0000
  H   H781      1.0  0.07004  0.53592  0.26037  1.0000
  H   H782      1.0  0.07555  0.54505  0.19778  1.0000
  H   H783      1.0  0.39736  0.73557  0.14334  1.0000
  S   S127      1.0  0.00865  0.50819  0.27582  1.0000
  C   C460      1.0  0.05646  0.51505  0.14086  1.0000
  C   C461      1.0  0.46284  0.71632  0.07067  1.0000
  H   H784      1.0  0.08945  0.54640  0.29732  1.0000
  H   H785      1.0  0.42885  0.56026  0.19532  1.0000
  C   C462      1.0  0.03728  0.59571  0.16157  1.0000
  C   C463      1.0  0.36800  0.61169  0.04787  1.0000
  H   H786      1.0  0.08906  0.72264  0.02368  1.0000
  C   C464      1.0  0.08748  0.56328  0.29256  1.0000
  H   H787      1.0  0.37421  0.69236  0.06742  1.0000
  C   C465      1.0  0.40260  0.53080  0.24222  1.0000
  H   H788      1.0  0.37727  0.71854  0.15339  1.0000
  H   H789      1.0  0.05669  0.56890  0.15305  1.0000
  C   C466      1.0  0.39465  0.70638  0.20107  1.0000
  C   C467      1.0  0.11368  0.50988  0.32651  1.0000
  H   H790      1.0  0.41458  0.72917  0.18226  1.0000
  H   H791      1.0  0.02327  0.74108  0.13786  1.0000
  H   H792      1.0  0.39443  0.58353  0.17479  1.0000
  H   H793      1.0  0.38378  0.74296  0.09900  1.0000
  H   H794      1.0  0.29461  0.58973  0.33352  1.0000
  H   H795      1.0  0.26794  0.59462  0.34464  1.0000
  H   H796      1.0  0.35741  0.65261  0.05998  1.0000
  H   H797      1.0  0.20594  0.59145  0.46744  1.0000
  H   H798      1.0  0.38473  0.62787  0.01613  1.0000
  C   C468      1.0  0.03389  0.72284  0.19452  1.0000
  C   C469      1.0  0.06994  0.55229  0.25286  1.0000
  H   H799      1.0  0.43112  0.50329  0.22047  1.0000
  S   S128      1.0  0.02291  0.66165  0.09905  1.0000
  H   H800      1.0  0.33772  0.68222  0.03191  1.0000
  H   H801      1.0  0.01561  0.61928  0.17504  1.0000
  H   H802      1.0  0.02560  0.52549  0.33245  1.0000
  C   C470      1.0  0.39966  0.57025  0.21418  1.0000
  H   H803      1.0  0.44605  0.52690  0.24859  1.0000
  H   H804      1.0  0.35530  0.72472  0.18991  1.0000
  C   C471      1.0  0.05089  0.65739  0.01163  1.0000
  H   H805      1.0  0.31879  0.73779  0.19252  1.0000
  H   H806      1.0  0.01312  0.54468  0.31143  1.0000
  H   H807      1.0  0.42030  0.51539  0.27426  1.0000
  N   N23       1.0  0.27382  0.63280  0.27575  1.0000
  C   C472      1.0  0.27152  0.65576  0.28124  1.0000
  C   C473      1.0  0.25448  0.62502  0.26281  1.0000
  C   C474      1.0  0.27593  0.62137  0.30200  1.0000
  C   C475      1.0  0.29321  0.62813  0.25932  1.0000
  C   C476      1.0  0.29447  0.63839  0.23149  1.0000
  C   C477      1.0  0.29022  0.66595  0.29459  1.0000
  C   C478      1.0  0.27301  0.59735  0.30203  1.0000
  C   C479      1.0  0.24334  0.64003  0.24315  1.0000
  C   C480      1.0  0.22694  0.62861  0.22787  1.0000
  C   C481      1.0  0.31618  0.63551  0.21879  1.0000
  C   C482      1.0  0.28491  0.68826  0.30252  1.0000
  C   C483      1.0  0.27794  0.58756  0.32893  1.0000
  H   H808      1.0  0.25725  0.65848  0.29375  1.0000
  H   H809      1.0  0.26889  0.66512  0.26297  1.0000
  H   H810      1.0  0.25803  0.61009  0.25276  1.0000
  H   H811      1.0  0.24214  0.62138  0.27802  1.0000
  H   H812      1.0  0.26440  0.62761  0.31671  1.0000
  H   H813      1.0  0.29156  0.62399  0.31026  1.0000
  H   H814      1.0  0.30740  0.63241  0.27004  1.0000
  H   H815      1.0  0.29491  0.61112  0.25626  1.0000
  H   H816      1.0  0.29114  0.65531  0.23201  1.0000
  H   H817      1.0  0.28326  0.63091  0.21848  1.0000
  H   H818      1.0  0.29473  0.65739  0.31278  1.0000
  H   H819      1.0  0.30391  0.66656  0.28073  1.0000
  H   H820      1.0  0.28332  0.58982  0.28711  1.0000
  H   H821      1.0  0.25662  0.59339  0.29791  1.0000
  H   H822      1.0  0.23524  0.65262  0.25423  1.0000
  H   H823      1.0  0.25414  0.64758  0.22871  1.0000
  H   H824      1.0  0.21507  0.62162  0.24159  1.0000
  H   H825      1.0  0.21892  0.63981  0.21448  1.0000
  H   H826      1.0  0.23437  0.61622  0.21580  1.0000
  H   H827      1.0  0.32033  0.61872  0.21738  1.0000
  H   H828      1.0  0.31637  0.64253  0.19856  1.0000
  H   H829      1.0  0.32808  0.64346  0.23034  1.0000
  H   H830      1.0  0.28099  0.69804  0.28500  1.0000
  H   H831      1.0  0.27147  0.68853  0.31679  1.0000
  H   H832      1.0  0.29855  0.69521  0.31190  1.0000
  H   H833      1.0  0.14222  0.54092  0.49465  1.0000
  H   H834      1.0  0.27479  0.57060  0.32885  1.0000
  C   C484      1.0  0.15906  0.54182  0.49493  1.0000
  H   H835      1.0  0.34975  0.74297  0.14273  1.0000
  N   N24       1.0  0.13649  0.65416  0.21767  1.0000
  C   C485      1.0  0.11439  0.65539  0.20808  1.0000
  C   C486      1.0  0.14108  0.67279  0.23421  1.0000
  C   C487      1.0  0.15086  0.65488  0.19355  1.0000
  C   C488      1.0  0.14084  0.63407  0.23261  1.0000
  C   C489      1.0  0.12702  0.62978  0.25751  1.0000
  C   C490      1.0  0.10715  0.63685  0.19172  1.0000
  C   C491      1.0  0.17447  0.65771  0.19849  1.0000
  C   C492      1.0  0.12302  0.68200  0.25145  1.0000
  C   C493      1.0  0.13101  0.69870  0.26951  1.0000
  C   C494      1.0  0.12993  0.60737  0.26775  1.0000
  C   C495      1.0  0.08589  0.64157  0.17994  1.0000
  C   C496      1.0  0.18703  0.65768  0.17246  1.0000
  H   H836      1.0  0.11223  0.66996  0.19608  1.0000
  H   H837      1.0  0.10283  0.65670  0.22457  1.0000
  H   H838      1.0  0.15442  0.66924  0.24716  1.0000
  H   H839      1.0  0.14632  0.68607  0.22144  1.0000
  H   H840      1.0  0.14603  0.66784  0.17994  1.0000
  H   H841      1.0  0.14979  0.64039  0.18219  1.0000
  H   H842      1.0  0.13979  0.62061  0.21931  1.0000
  H   H843      1.0  0.15718  0.63365  0.23951  1.0000
  H   H844      1.0  0.11021  0.63214  0.25368  1.0000
  H   H845      1.0  0.13164  0.64021  0.27344  1.0000
  H   H846      1.0  0.11798  0.63347  0.17498  1.0000
  H   H847      1.0  0.10575  0.62261  0.20442  1.0000
  H   H848      1.0  0.18069  0.64495  0.21121  1.0000
  H   H849      1.0  0.17741  0.67272  0.20802  1.0000
  H   H850      1.0  0.11114  0.68955  0.23866  1.0000
  H   H851      1.0  0.11518  0.66999  0.26391  1.0000
  H   H852      1.0  0.13808  0.71166  0.25765  1.0000
  H   H853      1.0  0.11784  0.70512  0.28158  1.0000
  H   H854      1.0  0.14288  0.69200  0.28297  1.0000
  H   H855      1.0  0.12490  0.59615  0.25292  1.0000
  H   H856      1.0  0.14652  0.60413  0.27233  1.0000
  H   H857      1.0  0.12042  0.60496  0.28611  1.0000
  H   H858      1.0  0.08035  0.62767  0.16975  1.0000
  H   H859      1.0  0.07415  0.64593  0.19534  1.0000
  H   H860      1.0  0.08718  0.65464  0.16533  1.0000
  H   H861      1.0  0.18169  0.67059  0.15922  1.0000
  H   H862      1.0  0.20380  0.65999  0.17620  1.0000
  H   H863      1.0  0.18537  0.64263  0.16242  1.0000
  H   H864      1.0  0.39095  0.69805  0.18297  1.0000
  C   C497      1.0  0.04418  0.57499  0.16548  1.0000
  C   C498      1.0  0.08835  0.54005  0.21083  1.0000
  C   C499      1.0  0.09662  0.50422  0.27682  1.0000
  C   C500      1.0  0.40630  0.51272  0.26247  1.0000
  C   C501      1.0  0.08942  0.55450  0.23421  1.0000
  H   H865      1.0  0.03457  0.69217  0.21327  1.0000
  H   H866      1.0  0.44638  0.71327  0.06581  1.0000
  H   H867      1.0  0.04101  0.71664  0.17616  1.0000
  N   N25       1.0  0.35464  0.64305  0.01944  1.0000
  H   H868      1.0  0.02202  0.53642  0.13034  1.0000
  H   H869      1.0  0.37242  0.62178  0.06415  1.0000
  S   S129      1.0  0.04901  0.61101  0.13577  1.0000
  H   H870      1.0  0.17841  0.63891  0.45402  1.0000
  H   H871      1.0  0.04624  0.72813  0.20758  1.0000
  C   C502      1.0  0.43886  0.55972  0.25512  1.0000
  H   H872      1.0  0.22364  0.65906  0.46142  1.0000
  H   H873      1.0  0.16288  0.58668  0.44241  1.0000
  H   H874      1.0  0.06533  0.60002  0.28245  1.0000
  H   H875      1.0  0.12434  0.51949  0.26154  1.0000
  C   C503      1.0  0.03498  0.56209  0.18524  1.0000
  H   H876      1.0  0.02781  0.55279  0.33932  1.0000
  H   H877      1.0  0.15206  0.61203  0.40189  1.0000
  H   H878      1.0  0.06026  0.53911  0.31921  1.0000
  C   C504      1.0  0.14496  0.59511  0.49216  1.0000
  H   H879      1.0  0.11034  0.74000  0.01518  1.0000
  C   C505      1.0  0.04699  0.54214  0.30605  1.0000
  H   H880      1.0  0.05409  0.64809  0.02913  1.0000
  H   H881      1.0  0.35228  0.60530  0.05239  1.0000
  C   C506      1.0  0.44019  0.54063  0.23706  1.0000
  N   N26       1.0  0.06877  0.56706  0.27555  1.0000
  H   H882      1.0  0.34777  0.68661  0.07820  1.0000
  H   H883      1.0  0.03723  0.59068  0.24941  1.0000
  H   H884      1.0  0.38360  0.56410  0.21677  1.0000
  C   C507      1.0  0.11596  0.51411  0.27911  1.0000
  H   H885      1.0  0.04651  0.52926  0.29195  1.0000
  H   H886      1.0  0.40424  0.73665  0.21362  1.0000
  N   N27       1.0  0.18798  0.60892  0.43850  1.0000
  C   C508      1.0  0.18559  0.60909  0.40898  1.0000
  C   C509      1.0  0.20451  0.59295  0.44572  1.0000
  H   H887      1.0  0.05849  0.52257  0.16006  1.0000
  C   C510      1.0  0.19301  0.63008  0.44896  1.0000
  C   C511      1.0  0.20596  0.64493  0.43049  1.0000
  C   C512      1.0  0.16637  0.62143  0.39857  1.0000
  H   H888      1.0  0.07386  0.57156  0.33150  1.0000
  C   C513      1.0  0.22696  0.59702  0.43515  1.0000
  C   C514      1.0  0.24150  0.57870  0.44198  1.0000
  C   C515      1.0  0.38356  0.59343  0.04744  1.0000
  C   C516      1.0  0.16847  0.62613  0.36901  1.0000
  H   H889      1.0  0.10322  0.54070  0.19915  1.0000
  H   H890      1.0  0.18430  0.59287  0.40199  1.0000
  H   H891      1.0  0.19974  0.61508  0.39853  1.0000
  H   H892      1.0  0.20129  0.62822  0.46792  1.0000
  H   H893      1.0  0.01787  0.52713  0.16325  1.0000
  H   H894      1.0  0.21915  0.54646  0.49614  1.0000
  H   H895      1.0  0.49033  0.74510  0.09229  1.0000
  H   H896      1.0  0.42702  0.69529  0.20058  1.0000
  H   H897      1.0  0.23626  0.56429  0.43263  1.0000
  H   H898      1.0  0.19638  0.65073  0.41389  1.0000
  H   H899      1.0  0.21997  0.63722  0.42182  1.0000
  C   C517      1.0  0.33209  0.63846  0.02623  1.0000
  H   H900      1.0  0.16405  0.63636  0.40889  1.0000
  H   H901      1.0  0.04672  0.62720  0.25532  1.0000
  H   H902      1.0  0.19070  0.52006  0.28194  1.0000
  H   H903      1.0  0.22758  0.59925  0.41345  1.0000
  H   H904      1.0  0.23330  0.61091  0.44458  1.0000
  H   H905      1.0  0.24188  0.57602  0.46367  1.0000
  Fe  Fe64      1.0  0.01050  0.51859  0.23314  1.0000
  H   H906      1.0  0.25756  0.58208  0.43454  1.0000
  H   H907      1.0  0.47247  0.56277  0.25868  1.0000
  H   H908      1.0  0.05888  0.52673  0.12462  1.0000
  H   H909      1.0  0.40893  0.67852  0.21817  1.0000
  H   H910      1.0  0.18222  0.63607  0.36456  1.0000
  H   H911      1.0  0.17020  0.61142  0.35804  1.0000
  H   H912      1.0  0.15431  0.63453  0.36210  1.0000
  H   H913      1.0  0.43680  0.73925  0.12528  1.0000
  C   C518      1.0  0.10712  0.56999  0.33425  1.0000
  C   C519      1.0  0.16759  0.60167  0.45102  1.0000
  H   H914      1.0  0.10734  0.55322  0.34009  1.0000
  C   C520      1.0  0.35761  0.69310  0.06174  1.0000
  H   H915      1.0  0.10210  0.56758  0.28162  1.0000
  C   C521      1.0  0.04864  0.56337  0.29093  1.0000
  H   H916      1.0  0.10723  0.57925  0.35245  1.0000
  C   C522      1.0  0.16718  0.59859  0.48148  1.0000
  S   S130      1.0  0.17123  0.51188  0.37604  1.0000
  H   H917      1.0  0.01235  0.74583  0.20839  1.0000
  C   C523      1.0  0.05322  0.61870  0.23809  1.0000
  C   C524      1.0  0.41455  0.55278  0.20386  1.0000
  H   H918      1.0  0.36489  0.72275  0.10623  1.0000
  H   H919      1.0  0.41416  0.59641  0.19303  1.0000
  C   C525      1.0  0.41302  0.69503  0.21395  1.0000
  H   H920      1.0  0.22185  0.67450  0.43146  1.0000
  H   H921      1.0  0.08478  0.59388  0.25852  1.0000
  H   H922      1.0  0.06926  0.62418  0.23345  1.0000
  H   H923      1.0  0.43784  0.57421  0.24283  1.0000
  H   H924      1.0  0.41686  0.70239  0.23277  1.0000
  H   H925      1.0  0.37949  0.65836  0.03959  1.0000
  C   C526      1.0  0.08759  0.57538  0.31866  1.0000
  C   C527      1.0  0.02300  0.70475  0.20903  1.0000
  H   H926      1.0  0.01584  0.70991  0.22798  1.0000
  H   H927      1.0  0.08753  0.59242  0.31462  1.0000
  H   H928      1.0  0.45996  0.54747  0.28489  1.0000
  H   H929      1.0  0.47298  0.70476  0.06039  1.0000
  C   C528      1.0  0.21313  0.66391  0.44526  1.0000
  H   H930      1.0  0.36565  0.73666  0.21790  1.0000
  C   C529      1.0  0.36211  0.65801  0.03972  1.0000
  H   H931      1.0  0.46447  0.71413  0.09230  1.0000
  H   H932      1.0  0.04041  0.54627  0.18821  1.0000
  H   H933      1.0  0.45588  0.52224  0.19058  1.0000
  C   C530      1.0  0.36792  0.73969  0.10730  1.0000
  H   H934      1.0  0.38109  0.70499  0.21499  1.0000
  H   H935      1.0  0.12151  0.57349  0.32237  1.0000
  C   C531      1.0  0.02713  0.54132  0.32334  1.0000
  H   H936      1.0  0.46706  0.73976  0.04016  1.0000
  C   C532      1.0  0.12444  0.51724  0.30397  1.0000
  H   H937      1.0  0.38699  0.60032  0.20154  1.0000
  H   H938      1.0  0.19984  0.57737  0.43888  1.0000
  H   H939      1.0  0.08582  0.52370  0.21759  1.0000
  H   H940      1.0  0.03514  0.56414  0.27753  1.0000
  H   H941      1.0  0.45303  0.54407  0.22257  1.0000
  H   H942      1.0  0.10383  0.55024  0.24482  1.0000
  H   H943      1.0  0.09103  0.57062  0.22624  1.0000
  H   H944      1.0  0.04562  0.57598  0.30527  1.0000
  C   C533      1.0  0.38177  0.73517  0.15347  1.0000
  C   C534      1.0  0.46851  0.73850  0.06188  1.0000
  H   H945      1.0  0.45709  0.57543  0.28390  1.0000
  H   H946      1.0  0.01068  0.69830  0.19668  1.0000
  H   H947      1.0  0.05561  0.55361  0.24091  1.0000
  H   H948      1.0  0.38308  0.58505  0.06683  1.0000
  C   C535      1.0  0.01856  0.56960  0.20108  1.0000
  H   H949      1.0  0.15482  0.61302  0.44662  1.0000
  C   C536      1.0  0.36827  0.62371  0.02102  1.0000
  Fe  Fe65      1.0  0.20595  0.51426  0.36933  1.0000
  H   H950      1.0  0.28968  0.63089  0.02294  1.0000
  H   H951      1.0  0.13511  0.60925  0.48890  1.0000
  H   H952      1.0  0.49295  0.72821  0.16803  1.0000
  N   N28       1.0  0.42049  0.53542  0.22308  1.0000
  H   H953      1.0  0.04897  0.74210  0.14849  1.0000
  H   H954      1.0  0.38534  0.52468  0.29333  1.0000
  C   C537      1.0  0.18831  0.50677  0.26886  1.0000
  H   H955      1.0  0.45682  0.74912  0.07123  1.0000
  C   C538      1.0  0.20237  0.54503  0.49590  1.0000
  C   C539      1.0  0.41847  0.65283  0.00567  1.0000
  H   H956      1.0  0.38843  0.52699  0.23107  1.0000
  C   C540      1.0  0.01827  0.74084  0.18873  1.0000
  H   H957      1.0  0.50121  0.56688  0.29287  1.0000
  C   C541      1.0  0.45124  0.74482  0.13294  1.0000
  C   C542      1.0  0.03463  0.75178  0.14637  1.0000
  C   C543      1.0  0.36586  0.74673  0.13582  1.0000
  H   H958      1.0  0.39969  0.59913  0.04376  1.0000
  C   C544      1.0  0.49083  0.74406  0.07035  1.0000
  C   C545      1.0  0.42468  0.51590  0.20757  1.0000
  C   C546      1.0  0.41488  0.67425  0.00778  1.0000
  H   H959      1.0  0.06810  0.74695  0.18498  1.0000
  H   H960      1.0  0.29203  0.60616  0.00697  1.0000
  C   C547      1.0  0.32494  0.74958  0.20588  1.0000
  H   H961      1.0  0.32603  0.74258  0.22603  1.0000
  H   H962      1.0  0.37331  0.50699  0.27105  1.0000
  H   H963      1.0  0.32248  0.65297  0.02545  1.0000
  H   H964      1.0  0.04261  0.74898  0.09145  1.0000
  C   C548      1.0  0.32113  0.62292  0.00855  1.0000
  C   C549      1.0  0.38774  0.51034  0.28177  1.0000
  H   H965      1.0  0.17164  0.50644  0.26344  1.0000
  H   H966      1.0  0.36418  0.61229  0.00603  1.0000
  H   H967      1.0  0.19796  0.50922  0.25061  1.0000
  C   C550      1.0  0.03478  0.50556  0.13965  1.0000
  S   S131      1.0  0.00605  0.55358  0.22549  1.0000
  H   H968      1.0  0.27175  0.51677  0.48275  1.0000
  H   H969      1.0  0.01979  0.51107  0.08660  1.0000
  H   H970      1.0  0.40981  0.50989  0.19993  1.0000
  C   C551      1.0  0.29982  0.61687  0.02037  1.0000
  N   N29       1.0  0.38320  0.74249  0.18138  1.0000
  H   H971      1.0  0.36351  0.68901  0.02045  1.0000
  Fe  Fe66      1.0  0.50326  0.52812  0.22057  1.0000
  H   H972      1.0  0.00469  0.73407  0.17878  1.0000
  H   H973      1.0  0.02894  0.56172  0.86464  1.0000
  H   H974      1.0  0.46769  0.56839  0.83272  1.0000
  H   H975      1.0  0.33647  0.63929  0.67340  1.0000
  Fe  Fe67      1.0  0.41757  0.64899  0.82807  1.0000
  S   S132      1.0  0.40104  0.67875  0.81521  1.0000
  S   S133      1.0  0.43323  0.63104  0.79396  1.0000
  Fe  Fe68      1.0  0.40770  0.65730  0.88648  1.0000
  S   S134      1.0  0.39085  0.68740  0.87757  1.0000
  S   S135      1.0  0.41206  0.64240  0.92735  1.0000
  Fe  Fe69      1.0  0.37557  0.67058  0.84458  1.0000
  S   S136      1.0  0.33991  0.67500  0.84051  1.0000
  Fe  Fe70      1.0  0.41742  0.69351  0.84863  1.0000
  S   S137      1.0  0.42999  0.72613  0.84074  1.0000
  S   S138      1.0  0.39083  0.63968  0.85546  1.0000
  S   S139      1.0  0.43540  0.66457  0.85970  1.0000
  C   C552      1.0  0.07749  0.51136  0.70187  1.0000
  S   S140      1.0  0.03632  0.70020  0.88914  1.0000
  Fe  Fe71      1.0  0.03758  0.65692  0.83609  1.0000
  S   S141      1.0  0.06387  0.66184  0.86358  1.0000
  S   S142      1.0  0.04593  0.63126  0.80729  1.0000
  Fe  Fe72      1.0  0.03917  0.66557  0.89541  1.0000
  S   S143      1.0  0.04172  0.64698  0.93390  1.0000
  Fe  Fe73      1.0  0.05890  0.69574  0.85484  1.0000
  S   S144      1.0  0.08522  0.71804  0.84496  1.0000
  S   S145      1.0  0.03398  0.69096  0.82521  1.0000
  Fe  Fe74      1.0  0.18943  0.54341  0.58972  1.0000
  S   S146      1.0  0.20367  0.55099  0.54914  1.0000
  Fe  Fe75      1.0  0.19097  0.55361  0.64857  1.0000
  S   S147      1.0  0.17389  0.52426  0.66059  1.0000
  S   S148      1.0  0.19969  0.57421  0.68256  1.0000
  H   H976      1.0  0.07763  0.61298  0.86446  1.0000
  Fe  Fe76      1.0  0.15277  0.53302  0.62758  1.0000
  H   H977      1.0  0.10481  0.59283  0.72773  1.0000
  S   S149      1.0  0.21316  0.53671  0.62097  1.0000
  S   S150      1.0  0.16902  0.56301  0.61655  1.0000
  H   H978      1.0  0.34845  0.62622  0.96847  1.0000
  S   S151      1.0  0.21518  0.72934  0.77441  1.0000
  Fe  Fe77      1.0  0.20422  0.69375  0.71552  1.0000
  S   S152      1.0  0.21744  0.68141  0.75312  1.0000
  S   S153      1.0  0.19771  0.67341  0.68064  1.0000
  Fe  Fe78      1.0  0.19340  0.70208  0.77283  1.0000
  S   S154      1.0  0.17468  0.68584  0.80563  1.0000
  Fe  Fe79      1.0  0.23826  0.70929  0.75157  1.0000
  S   S155      1.0  0.27412  0.70605  0.75377  1.0000
  S   S156      1.0  0.17878  0.71270  0.73515  1.0000
  S   S157      1.0  0.22625  0.72079  0.71208  1.0000
  C   C553      1.0  0.43721  0.52785  0.75782  1.0000
  H   H979      1.0  0.32978  0.65881  0.69725  1.0000
  H   H980      1.0  0.23567  0.63908  0.78493  1.0000
  C   C554      1.0  0.19070  0.54586  0.51967  1.0000
  C   C555      1.0  0.40280  0.56004  0.77341  1.0000
  H   H981      1.0  0.43888  0.52388  0.70506  1.0000
  C   C556      1.0  0.44337  0.51343  0.80429  1.0000
  H   H982      1.0  0.15987  0.54433  0.53736  1.0000
  C   C557      1.0  0.41043  0.67676  0.95993  1.0000
  H   H983      1.0  0.14981  0.71880  0.87269  1.0000
  H   H984      1.0  0.07473  0.59089  0.88671  1.0000
  H   H985      1.0  0.18522  0.52126  0.73194  1.0000
  H   H986      1.0  0.33384  0.63196  0.70781  1.0000
  H   H987      1.0  0.25976  0.70512  0.66784  1.0000
  C   C558      1.0  0.41789  0.64342  0.98085  1.0000
  H   H988      1.0  0.06659  0.61663  0.89706  1.0000
  H   H989      1.0  0.24026  0.68584  0.66263  1.0000
  H   H990      1.0  0.14530  0.59155  0.51367  1.0000
  C   C559      1.0  0.19816  0.60175  0.68186  1.0000
  C   C560      1.0  0.20185  0.61251  0.70506  1.0000
  C   C561      1.0  0.20137  0.63444  0.70517  1.0000
  C   C562      1.0  0.19740  0.64581  0.68195  1.0000
  C   C563      1.0  0.19349  0.63502  0.65885  1.0000
  C   C564      1.0  0.19379  0.61309  0.65879  1.0000
  H   H991      1.0  0.20524  0.60383  0.72298  1.0000
  H   H992      1.0  0.20419  0.64254  0.72312  1.0000
  H   H993      1.0  0.19039  0.64368  0.64080  1.0000
  H   H994      1.0  0.19096  0.60498  0.64080  1.0000
  C   C565      1.0  0.04425  0.65962  0.96433  1.0000
  C   C566      1.0  0.04302  0.68131  0.96590  1.0000
  C   C567      1.0  0.04580  0.60242  0.86955  1.0000
  H   H995      1.0  0.03958  0.69059  0.94850  1.0000
  C   C568      1.0  0.02806  0.61241  0.79739  1.0000
  H   H996      1.0  0.25791  0.63368  0.80518  1.0000
  C   C569      1.0  0.02194  0.57859  0.77798  1.0000
  C   C570      1.0  0.03572  0.59367  0.78685  1.0000
  H   H997      1.0  0.02797  0.56422  0.76985  1.0000
  H   H998      1.0  0.05237  0.59083  0.78551  1.0000
  C   C571      1.0  0.10974  0.70862  0.83340  1.0000
  C   C572      1.0  0.11705  0.68871  0.84050  1.0000
  C   C573      1.0  0.13710  0.68205  0.83209  1.0000
  C   C574      1.0  0.14968  0.69493  0.81579  1.0000
  C   C575      1.0  0.14227  0.71472  0.80841  1.0000
  C   C576      1.0  0.12254  0.72168  0.81763  1.0000
  H   H999      1.0  0.10749  0.67861  0.85293  1.0000
  H   H1000     1.0  0.14285  0.66680  0.83810  1.0000
  H   H1001     1.0  0.15193  0.72485  0.79607  1.0000
  H   H1002     1.0  0.39254  0.71751  0.78051  1.0000
  C   C577      1.0  0.32185  0.68287  0.81567  1.0000
  C   C578      1.0  0.32797  0.68693  0.78938  1.0000
  C   C579      1.0  0.31314  0.69386  0.77083  1.0000
  C   C580      1.0  0.29190  0.69656  0.77805  1.0000
  C   C581      1.0  0.28569  0.69208  0.80419  1.0000
  C   C582      1.0  0.30056  0.68535  0.82280  1.0000
  H   H1003     1.0  0.34413  0.68472  0.78331  1.0000
  H   H1004     1.0  0.31819  0.69717  0.75070  1.0000
  H   H1005     1.0  0.26948  0.69404  0.81017  1.0000
  H   H1006     1.0  0.29552  0.68211  0.84296  1.0000
  C   C583      1.0  0.41381  0.65529  0.95785  1.0000
  H   H1007     1.0  0.26644  0.68242  0.64900  1.0000
  H   H1008     1.0  0.46814  0.53776  0.67818  1.0000
  C   C584      1.0  0.44285  0.70149  0.77102  1.0000
  H   H1009     1.0  0.40728  0.68609  0.94244  1.0000
  Fe  Fe80      1.0  0.50228  0.52501  0.75903  1.0000
  C   C585      1.0  0.46953  0.72333  0.86212  1.0000
  C   C586      1.0  0.45444  0.73593  0.84996  1.0000
  C   C587      1.0  0.49280  0.65602  0.77629  1.0000
  C   C588      1.0  0.06752  0.60590  0.88020  1.0000
  H   H1010     1.0  0.46624  0.70715  0.86666  1.0000
  C   C589      1.0  0.36462  0.72832  0.80182  1.0000
  C   C590      1.0  0.44854  0.60765  0.79351  1.0000
  C   C591      1.0  0.45252  0.59582  0.81635  1.0000
  C   C592      1.0  0.46475  0.57740  0.81490  1.0000
  C   C593      1.0  0.47314  0.57047  0.79067  1.0000
  C   C594      1.0  0.46922  0.58235  0.76784  1.0000
  C   C595      1.0  0.45694  0.60076  0.76927  1.0000
  H   H1011     1.0  0.44609  0.60078  0.83513  1.0000
  H   H1012     1.0  0.37558  0.63185  0.96806  1.0000
  H   H1013     1.0  0.47597  0.57758  0.74919  1.0000
  H   H1014     1.0  0.45405  0.60981  0.75147  1.0000
  N   N30       1.0  0.09930  0.71217  0.94239  1.0000
  C   C596      1.0  0.08151  0.71988  0.92560  1.0000
  C   C597      1.0  0.09892  0.68868  0.94538  1.0000
  C   C598      1.0  0.33503  0.73250  0.88141  1.0000
  H   H1015     1.0  0.40828  0.70276  0.98615  1.0000
  H   H1016     1.0  0.11363  0.71645  0.88938  1.0000
  H   H1017     1.0  0.44105  0.71365  0.78614  1.0000
  H   H1018     1.0  0.15690  0.62244  0.76620  1.0000
  C   C599      1.0  0.09213  0.67615  0.92134  1.0000
  C   C600      1.0  0.09726  0.65298  0.92509  1.0000
  H   H1019     1.0  0.42059  0.62681  0.97945  1.0000
  C   C601      1.0  0.12341  0.59371  0.67961  1.0000
  H   H1020     1.0  0.30819  0.71987  0.90299  1.0000
  H   H1021     1.0  0.06641  0.71462  0.93464  1.0000
  H   H1022     1.0  0.08216  0.71295  0.90579  1.0000
  H   H1023     1.0  0.11445  0.68263  0.95165  1.0000
  H   H1024     1.0  0.08767  0.68391  0.96146  1.0000
  S   S158      1.0  0.00482  0.52496  0.71271  1.0000
  H   H1025     1.0  0.38593  0.73431  0.87636  1.0000
  H   H1026     1.0  0.06166  0.74236  0.88517  1.0000
  H   H1027     1.0  0.13297  0.71342  0.94418  1.0000
  H   H1028     1.0  0.42126  0.54447  0.69652  1.0000
  H   H1029     1.0  0.13006  0.69599  0.90305  1.0000
  H   H1030     1.0  0.35722  0.71330  0.85994  1.0000
  C   C602      1.0  0.12020  0.71943  0.93160  1.0000
  H   H1031     1.0  0.40460  0.56557  0.73102  1.0000
  H   H1032     1.0  0.39457  0.52061  0.75404  1.0000
  H   H1033     1.0  0.07498  0.67784  0.91921  1.0000
  H   H1034     1.0  0.09953  0.68151  0.90257  1.0000
  H   H1035     1.0  0.08952  0.64671  0.94338  1.0000
  H   H1036     1.0  0.09152  0.64430  0.90815  1.0000
  H   H1037     1.0  0.11439  0.65042  0.92618  1.0000
  H   H1038     1.0  0.16471  0.52178  0.75695  1.0000
  H   H1039     1.0  0.32422  0.70059  0.88661  1.0000
  H   H1040     1.0  0.46817  0.62826  0.85737  1.0000
  H   H1041     1.0  0.03981  0.61773  0.86233  1.0000
  H   H1042     1.0  0.16177  0.58950  0.72414  1.0000
  H   H1043     1.0  0.26118  0.53072  0.60782  1.0000
  H   H1044     1.0  0.09734  0.54526  0.72962  1.0000
  C   C603      1.0  0.49445  0.64171  0.83507  1.0000
  H   H1045     1.0  0.09412  0.56102  0.70019  1.0000
  N   N31       1.0  0.09657  0.66645  0.75841  1.0000
  C   C604      1.0  0.11501  0.66174  0.74024  1.0000
  C   C605      1.0  0.07647  0.65901  0.74691  1.0000
  C   C606      1.0  0.09498  0.68987  0.76062  1.0000
  C   C607      1.0  0.09938  0.65732  0.78572  1.0000
  C   C608      1.0  0.10324  0.63354  0.78780  1.0000
  C   C609      1.0  0.13680  0.66792  0.75005  1.0000
  C   C610      1.0  0.07567  0.69832  0.77638  1.0000
  C   C611      1.0  0.07750  0.63891  0.73049  1.0000
  C   C612      1.0  0.05561  0.63141  0.72457  1.0000
  C   C613      1.0  0.10942  0.62702  0.81570  1.0000
  C   C614      1.0  0.15405  0.66195  0.73014  1.0000
  C   C615      1.0  0.07423  0.72207  0.77432  1.0000
  H   H1046     1.0  0.11273  0.66960  0.72068  1.0000
  H   H1047     1.0  0.11623  0.64492  0.73606  1.0000
  H   H1048     1.0  0.06434  0.65675  0.76284  1.0000
  H   H1049     1.0  0.06985  0.67114  0.73330  1.0000
  H   H1050     1.0  0.09496  0.69739  0.74059  1.0000
  H   H1051     1.0  0.10878  0.69606  0.77057  1.0000
  H   H1052     1.0  0.11231  0.66518  0.79545  1.0000
  H   H1053     1.0  0.08533  0.66049  0.79844  1.0000
  H   H1054     1.0  0.11590  0.62832  0.77418  1.0000
  H   H1055     1.0  0.08869  0.62524  0.78357  1.0000
  H   H1056     1.0  0.13781  0.68495  0.75283  1.0000
  H   H1057     1.0  0.14033  0.65985  0.76901  1.0000
  H   H1058     1.0  0.07686  0.69393  0.79753  1.0000
  H   H1059     1.0  0.06081  0.69223  0.76921  1.0000
  H   H1060     1.0  0.08573  0.64212  0.71131  1.0000
  H   H1061     1.0  0.08584  0.62601  0.74065  1.0000
  H   H1062     1.0  0.04724  0.62654  0.74311  1.0000
  H   H1063     1.0  0.04642  0.64393  0.71458  1.0000
  H   H1064     1.0  0.05667  0.61786  0.71141  1.0000
  H   H1065     1.0  0.12463  0.63389  0.82050  1.0000
  H   H1066     1.0  0.09733  0.63226  0.83026  1.0000
  H   H1067     1.0  0.11089  0.60980  0.81727  1.0000
  H   H1068     1.0  0.15378  0.64508  0.72592  1.0000
  H   H1069     1.0  0.15235  0.67103  0.71140  1.0000
  H   H1070     1.0  0.16951  0.66548  0.73825  1.0000
  H   H1071     1.0  0.01549  0.57789  0.84170  1.0000
  H   H1072     1.0  0.49082  0.66459  0.75714  1.0000
  H   H1073     1.0  0.44653  0.52908  0.81205  1.0000
  H   H1074     1.0  0.04623  0.74468  0.91535  1.0000
  H   H1075     1.0  0.25467  0.65909  0.78996  1.0000
  H   H1076     1.0  0.12359  0.58025  0.64052  1.0000
  H   H1077     1.0  0.15935  0.51335  0.72398  1.0000
  H   H1078     1.0  0.04757  0.59199  0.85251  1.0000
  H   H1079     1.0  0.17308  0.55724  0.73866  1.0000
  H   H1080     1.0  0.48354  0.64609  0.87574  1.0000
  H   H1081     1.0  0.34121  0.65774  0.94074  1.0000
  H   H1082     1.0  0.27176  0.57776  0.68647  1.0000
  H   H1083     1.0  0.20438  0.50445  0.55945  1.0000
  Fe  Fe81      1.0  0.19429  0.50827  0.63013  1.0000
  Fe  Fe82      1.0  0.01166  0.69285  0.86017  1.0000
  H   H1084     1.0  0.17869  0.60437  0.76302  1.0000
  C   C616      1.0  0.09599  0.72124  0.96947  1.0000
  H   H1085     1.0  0.14549  0.59692  0.64648  1.0000
  C   C617      1.0  0.16291  0.60679  0.77213  1.0000
  H   H1086     1.0  0.04525  0.70777  0.99106  1.0000
  H   H1087     1.0  0.44850  0.51715  0.74778  1.0000
  H   H1088     1.0  0.44705  0.54043  0.76539  1.0000
  C   C618      1.0  0.47666  0.68868  0.79128  1.0000
  H   H1089     1.0  0.12869  0.60847  0.68795  1.0000
  H   H1090     1.0  0.11714  0.73723  0.81242  1.0000
  C   C619      1.0  0.41098  0.68615  0.98475  1.0000
  H   H1091     1.0  0.07157  0.72728  0.75365  1.0000
  H   H1092     1.0  0.14253  0.74133  0.89145  1.0000
  C   C620      1.0  0.13960  0.55188  0.73178  1.0000
  H   H1093     1.0  0.24418  0.58070  0.69429  1.0000
  C   C621      1.0  0.10247  0.52593  0.65877  1.0000
  C   C622      1.0  0.35735  0.65143  0.94241  1.0000
  H   H1094     1.0  0.46319  0.54969  0.72449  1.0000
  C   C623      1.0  0.09921  0.50792  0.70127  1.0000
  H   H1095     1.0  0.49992  0.61463  0.76019  1.0000
  H   H1096     1.0  0.25321  0.58075  0.66045  1.0000
  S   S159      1.0  0.11728  0.53433  0.63074  1.0000
  H   H1097     1.0  0.36939  0.71950  0.76110  1.0000
  C   C624      1.0  0.13407  0.57448  0.69292  1.0000
  H   H1098     1.0  0.12765  0.56028  0.68406  1.0000
  N   N32       1.0  0.42187  0.53696  0.73841  1.0000
  Fe  Fe83      1.0  0.20183  0.73896  0.73486  1.0000
  H   H1099     1.0  0.47540  0.56448  0.68152  1.0000
  H   H1100     1.0  0.44642  0.57056  0.71264  1.0000
  H   H1101     1.0  0.09885  0.73829  0.96887  1.0000
  H   H1102     1.0  0.36071  0.64110  0.92551  1.0000
  H   H1103     1.0  0.38933  0.54944  0.77501  1.0000
  H   H1104     1.0  0.37130  0.66314  0.99151  1.0000
  C   C625      1.0  0.43265  0.53923  0.71163  1.0000
  H   H1105     1.0  0.38273  0.58644  0.76245  1.0000
  H   H1106     1.0  0.02897  0.60626  0.90590  1.0000
  H   H1107     1.0  0.47840  0.67159  0.83893  1.0000
  H   H1108     1.0  0.16756  0.54877  0.70625  1.0000
  H   H1109     1.0  0.15438  0.57472  0.77132  1.0000
  C   C626      1.0  0.45472  0.68254  0.78202  1.0000
  C   C627      1.0  0.24649  0.50681  0.56659  1.0000
  H   H1110     1.0  0.10600  0.69529  0.99589  1.0000
  H   H1111     1.0  0.12833  0.51226  0.67947  1.0000
  C   C628      1.0  0.14583  0.59004  0.73346  1.0000
  C   C629      1.0  0.26725  0.51862  0.56854  1.0000
  H   H1112     1.0  0.50052  0.72190  0.87789  1.0000
  H   H1113     1.0  0.07073  0.56643  0.75340  1.0000
  H   H1114     1.0  0.33764  0.72502  0.84036  1.0000
  H   H1115     1.0  0.15908  0.72109  0.90572  1.0000
  C   C630      1.0  0.00653  0.61600  0.79897  1.0000
  H   H1116     1.0  0.12655  0.71300  0.98663  1.0000
  C   C631      1.0  0.06832  0.52237  0.68101  1.0000
  H   H1117     1.0  0.46644  0.65359  0.81860  1.0000
  N   N33       1.0  0.00995  0.58619  0.88262  1.0000
  H   H1118     1.0  0.25221  0.54757  0.58118  1.0000
  H   H1119     1.0  0.13282  0.59277  0.77393  1.0000
  C   C632      1.0  0.37773  0.74906  0.87047  1.0000
  H   H1120     1.0  0.44537  0.67615  0.79890  1.0000
  H   H1121     1.0  0.45548  0.67073  0.76643  1.0000
  H   H1122     1.0  0.27966  0.54540  0.58790  1.0000
  H   H1123     1.0  0.03926  0.58057  0.90196  1.0000
  C   C633      1.0  0.10970  0.71190  0.99178  1.0000
  H   H1124     1.0  0.06725  0.58263  0.72410  1.0000
  S   S160      1.0  0.01561  0.51190  0.77483  1.0000
  C   C634      1.0  0.14563  0.72428  0.89279  1.0000
  H   H1125     1.0  0.30706  0.71746  0.86775  1.0000
  H   H1126     1.0  0.06098  0.72770  0.78692  1.0000
  H   H1127     1.0  0.45116  0.70812  0.75337  1.0000
  C   C635      1.0  0.08078  0.52954  0.65950  1.0000
  C   C636      1.0  0.37825  0.72698  0.77676  1.0000
  C   C637      1.0  0.45145  0.55418  0.70966  1.0000
  H   H1128     1.0  0.00821  0.56310  0.91411  1.0000
  C   C638      1.0  0.41460  0.55841  0.74654  1.0000
  N   N34       1.0  0.26824  0.63969  0.71224  1.0000
  C   C639      1.0  0.25926  0.65316  0.69039  1.0000
  C   C640      1.0  0.26234  0.61709  0.70915  1.0000
  C   C641      1.0  0.25856  0.64699  0.73789  1.0000
  C   C642      1.0  0.29158  0.64181  0.71383  1.0000
  C   C643      1.0  0.30440  0.63806  0.68813  1.0000
  C   C644      1.0  0.26356  0.67684  0.69152  1.0000
  C   C645      1.0  0.26518  0.63480  0.76316  1.0000
  C   C646      1.0  0.25940  0.60933  0.68074  1.0000
  C   C647      1.0  0.25704  0.58569  0.68057  1.0000
  C   C648      1.0  0.32752  0.64230  0.69198  1.0000
  C   C649      1.0  0.25710  0.68816  0.66613  1.0000
  C   C650      1.0  0.25254  0.64215  0.78722  1.0000
  H   H1129     1.0  0.24199  0.65138  0.69018  1.0000
  H   H1130     1.0  0.26494  0.64802  0.67076  1.0000
  H   H1131     1.0  0.27384  0.60653  0.71896  1.0000
  H   H1132     1.0  0.24712  0.61378  0.71946  1.0000
  H   H1133     1.0  0.24125  0.64638  0.73690  1.0000
  H   H1134     1.0  0.26246  0.66349  0.74134  1.0000
  H   H1135     1.0  0.29559  0.65741  0.72129  1.0000
  H   H1136     1.0  0.29789  0.63057  0.72872  1.0000
  H   H1137     1.0  0.29916  0.64844  0.67177  1.0000
  H   H1138     1.0  0.30316  0.62160  0.68238  1.0000
  H   H1139     1.0  0.25439  0.68385  0.70793  1.0000
  H   H1140     1.0  0.28030  0.67999  0.69425  1.0000
  H   H1141     1.0  0.28188  0.63751  0.76710  1.0000
  H   H1142     1.0  0.26282  0.61782  0.76146  1.0000
  H   H1143     1.0  0.24495  0.61640  0.67249  1.0000
  H   H1144     1.0  0.27266  0.61344  0.66734  1.0000
  C   C651      1.0  0.04617  0.69099  0.99005  1.0000
  N   N35       1.0  0.49115  0.67090  0.79904  1.0000
  H   H1145     1.0  0.13562  0.54914  0.75304  1.0000
  H   H1146     1.0  0.35938  0.71234  0.80710  1.0000
  H   H1147     1.0  0.07354  0.53780  0.64323  1.0000
  H   H1148     1.0  0.12117  0.73668  0.93249  1.0000
  C   C652      1.0  0.07187  0.56691  0.73153  1.0000
  H   H1149     1.0  0.08873  0.72916  0.78125  1.0000
  H   H1150     1.0  0.23534  0.51844  0.55824  1.0000
  C   C653      1.0  0.11168  0.51525  0.67988  1.0000
  H   H1151     1.0  0.41343  0.52203  0.79001  1.0000
  H   H1152     1.0  0.42705  0.69675  0.76519  1.0000
  C   C654      1.0  0.16903  0.54374  0.51917  1.0000
  H   H1153     1.0  0.15077  0.57460  0.68626  1.0000
  H   H1154     1.0  0.38670  0.58316  0.79734  1.0000
  H   H1155     1.0  0.49345  0.62032  0.86883  1.0000
  H   H1156     1.0  0.06071  0.55547  0.72409  1.0000
  C   C655      1.0  0.48182  0.66018  0.82320  1.0000
  C   C656      1.0  0.09399  0.56125  0.72202  1.0000
  C   C657      1.0  0.07994  0.74379  0.92079  1.0000
  C   C658      1.0  0.48895  0.73173  0.86846  1.0000
  C   C659      1.0  0.37687  0.73682  0.82510  1.0000
  C   C660      1.0  0.11017  0.57664  0.73234  1.0000
  S   S161      1.0  0.17130  0.51431  0.59793  1.0000
  C   C661      1.0  0.03090  0.59353  0.89149  1.0000
  H   H1157     1.0  0.45091  0.55843  0.66689  1.0000
  C   C662      1.0  0.46205  0.55363  0.68237  1.0000
  H   H1158     1.0  0.38689  0.72367  0.83225  1.0000
  H   H1159     1.0  0.04886  0.63091  0.98638  1.0000
  S   S162      1.0  0.01314  0.65817  0.86853  1.0000
  C   C663      1.0  0.16314  0.54688  0.72731  1.0000
  C   C664      1.0  0.14809  0.58982  0.76385  1.0000
  H   H1160     1.0  0.42809  0.56888  0.74838  1.0000
  H   H1161     1.0  0.35059  0.73798  0.79747  1.0000
  C   C665      1.0  0.12848  0.59474  0.65005  1.0000
  H   H1162     1.0  0.12004  0.60812  0.64081  1.0000
  H   H1163     1.0  0.40727  0.59354  0.77641  1.0000
  H   H1164     1.0  0.13951  0.60571  0.72805  1.0000
  N   N36       1.0  0.13240  0.57326  0.72267  1.0000
  S   S163      1.0  0.48847  0.54705  0.79028  1.0000
  Fe  Fe84      1.0  0.02714  0.50356  0.73406  1.0000
  H   H1165     1.0  0.27175  0.52548  0.54901  1.0000
  H   H1166     1.0  0.41369  0.55653  0.78966  1.0000
  H   H1167     1.0  0.50353  0.71089  0.82006  1.0000
  C   C666      1.0  0.35703  0.65340  0.99244  1.0000
  C   C667      1.0  0.48424  0.63369  0.86082  1.0000
  H   H1168     1.0  0.01812  0.53148  0.83727  1.0000
  C   C668      1.0  0.40310  0.52341  0.73509  1.0000
  H   H1169     1.0  0.39152  0.53160  0.72234  1.0000
  H   H1170     1.0  0.10911  0.57505  0.75418  1.0000
  H   H1171     1.0  0.34369  0.66432  0.98887  1.0000
  C   C669      1.0  0.34866  0.72824  0.85634  1.0000
  C   C670      1.0  0.12625  0.71289  0.90325  1.0000
  C   C671      1.0  0.04799  0.64771  0.98735  1.0000
  H   H1172     1.0  0.10619  0.59296  0.68210  1.0000
  H   H1173     1.0  0.48414  0.69843  0.77531  1.0000
  C   C672      1.0  0.26485  0.53668  0.58753  1.0000
  H   H1174     1.0  0.05163  0.52513  0.68127  1.0000
  H   H1175     1.0  0.47974  0.64467  0.77759  1.0000
  H   H1176     1.0  0.13108  0.53970  0.72130  1.0000
  C   C673      1.0  0.39438  0.58215  0.77753  1.0000
  H   H1177     1.0  0.16435  0.60629  0.79389  1.0000
  H   H1178     1.0  0.07943  0.71940  0.97627  1.0000
  H   H1179     1.0  0.41797  0.75095  0.89059  1.0000
  H   H1180     1.0  0.47358  0.69918  0.80815  1.0000
  C   C674      1.0  0.35972  0.63906  0.96828  1.0000
  C   C675      1.0  0.31757  0.71662  0.88482  1.0000
  H   H1181     1.0  0.36855  0.66448  0.94111  1.0000
  C   C676      1.0  0.42801  0.51516  0.78179  1.0000
  C   C677      1.0  0.16832  0.52443  0.73563  1.0000
  C   C678      1.0  0.01382  0.57011  0.86152  1.0000
  H   H1182     1.0  0.41048  0.50386  0.70098  1.0000
  N   N37       1.0  0.36370  0.74515  0.84767  1.0000
  H   H1183     1.0  0.34463  0.73110  0.89928  1.0000
  H   H1184     1.0  0.31830  0.63033  0.98898  1.0000
  H   H1185     1.0  0.49476  0.62852  0.82132  1.0000
  H   H1186     1.0  0.09388  0.74948  0.90955  1.0000
  H   H1187     1.0  0.28003  0.50845  0.57592  1.0000
  H   H1188     1.0  0.32777  0.74827  0.88050  1.0000
  H   H1189     1.0  0.38284  0.74279  0.76969  1.0000
  H   H1190     1.0  0.25560  0.75243  0.73846  1.0000
  C   C679      1.0  0.06077  0.74968  0.90477  1.0000
  H   H1191     1.0  0.00667  0.61145  0.85415  1.0000
  H   H1192     1.0  0.24462  0.50771  0.51637  1.0000
  H   H1193     1.0  0.00869  0.59682  0.93849  1.0000
  H   H1194     1.0  0.38805  0.74855  0.81723  1.0000
  H   H1195     1.0  0.07843  0.75220  0.93956  1.0000
  H   H1196     1.0  0.24058  0.50325  0.58702  1.0000
  H   H1197     1.0  0.43669  0.50361  0.82061  1.0000
  H   H1198     1.0  0.45833  0.50621  0.79755  1.0000
  C   C680      1.0  0.20485  0.81916  0.22329  1.0000
  H   H1199     1.0  0.22163  0.91627  0.38369  1.0000
  H   H1200     1.0  0.22779  0.82851  0.25058  1.0000
  H   H1201     1.0  0.17327  0.97953  0.43973  1.0000
  C   C681      1.0  0.27091  0.94599  0.43007  1.0000
  S   S164      1.0  0.48082  0.80033  0.13605  1.0000
  C   C682      1.0  0.39397  0.99317  0.31081  1.0000
  H   H1202     1.0  0.17446  0.84823  0.23110  1.0000
  S   S165      1.0  0.05920  0.97249  0.26017  1.0000
  H   H1203     1.0  0.03125  0.95239  0.17735  1.0000
  Fe  Fe85      1.0  0.18645  0.91246  0.34647  1.0000
  S   S166      1.0  0.16637  0.92476  0.37951  1.0000
  S   S167      1.0  0.21426  0.92883  0.32711  1.0000
  Fe  Fe86      1.0  0.16352  0.87078  0.34535  1.0000
  S   S168      1.0  0.14167  0.88010  0.37896  1.0000
  S   S169      1.0  0.15905  0.84112  0.32164  1.0000
  Fe  Fe87      1.0  0.13944  0.91141  0.35771  1.0000
  S   S170      1.0  0.10848  0.92972  0.35596  1.0000
  Fe  Fe88      1.0  0.17004  0.89287  0.39823  1.0000
  S   S171      1.0  0.18310  0.88883  0.43976  1.0000
  S   S172      1.0  0.15944  0.90143  0.32323  1.0000
  S   S173      1.0  0.19192  0.88122  0.36602  1.0000
  C   C683      1.0  0.21392  0.79703  0.22267  1.0000
  C   C684      1.0  0.17526  0.81905  0.31433  1.0000
  C   C685      1.0  0.19529  0.81644  0.32431  1.0000
  C   C686      1.0  0.20788  0.79921  0.31686  1.0000
  C   C687      1.0  0.20072  0.78437  0.29929  1.0000
  C   C688      1.0  0.18061  0.78688  0.28949  1.0000
  C   C689      1.0  0.16798  0.80407  0.29703  1.0000
  H   H1204     1.0  0.20111  0.82772  0.33770  1.0000
  H   H1205     1.0  0.22338  0.79742  0.32463  1.0000
  H   H1206     1.0  0.17482  0.77565  0.27600  1.0000
  H   H1207     1.0  0.15250  0.80587  0.28920  1.0000
  H   H1208     1.0  0.13246  0.96762  0.42393  1.0000
  C   C690      1.0  0.17092  0.89459  0.47063  1.0000
  C   C691      1.0  0.41071  0.77054  0.16850  1.0000
  H   H1209     1.0  0.16134  0.98962  0.29184  1.0000
  H   H1210     1.0  0.13989  0.89873  0.45606  1.0000
  C   C692      1.0  0.07189  0.95975  0.28706  1.0000
  C   C693      1.0  0.06446  0.96110  0.31312  1.0000
  C   C694      1.0  0.07567  0.95149  0.33381  1.0000
  C   C695      1.0  0.09437  0.94031  0.32879  1.0000
  C   C696      1.0  0.10169  0.93876  0.30268  1.0000
  C   C697      1.0  0.09055  0.94850  0.28202  1.0000
  H   H1211     1.0  0.05020  0.96974  0.31738  1.0000
  H   H1212     1.0  0.06986  0.95283  0.35391  1.0000
  H   H1213     1.0  0.11602  0.93026  0.29843  1.0000
  H   H1214     1.0  0.09649  0.94740  0.26195  1.0000
  C   C698      1.0  0.47538  0.77340  0.13942  1.0000
  H   H1215     1.0  0.31368  0.76287  0.20658  1.0000
  H   H1216     1.0  0.44644  0.77647  0.11886  1.0000
  C   C699      1.0  0.24746  0.95077  0.42623  1.0000
  H   H1217     1.0  0.23493  0.89467  0.19931  1.0000
  H   H1218     1.0  0.13958  0.86654  0.23799  1.0000
  C   C700      1.0  0.14617  0.97246  0.32531  1.0000
  Fe  Fe89      1.0  0.02775  0.98946  0.25370  1.0000
  S   S174      1.0  0.02288  0.99466  0.21018  1.0000
  C   C701      1.0  0.41542  0.79367  0.17089  1.0000
  C   C702      1.0  0.21268  0.96355  0.35844  1.0000
  C   C703      1.0  0.22462  0.95136  0.34112  1.0000
  C   C704      1.0  0.24535  0.95698  0.33511  1.0000
  C   C705      1.0  0.25432  0.97417  0.34712  1.0000
  C   C706      1.0  0.21063  0.83013  0.24898  1.0000
  H   H1219     1.0  0.19661  0.95961  0.36280  1.0000
  H   H1220     1.0  0.25465  0.94776  0.32151  1.0000
  H   H1221     1.0  0.27045  0.97806  0.34283  1.0000
  H   H1222     1.0  0.24775  0.92643  0.38273  1.0000
  C   C707      1.0  0.20963  0.86082  0.27792  1.0000
  C   C708      1.0  0.24258  0.98591  0.36518  1.0000
  C   C709      1.0  0.23732  0.91353  0.42165  1.0000
  H   H1223     1.0  0.20436  0.86183  0.21032  1.0000
  H   H1224     1.0  0.28219  0.96348  0.39528  1.0000
  C   C710      1.0  0.23765  0.91393  0.39107  1.0000
  H   H1225     1.0  0.16725  0.94202  0.29649  1.0000
  H   H1226     1.0  0.20141  0.95953  0.46092  1.0000
  H   H1227     1.0  0.17919  0.96757  0.40861  1.0000
  C   C711      1.0  0.22165  0.98064  0.37055  1.0000
  H   H1228     1.0  0.48461  0.89663  0.06126  1.0000
  H   H1229     1.0  0.27583  0.93105  0.42122  1.0000
  H   H1230     1.0  0.03140  0.90660  0.19602  1.0000
  H   H1231     1.0  0.24529  0.95520  0.40519  1.0000
  H   H1232     1.0  0.26595  0.98369  0.46988  1.0000
  H   H1233     1.0  0.12361  0.90429  0.50036  1.0000
  H   H1234     1.0  0.40324  0.80343  0.16124  1.0000
  H   H1235     1.0  0.20414  0.82067  0.26580  1.0000
  H   H1236     1.0  0.21562  0.92615  0.47135  1.0000
  C   C712      1.0  0.23064  0.85291  0.28934  1.0000
  H   H1237     1.0  0.14557  0.99276  0.39043  1.0000
  H   H1238     1.0  0.23757  0.88184  0.30899  1.0000
  C   C713      1.0  0.39445  0.96988  0.37990  1.0000
  C   C714      1.0  0.24127  0.87848  0.19912  1.0000
  S   S175      1.0  0.21788  0.76361  0.28963  1.0000
  C   C715      1.0  0.23154  0.93105  0.46448  1.0000
  H   H1239     1.0  0.19770  0.85669  0.29349  1.0000
  H   H1240     1.0  0.20739  0.78744  0.23932  1.0000
  H   H1241     1.0  0.20982  0.87818  0.27717  1.0000
  C   C716      1.0  0.24642  0.91440  0.47673  1.0000
  N   N38       1.0  0.23234  0.93396  0.43475  1.0000
  H   H1242     1.0  0.36807  0.76380  0.13566  1.0000
  S   S176      1.0  0.49005  0.94613  0.23139  1.0000
  H   H1243     1.0  0.18770  0.81780  0.22180  1.0000
  C   C717      1.0  0.15517  0.97389  0.29664  1.0000
  H   H1244     1.0  0.17332  0.84111  0.26510  1.0000
  C   C718      1.0  0.24595  0.89335  0.38020  1.0000
  H   H1245     1.0  0.17820  0.95890  0.27107  1.0000
  H   H1246     1.0  0.20982  0.78956  0.20401  1.0000
  H   H1247     1.0  0.23643  0.88014  0.38797  1.0000
  H   H1248     1.0  0.21108  0.82775  0.20567  1.0000
  H   H1249     1.0  0.26249  0.89075  0.38554  1.0000
  H   H1250     1.0  0.14017  0.86071  0.27304  1.0000
  C   C719      1.0  0.50296  0.76073  0.02853  1.0000
  H   H1251     1.0  0.48646  0.88499  0.09383  1.0000
  H   H1252     1.0  0.49184  0.90241  0.22177  1.0000
  H   H1253     1.0  0.39948  0.98320  0.22085  1.0000
  C   C720      1.0  0.38957  0.76501  0.18236  1.0000
  C   C721      1.0  0.11787  0.99658  0.31420  1.0000
  H   H1254     1.0  0.02430  0.77557  0.11754  1.0000
  S   S177      1.0  0.35424  0.00074  0.33028  1.0000
  S   S178      1.0  0.50089  0.98600  0.28412  1.0000
  C   C722      1.0  0.49137  0.80327  0.05359  1.0000
  C   C723      1.0  0.20181  0.96091  0.43910  1.0000
  C   C724      1.0  0.03411  0.93582  0.21508  1.0000
  H   H1255     1.0  0.24158  0.89857  0.47116  1.0000
  H   H1256     1.0  0.34420  0.76390  0.17573  1.0000
  H   H1257     1.0  0.24405  0.96534  0.43700  1.0000
  H   H1258     1.0  0.23120  0.79713  0.22393  1.0000
  H   H1259     1.0  0.39801  0.95291  0.37978  1.0000
  C   C725      1.0  0.45675  0.76588  0.12933  1.0000
  H   H1260     1.0  0.11112  0.97431  0.35711  1.0000
  H   H1261     1.0  0.07867  0.79104  0.20225  1.0000
  H   H1262     1.0  0.40697  0.97812  0.36846  1.0000
  H   H1263     1.0  0.18008  0.99855  0.32874  1.0000
  H   H1264     1.0  0.42136  0.99939  0.21168  1.0000
  C   C726      1.0  0.41564  0.99641  0.30829  1.0000
  H   H1265     1.0  0.41971  0.98691  0.24410  1.0000
  C   C727      1.0  0.04372  0.94624  0.19036  1.0000
  Fe  Fe90      1.0  0.49183  0.98046  0.24217  1.0000
  H   H1266     1.0  0.28034  0.97851  0.42487  1.0000
  C   C728      1.0  0.23546  0.86683  0.22481  1.0000
  H   H1267     1.0  0.23512  0.87032  0.18194  1.0000
  H   H1268     1.0  0.49318  0.86977  0.06542  1.0000
  H   H1269     1.0  0.41633  0.79789  0.19193  1.0000
  H   H1270     1.0  0.00970  0.86806  0.26320  1.0000
  H   H1271     1.0  0.11333  0.95851  0.40178  1.0000
  H   H1272     1.0  0.42387  0.76176  0.17744  1.0000
  H   H1273     1.0  0.14689  0.96638  0.37863  1.0000
  H   H1274     1.0  0.23425  0.94614  0.47415  1.0000
  H   H1275     1.0  0.38700  0.98074  0.30018  1.0000
  H   H1276     1.0  0.02447  0.94773  0.22538  1.0000
  H   H1277     1.0  0.16924  0.95200  0.43625  1.0000
  H   H1278     1.0  0.01502  0.88889  0.28550  1.0000
  C   C729      1.0  0.02138  0.87953  0.26897  1.0000
  H   H1279     1.0  0.20650  0.88265  0.23212  1.0000
  N   N39       1.0  0.01076  0.90475  0.23056  1.0000
  H   H1280     1.0  0.22391  0.86273  0.32946  1.0000
  H   H1281     1.0  0.19948  0.92817  0.43034  1.0000
  C   C730      1.0  0.18313  0.89446  0.49332  1.0000
  C   C731      1.0  0.12257  0.97225  0.40709  1.0000
  H   H1282     1.0  0.24379  0.85430  0.27496  1.0000
  H   H1283     1.0  0.24033  0.99396  0.47812  1.0000
  H   H1284     1.0  0.13770  0.88726  0.26139  1.0000
  H   H1285     1.0  0.03512  0.85737  0.29668  1.0000
  C   C732      1.0  0.47533  0.81977  0.06215  1.0000
  H   H1286     1.0  0.06675  0.75369  0.10810  1.0000
  H   H1287     1.0  0.05226  0.87811  0.28620  1.0000
  H   H1288     1.0  0.17337  0.88010  0.27568  1.0000
  H   H1289     1.0  0.48822  0.76480  0.01831  1.0000
  C   C733      1.0  0.23612  0.86494  0.31378  1.0000
  H   H1290     1.0  0.46963  0.77857  0.05425  1.0000
  C   C734      1.0  0.00859  0.77708  0.02398  1.0000
  C   C735      1.0  0.41063  0.99466  0.22822  1.0000
  H   H1291     1.0  0.01322  0.78806  0.15683  1.0000
  C   C736      1.0  0.28440  0.96295  0.41694  1.0000
  H   H1292     1.0  0.04716  0.93114  0.22793  1.0000
  H   H1293     1.0  0.04203  0.78777  0.18238  1.0000
  H   H1294     1.0  0.01234  0.88153  0.18170  1.0000
  H   H1295     1.0  0.30115  0.95962  0.42056  1.0000
  H   H1296     1.0  0.22947  0.83623  0.29538  1.0000
  H   H1297     1.0  0.40826  0.97331  0.41751  1.0000
  H   H1298     1.0  0.39039  0.76973  0.20331  1.0000
  C   C737      1.0  0.21084  0.94085  0.42631  1.0000
  H   H1299     1.0  0.19971  0.89132  0.49148  1.0000
  H   H1300     1.0  0.47444  0.82065  0.08397  1.0000
  H   H1301     1.0  0.48004  0.83521  0.05396  1.0000
  H   H1302     1.0  0.45965  0.81618  0.05476  1.0000
  C   C738      1.0  0.14949  0.89860  0.47329  1.0000
  C   C739      1.0  0.35085  0.98855  0.44628  1.0000
  H   H1303     1.0  0.25853  0.87918  0.19680  1.0000
  C   C740      1.0  0.04015  0.86731  0.27955  1.0000
  C   C741      1.0  0.16888  0.87404  0.25642  1.0000
  N   N40       1.0  0.13427  0.99156  0.33442  1.0000
  H   H1304     1.0  0.24508  0.89387  0.35837  1.0000
  H   H1305     1.0  0.24253  0.85103  0.22369  1.0000
  C   C742      1.0  0.14514  0.87192  0.25719  1.0000
  H   H1306     1.0  0.24254  0.87541  0.24098  1.0000
  H   H1307     1.0  0.10876  0.98241  0.31012  1.0000
  H   H1308     1.0  0.02286  0.78048  0.01186  1.0000
  C   C743      1.0  0.21150  0.86620  0.22913  1.0000
  N   N41       1.0  0.20343  0.85251  0.25155  1.0000
  H   H1309     1.0  0.22573  0.90162  0.42833  1.0000
  H   H1310     1.0  0.11173  0.98492  0.41346  1.0000
  H   H1311     1.0  0.26280  0.91656  0.46999  1.0000
  H   H1312     1.0  0.14263  0.97069  0.28259  1.0000
  H   H1313     1.0  0.43073  0.79713  0.16107  1.0000
  H   H1314     1.0  0.25121  0.85906  0.32149  1.0000
  H   H1315     1.0  0.17287  0.88582  0.24087  1.0000
  C   C744      1.0  0.17985  0.85282  0.25074  1.0000
  C   C745      1.0  0.03919  0.76913  0.12526  1.0000
  C   C746      1.0  0.12289  0.98655  0.36016  1.0000
  C   C747      1.0  0.13633  0.97951  0.38370  1.0000
  C   C748      1.0  0.34626  0.75713  0.19571  1.0000
  C   C749      1.0  0.39316  0.97737  0.40827  1.0000
  H   H1316     1.0  0.00868  0.92266  0.19400  1.0000
  H   H1317     1.0  0.05377  0.93505  0.17931  1.0000
  C   C750      1.0  0.49374  0.88558  0.07373  1.0000
  H   H1318     1.0  0.35115  0.76988  0.20856  1.0000
  H   H1319     1.0  0.21062  0.94377  0.40477  1.0000
  H   H1320     1.0  0.25263  0.90712  0.42774  1.0000
  H   H1321     1.0  0.27435  0.94560  0.45137  1.0000
  H   H1322     1.0  0.05351  0.95944  0.19612  1.0000
  H   H1323     1.0  0.42523  0.98652  0.29581  1.0000
  C   C751      1.0  0.17950  0.96521  0.43034  1.0000
  H   H1324     1.0  0.36017  0.97820  0.45927  1.0000
  H   H1325     1.0  0.15912  0.96831  0.33859  1.0000
  H   H1326     1.0  0.17210  0.99530  0.36249  1.0000
  H   H1327     1.0  0.01082  0.78290  0.04415  1.0000
  H   H1328     1.0  0.13595  0.95860  0.32653  1.0000
  C   C752      1.0  0.00592  0.87351  0.19966  1.0000
  H   H1329     1.0  0.18618  0.96139  0.30457  1.0000
  H   H1330     1.0  0.21246  0.98968  0.38443  1.0000
  C   C753      1.0  0.17276  0.95803  0.29200  1.0000
  C   C754      1.0  0.04256  0.77084  0.18765  1.0000
  H   H1331     1.0  0.21120  0.97467  0.43306  1.0000
  H   H1332     1.0  0.04790  0.78208  0.13371  1.0000
  H   H1333     1.0  0.34884  0.98095  0.42709  1.0000
  H   H1334     1.0  0.48157  0.78209  0.08501  1.0000
  C   C755      1.0  0.32919  0.99079  0.45945  1.0000
  H   H1335     1.0  0.39338  0.98292  0.45812  1.0000
  C   C756      1.0  0.02801  0.89416  0.24575  1.0000
  H   H1336     1.0  0.42255  0.99738  0.50030  1.0000
  H   H1337     1.0  0.37771  0.77555  0.17349  1.0000
  H   H1338     1.0  0.11142  0.85990  0.49906  1.0000
  H   H1339     1.0  0.49216  0.80396  0.03175  1.0000
  S   S179      1.0  0.46335  0.00138  0.24549  1.0000
  C   C757      1.0  0.48487  0.78131  0.06346  1.0000
  H   H1340     1.0  0.03812  0.90595  0.25454  1.0000
  H   H1341     1.0  0.41039  0.76717  0.14719  1.0000
  H   H1342     1.0  0.03858  0.88531  0.23219  1.0000
  H   H1343     1.0  0.04705  0.85711  0.26415  1.0000
  N   N42       1.0  0.50002  0.76364  0.05792  1.0000
  H   H1344     1.0  0.32173  0.97533  0.46136  1.0000
  C   C758      1.0  0.48867  0.75956  0.15271  1.0000
  H   H1345     1.0  0.38075  0.96855  0.41885  1.0000
  N   N43       1.0  0.02642  0.75924  0.17269  1.0000
  H   H1346     1.0  0.00924  0.92770  0.26129  1.0000
  H   H1347     1.0  0.05521  0.77373  0.08746  1.0000
  H   H1348     1.0  0.12532  0.00137  0.29501  1.0000
  H   H1349     1.0  0.37933  0.97266  0.37007  1.0000
  C   C759      1.0  0.02082  0.91684  0.20780  1.0000
  H   H1350     1.0  0.01851  0.86424  0.20911  1.0000
  C   C760      1.0  0.00802  0.77364  0.16751  1.0000
  C   C761      1.0  0.50116  0.90998  0.20638  1.0000
  C   C762      1.0  0.05174  0.76079  0.10170  1.0000
  H   H1351     1.0  0.18677  0.79739  0.48479  1.0000
  H   H1352     1.0  0.50303  0.76514  0.16061  1.0000
  C   C763      1.0  0.50300  0.93179  0.20609  1.0000
  C   C764      1.0  0.25693  0.99352  0.48391  1.0000
  C   C765      1.0  0.39642  0.99985  0.45697  1.0000
  H   H1353     1.0  0.00657  0.75992  0.02510  1.0000
  H   H1354     1.0  0.33044  0.99728  0.47946  1.0000
  H   H1355     1.0  0.09625  0.76895  0.19967  1.0000
  H   H1356     1.0  0.07161  0.76903  0.16360  1.0000
  C   C766      1.0  0.07976  0.77378  0.20362  1.0000
  H   H1357     1.0  0.03876  0.77001  0.20918  1.0000
  C   C767      1.0  0.06579  0.76400  0.18348  1.0000
  C   C768      1.0  0.14030  0.90177  0.49846  1.0000
  H   H1358     1.0  0.11392  0.00035  0.36724  1.0000
  H   H1359     1.0  0.49978  0.93694  0.30370  1.0000
  H   H1360     1.0  0.07525  0.76842  0.22390  1.0000
  H   H1361     1.0  0.16227  0.79020  0.50034  1.0000
  H   H1362     1.0  0.31900  0.00134  0.44764  1.0000
  C   C769      1.0  0.38934  0.00126  0.40903  1.0000
  H   H1363     1.0  0.41344  0.00100  0.45211  1.0000
  H   H1364     1.0  0.00555  0.78745  0.20688  1.0000
  S   S180      1.0  0.49611  0.97476  0.72872  1.0000
  H   H1365     1.0  0.25438  0.81041  0.73009  1.0000
  C   C770      1.0  0.16037  0.96041  0.69633  1.0000
  H   H1366     1.0  0.22869  0.80302  0.72366  1.0000
  H   H1367     1.0  0.25080  0.93020  0.51377  1.0000
  H   H1368     1.0  0.02755  0.88043  0.74485  1.0000
  C   C771      1.0  0.17833  0.79548  0.50407  1.0000
  H   H1369     1.0  0.18048  0.93633  0.71293  1.0000
  H   H1370     1.0  0.21030  0.97663  0.53369  1.0000
  S   S181      1.0  0.02878  0.98716  0.76055  1.0000
  S   S182      1.0  0.03445  0.97567  0.68422  1.0000
  Fe  Fe91      1.0  0.17536  0.87803  0.63752  1.0000
  S   S183      1.0  0.14163  0.88043  0.62604  1.0000
  S   S184      1.0  0.19306  0.84680  0.64261  1.0000
  Fe  Fe92      1.0  0.18137  0.92548  0.63113  1.0000
  S   S185      1.0  0.14822  0.93057  0.61891  1.0000
  S   S186      1.0  0.19687  0.95701  0.63361  1.0000
  Fe  Fe93      1.0  0.13948  0.90858  0.65197  1.0000
  S   S187      1.0  0.11533  0.91617  0.68457  1.0000
  Fe  Fe94      1.0  0.15325  0.90254  0.59377  1.0000
  S   S188      1.0  0.13966  0.90294  0.55261  1.0000
  S   S189      1.0  0.17260  0.90463  0.66573  1.0000
  S   S190      1.0  0.18702  0.89885  0.60358  1.0000
  H   H1371     1.0  0.04755  0.91200  0.74368  1.0000
  C   C772      1.0  0.15241  0.90115  0.52121  1.0000
  C   C773      1.0  0.23160  0.84182  0.74608  1.0000
  H   H1372     1.0  0.04738  0.94651  0.78804  1.0000
  C   C774      1.0  0.27906  0.96577  0.56809  1.0000
  H   H1373     1.0  0.27597  0.98357  0.51586  1.0000
  C   C775      1.0  0.19059  0.82564  0.66587  1.0000
  C   C776      1.0  0.17626  0.82601  0.68712  1.0000
  C   C777      1.0  0.17549  0.80922  0.70558  1.0000
  C   C778      1.0  0.18891  0.79175  0.70309  1.0000
  C   C779      1.0  0.20286  0.79113  0.68145  1.0000
  C   C780      1.0  0.20373  0.80800  0.66306  1.0000
  H   H1374     1.0  0.16598  0.83937  0.68957  1.0000
  H   H1375     1.0  0.16458  0.80990  0.72215  1.0000
  H   H1376     1.0  0.21331  0.77789  0.67919  1.0000
  H   H1377     1.0  0.21483  0.80746  0.64668  1.0000
  C   C781      1.0  0.05760  0.96007  0.68476  1.0000
  C   C782      1.0  0.06662  0.95340  0.66077  1.0000
  C   C783      1.0  0.08446  0.94026  0.66028  1.0000
  C   C784      1.0  0.09342  0.93348  0.68386  1.0000
  C   C785      1.0  0.08459  0.94039  0.70786  1.0000
  C   C786      1.0  0.06692  0.95377  0.70832  1.0000
  H   H1378     1.0  0.05959  0.95823  0.64242  1.0000
  H   H1379     1.0  0.09102  0.93507  0.64167  1.0000
  H   H1380     1.0  0.09146  0.93536  0.72622  1.0000
  H   H1381     1.0  0.06048  0.95910  0.72689  1.0000
  H   H1382     1.0  0.44012  0.90504  0.79601  1.0000
  H   H1383     1.0  0.17277  0.97210  0.69818  1.0000
  H   H1384     1.0  0.23089  0.99930  0.59639  1.0000
  H   H1385     1.0  0.38667  0.78173  0.86543  1.0000
  C   C787      1.0  0.26601  0.97066  0.64593  1.0000
  C   C788      1.0  0.25095  0.98661  0.64651  1.0000
  C   C789      1.0  0.22975  0.98195  0.64371  1.0000
  C   C790      1.0  0.22346  0.96146  0.63961  1.0000
  C   C791      1.0  0.23847  0.94546  0.63913  1.0000
  C   C792      1.0  0.25966  0.95005  0.64249  1.0000
  H   H1386     1.0  0.16631  0.82206  0.77133  1.0000
  H   H1387     1.0  0.10186  0.98889  0.63703  1.0000
  H   H1388     1.0  0.23379  0.92960  0.63605  1.0000
  C   C793      1.0  0.24425  0.82096  0.78359  1.0000
  H   H1389     1.0  0.37750  0.78334  0.82333  1.0000
  H   H1390     1.0  0.15307  0.93057  0.71555  1.0000
  H   H1391     1.0  0.30425  0.97143  0.59483  1.0000
  C   C794      1.0  0.13957  0.84170  0.55329  1.0000
  H   H1392     1.0  0.01521  0.85394  0.77787  1.0000
  H   H1393     1.0  0.03426  0.93648  0.74482  1.0000
  C   C795      1.0  0.11376  0.85618  0.52027  1.0000
  H   H1394     1.0  0.07179  0.99963  0.71684  1.0000
  Fe  Fe95      1.0  0.47340  0.00172  0.73349  1.0000
  H   H1395     1.0  0.44484  0.97518  0.85122  1.0000
  H   H1396     1.0  0.16995  0.82785  0.50519  1.0000
  H   H1397     1.0  0.00581  0.90814  0.69495  1.0000
  H   H1398     1.0  0.42120  0.77852  0.88562  1.0000
  C   C796      1.0  0.13552  0.84663  0.52385  1.0000
  H   H1399     1.0  0.44734  0.76687  0.83510  1.0000
  H   H1400     1.0  0.47241  0.88905  0.81327  1.0000
  H   H1401     1.0  0.20446  0.83077  0.80479  1.0000
  C   C797      1.0  0.23476  0.96993  0.56269  1.0000
  H   H1402     1.0  0.40388  0.76399  0.84799  1.0000
  C   C798      1.0  0.03895  0.90334  0.69522  1.0000
  H   H1403     1.0  0.25538  0.78244  0.76721  1.0000
  H   H1404     1.0  0.05464  0.89776  0.65759  1.0000
  H   H1405     1.0  0.19992  0.81181  0.74983  1.0000
  H   H1406     1.0  0.25604  0.90259  0.51500  1.0000
  H   H1407     1.0  0.05304  0.91147  0.70144  1.0000
  H   H1408     1.0  0.01722  0.92286  0.78925  1.0000
  H   H1409     1.0  0.03454  0.90061  0.78625  1.0000
  C   C799      1.0  0.19709  0.82982  0.78533  1.0000
  C   C800      1.0  0.30222  0.96664  0.57422  1.0000
  C   C801      1.0  0.01196  0.88787  0.74181  1.0000
  H   H1410     1.0  0.40137  0.97924  0.50578  1.0000
  H   H1411     1.0  0.19402  0.82125  0.52022  1.0000
  H   H1412     1.0  0.48713  0.99235  0.83176  1.0000
  H   H1413     1.0  0.12766  0.82996  0.55907  1.0000
  C   C802      1.0  0.17766  0.81623  0.51821  1.0000
  H   H1414     1.0  0.00552  0.87986  0.72461  1.0000
  H   H1415     1.0  0.19629  0.84566  0.77628  1.0000
  C   C803      1.0  0.26792  0.82472  0.77869  1.0000
  C   C804      1.0  0.34870  0.79974  0.81657  1.0000
  C   C805      1.0  0.36124  0.77939  0.81897  1.0000
  H   H1416     1.0  0.02675  0.89431  0.65746  1.0000
  H   H1417     1.0  0.20002  0.84338  0.72957  1.0000
  H   H1418     1.0  0.34874  0.80821  0.83541  1.0000
  C   C806      1.0  0.24786  0.99853  0.53229  1.0000
  C   C807      1.0  0.17398  0.89803  0.51841  1.0000
  H   H1419     1.0  0.18662  0.78340  0.51600  1.0000
  H   H1420     1.0  0.27785  0.95983  0.54794  1.0000
  N   N44       1.0  0.16121  0.83393  0.55997  1.0000
  C   C808      1.0  0.17653  0.85112  0.55394  1.0000
  H   H1421     1.0  0.39436  0.99666  0.72012  1.0000
  C   C809      1.0  0.16140  0.82955  0.58938  1.0000
  C   C810      1.0  0.16663  0.81403  0.54579  1.0000
  H   H1422     1.0  0.13558  0.85590  0.56477  1.0000
  C   C811      1.0  0.19898  0.84707  0.56387  1.0000
  C   C812      1.0  0.14485  0.81406  0.60058  1.0000
  H   H1423     1.0  0.27507  0.81310  0.76527  1.0000
  H   H1424     1.0  0.26767  0.98973  0.59315  1.0000
  C   C813      1.0  0.21484  0.86138  0.54999  1.0000
  C   C814      1.0  0.14925  0.80764  0.62909  1.0000
  C   C815      1.0  0.25902  0.98449  0.51186  1.0000
  C   C816      1.0  0.01888  0.91409  0.70650  1.0000
  H   H1425     1.0  0.17447  0.80686  0.79979  1.0000
  H   H1426     1.0  0.34761  0.77372  0.85809  1.0000
  H   H1427     1.0  0.15935  0.84429  0.60033  1.0000
  H   H1428     1.0  0.17688  0.82313  0.59522  1.0000
  H   H1429     1.0  0.17718  0.80390  0.55782  1.0000
  H   H1430     1.0  0.17084  0.86589  0.56296  1.0000
  H   H1431     1.0  0.17755  0.85480  0.53252  1.0000
  C   C817      1.0  0.27968  0.82330  0.80450  1.0000
  H   H1432     1.0  0.19943  0.85010  0.58530  1.0000
  H   H1433     1.0  0.20409  0.83070  0.56100  1.0000
  H   H1434     1.0  0.03749  0.92022  0.65748  1.0000
  C   C818      1.0  0.39437  0.76615  0.86623  1.0000
  H   H1435     1.0  0.24229  0.80632  0.79555  1.0000
  N   N45       1.0  0.13136  0.98662  0.68132  1.0000
  S   S191      1.0  0.29276  0.97584  0.64982  1.0000
  C   C819      1.0  0.47827  0.76540  0.85093  1.0000
  H   H1436     1.0  0.23068  0.85770  0.55731  1.0000
  H   H1437     1.0  0.21496  0.85920  0.52834  1.0000
  H   H1438     1.0  0.21113  0.87791  0.55431  1.0000
  C   C820      1.0  0.20935  0.81440  0.76743  1.0000
  H   H1439     1.0  0.14024  0.98082  0.60082  1.0000
  H   H1440     1.0  0.30954  0.95100  0.57192  1.0000
  N   N46       1.0  0.44352  0.94778  0.80769  1.0000
  C   C821      1.0  0.45465  0.92922  0.81988  1.0000
  C   C822      1.0  0.45653  0.96686  0.81128  1.0000
  C   C823      1.0  0.42231  0.95011  0.82092  1.0000
  C   C824      1.0  0.44060  0.94509  0.77853  1.0000
  C   C825      1.0  0.46010  0.93756  0.76254  1.0000
  C   C826      1.0  0.44399  0.90790  0.81674  1.0000
  C   C827      1.0  0.40996  0.97031  0.81362  1.0000
  H   H1441     1.0  0.23481  0.96417  0.58360  1.0000
  H   H1442     1.0  0.18546  0.94984  0.55044  1.0000
  H   H1443     1.0  0.11734  0.96469  0.60483  1.0000
  C   C828      1.0  0.24389  0.78249  0.75127  1.0000
  S   S192      1.0  0.43821  0.99826  0.72986  1.0000
  H   H1444     1.0  0.45605  0.93113  0.84147  1.0000
  H   H1445     1.0  0.47107  0.92817  0.81224  1.0000
  H   H1446     1.0  0.47233  0.96455  0.80236  1.0000
  H   H1447     1.0  0.20941  0.79913  0.77821  1.0000
  H   H1448     1.0  0.42352  0.94908  0.84275  1.0000
  H   H1449     1.0  0.41226  0.93686  0.81588  1.0000
  H   H1450     1.0  0.42777  0.93409  0.77495  1.0000
  H   H1451     1.0  0.43550  0.96010  0.76911  1.0000
  H   H1452     1.0  0.16415  0.94943  0.73699  1.0000
  H   H1453     1.0  0.47333  0.94812  0.76508  1.0000
  H   H1454     1.0  0.42933  0.90727  0.82885  1.0000
  H   H1455     1.0  0.22833  0.85421  0.76065  1.0000
  H   H1456     1.0  0.40775  0.97168  0.79204  1.0000
  H   H1457     1.0  0.40097  0.76905  0.90802  1.0000
  H   H1458     1.0  0.22928  0.77547  0.75923  1.0000
  H   H1459     1.0  0.46946  0.96127  0.85067  1.0000
  C   C829      1.0  0.21651  0.84519  0.72290  1.0000
  H   H1460     1.0  0.45127  0.95258  0.72536  1.0000
  C   C830      1.0  0.20217  0.94889  0.55573  1.0000
  C   C831      1.0  0.03265  0.91961  0.75000  1.0000
  C   C832      1.0  0.13054  0.97660  0.65475  1.0000
  H   H1461     1.0  0.46279  0.89214  0.84676  1.0000
  C   C833      1.0  0.38837  0.97050  0.82708  1.0000
  H   H1462     1.0  0.09843  0.98000  0.68643  1.0000
  C   C834      1.0  0.17466  0.82260  0.79022  1.0000
  N   N47       1.0  0.01445  0.91089  0.73572  1.0000
  H   H1463     1.0  0.25245  0.96865  0.51210  1.0000
  H   H1464     1.0  0.48153  0.78159  0.84643  1.0000
  H   H1465     1.0  0.20743  0.86895  0.69423  1.0000
  H   H1466     1.0  0.46988  0.93147  0.72218  1.0000
  H   H1467     1.0  0.22002  0.83396  0.70709  1.0000
  C   C835      1.0  0.21848  0.86706  0.71067  1.0000
  C   C836      1.0  0.45890  0.75699  0.84448  1.0000
  H   H1468     1.0  0.06506  0.92441  0.78458  1.0000
  H   H1469     1.0  0.46507  0.92166  0.76889  1.0000
  H   H1470     1.0  0.10670  0.98700  0.73193  1.0000
  H   H1471     1.0  0.26755  0.77427  0.72143  1.0000
  H   H1472     1.0  0.27052  0.84048  0.76990  1.0000
  C   C837      1.0  0.03939  0.90397  0.66509  1.0000
  N   N48       1.0  0.23125  0.82052  0.75929  1.0000
  H   H1473     1.0  0.27813  0.80751  0.81371  1.0000
  H   H1474     1.0  0.37992  0.98513  0.82161  1.0000
  H   H1475     1.0  0.23454  0.86957  0.70256  1.0000
  H   H1476     1.0  0.22945  0.91195  0.51446  1.0000
  H   H1477     1.0  0.35585  0.80986  0.80086  1.0000
  C   C838      1.0  0.23974  0.80480  0.73996  1.0000
  C   C839      1.0  0.16470  0.94315  0.71678  1.0000
  H   H1478     1.0  0.12263  0.96130  0.65669  1.0000
  H   H1479     1.0  0.21461  0.87906  0.72550  1.0000
  C   C840      1.0  0.13864  0.97057  0.70140  1.0000
  H   H1480     1.0  0.16619  0.83363  0.80334  1.0000
  H   H1481     1.0  0.24122  0.76688  0.71387  1.0000
  H   H1482     1.0  0.36146  0.77210  0.79936  1.0000
  H   H1483     1.0  0.21041  0.93829  0.54185  1.0000
  H   H1484     1.0  0.44283  0.92590  0.72956  1.0000
  H   H1485     1.0  0.24750  0.84516  0.73790  1.0000
  H   H1486     1.0  0.27357  0.83510  0.81849  1.0000
  H   H1487     1.0  0.14638  0.97266  0.64694  1.0000
  C   C841      1.0  0.45814  0.89000  0.82607  1.0000
  H   H1488     1.0  0.16163  0.95328  0.67668  1.0000
  H   H1489     1.0  0.15231  0.80465  0.54362  1.0000
  H   H1490     1.0  0.14458  0.79974  0.58878  1.0000
  H   H1491     1.0  0.01990  0.93107  0.70142  1.0000
  S   S193      1.0  0.18893  0.77240  0.72900  1.0000
  H   H1492     1.0  0.12707  0.95781  0.70341  1.0000
  H   H1493     1.0  0.04015  0.88681  0.70186  1.0000
  Fe  Fe96      1.0  0.01815  0.99143  0.71924  1.0000
  H   H1494     1.0  0.27175  0.95420  0.58198  1.0000
  H   H1495     1.0  0.18348  0.89792  0.53567  1.0000
  C   C842      1.0  0.11900  0.98948  0.63320  1.0000
  C   C843      1.0  0.21166  0.97061  0.55422  1.0000
  H   H1496     1.0  0.21821  0.99438  0.64430  1.0000
  H   H1497     1.0  0.17355  0.99134  0.66262  1.0000
  H   H1498     1.0  0.29651  0.82626  0.80052  1.0000
  H   H1499     1.0  0.44984  0.87501  0.82498  1.0000
  H   H1500     1.0  0.10153  0.84513  0.52723  1.0000
  C   C844      1.0  0.40946  0.76612  0.88909  1.0000
  H   H1501     1.0  0.12909  0.82145  0.60072  1.0000
  H   H1502     1.0  0.04914  0.92722  0.81416  1.0000
  C   C845      1.0  0.03211  0.91722  0.78040  1.0000
  H   H1503     1.0  0.20306  0.94222  0.57608  1.0000
  H   H1504     1.0  0.23859  0.83358  0.79673  1.0000
  H   H1505     1.0  0.24262  0.95747  0.55127  1.0000
  C   C846      1.0  0.45566  0.93685  0.73314  1.0000
  H   H1506     1.0  0.16469  0.79967  0.63047  1.0000
  C   C847      1.0  0.04955  0.92960  0.79242  1.0000
  H   H1507     1.0  0.27123  0.93763  0.64221  1.0000
  H   H1508     1.0  0.13945  0.97748  0.72122  1.0000
  H   H1509     1.0  0.41819  0.98435  0.81997  1.0000
  H   H1510     1.0  0.11196  0.87084  0.53134  1.0000
  H   H1511     1.0  0.11506  0.99060  0.59087  1.0000
  C   C848      1.0  0.25261  0.76822  0.72986  1.0000
  H   H1512     1.0  0.13610  0.83206  0.51252  1.0000
  H   H1513     1.0  0.14697  0.85771  0.51517  1.0000
  H   H1514     1.0  0.44994  0.98049  0.80020  1.0000
  C   C849      1.0  0.45985  0.97319  0.84021  1.0000
  C   C850      1.0  0.10930  0.99307  0.68919  1.0000
  H   H1515     1.0  0.14898  0.82155  0.64172  1.0000
  H   H1516     1.0  0.13709  0.79677  0.63672  1.0000
  H   H1517     1.0  0.38974  0.96975  0.84886  1.0000
  N   N49       1.0  0.24652  0.99015  0.56027  1.0000
  H   H1518     1.0  0.37907  0.95714  0.82069  1.0000
  H   H1519     1.0  0.20204  0.98053  0.56757  1.0000
  C   C851      1.0  0.12326  0.98082  0.60578  1.0000
  C   C852      1.0  0.35131  0.76451  0.84020  1.0000
  H   H1520     1.0  0.33234  0.79661  0.81130  1.0000
  H   H1521     1.0  0.27878  0.99958  0.56320  1.0000
  C   C853      1.0  0.24557  0.91492  0.50684  1.0000
  H   H1522     1.0  0.05999  0.76684  0.90161  1.0000
  C   C854      1.0  0.26813  0.98735  0.57145  1.0000
  H   H1523     1.0  0.31037  0.97784  0.56064  1.0000
  C   C855      1.0  0.10586  0.00049  0.71788  1.0000
  H   H1524     1.0  0.33584  0.76029  0.83246  1.0000
  C   C856      1.0  0.47142  0.99377  0.84137  1.0000
  C   C857      1.0  0.40564  0.99595  0.50525  1.0000
  H   H1525     1.0  0.36847  0.75398  0.88808  1.0000
  H   H1526     1.0  0.47351  0.99793  0.86224  1.0000
  H   H1527     1.0  0.25563  0.00248  0.64945  1.0000
  H   H1528     1.0  0.40266  0.00227  0.52521  1.0000
  C   C858      1.0  0.49347  0.75276  0.86278  1.0000
  H   H1529     1.0  0.75257  0.20129  0.19043  1.0000
  C   C859      1.0  0.80143  0.02026  0.30602  1.0000
  H   H1530     1.0  0.85459  0.22987  0.23375  1.0000
  H   H1531     1.0  0.80683  0.25162  0.41410  1.0000
  H   H1532     1.0  0.87391  0.15866  0.25104  1.0000
  H   H1533     1.0  0.59837  0.01715  0.42890  1.0000
  H   H1534     1.0  0.80924  0.05979  0.42442  1.0000
  S   S194      1.0  0.55348  0.01909  0.27638  1.0000
  S   S195      1.0  0.96241  0.01772  0.30083  1.0000
  H   H1535     1.0  0.64333  0.01860  0.44852  1.0000
  Fe  Fe97      1.0  0.81610  0.07854  0.36273  1.0000
  S   S196      1.0  0.84953  0.07477  0.37508  1.0000
  S   S197      1.0  0.79686  0.04978  0.37439  1.0000
  Fe  Fe98      1.0  0.82376  0.12322  0.34102  1.0000
  S   S198      1.0  0.85740  0.12220  0.35291  1.0000
  S   S199      1.0  0.81119  0.14837  0.31213  1.0000
  Fe  Fe99      1.0  0.85904  0.08990  0.33642  1.0000
  S   S200      1.0  0.88435  0.08151  0.30520  1.0000
  Fe  Fe100     1.0  0.84544  0.10702  0.39101  1.0000
  S   S201      1.0  0.86083  0.11273  0.43048  1.0000
  S   S202      1.0  0.82584  0.09140  0.32278  1.0000
  S   S203      1.0  0.81156  0.11032  0.38041  1.0000
  H   H1536     1.0  0.52354  0.09548  0.16814  1.0000
  C   C860      1.0  0.80740  0.17592  0.31150  1.0000
  C   C861      1.0  0.80418  0.18742  0.33436  1.0000
  C   C862      1.0  0.80050  0.20916  0.33252  1.0000
  C   C863      1.0  0.80030  0.21973  0.30791  1.0000
  C   C864      1.0  0.80396  0.20830  0.28509  1.0000
  C   C865      1.0  0.80722  0.18653  0.28690  1.0000
  H   H1537     1.0  0.80415  0.17951  0.35341  1.0000
  H   H1538     1.0  0.79763  0.21779  0.35032  1.0000
  H   H1539     1.0  0.80411  0.21620  0.26605  1.0000
  H   H1540     1.0  0.80979  0.17781  0.26910  1.0000
  H   H1541     1.0  0.93814  0.19700  0.29709  1.0000
  C   C866      1.0  0.84983  0.11193  0.46310  1.0000
  C   C867      1.0  0.82875  0.11646  0.46836  1.0000
  H   H1542     1.0  0.85055  0.17151  0.34412  1.0000
  H   H1543     1.0  0.81865  0.12066  0.45228  1.0000
  C   C868      1.0  0.90539  0.06294  0.30452  1.0000
  C   C869      1.0  0.91546  0.05862  0.28021  1.0000
  C   C870      1.0  0.93263  0.04460  0.27867  1.0000
  C   C871      1.0  0.94022  0.03490  0.30150  1.0000
  C   C872      1.0  0.93013  0.03917  0.32582  1.0000
  C   C873      1.0  0.91280  0.05302  0.32735  1.0000
  H   H1544     1.0  0.90980  0.06602  0.26238  1.0000
  H   H1545     1.0  0.93989  0.04110  0.25981  1.0000
  H   H1546     1.0  0.93579  0.03172  0.34363  1.0000
  H   H1547     1.0  0.90533  0.05616  0.34621  1.0000
  C   C874      1.0  0.73069  0.03026  0.35258  1.0000
  C   C875      1.0  0.74176  0.01926  0.37192  1.0000
  C   C876      1.0  0.76186  0.02566  0.37862  1.0000
  C   C877      1.0  0.77105  0.04322  0.36621  1.0000
  C   C878      1.0  0.75987  0.05439  0.34714  1.0000
  C   C879      1.0  0.73981  0.04791  0.34036  1.0000
  C   C880      1.0  0.86279  0.10696  0.48441  1.0000
  H   H1548     1.0  0.87835  0.04514  0.40303  1.0000
  H   H1549     1.0  0.76678  0.06786  0.33738  1.0000
  H   H1550     1.0  0.50524  0.23547  0.06159  1.0000
  C   C881      1.0  0.84466  0.04742  0.49330  1.0000
  C   C882      1.0  0.50845  0.14983  0.21495  1.0000
  C   C883      1.0  0.78781  0.08136  0.44234  1.0000
  H   H1551     1.0  0.73134  0.05656  0.32544  1.0000
  H   H1552     1.0  0.52889  0.09019  0.22476  1.0000
  H   H1553     1.0  0.76067  0.22114  0.27731  1.0000
  H   H1554     1.0  0.77040  0.01688  0.39334  1.0000
  H   H1555     1.0  0.53340  0.17008  0.22692  1.0000
  H   H1556     1.0  0.87918  0.10366  0.48064  1.0000
  H   H1557     1.0  0.88769  0.06617  0.42260  1.0000
  H   H1558     1.0  0.77780  0.21726  0.15867  1.0000
  S   S204      1.0  0.70565  0.02241  0.34275  1.0000
  C   C884      1.0  0.71523  0.22173  0.21439  1.0000
  C   C885      1.0  0.76580  0.21003  0.19816  1.0000
  H   H1559     1.0  0.93595  0.16906  0.29460  1.0000
  H   H1560     1.0  0.71680  0.23762  0.22194  1.0000
  C   C886      1.0  0.75714  0.18767  0.24795  1.0000
  C   C887      1.0  0.72464  0.20458  0.23297  1.0000
  C   C888      1.0  0.87168  0.04154  0.44522  1.0000
  H   H1561     1.0  0.96359  0.12569  0.25038  1.0000
  C   C889      1.0  0.74792  0.17343  0.27031  1.0000
  C   C890      1.0  0.63016  0.02421  0.43632  1.0000
  C   C891      1.0  0.55798  0.24125  0.14566  1.0000
  H   H1562     1.0  0.91722  0.11466  0.29437  1.0000
  H   H1563     1.0  0.51920  0.13618  0.21357  1.0000
  C   C892      1.0  0.75748  0.15150  0.26940  1.0000
  H   H1564     1.0  0.84450  0.19937  0.31248  1.0000
  C   C893      1.0  0.53723  0.23423  0.14589  1.0000
  H   H1565     1.0  0.76840  0.02204  0.30083  1.0000
  H   H1566     1.0  0.53531  0.08159  0.25764  1.0000
  H   H1567     1.0  0.86294  0.12185  0.28850  1.0000
  H   H1568     1.0  0.75739  0.17841  0.22967  1.0000
  H   H1569     1.0  0.72451  0.18995  0.22160  1.0000
  H   H1570     1.0  0.57074  0.23007  0.14489  1.0000
  H   H1571     1.0  0.94035  0.12701  0.30544  1.0000
  H   H1572     1.0  0.53408  0.21775  0.14527  1.0000
  H   H1573     1.0  0.80279  0.02737  0.43457  1.0000
  H   H1574     1.0  0.50966  0.06406  0.19191  1.0000
  H   H1575     1.0  0.73074  0.17220  0.26882  1.0000
  H   H1576     1.0  0.75159  0.17968  0.28988  1.0000
  H   H1577     1.0  0.64734  0.24623  0.17631  1.0000
  H   H1578     1.0  0.84759  0.16515  0.28986  1.0000
  H   H1579     1.0  0.81842  0.07436  0.47995  1.0000
  C   C894      1.0  0.00351  0.10783  0.25016  1.0000
  H   H1580     1.0  0.80142  0.03542  0.31614  1.0000
  H   H1581     1.0  0.80195  0.05284  0.47576  1.0000
  H   H1582     1.0  0.88054  0.04403  0.46335  1.0000
  H   H1583     1.0  0.96811  0.10502  0.21539  1.0000
  H   H1584     1.0  0.88262  0.22626  0.23008  1.0000
  H   H1585     1.0  0.77880  0.19873  0.20163  1.0000
  H   H1586     1.0  0.75122  0.14190  0.28621  1.0000
  H   H1587     1.0  0.75362  0.14384  0.25079  1.0000
  H   H1588     1.0  0.77473  0.15207  0.27106  1.0000
  H   H1589     1.0  0.97448  0.05967  0.32013  1.0000
  C   C895      1.0  0.75972  0.22093  0.22433  1.0000
  H   H1590     1.0  0.98994  0.08807  0.21292  1.0000
  C   C896      1.0  0.77320  0.22562  0.17686  1.0000
  H   H1591     1.0  0.51533  0.19886  0.01457  1.0000
  H   H1592     1.0  0.51162  0.18361  0.21170  1.0000
  H   H1593     1.0  0.85421  0.18934  0.38555  1.0000
  H   H1594     1.0  0.91000  0.20230  0.26500  1.0000
  C   C897      1.0  0.96204  0.07226  0.22328  1.0000
  C   C898      1.0  0.95508  0.06956  0.19501  1.0000
  C   C899      1.0  0.52063  0.24856  0.14754  1.0000
  H   H1595     1.0  0.75249  0.23626  0.21946  1.0000
  H   H1596     1.0  0.68297  0.21973  0.22881  1.0000
  C   C900      1.0  0.93249  0.12124  0.28783  1.0000
  H   H1597     1.0  0.87594  0.19254  0.25221  1.0000
  H   H1598     1.0  0.81766  0.23377  0.39036  1.0000
  H   H1599     1.0  0.77459  0.22479  0.23382  1.0000
  C   C901      1.0  0.73378  0.24097  0.26937  1.0000
  C   C902      1.0  0.97596  0.09164  0.22555  1.0000
  H   H1600     1.0  0.82834  0.02503  0.41880  1.0000
  H   H1601     1.0  0.84164  0.01339  0.46548  1.0000
  H   H1602     1.0  0.84430  0.05357  0.42616  1.0000
  H   H1603     1.0  0.93674  0.09903  0.25773  1.0000
  H   H1604     1.0  0.89995  0.19995  0.31190  1.0000
  H   H1605     1.0  0.59745  0.02020  0.28526  1.0000
  H   H1606     1.0  0.85175  0.06301  0.49566  1.0000
  N   N50       1.0  0.74615  0.20840  0.24333  1.0000
  H   H1607     1.0  0.86750  0.21244  0.32054  1.0000
  H   H1608     1.0  0.94794  0.07310  0.23609  1.0000
  H   H1609     1.0  0.96885  0.06787  0.18143  1.0000
  H   H1610     1.0  0.94563  0.05524  0.19399  1.0000
  H   H1611     1.0  0.94539  0.08309  0.18848  1.0000
  C   C903      1.0  0.96713  0.11293  0.26481  1.0000
  H   H1612     1.0  0.85435  0.07030  0.44952  1.0000
  C   C904      1.0  0.59099  0.00836  0.29846  1.0000
  H   H1613     1.0  0.63516  0.02420  0.41519  1.0000
  S   S205      1.0  0.50379  0.13240  0.14663  1.0000
  C   C905      1.0  0.52165  0.16936  0.21128  1.0000
  H   H1614     1.0  0.68968  0.20236  0.20214  1.0000
  C   C906      1.0  0.94575  0.10433  0.27454  1.0000
  C   C907      1.0  0.74475  0.21937  0.26935  1.0000
  H   H1615     1.0  0.87057  0.12028  0.25425  1.0000
  H   H1616     1.0  0.89088  0.14689  0.27543  1.0000
  H   H1617     1.0  0.90785  0.17485  0.26131  1.0000
  H   H1618     1.0  0.77382  0.19011  0.25248  1.0000
  H   H1619     1.0  0.71132  0.02304  0.49185  1.0000
  H   H1620     1.0  0.71703  0.23937  0.26498  1.0000
  H   H1621     1.0  0.94431  0.18457  0.26633  1.0000
  H   H1622     1.0  0.99299  0.13846  0.23408  1.0000
  H   H1623     1.0  0.60646  0.01146  0.46219  1.0000
  H   H1624     1.0  0.82079  0.08330  0.43406  1.0000
  C   C908      1.0  0.82822  0.02429  0.46253  1.0000
  H   H1625     1.0  0.94752  0.09140  0.28920  1.0000
  H   H1626     1.0  0.81638  0.01946  0.47773  1.0000
  H   H1627     1.0  0.85760  0.22977  0.28244  1.0000
  C   C909      1.0  0.81580  0.06095  0.46696  1.0000
  H   H1628     1.0  0.62622  0.04047  0.44176  1.0000
  H   H1629     1.0  0.92951  0.13439  0.27379  1.0000
  H   H1630     1.0  0.88543  0.22625  0.27944  1.0000
  C   C910      1.0  0.85061  0.05372  0.44623  1.0000
  N   N51       1.0  0.83465  0.04645  0.46671  1.0000
  C   C911      1.0  0.88546  0.04905  0.42198  1.0000
  H   H1631     1.0  0.54235  0.19031  0.01261  1.0000
  H   H1632     1.0  0.71313  0.01468  0.44319  1.0000
  C   C912      1.0  0.53176  0.20411  0.01393  1.0000
  N   N52       1.0  0.98248  0.09750  0.25287  1.0000
  H   H1633     1.0  0.84639  0.13321  0.26359  1.0000
  H   H1634     1.0  0.83899  0.20539  0.36347  1.0000
  H   H1635     1.0  0.86600  0.21151  0.36896  1.0000
  H   H1636     1.0  0.86725  0.15555  0.31115  1.0000
  H   H1637     1.0  0.89998  0.17245  0.31226  1.0000
  H   H1638     1.0  0.71338  0.20179  0.24972  1.0000
  H   H1639     1.0  0.73582  0.20997  0.28429  1.0000
  C   C913      1.0  0.80944  0.07114  0.44028  1.0000
  H   H1640     1.0  0.87744  0.17845  0.34826  1.0000
  C   C914      1.0  0.69207  0.21811  0.21004  1.0000
  N   N53       1.0  0.87273  0.18651  0.29446  1.0000
  C   C915      1.0  0.86721  0.19856  0.26964  1.0000
  C   C916      1.0  0.86472  0.16461  0.29258  1.0000
  C   C917      1.0  0.86117  0.19669  0.31724  1.0000
  C   C918      1.0  0.89584  0.18638  0.29986  1.0000
  C   C919      1.0  0.91112  0.18704  0.27560  1.0000
  C   C920      1.0  0.87038  0.22246  0.27046  1.0000
  C   C921      1.0  0.86160  0.18471  0.34415  1.0000
  C   C922      1.0  0.87448  0.15091  0.27073  1.0000
  C   C923      1.0  0.86285  0.13036  0.26919  1.0000
  C   C924      1.0  0.93374  0.18422  0.28402  1.0000
  H   H1641     1.0  0.78692  0.23426  0.18349  1.0000
  C   C925      1.0  0.85478  0.19868  0.36686  1.0000
  H   H1642     1.0  0.85047  0.19625  0.26511  1.0000
  H   H1643     1.0  0.77580  0.06950  0.44725  1.0000
  Fe  Fe101     1.0  0.98438  0.00883  0.26631  1.0000
  Fe  Fe102     1.0  0.51984  0.01202  0.26633  1.0000
  C   C926      1.0  0.82073  0.11580  0.49452  1.0000
  C   C927      1.0  0.61107  0.01047  0.44104  1.0000
  H   H1644     1.0  0.68616  0.22982  0.19552  1.0000
  H   H1645     1.0  0.97046  0.06961  0.27277  1.0000
  H   H1646     1.0  0.98521  0.09511  0.30788  1.0000
  S   S206      1.0  0.97708  0.01410  0.22360  1.0000
  S   S207      1.0  0.79506  0.24707  0.30675  1.0000
  C   C928      1.0  0.81839  0.01972  0.43574  1.0000
  H   H1647     1.0  0.76051  0.23692  0.17199  1.0000
  H   H1648     1.0  0.72680  0.24058  0.31175  1.0000
  H   H1649     1.0  0.97416  0.12086  0.28164  1.0000
  H   H1650     1.0  0.85765  0.03584  0.49488  1.0000
  H   H1651     1.0  0.78742  0.09347  0.45761  1.0000
  C   C929      1.0  0.86985  0.23254  0.24293  1.0000
  H   H1652     1.0  0.65574  0.24819  0.12842  1.0000
  H   H1653     1.0  0.78391  0.08881  0.42310  1.0000
  H   H1654     1.0  0.52997  0.16898  0.19181  1.0000
  H   H1655     1.0  0.80440  0.11938  0.49831  1.0000
  H   H1656     1.0  0.80570  0.02309  0.28491  1.0000
  H   H1657     1.0  0.90101  0.04124  0.42281  1.0000
  H   H1658     1.0  0.72328  0.22159  0.19478  1.0000
  H   H1659     1.0  0.86928  0.02463  0.44298  1.0000
  C   C930      1.0  0.81757  0.25021  0.39668  1.0000
  H   H1660     1.0  0.60568  0.24037  0.25377  1.0000
  H   H1661     1.0  0.61580  0.22337  0.22824  1.0000
  H   H1662     1.0  0.50807  0.23243  0.09649  1.0000
  H   H1663     1.0  0.53479  0.21204  0.03255  1.0000
  H   H1664     1.0  0.97100  0.05804  0.22895  1.0000
  C   C931      1.0  0.98525  0.07829  0.27023  1.0000
  H   H1665     1.0  0.74117  0.25192  0.25489  1.0000
  H   H1666     1.0  0.64706  0.24699  0.22007  1.0000
  C   C932      1.0  0.50687  0.09382  0.17118  1.0000
  C   C933      1.0  0.73458  0.25070  0.29653  1.0000
  H   H1667     1.0  0.52881  0.22377  0.07505  1.0000
  H   H1668     1.0  0.77633  0.00843  0.33026  1.0000
  C   C934      1.0  0.52229  0.08652  0.24476  1.0000
  H   H1669     1.0  0.52252  0.11848  0.25571  1.0000
  H   H1670     1.0  0.58985  0.23434  0.22619  1.0000
  C   C935      1.0  0.60603  0.23741  0.23229  1.0000
  H   H1671     1.0  0.51137  0.07334  0.24352  1.0000
  C   C936      1.0  0.77982  0.01060  0.30894  1.0000
  H   H1672     1.0  0.81338  0.00993  0.31522  1.0000
  C   C937      1.0  0.51114  0.10565  0.25603  1.0000
  C   C938      1.0  0.99363  0.08210  0.29813  1.0000
  C   C939      1.0  0.99126  0.06289  0.31617  1.0000
  H   H1673     1.0  0.99628  0.06713  0.26042  1.0000
  H   H1674     1.0  0.70103  0.00853  0.28515  1.0000
  H   H1675     1.0  0.74471  0.01485  0.47121  1.0000
  H   H1676     1.0  0.73486  0.00575  0.38157  1.0000
  C   C940      1.0  0.56947  0.00439  0.29826  1.0000
  H   H1677     1.0  0.73841  0.00496  0.29892  1.0000
  H   H1678     1.0  0.99866  0.06560  0.33530  1.0000
  H   H1679     1.0  0.99883  0.04904  0.30711  1.0000
  C   C941      1.0  0.71774  0.00730  0.49713  1.0000
  S   S208      1.0  0.51185  0.00581  0.22407  1.0000
  H   H1680     1.0  0.00325  0.12100  0.20958  1.0000
  H   H1681     1.0  0.50670  0.10190  0.27687  1.0000
  C   C942      1.0  0.51660  0.23600  0.07773  1.0000
  H   H1682     1.0  0.87195  0.24962  0.24433  1.0000
  H   H1683     1.0  0.54284  0.25133  0.04189  1.0000
  H   H1684     1.0  0.50775  0.15030  0.25761  1.0000
  H   H1685     1.0  0.60523  0.24933  0.05869  1.0000
  H   H1686     1.0  0.52406  0.10214  0.78981  1.0000
  C   C943      1.0  0.96536  0.06254  0.80692  1.0000
  H   H1687     1.0  0.83066  0.22243  0.61242  1.0000
  C   C944      1.0  0.98191  0.10484  0.73515  1.0000
  Fe  Fe103     1.0  0.98228  0.02144  0.73601  1.0000
  S   S209      1.0  0.99090  0.01832  0.77897  1.0000
  S   S210      1.0  0.95600  0.04560  0.72897  1.0000
  Fe  Fe104     1.0  0.83342  0.10081  0.58979  1.0000
  S   S211      1.0  0.81025  0.11283  0.62004  1.0000
  S   S212      1.0  0.82228  0.10954  0.54818  1.0000
  Fe  Fe105     1.0  0.86002  0.07992  0.63355  1.0000
  S   S213      1.0  0.83822  0.09065  0.66622  1.0000
  S   S214      1.0  0.88910  0.05869  0.63796  1.0000
  Fe  Fe106     1.0  0.81240  0.08116  0.63947  1.0000
  S   S215      1.0  0.78132  0.06750  0.65384  1.0000
  Fe  Fe107     1.0  0.83740  0.12162  0.64410  1.0000
  S   S216      1.0  0.84277  0.15398  0.66125  1.0000
  S   S217      1.0  0.83402  0.06849  0.60815  1.0000
  S   S218      1.0  0.86085  0.11140  0.61269  1.0000
  S   S219      1.0  0.78297  0.22698  0.70562  1.0000
  C   C945      1.0  0.83360  0.11046  0.51578  1.0000
  H   H1688     1.0  0.99168  0.14559  0.74752  1.0000
  H   H1689     1.0  0.61160  0.05395  0.71087  1.0000
  H   H1690     1.0  0.86486  0.10208  0.52671  1.0000
  H   H1691     1.0  0.95812  0.05388  0.79090  1.0000
  C   C946      1.0  0.82588  0.17364  0.67471  1.0000
  C   C947      1.0  0.83430  0.19310  0.68059  1.0000
  C   C948      1.0  0.82154  0.20945  0.69041  1.0000
  C   C949      1.0  0.80006  0.20663  0.69438  1.0000
  C   C950      1.0  0.79164  0.18716  0.68854  1.0000
  C   C951      1.0  0.80443  0.17074  0.67897  1.0000
  H   H1692     1.0  0.85084  0.19557  0.67742  1.0000
  H   H1693     1.0  0.82829  0.22429  0.69470  1.0000
  H   H1694     1.0  0.77508  0.18473  0.69156  1.0000
  H   H1695     1.0  0.79768  0.15586  0.67483  1.0000
  C   C952      1.0  0.93812  0.04967  0.70291  1.0000
  C   C953      1.0  0.92135  0.06385  0.70637  1.0000
  C   C954      1.0  0.90640  0.06711  0.68664  1.0000
  C   C955      1.0  0.90799  0.05615  0.66313  1.0000
  C   C956      1.0  0.92488  0.04211  0.65962  1.0000
  C   C957      1.0  0.93990  0.03896  0.67928  1.0000
  H   H1696     1.0  0.91976  0.07225  0.72455  1.0000
  H   H1697     1.0  0.89353  0.07795  0.68969  1.0000
  H   H1698     1.0  0.92636  0.03361  0.64150  1.0000
  H   H1699     1.0  0.95279  0.02817  0.67614  1.0000
  H   H1700     1.0  0.56389  0.03212  0.74421  1.0000
  C   C958      1.0  0.73745  0.02399  0.63985  1.0000
  C   C959      1.0  0.74774  0.04186  0.64824  1.0000
  C   C960      1.0  0.76893  0.04516  0.64174  1.0000
  C   C961      1.0  0.77979  0.03033  0.62675  1.0000
  H   H1701     1.0  0.98790  0.11787  0.72243  1.0000
  H   H1702     1.0  0.54012  0.08842  0.72983  1.0000
  H   H1703     1.0  0.73924  0.05317  0.65995  1.0000
  H   H1704     1.0  0.79613  0.03255  0.62185  1.0000
  C   C962      1.0  0.95829  0.10839  0.74045  1.0000
  H   H1705     1.0  0.66215  0.03587  0.55708  1.0000
  H   H1706     1.0  0.93472  0.22752  0.78623  1.0000
  H   H1707     1.0  0.97875  0.05338  0.81477  1.0000
  H   H1708     1.0  0.87247  0.17619  0.57641  1.0000
  C   C963      1.0  0.74840  0.00901  0.62524  1.0000
  C   C964      1.0  0.58507  0.03436  0.77571  1.0000
  H   H1709     1.0  0.88464  0.01014  0.67006  1.0000
  H   H1710     1.0  0.53441  0.12341  0.74940  1.0000
  H   H1711     1.0  0.58744  0.01721  0.77708  1.0000
  H   H1712     1.0  0.95292  0.12848  0.70591  1.0000
  H   H1713     1.0  0.84836  0.02502  0.70609  1.0000
  C   C965      1.0  0.94710  0.11366  0.71485  1.0000
  C   C966      1.0  0.79829  0.16570  0.60744  1.0000
  C   C967      1.0  0.80275  0.20289  0.61350  1.0000
  C   C968      1.0  0.77465  0.16768  0.61456  1.0000
  C   C969      1.0  0.76496  0.14644  0.62043  1.0000
  H   H1714     1.0  0.98292  0.09094  0.72250  1.0000
  H   H1715     1.0  0.80633  0.16087  0.62580  1.0000
  H   H1716     1.0  0.80051  0.15223  0.59440  1.0000
  H   H1717     1.0  0.80619  0.19848  0.63429  1.0000
  H   H1718     1.0  0.78570  0.20643  0.61326  1.0000
  H   H1719     1.0  0.77234  0.17704  0.63258  1.0000
  H   H1720     1.0  0.76601  0.17548  0.59836  1.0000
  H   H1721     1.0  0.99257  0.21871  0.79364  1.0000
  H   H1722     1.0  0.76665  0.13628  0.60306  1.0000
  H   H1723     1.0  0.77253  0.13871  0.63759  1.0000
  H   H1724     1.0  0.97944  0.09189  0.81356  1.0000
  C   C970      1.0  0.68765  0.21457  0.79769  1.0000
  C   C971      1.0  0.89035  0.01106  0.71250  1.0000
  C   C972      1.0  0.87557  0.00892  0.68899  1.0000
  Fe  Fe108     1.0  0.50642  0.03013  0.75537  1.0000
  H   H1725     1.0  0.82458  0.02697  0.51810  1.0000
  H   H1726     1.0  0.85573  0.03621  0.54427  1.0000
  C   C973      1.0  0.98919  0.08185  0.77399  1.0000
  H   H1727     1.0  0.57279  0.03881  0.79048  1.0000
  H   H1728     1.0  0.78723  0.16527  0.51035  1.0000
  H   H1729     1.0  0.90484  0.24720  0.86907  1.0000
  H   H1730     1.0  0.54766  0.19636  0.96409  1.0000
  C   C974      1.0  0.79470  0.17175  0.55073  1.0000
  S   S220      1.0  0.53137  0.00516  0.75297  1.0000
  C   C975      1.0  0.60769  0.21345  0.83231  1.0000
  C   C976      1.0  0.53897  0.04814  0.66083  1.0000
  H   H1731     1.0  0.63076  0.05552  0.66881  1.0000
  C   C977      1.0  0.81393  0.22376  0.60732  1.0000
  H   H1732     1.0  0.66953  0.24193  0.78833  1.0000
  C   C978      1.0  0.91017  0.00998  0.76348  1.0000
  H   H1733     1.0  0.00299  0.07468  0.78356  1.0000
  H   H1734     1.0  0.60947  0.24273  0.85322  1.0000
  H   H1735     1.0  0.78347  0.03623  0.53789  1.0000
  C   C979      1.0  0.83164  0.18227  0.59530  1.0000
  H   H1736     1.0  0.96885  0.20600  0.78512  1.0000
  N   N54       1.0  0.99526  0.10162  0.75901  1.0000
  H   H1737     1.0  0.93006  0.11540  0.71898  1.0000
  H   H1738     1.0  0.74808  0.14843  0.62533  1.0000
  H   H1739     1.0  0.95357  0.06451  0.82310  1.0000
  C   C980      1.0  0.84161  0.04640  0.54328  1.0000
  H   H1740     1.0  0.87083  0.14849  0.57208  1.0000
  C   C981      1.0  0.53544  0.21916  0.99060  1.0000
  C   C982      1.0  0.71404  0.02291  0.54070  1.0000
  H   H1741     1.0  0.71746  0.03896  0.53308  1.0000
  C   C983      1.0  0.99413  0.12000  0.77709  1.0000
  H   H1742     1.0  0.70197  0.22090  0.78784  1.0000
  H   H1743     1.0  0.67009  0.23925  0.86492  1.0000
  H   H1744     1.0  0.57910  0.21956  0.85537  1.0000
  H   H1745     1.0  0.64670  0.24566  0.88367  1.0000
  H   H1746     1.0  0.90350  0.24374  0.79886  1.0000
  H   H1747     1.0  0.98150  0.22392  0.76185  1.0000
  H   H1748     1.0  0.77974  0.16493  0.55794  1.0000
  C   C984      1.0  0.80060  0.19030  0.56817  1.0000
  H   H1749     1.0  0.60087  0.21886  0.81348  1.0000
  C   C985      1.0  0.55010  0.12810  0.74178  1.0000
  C   C986      1.0  0.97770  0.22072  0.78302  1.0000
  C   C987      1.0  0.53292  0.20736  0.91608  1.0000
  H   H1750     1.0  0.95861  0.09283  0.79063  1.0000
  H   H1751     1.0  0.68184  0.05338  0.54409  1.0000
  H   H1752     1.0  0.55648  0.24328  0.95509  1.0000
  C   C988      1.0  0.58974  0.20629  0.85057  1.0000
  H   H1753     1.0  0.94090  0.25166  0.85238  1.0000
  H   H1754     1.0  0.80650  0.15903  0.55088  1.0000
  C   C989      1.0  0.97259  0.08385  0.79671  1.0000
  H   H1755     1.0  0.88030  0.01518  0.72988  1.0000
  C   C990      1.0  0.65321  0.22433  0.82046  1.0000
  H   H1756     1.0  0.64633  0.21290  0.80712  1.0000
  C   C991      1.0  0.50793  0.09844  0.79420  1.0000
  H   H1757     1.0  0.71876  0.02234  0.56167  1.0000
  H   H1758     1.0  0.78638  0.20047  0.56919  1.0000
  H   H1759     1.0  0.52631  0.04051  0.67267  1.0000
  H   H1760     1.0  0.93100  0.00987  0.72951  1.0000
  H   H1761     1.0  0.97477  0.24806  0.94201  1.0000
  H   H1762     1.0  0.95518  0.12134  0.75411  1.0000
  H   H1763     1.0  0.56451  0.04290  0.70050  1.0000
  H   H1764     1.0  0.65797  0.21496  0.83808  1.0000
  H   H1765     1.0  0.83938  0.19627  0.58656  1.0000
  C   C992      1.0  0.87882  0.24224  0.75869  1.0000
  N   N55       1.0  0.80820  0.18503  0.59553  1.0000
  H   H1766     1.0  0.51644  0.24493  0.91993  1.0000
  C   C993      1.0  0.96512  0.23881  0.79474  1.0000
  H   H1767     1.0  0.90507  0.02608  0.75793  1.0000
  C   C994      1.0  0.80442  0.24134  0.62375  1.0000
  H   H1768     1.0  0.54852  0.13576  0.72207  1.0000
  H   H1769     1.0  0.53584  0.16683  0.89513  1.0000
  H   H1770     1.0  0.59995  0.04196  0.78036  1.0000
  H   H1771     1.0  0.81279  0.22825  0.58616  1.0000
  H   H1772     1.0  0.83714  0.18077  0.61593  1.0000
  H   H1773     1.0  0.52885  0.21658  0.89805  1.0000
  C   C995      1.0  0.67332  0.23254  0.80623  1.0000
  H   H1774     1.0  0.55772  0.18441  0.92638  1.0000
  N   N56       1.0  0.56910  0.07304  0.71818  1.0000
  C   C996      1.0  0.55612  0.05790  0.70345  1.0000
  H   H1775     1.0  0.83111  0.04241  0.56034  1.0000
  C   C997      1.0  0.55594  0.09256  0.72179  1.0000
  C   C998      1.0  0.58881  0.07896  0.70301  1.0000
  C   C999      1.0  0.60336  0.06090  0.69380  1.0000
  C   C1000     1.0  0.54853  0.06569  0.67608  1.0000
  C   C1001     1.0  0.56478  0.10917  0.74012  1.0000
  H   H1776     1.0  0.56203  0.16944  0.88201  1.0000
  H   H1777     1.0  0.87374  0.23884  0.73849  1.0000
  C   C1002     1.0  0.62028  0.06874  0.67441  1.0000
  H   H1778     1.0  0.81634  0.05393  0.51806  1.0000
  H   H1779     1.0  0.92650  0.23643  0.83080  1.0000
  H   H1780     1.0  0.61778  0.19965  0.82822  1.0000
  C   C1003     1.0  0.57409  0.06431  0.74530  1.0000
  H   H1781     1.0  0.86647  0.04184  0.68821  1.0000
  H   H1782     1.0  0.68333  0.01927  0.52192  1.0000
  C   C1004     1.0  0.51734  0.23699  0.93959  1.0000
  H   H1783     1.0  0.55334  0.10062  0.70249  1.0000
  H   H1784     1.0  0.58503  0.08886  0.68546  1.0000
  H   H1785     1.0  0.59863  0.08899  0.71508  1.0000
  H   H1786     1.0  0.83399  0.14874  0.58622  1.0000
  C   C1005     1.0  0.52678  0.23866  0.84393  1.0000
  H   H1787     1.0  0.53629  0.07795  0.67850  1.0000
  H   H1788     1.0  0.56152  0.07203  0.66368  1.0000
  H   H1789     1.0  0.58018  0.11471  0.73267  1.0000
  H   H1790     1.0  0.56653  0.10286  0.76050  1.0000
  C   C1006     1.0  0.83010  0.04325  0.51774  1.0000
  H   H1791     1.0  0.55497  0.23804  0.81986  1.0000
  H   H1792     1.0  0.86791  0.15896  0.60465  1.0000
  H   H1793     1.0  0.51954  0.19668  0.91933  1.0000
  H   H1794     1.0  0.54168  0.18646  0.86986  1.0000
  H   H1795     1.0  0.84625  0.06293  0.54485  1.0000
  H   H1796     1.0  0.61319  0.07525  0.65621  1.0000
  H   H1797     1.0  0.62982  0.08082  0.68351  1.0000
  H   H1798     1.0  0.68237  0.24235  0.81941  1.0000
  C   C1007     1.0  0.76961  0.01226  0.61883  1.0000
  H   H1799     1.0  0.75203  0.02579  0.56435  1.0000
  S   S221      1.0  0.51843  0.21421  0.83298  1.0000
  C   C1008     1.0  0.74881  0.01356  0.52420  1.0000
  H   H1800     1.0  0.68515  0.04026  0.57573  1.0000
  H   H1801     1.0  0.78781  0.24411  0.61885  1.0000
  C   C1009     1.0  0.57834  0.04058  0.74794  1.0000
  H   H1802     1.0  0.98394  0.06989  0.76015  1.0000
  H   H1803     1.0  0.52026  0.19773  0.96474  1.0000
  S   S222      1.0  0.51643  0.06227  0.76777  1.0000
  C   C1010     1.0  0.69000  0.02037  0.54177  1.0000
  H   H1804     1.0  0.95124  0.09387  0.74867  1.0000
  C   C1011     1.0  0.67921  0.03866  0.55551  1.0000
  H   H1805     1.0  0.55112  0.03635  0.65559  1.0000
  C   C1012     1.0  0.62045  0.23067  0.84527  1.0000
  H   H1806     1.0  0.83866  0.16631  0.55832  1.0000
  H   H1807     1.0  0.56882  0.22169  0.94008  1.0000
  C   C1013     1.0  0.78242  0.02056  0.54753  1.0000
  H   H1808     1.0  0.72116  0.02169  0.64503  1.0000
  H   H1809     1.0  0.55644  0.13956  0.75543  1.0000
  C   C1014     1.0  0.94377  0.24180  0.78109  1.0000
  H   H1810     1.0  0.56539  0.20339  0.90165  1.0000
  H   H1811     1.0  0.58764  0.07247  0.75341  1.0000
  H   H1812     1.0  0.90009  0.02498  0.70811  1.0000
  H   H1813     1.0  0.59585  0.19932  0.86910  1.0000
  H   H1814     1.0  0.59046  0.03512  0.73388  1.0000
  H   H1815     1.0  0.62750  0.22312  0.86291  1.0000
  H   H1816     1.0  0.55594  0.23859  0.89483  1.0000
  C   C1015     1.0  0.86449  0.16182  0.58350  1.0000
  H   H1817     1.0  0.56076  0.06725  0.75936  1.0000
  C   C1016     1.0  0.53440  0.20765  0.96416  1.0000
  H   H1818     1.0  0.53229  0.05447  0.64229  1.0000
  H   H1819     1.0  0.75017  0.02933  0.51470  1.0000
  C   C1017     1.0  0.84095  0.16375  0.57973  1.0000
  H   H1820     1.0  0.81244  0.19978  0.55706  1.0000
  C   C1018     1.0  0.92625  0.01185  0.78498  1.0000
  H   H1821     1.0  0.84963  0.02525  0.67056  1.0000
  C   C1019     1.0  0.85903  0.02632  0.68856  1.0000
  C   C1020     1.0  0.54761  0.17820  0.88767  1.0000
  H   H1822     1.0  0.59256  0.24188  0.90959  1.0000
  H   H1823     1.0  0.54196  0.05367  0.71556  1.0000
  H   H1824     1.0  0.94949  0.10097  0.70050  1.0000
  H   H1825     1.0  0.80682  0.18479  0.51348  1.0000
  H   H1826     1.0  0.59489  0.04862  0.68369  1.0000
  C   C1021     1.0  0.55888  0.24686  0.91324  1.0000
  N   N57       1.0  0.53504  0.22124  0.93951  1.0000
  C   C1022     1.0  0.99819  0.15860  0.78493  1.0000
  H   H1827     1.0  0.58051  0.19435  0.84068  1.0000
  C   C1023     1.0  0.85472  0.10606  0.51058  1.0000
  C   C1024     1.0  0.55232  0.19360  0.90909  1.0000
  H   H1828     1.0  0.94030  0.02009  0.77715  1.0000
  H   H1829     1.0  0.55112  0.22592  0.99278  1.0000
  H   H1830     1.0  0.00321  0.22450  0.85267  1.0000
  H   H1831     1.0  0.96273  0.23516  0.81606  1.0000
  H   H1832     1.0  0.87830  0.22757  0.77070  1.0000
  H   H1833     1.0  0.52358  0.23184  0.99209  1.0000
  H   H1834     1.0  0.98152  0.16033  0.79110  1.0000
  C   C1025     1.0  0.75961  0.01423  0.55119  1.0000
  C   C1026     1.0  0.90088  0.25101  0.75748  1.0000
  C   C1027     1.0  0.54586  0.24671  0.83422  1.0000
  H   H1835     1.0  0.77959  0.19105  0.52064  1.0000
  H   H1836     1.0  0.91943  0.02088  0.80158  1.0000
  N   N58       1.0  0.63711  0.24067  0.82792  1.0000
  H   H1837     1.0  0.67975  0.20461  0.78350  1.0000
  H   H1838     1.0  0.97811  0.12244  0.78524  1.0000
  H   H1839     1.0  0.78981  0.02129  0.56703  1.0000
  C   C1028     1.0  0.55539  0.23275  0.93813  1.0000
  H   H1840     1.0  0.80539  0.23745  0.64515  1.0000
  C   C1029     1.0  0.51496  0.25013  0.86218  1.0000
  H   H1841     1.0  0.69238  0.20493  0.81504  1.0000
  C   C1030     1.0  0.00104  0.14126  0.76494  1.0000
  C   C1031     1.0  0.79191  0.17877  0.52206  1.0000
  H   H1842     1.0  0.91141  0.23923  0.74832  1.0000
  H   H1843     1.0  0.94665  0.24114  0.75939  1.0000
  H   H1844     1.0  0.52023  0.24968  0.95355  1.0000
  H   H1845     1.0  0.62458  0.23754  0.78882  1.0000
  H   H1846     1.0  0.79122  0.00901  0.53550  1.0000
  N   N59       1.0  0.72624  0.00705  0.52478  1.0000
  H   H1847     1.0  0.68596  0.00610  0.55326  1.0000
  C   C1032     1.0  0.62809  0.24993  0.80298  1.0000
  H   H1848     1.0  0.00349  0.17360  0.77594  1.0000
  S   S223      1.0  0.63832  0.00262  0.67414  1.0000
  H   H1849     1.0  0.60815  0.00311  0.71681  1.0000
  C   C1033     1.0  0.65806  0.25150  0.86848  1.0000
  C   C1034     1.0  0.92813  0.25249  0.83795  1.0000
  H   H1850     1.0  0.75863  0.00313  0.51182  1.0000
  Fe  Fe109     1.0  0.52417  0.48460  0.21264  1.0000
  S   S224      1.0  0.54328  0.46676  0.18140  1.0000
  S   S225      1.0  0.51780  0.47445  0.25479  1.0000
  Fe  Fe110     1.0  0.63663  0.33151  0.13351  1.0000
  S   S226      1.0  0.61869  0.35863  0.11462  1.0000
  S   S227      1.0  0.67006  0.33562  0.14860  1.0000
  Fe  Fe111     1.0  0.59778  0.30389  0.13559  1.0000
  S   S228      1.0  0.57741  0.32873  0.11799  1.0000
  S   S229      1.0  0.58853  0.27078  0.14717  1.0000
  Fe  Fe112     1.0  0.60434  0.33426  0.08912  1.0000
  S   S230      1.0  0.59197  0.33509  0.04692  1.0000
  Fe  Fe113     1.0  0.59290  0.35132  0.14437  1.0000
  S   S231      1.0  0.57386  0.37143  0.17353  1.0000
  S   S232      1.0  0.62409  0.30801  0.10575  1.0000
  S   S233      1.0  0.61141  0.32562  0.16418  1.0000
  Fe  Fe114     1.0  0.80449  0.47193  0.36382  1.0000
  S   S234      1.0  0.81481  0.44749  0.39360  1.0000
  Fe  Fe115     1.0  0.84843  0.47558  0.33868  1.0000
  S   S235      1.0  0.86178  0.45180  0.36652  1.0000
  H   H1851     1.0  0.95571  0.48136  0.39701  1.0000
  Fe  Fe116     1.0  0.83283  0.43352  0.35932  1.0000
  S   S236      1.0  0.83844  0.39919  0.35124  1.0000
  Fe  Fe117     1.0  0.84278  0.46776  0.39805  1.0000
  S   S237      1.0  0.85735  0.48018  0.43474  1.0000
  S   S238      1.0  0.82056  0.45641  0.32926  1.0000
  Fe  Fe118     1.0  0.98210  0.29494  0.12100  1.0000
  S   S239      1.0  0.96117  0.29889  0.08630  1.0000
  Fe  Fe119     1.0  0.97859  0.34158  0.13484  1.0000
  S   S240      1.0  0.95799  0.34891  0.10056  1.0000
  H   H1852     1.0  0.95904  0.28644  0.01088  1.0000
  Fe  Fe120     1.0  0.94121  0.31940  0.11252  1.0000
  S   S241      1.0  0.90571  0.31977  0.11459  1.0000
  Fe  Fe121     1.0  0.97960  0.32774  0.07720  1.0000
  H   H1853     1.0  0.70822  0.27492  0.23959  1.0000
  S   S242      1.0  0.96058  0.31311  0.14777  1.0000
  H   H1854     1.0  0.78206  0.28314  0.34275  1.0000
  C   C1035     1.0  0.80952  0.28760  0.38235  1.0000
  H   H1855     1.0  0.90397  0.39791  0.19812  1.0000
  Fe  Fe122     1.0  0.77128  0.28596  0.22071  1.0000
  S   S243      1.0  0.76581  0.29092  0.26399  1.0000
  S   S244      1.0  0.74332  0.27722  0.19573  1.0000
  Fe  Fe123     1.0  0.81896  0.28998  0.22558  1.0000
  S   S245      1.0  0.81590  0.29584  0.26898  1.0000
  S   S246      1.0  0.85353  0.28648  0.21499  1.0000
  Fe  Fe124     1.0  0.79337  0.26939  0.27079  1.0000
  Fe  Fe125     1.0  0.78906  0.31671  0.25863  1.0000
  S   S247      1.0  0.78095  0.34808  0.27623  1.0000
  S   S248      1.0  0.79753  0.26243  0.22790  1.0000
  S   S249      1.0  0.79334  0.31293  0.21479  1.0000
  C   C1036     1.0  0.89128  0.30978  0.14218  1.0000
  C   C1037     1.0  0.86941  0.31202  0.14298  1.0000
  C   C1038     1.0  0.85753  0.30510  0.16515  1.0000
  C   C1039     1.0  0.86747  0.29563  0.18659  1.0000
  C   C1040     1.0  0.88931  0.29332  0.18575  1.0000
  C   C1041     1.0  0.90118  0.30042  0.16372  1.0000
  H   H1856     1.0  0.86161  0.31920  0.12637  1.0000
  H   H1857     1.0  0.84072  0.30695  0.16556  1.0000
  H   H1858     1.0  0.89711  0.28597  0.20223  1.0000
  H   H1859     1.0  0.91795  0.29854  0.16336  1.0000
  H   H1860     1.0  0.99512  0.49164  0.16549  1.0000
  H   H1861     1.0  0.82486  0.36212  0.38226  1.0000
  H   H1862     1.0  0.89156  0.39284  0.15896  1.0000
  H   H1863     1.0  0.92707  0.41607  0.38734  1.0000
  H   H1864     1.0  0.57506  0.26556  0.03477  1.0000
  H   H1865     1.0  0.87220  0.30413  0.32222  1.0000
  H   H1866     1.0  0.62483  0.45261  0.24190  1.0000
  H   H1867     1.0  0.94674  0.35793  0.20996  1.0000
  H   H1868     1.0  0.84787  0.29490  0.35836  1.0000
  H   H1869     1.0  0.95092  0.32842  0.02671  1.0000
  C   C1042     1.0  0.79768  0.36251  0.29590  1.0000
  C   C1043     1.0  0.81784  0.35549  0.30169  1.0000
  C   C1044     1.0  0.83023  0.36691  0.31860  1.0000
  C   C1045     1.0  0.82281  0.38575  0.32917  1.0000
  C   C1046     1.0  0.80288  0.39303  0.32278  1.0000
  C   C1047     1.0  0.79032  0.38136  0.30640  1.0000
  H   H1870     1.0  0.82387  0.34135  0.29306  1.0000
  H   H1871     1.0  0.84570  0.36126  0.32331  1.0000
  H   H1872     1.0  0.79697  0.40746  0.33088  1.0000
  H   H1873     1.0  0.77478  0.38695  0.30190  1.0000
  H   H1874     1.0  0.74064  0.31285  0.34601  1.0000
  C   C1048     1.0  0.92210  0.46038  0.30326  1.0000
  C   C1049     1.0  0.90119  0.46622  0.30849  1.0000
  H   H1875     1.0  0.80292  0.35921  0.40510  1.0000
  H   H1876     1.0  0.92748  0.44489  0.30881  1.0000
  H   H1877     1.0  0.89059  0.45518  0.31781  1.0000
  H   H1878     1.0  0.67211  0.26610  0.25649  1.0000
  C   C1050     1.0  0.85512  0.46716  0.46569  1.0000
  C   C1051     1.0  0.84744  0.44694  0.46829  1.0000
  H   H1879     1.0  0.94891  0.49937  0.34048  1.0000
  S   S250      1.0  0.96252  0.46639  0.28665  1.0000
  C   C1052     1.0  0.60425  0.33484  0.01510  1.0000
  H   H1880     1.0  0.85013  0.35099  0.25160  1.0000
  H   H1881     1.0  0.84536  0.46428  0.27287  1.0000
  H   H1882     1.0  0.63534  0.34087  0.02764  1.0000
  C   C1053     1.0  0.69035  0.31907  0.16142  1.0000
  C   C1054     1.0  0.69320  0.29838  0.15383  1.0000
  C   C1055     1.0  0.70943  0.28589  0.16446  1.0000
  C   C1056     1.0  0.72343  0.29397  0.18245  1.0000
  C   C1057     1.0  0.72085  0.31477  0.18971  1.0000
  C   C1058     1.0  0.70446  0.32718  0.17927  1.0000
  H   H1883     1.0  0.68321  0.29218  0.13925  1.0000
  H   H1884     1.0  0.71139  0.26997  0.15830  1.0000
  H   H1885     1.0  0.73148  0.32135  0.20340  1.0000
  H   H1886     1.0  0.70274  0.34324  0.18502  1.0000
  C   C1059     1.0  0.55139  0.44011  0.17946  1.0000
  C   C1060     1.0  0.56585  0.43427  0.15949  1.0000
  C   C1061     1.0  0.57280  0.41338  0.15716  1.0000
  C   C1062     1.0  0.56547  0.39802  0.17493  1.0000
  C   C1063     1.0  0.55111  0.40390  0.19499  1.0000
  C   C1064     1.0  0.54396  0.42472  0.19711  1.0000
  H   H1887     1.0  0.57165  0.44598  0.14562  1.0000
  H   H1888     1.0  0.58386  0.40918  0.14166  1.0000
  H   H1889     1.0  0.54523  0.39218  0.20879  1.0000
  H   H1890     1.0  0.53251  0.42877  0.21221  1.0000
  C   C1065     1.0  0.77294  0.31408  0.33156  1.0000
  C   C1066     1.0  0.54568  0.27696  0.14752  1.0000
  H   H1891     1.0  0.55351  0.31048  0.02395  1.0000
  C   C1067     1.0  0.65324  0.26103  0.16757  1.0000
  H   H1892     1.0  0.94043  0.31064  0.20828  1.0000
  H   H1893     1.0  0.54878  0.29344  0.14842  1.0000
  H   H1894     1.0  0.73754  0.48313  0.47055  1.0000
  H   H1895     1.0  0.73630  0.48326  0.42179  1.0000
  H   H1896     1.0  0.77676  0.48551  0.27019  1.0000
  H   H1897     1.0  0.51221  0.28106  0.14983  1.0000
  H   H1898     1.0  0.83622  0.33670  0.22770  1.0000
  H   H1899     1.0  0.83801  0.36459  0.22418  1.0000
  H   H1900     1.0  0.98606  0.39052  0.21284  1.0000
  C   C1068     1.0  0.98074  0.33389  0.00755  1.0000
  H   H1901     1.0  0.77011  0.45433  0.49421  1.0000
  H   H1902     1.0  0.56731  0.46531  0.28223  1.0000
  H   H1903     1.0  0.84554  0.47801  0.24135  1.0000
  C   C1069     1.0  0.74843  0.49221  0.43170  1.0000
  C   C1070     1.0  0.74018  0.49149  0.29579  1.0000
  H   H1904     1.0  0.75700  0.46609  0.45621  1.0000
  H   H1905     1.0  0.61308  0.40470  0.22740  1.0000
  H   H1906     1.0  0.77423  0.33056  0.33727  1.0000
  H   H1907     1.0  0.63168  0.38250  0.01355  1.0000
  C   C1071     1.0  0.60882  0.44621  0.24462  1.0000
  C   C1072     1.0  0.52659  0.25742  0.07896  1.0000
  H   H1908     1.0  0.98973  0.29717  0.18488  1.0000
  H   H1909     1.0  0.87256  0.38355  0.11992  1.0000
  H   H1910     1.0  0.60690  0.44795  0.20129  1.0000
  H   H1911     1.0  0.92793  0.38482  0.19171  1.0000
  H   H1912     1.0  0.52379  0.32308  0.05585  1.0000
  H   H1913     1.0  0.52990  0.33142  0.10280  1.0000
  H   H1914     1.0  0.95170  0.47208  0.34836  1.0000
  H   H1915     1.0  0.80620  0.33706  0.35571  1.0000
  C   C1073     1.0  0.63010  0.48427  0.30906  1.0000
  C   C1074     1.0  0.99302  0.38844  0.17120  1.0000
  H   H1916     1.0  0.91999  0.42988  0.35750  1.0000
  C   C1075     1.0  0.96938  0.48543  0.14023  1.0000
  H   H1917     1.0  0.89950  0.46762  0.38424  1.0000
  C   C1076     1.0  0.80347  0.32531  0.37193  1.0000
  H   H1918     1.0  0.59499  0.49030  0.27856  1.0000
  C   C1077     1.0  0.81884  0.35332  0.39987  1.0000
  C   C1078     1.0  0.81871  0.30224  0.33755  1.0000
  H   H1919     1.0  0.96593  0.26444  0.03157  1.0000
  H   H1920     1.0  0.95767  0.49355  0.15292  1.0000
  C   C1079     1.0  0.92899  0.49437  0.28387  1.0000
  N   N60       1.0  0.80401  0.30346  0.36112  1.0000
  C   C1080     1.0  0.54443  0.29870  0.07194  1.0000
  H   H1921     1.0  0.83480  0.32498  0.38979  1.0000
  H   H1922     1.0  0.82438  0.49315  0.29497  1.0000
  H   H1923     1.0  0.78765  0.32919  0.38023  1.0000
  C   C1081     1.0  0.52497  0.26991  0.14835  1.0000
  C   C1082     1.0  0.53480  0.26483  0.05131  1.0000
  C   C1083     1.0  0.81031  0.26444  0.37406  1.0000
  H   H1924     1.0  0.63152  0.40783  0.02795  1.0000
  C   C1084     1.0  0.91850  0.42987  0.37936  1.0000
  C   C1085     1.0  0.57150  0.27720  0.05019  1.0000
  H   H1925     1.0  0.58439  0.44387  0.28944  1.0000
  C   C1086     1.0  0.85550  0.30186  0.31789  1.0000
  H   H1926     1.0  0.57491  0.46532  0.22045  1.0000
  H   H1927     1.0  0.93901  0.34365  0.18195  1.0000
  H   H1928     1.0  0.53903  0.25634  0.09356  1.0000
  H   H1929     1.0  0.79489  0.46306  0.48314  1.0000
  H   H1930     1.0  0.55665  0.31089  0.07169  1.0000
  H   H1931     1.0  0.91425  0.36105  0.16206  1.0000
  H   H1932     1.0  0.85117  0.31306  0.30188  1.0000
  H   H1933     1.0  0.99699  0.28459  0.21536  1.0000
  H   H1934     1.0  0.80636  0.47871  0.24294  1.0000
  N   N61       1.0  0.64651  0.28024  0.21151  1.0000
  C   C1087     1.0  0.62194  0.39659  0.01737  1.0000
  C   C1088     1.0  0.66948  0.28062  0.21716  1.0000
  C   C1089     1.0  0.63522  0.29911  0.22246  1.0000
  C   C1090     1.0  0.64399  0.28031  0.18200  1.0000
  C   C1091     1.0  0.77895  0.49636  0.28652  1.0000
  H   H1935     1.0  0.51031  0.29982  0.06608  1.0000
  C   C1092     1.0  0.64591  0.32041  0.21723  1.0000
  C   C1093     1.0  0.67503  0.28146  0.24667  1.0000
  H   H1936     1.0  0.82134  0.26208  0.35717  1.0000
  H   H1937     1.0  0.88432  0.36667  0.23859  1.0000
  H   H1938     1.0  0.61828  0.48522  0.25984  1.0000
  C   C1094     1.0  0.63261  0.33834  0.22816  1.0000
  H   H1939     1.0  0.61393  0.48155  0.21333  1.0000
  H   H1940     1.0  0.64295  0.48894  0.29516  1.0000
  H   H1941     1.0  0.76292  0.49167  0.41924  1.0000
  H   H1942     1.0  0.67704  0.29382  0.20627  1.0000
  H   H1943     1.0  0.63251  0.29736  0.24414  1.0000
  H   H1944     1.0  0.61929  0.30052  0.21428  1.0000
  H   H1945     1.0  0.62724  0.28199  0.17695  1.0000
  H   H1946     1.0  0.65142  0.29428  0.17271  1.0000
  C   C1095     1.0  0.51759  0.32038  0.09744  1.0000
  C   C1096     1.0  0.97928  0.48986  0.35291  1.0000
  H   H1947     1.0  0.79467  0.25905  0.36860  1.0000
  H   H1948     1.0  0.73845  0.48176  0.27820  1.0000
  H   H1949     1.0  0.64850  0.32334  0.19588  1.0000
  H   H1950     1.0  0.66127  0.32104  0.22672  1.0000
  H   H1951     1.0  0.66571  0.29339  0.25732  1.0000
  H   H1952     1.0  0.98423  0.28526  0.02607  1.0000
  C   C1097     1.0  0.57956  0.26743  0.07619  1.0000
  H   H1953     1.0  0.84078  0.42119  0.49516  1.0000
  H   H1954     1.0  0.70144  0.30227  0.24109  1.0000
  H   H1955     1.0  0.00190  0.39146  0.13015  1.0000
  C   C1098     1.0  0.81500  0.47683  0.26140  1.0000
  H   H1956     1.0  0.57120  0.25291  0.08144  1.0000
  N   N62       1.0  0.59385  0.46261  0.25526  1.0000
  C   C1099     1.0  0.00152  0.39891  0.14905  1.0000
  C   C1100     1.0  0.00309  0.29119  0.19633  1.0000
  H   H1957     1.0  0.61690  0.33875  0.21939  1.0000
  H   H1958     1.0  0.63083  0.33677  0.24992  1.0000
  H   H1959     1.0  0.64031  0.35336  0.22320  1.0000
  C   C1101     1.0  0.61670  0.41705  0.21236  1.0000
  H   H1960     1.0  0.98688  0.47816  0.36609  1.0000
  C   C1102     1.0  0.91628  0.46932  0.37873  1.0000
  H   H1961     1.0  0.00164  0.48991  0.09192  1.0000
  H   H1962     1.0  0.92518  0.50148  0.46910  1.0000
  H   H1963     1.0  0.57787  0.27858  0.09246  1.0000
  H   H1964     1.0  0.63707  0.47749  0.32718  1.0000
  C   C1103     1.0  0.92759  0.44974  0.39015  1.0000
  H   H1965     1.0  0.82494  0.29079  0.39066  1.0000
  H   H1966     1.0  0.94750  0.32494  0.23707  1.0000
  H   H1967     1.0  0.77132  0.29766  0.36950  1.0000
  H   H1968     1.0  0.74763  0.29352  0.32174  1.0000
  H   H1969     1.0  0.62582  0.45433  0.29183  1.0000
  H   H1970     1.0  0.61205  0.27547  0.06753  1.0000
  H   H1971     1.0  0.91704  0.46857  0.35693  1.0000
  H   H1972     1.0  0.91404  0.34594  0.23499  1.0000
  C   C1104     1.0  0.60360  0.43664  0.21766  1.0000
  H   H1973     1.0  0.58807  0.48057  0.17795  1.0000
  C   C1105     1.0  0.59852  0.48926  0.21664  1.0000
  H   H1974     1.0  0.51589  0.30827  0.11329  1.0000
  C   C1106     1.0  0.81706  0.49768  0.27599  1.0000
  H   H1975     1.0  0.57128  0.48583  0.24237  1.0000
  H   H1976     1.0  0.93775  0.41282  0.25367  1.0000
  H   H1977     1.0  0.94448  0.44973  0.38488  1.0000
  H   H1978     1.0  0.92574  0.44887  0.41193  1.0000
  C   C1107     1.0  0.76999  0.49440  0.47265  1.0000
  H   H1979     1.0  0.62085  0.49838  0.31453  1.0000
  H   H1980     1.0  0.60838  0.39217  0.03031  1.0000
  S   S251      1.0  0.86799  0.49419  0.30873  1.0000
  H   H1981     1.0  0.60389  0.26972  0.22089  1.0000
  C   C1108     1.0  0.56228  0.26263  0.14650  1.0000
  H   H1982     1.0  0.61294  0.41099  0.19272  1.0000
  S   S252      1.0  0.98375  0.36253  0.17002  1.0000
  H   H1983     1.0  0.81701  0.28717  0.32747  1.0000
  H   H1984     1.0  0.89271  0.34523  0.17008  1.0000
  H   H1985     1.0  0.97931  0.45306  0.13522  1.0000
  H   H1986     1.0  0.87390  0.33244  0.22008  1.0000
  H   H1987     1.0  0.98480  0.48701  0.33236  1.0000
  H   H1988     1.0  0.99997  0.42618  0.21673  1.0000
  H   H1989     1.0  0.97217  0.45966  0.16876  1.0000
  H   H1990     1.0  0.51451  0.26839  0.08665  1.0000
  C   C1109     1.0  0.96827  0.46227  0.14771  1.0000
  H   H1991     1.0  0.80656  0.46531  0.27422  1.0000
  H   H1992     1.0  0.82925  0.35627  0.41650  1.0000
  H   H1993     1.0  0.87319  0.38055  0.21190  1.0000
  H   H1994     1.0  0.84456  0.32198  0.34827  1.0000
  H   H1995     1.0  0.74392  0.32041  0.31175  1.0000
  H   H1996     1.0  0.54569  0.29088  0.09155  1.0000
  C   C1110     1.0  0.58355  0.47535  0.23374  1.0000
  C   C1111     1.0  0.52309  0.31038  0.07109  1.0000
  H   H1997     1.0  0.81439  0.31425  0.32255  1.0000
  H   H1998     1.0  0.79813  0.28885  0.39923  1.0000
  C   C1112     1.0  0.84208  0.30562  0.34270  1.0000
  C   C1113     1.0  0.99160  0.49387  0.14427  1.0000
  H   H1999     1.0  0.70183  0.28660  0.27087  1.0000
  H   H2000     1.0  0.74368  0.48122  0.31309  1.0000
  H   H2001     1.0  0.95225  0.45656  0.14480  1.0000
  H   H2002     1.0  0.63361  0.42055  0.21244  1.0000
  C   C1114     1.0  0.62556  0.33845  0.01095  1.0000
  C   C1115     1.0  0.56251  0.43739  0.26017  1.0000
  C   C1116     1.0  0.54623  0.42910  0.28016  1.0000
  C   C1117     1.0  0.81858  0.33003  0.39441  1.0000
  H   H2003     1.0  0.90177  0.42847  0.38532  1.0000
  C   C1118     1.0  0.74984  0.30986  0.32762  1.0000
  H   H2004     1.0  0.00259  0.48312  0.13400  1.0000
  H   H2005     1.0  0.89764  0.37042  0.11961  1.0000
  H   H2006     1.0  0.58704  0.43239  0.21636  1.0000
  H   H2007     1.0  0.81336  0.32184  0.41290  1.0000
  H   H2008     1.0  0.57140  0.42364  0.25299  1.0000
  H   H2009     1.0  0.55388  0.41977  0.29598  1.0000
  H   H2010     1.0  0.53716  0.44206  0.28923  1.0000
  H   H2011     1.0  0.53521  0.41894  0.27006  1.0000
  C   C1119     1.0  0.57722  0.45287  0.27299  1.0000
  C   C1120     1.0  0.58961  0.49481  0.18973  1.0000
  H   H2012     1.0  0.61054  0.43322  0.25935  1.0000
  H   H2013     1.0  0.65265  0.27608  0.12855  1.0000
  H   H2014     1.0  0.52053  0.26762  0.03958  1.0000
  C   C1121     1.0  0.95918  0.33083  0.00805  1.0000
  H   H2015     1.0  0.85359  0.28572  0.31100  1.0000
  H   H2016     1.0  0.96480  0.32429  0.20854  1.0000
  H   H2017     1.0  0.78113  0.31221  0.31226  1.0000
  H   H2018     1.0  0.92477  0.42286  0.22492  1.0000
  H   H2019     1.0  0.58150  0.29090  0.04523  1.0000
  N   N63       1.0  0.54875  0.28370  0.04994  1.0000
  H   H2020     1.0  0.86197  0.34607  0.19288  1.0000
  S   S253      1.0  0.83118  0.49304  0.37054  1.0000
  C   C1122     1.0  0.93613  0.47441  0.29106  1.0000
  H   H2021     1.0  0.86894  0.37773  0.16818  1.0000
  S   S254      1.0  0.98813  0.49388  0.22093  1.0000
  Fe  Fe126     1.0  0.98886  0.48200  0.26287  1.0000
  C   C1123     1.0  0.89408  0.48624  0.30169  1.0000
  H   H2022     1.0  0.84295  0.43874  0.45099  1.0000
  C   C1124     1.0  0.75243  0.48264  0.45899  1.0000
  C   C1125     1.0  0.61444  0.25629  0.21677  1.0000
  H   H2023     1.0  0.83454  0.45235  0.24462  1.0000
  S   S255      1.0  0.99359  0.26258  0.13335  1.0000
  H   H2024     1.0  0.92932  0.37687  0.24253  1.0000
  S   S256      1.0  0.77027  0.48181  0.36248  1.0000
  H   H2025     1.0  0.90611  0.39271  0.24594  1.0000
  H   H2026     1.0  0.87426  0.35629  0.12868  1.0000
  H   H2027     1.0  0.55407  0.44499  0.24375  1.0000
  H   H2028     1.0  0.78405  0.49270  0.45949  1.0000
  C   C1126     1.0  0.61613  0.46824  0.29667  1.0000
  C   C1127     1.0  0.78234  0.29860  0.35216  1.0000
  H   H2029     1.0  0.94814  0.40688  0.22135  1.0000
  C   C1128     1.0  0.83645  0.46736  0.25465  1.0000
  C   C1129     1.0  0.91884  0.49172  0.41669  1.0000
  H   H2030     1.0  0.67760  0.26653  0.20953  1.0000
  H   H2031     1.0  0.78199  0.48613  0.30411  1.0000
  H   H2032     1.0  0.86769  0.49289  0.48633  1.0000
  N   N64       1.0  0.90223  0.36437  0.20207  1.0000
  C   C1130     1.0  0.91450  0.34606  0.21305  1.0000
  C   C1131     1.0  0.88164  0.36581  0.21707  1.0000
  C   C1132     1.0  0.89904  0.36096  0.17314  1.0000
  C   C1133     1.0  0.91374  0.38449  0.20490  1.0000
  C   C1134     1.0  0.92015  0.38969  0.23327  1.0000
  C   C1135     1.0  0.93768  0.34440  0.20369  1.0000
  C   C1136     1.0  0.88475  0.37707  0.15885  1.0000
  C   C1137     1.0  0.86656  0.34739  0.21369  1.0000
  C   C1138     1.0  0.84655  0.35020  0.23035  1.0000
  C   C1139     1.0  0.93350  0.40925  0.23319  1.0000
  C   C1140     1.0  0.94816  0.32482  0.21519  1.0000
  C   C1141     1.0  0.88220  0.37146  0.13003  1.0000
  H   H2033     1.0  0.90715  0.33120  0.20766  1.0000
  C   C1142     1.0  0.60564  0.47757  0.27178  1.0000
  H   H2034     1.0  0.92857  0.48047  0.42819  1.0000
  C   C1143     1.0  0.84610  0.43708  0.49334  1.0000
  C   C1144     1.0  0.00047  0.41870  0.19784  1.0000
  S   S257      1.0  0.99512  0.33358  0.03690  1.0000
  H   H2035     1.0  0.60418  0.46382  0.31192  1.0000
  C   C1145     1.0  0.86129  0.47744  0.48827  1.0000
  C   C1146     1.0  0.63721  0.26097  0.22433  1.0000
  H   H2036     1.0  0.63722  0.26219  0.24617  1.0000
  H   H2037     1.0  0.88145  0.49524  0.36776  1.0000
  C   C1147     1.0  0.69805  0.28657  0.24967  1.0000
  C   C1148     1.0  0.95554  0.48792  0.35477  1.0000
  C   C1149     1.0  0.97209  0.27591  0.01674  1.0000
  C   C1150     1.0  0.64772  0.26134  0.13847  1.0000
  N   N65       1.0  0.77484  0.48708  0.50027  1.0000
  H   H2038     1.0  0.96488  0.48726  0.11935  1.0000
  H   H2039     1.0  0.63068  0.25960  0.13632  1.0000
  C   C1151     1.0  0.60272  0.26163  0.07351  1.0000
  C   C1152     1.0  0.99254  0.39847  0.19555  1.0000
  C   C1153     1.0  0.78293  0.46491  0.49929  1.0000
  H   H2040     1.0  0.60835  0.25560  0.09279  1.0000
  H   H2041     1.0  0.72862  0.49815  0.35846  1.0000
  S   S258      1.0  0.00177  0.32259  0.11075  1.0000
  H   H2042     1.0  0.81894  0.48714  0.49267  1.0000
  H   H2043     1.0  0.52839  0.29940  0.02217  1.0000
  C   C1154     1.0  0.54523  0.29533  0.02417  1.0000
  C   C1155     1.0  0.94716  0.49195  0.38323  1.0000
  N   N66       1.0  0.92388  0.49003  0.38760  1.0000
  H   H2044     1.0  0.72649  0.26608  0.29618  1.0000
  C   C1156     1.0  0.90801  0.50024  0.28913  1.0000
  H   H2045     1.0  0.67049  0.26074  0.16842  1.0000
  H   H2046     1.0  0.90246  0.48698  0.42127  1.0000
  H   H2047     1.0  0.57406  0.50245  0.19198  1.0000
  H   H2048     1.0  0.72514  0.49975  0.29987  1.0000
  H   H2049     1.0  0.83364  0.25418  0.40232  1.0000
  H   H2050     1.0  0.61352  0.25276  0.19554  1.0000
  H   H2051     1.0  0.75096  0.25313  0.30209  1.0000
  Fe  Fe127     1.0  0.51949  0.47954  0.75679  1.0000
  S   S259      1.0  0.52175  0.44878  0.78060  1.0000
  S   S260      1.0  0.52391  0.48172  0.71274  1.0000
  Fe  Fe128     1.0  0.59796  0.35915  0.84263  1.0000
  S   S261      1.0  0.59256  0.32875  0.82293  1.0000
  S   S262      1.0  0.59732  0.39086  0.82100  1.0000
  Fe  Fe129     1.0  0.61579  0.33654  0.89211  1.0000
  S   S263      1.0  0.61221  0.30480  0.87503  1.0000
  S   S264      1.0  0.63221  0.34159  0.93079  1.0000
  Fe  Fe130     1.0  0.62462  0.31925  0.83682  1.0000
  S   S265      1.0  0.64640  0.30390  0.80619  1.0000
  Fe  Fe131     1.0  0.58077  0.31707  0.86269  1.0000
  S   S266      1.0  0.55043  0.30080  0.87409  1.0000
  S   S267      1.0  0.63047  0.34998  0.85477  1.0000
  S   S268      1.0  0.58385  0.34835  0.88161  1.0000
  Fe  Fe132     1.0  0.84885  0.48143  0.62856  1.0000
  S   S269      1.0  0.85184  0.44695  0.62349  1.0000
  H   H2052     1.0  0.89863  0.27049  0.79153  1.0000
  C   C1157     1.0  0.81721  0.35807  0.77994  1.0000
  S   S270      1.0  0.80554  0.44923  0.59638  1.0000
  Fe  Fe133     1.0  0.81833  0.44567  0.63714  1.0000
  S   S271      1.0  0.80817  0.42485  0.67191  1.0000
  Fe  Fe134     1.0  0.83903  0.45302  0.58303  1.0000
  S   S272      1.0  0.84957  0.43489  0.54720  1.0000
  S   S273      1.0  0.81575  0.48007  0.64425  1.0000
  Fe  Fe135     1.0  0.97888  0.30097  0.85303  1.0000
  S   S274      1.0  0.94543  0.30693  0.86538  1.0000
  Fe  Fe136     1.0  0.98665  0.34772  0.84438  1.0000
  S   S275      1.0  0.95407  0.35676  0.85722  1.0000
  H   H2053     1.0  0.86939  0.46239  0.72981  1.0000
  Fe  Fe137     1.0  0.95838  0.33244  0.88950  1.0000
  S   S276      1.0  0.94410  0.33417  0.93077  1.0000
  Fe  Fe138     1.0  0.94412  0.33043  0.83223  1.0000
  S   S277      1.0  0.92010  0.33584  0.80042  1.0000
  S   S278      1.0  0.97656  0.32248  0.81777  1.0000
  H   H2054     1.0  0.94115  0.40084  0.70393  1.0000
  H   H2055     1.0  0.56744  0.45176  0.77392  1.0000
  Fe  Fe139     1.0  0.81544  0.28432  0.76036  1.0000
  S   S279      1.0  0.82064  0.27593  0.71788  1.0000
  S   S280      1.0  0.83788  0.28239  0.79437  1.0000
  Fe  Fe140     1.0  0.76876  0.29479  0.75431  1.0000
  S   S281      1.0  0.77017  0.28749  0.71085  1.0000
  S   S282      1.0  0.74494  0.30971  0.78341  1.0000
  C   C1158     1.0  0.66895  0.27016  0.87994  1.0000
  Fe  Fe141     1.0  0.80077  0.30451  0.70909  1.0000
  S   S283      1.0  0.81146  0.32568  0.67489  1.0000
  C   C1159     1.0  0.95946  0.28557  0.76674  1.0000
  S   S284      1.0  0.79803  0.31390  0.75116  1.0000
  C   C1160     1.0  0.95867  0.33415  0.95995  1.0000
  C   C1161     1.0  0.75563  0.48763  0.51813  1.0000
  C   C1162     1.0  0.98023  0.33728  0.95942  1.0000
  H   H2056     1.0  0.55062  0.45270  0.91402  1.0000
  C   C1163     1.0  0.88094  0.39911  0.60195  1.0000
  C   C1164     1.0  0.98862  0.40658  0.83728  1.0000
  C   C1165     1.0  0.98295  0.42755  0.83265  1.0000
  H   H2057     1.0  0.75999  0.48471  0.53899  1.0000
  H   H2058     1.0  0.92592  0.28337  0.81871  1.0000
  H   H2059     1.0  0.97262  0.43536  0.84647  1.0000
  C   C1166     1.0  0.89678  0.32161  0.79953  1.0000
  C   C1167     1.0  0.88497  0.32257  0.77658  1.0000
  C   C1168     1.0  0.86666  0.31090  0.77482  1.0000
  C   C1169     1.0  0.86009  0.29817  0.79604  1.0000
  C   C1170     1.0  0.87167  0.29754  0.81917  1.0000
  C   C1171     1.0  0.88993  0.30926  0.82096  1.0000
  H   H2060     1.0  0.89023  0.33207  0.75992  1.0000
  H   H2061     1.0  0.85783  0.31142  0.75692  1.0000
  H   H2062     1.0  0.86653  0.28785  0.83574  1.0000
  H   H2063     1.0  0.89873  0.30870  0.83887  1.0000
  C   C1172     1.0  0.85143  0.44770  0.51605  1.0000
  C   C1173     1.0  0.85894  0.46799  0.51343  1.0000
  H   H2064     1.0  0.95612  0.30382  0.73021  1.0000
  H   H2065     1.0  0.86352  0.47615  0.53072  1.0000
  H   H2066     1.0  0.97861  0.31002  0.74908  1.0000
  C   C1174     1.0  0.79890  0.30323  0.84744  1.0000
  H   H2067     1.0  0.80337  0.42648  0.54175  1.0000
  H   H2068     1.0  0.56121  0.41586  0.91745  1.0000
  N   N67       1.0  0.79820  0.32665  0.84342  1.0000
  H   H2069     1.0  0.84610  0.34327  0.89584  1.0000
  C   C1175     1.0  0.80814  0.39729  0.67181  1.0000
  C   C1176     1.0  0.80139  0.38629  0.69467  1.0000
  C   C1177     1.0  0.80194  0.36435  0.69579  1.0000
  C   C1178     1.0  0.80952  0.35322  0.67412  1.0000
  C   C1179     1.0  0.81626  0.36424  0.65127  1.0000
  C   C1180     1.0  0.81547  0.38616  0.65004  1.0000
  H   H2070     1.0  0.79569  0.39479  0.71160  1.0000
  H   H2071     1.0  0.79668  0.35605  0.71345  1.0000
  H   H2072     1.0  0.82204  0.35573  0.63438  1.0000
  H   H2073     1.0  0.82056  0.39444  0.63226  1.0000
  C   C1181     1.0  0.67402  0.30466  0.80121  1.0000
  C   C1182     1.0  0.68699  0.31515  0.81808  1.0000
  C   C1183     1.0  0.70864  0.31625  0.81244  1.0000
  C   C1184     1.0  0.71771  0.30664  0.79016  1.0000
  C   C1185     1.0  0.70479  0.29570  0.77367  1.0000
  C   C1186     1.0  0.68309  0.29478  0.77916  1.0000
  H   H2074     1.0  0.68033  0.32265  0.83527  1.0000
  H   H2075     1.0  0.71846  0.32468  0.82540  1.0000
  H   H2076     1.0  0.71148  0.28826  0.75645  1.0000
  H   H2077     1.0  0.67326  0.28657  0.76597  1.0000
  C   C1187     1.0  0.62152  0.33706  0.96304  1.0000
  C   C1188     1.0  0.60045  0.33241  0.96730  1.0000
  H   H2078     1.0  0.65745  0.28276  0.88458  1.0000
  H   H2079     1.0  0.59065  0.33004  0.95065  1.0000
  C   C1189     1.0  0.53970  0.37442  0.75465  1.0000
  H   H2080     1.0  0.68095  0.27638  0.86576  1.0000
  C   C1190     1.0  0.54139  0.27725  0.86133  1.0000
  C   C1191     1.0  0.52219  0.26937  0.87073  1.0000
  H   H2081     1.0  0.86689  0.39289  0.71830  1.0000
  H   H2082     1.0  0.51086  0.38380  0.77344  1.0000
  H   H2083     1.0  0.65816  0.26656  0.82991  1.0000
  H   H2084     1.0  0.83603  0.31130  0.87217  1.0000
  C   C1192     1.0  0.54309  0.43294  0.79145  1.0000
  C   C1193     1.0  0.53887  0.41469  0.80649  1.0000
  C   C1194     1.0  0.55518  0.40153  0.81550  1.0000
  C   C1195     1.0  0.57600  0.40651  0.80966  1.0000
  C   C1196     1.0  0.58022  0.42471  0.79455  1.0000
  C   C1197     1.0  0.56390  0.43782  0.78544  1.0000
  H   H2085     1.0  0.52286  0.41076  0.81137  1.0000
  H   H2086     1.0  0.55163  0.38765  0.82712  1.0000
  H   H2087     1.0  0.59623  0.42879  0.78995  1.0000
  H   H2088     1.0  0.98837  0.34015  0.94080  1.0000
  H   H2089     1.0  0.79635  0.29899  0.86870  1.0000
  C   C1198     1.0  0.51659  0.38048  0.75314  1.0000
  C   C1199     1.0  0.90073  0.39764  0.68651  1.0000
  H   H2090     1.0  0.78244  0.36646  0.86021  1.0000
  C   C1200     1.0  0.58060  0.38136  0.93895  1.0000
  C   C1201     1.0  0.79087  0.50123  0.51130  1.0000
  N   N68       1.0  0.59339  0.39858  0.94989  1.0000
  S   S285      1.0  0.99194  0.32536  0.87876  1.0000
  N   N69       1.0  0.93118  0.26118  0.78771  1.0000
  H   H2091     1.0  0.98431  0.25916  0.91207  1.0000
  C   C1202     1.0  0.93775  0.48773  0.67494  1.0000
  H   H2092     1.0  0.80167  0.35855  0.77069  1.0000
  H   H2093     1.0  0.61075  0.38098  0.89979  1.0000
  C   C1203     1.0  0.99122  0.33709  0.98314  1.0000
  Fe  Fe142     1.0  0.98261  0.49775  0.71439  1.0000
  H   H2094     1.0  0.51882  0.42301  0.68668  1.0000
  C   C1204     1.0  0.63123  0.40561  0.88805  1.0000
  H   H2095     1.0  0.58598  0.38992  0.99072  1.0000
  H   H2096     1.0  0.88868  0.42201  0.62993  1.0000
  H   H2097     1.0  0.61378  0.28362  0.77199  1.0000
  H   H2098     1.0  0.63981  0.25991  0.79245  1.0000
  C   C1205     1.0  0.87137  0.45663  0.70944  1.0000
  H   H2099     1.0  0.85660  0.42779  0.72032  1.0000
  H   H2100     1.0  0.52363  0.41229  0.74099  1.0000
  H   H2101     1.0  0.91525  0.42223  0.66058  1.0000
  H   H2102     1.0  0.98576  0.37227  0.77291  1.0000
  H   H2103     1.0  0.77522  0.25864  0.82428  1.0000
  C   C1206     1.0  0.83548  0.32670  0.86173  1.0000
  H   H2104     1.0  0.86472  0.40490  0.59900  1.0000
  H   H2105     1.0  0.74491  0.47477  0.51364  1.0000
  C   C1207     1.0  0.87450  0.39500  0.65130  1.0000
  H   H2106     1.0  0.80670  0.33304  0.88339  1.0000
  H   H2107     1.0  0.88159  0.43456  0.66872  1.0000
  C   C1208     1.0  0.61177  0.39794  0.90310  1.0000
  C   C1209     1.0  0.92763  0.47490  0.65727  1.0000
  H   H2108     1.0  0.98185  0.29411  0.97081  1.0000
  H   H2109     1.0  0.59803  0.40562  0.89416  1.0000
  H   H2110     1.0  0.88143  0.38197  0.59954  1.0000
  H   H2111     1.0  0.91360  0.42848  0.69454  1.0000
  H   H2112     1.0  0.81514  0.32003  0.80687  1.0000
  H   H2113     1.0  0.73793  0.35477  0.84545  1.0000
  Fe  Fe143     1.0  0.99291  0.48578  0.77118  1.0000
  H   H2114     1.0  0.95416  0.28179  0.95081  1.0000
  H   H2115     1.0  0.80835  0.46257  0.52752  1.0000
  H   H2116     1.0  0.89113  0.40641  0.58639  1.0000
  C   C1210     1.0  0.90664  0.47870  0.65068  1.0000
  S   S286      1.0  0.83907  0.48773  0.58671  1.0000
  H   H2117     1.0  0.90475  0.39880  0.63078  1.0000
  C   C1211     1.0  0.58105  0.41865  0.95227  1.0000
  H   H2118     1.0  0.92656  0.29290  0.77367  1.0000
  H   H2119     1.0  0.81462  0.29691  0.84185  1.0000
  C   C1212     1.0  0.00248  0.39653  0.81993  1.0000
  C   C1213     1.0  0.81499  0.35327  0.80949  1.0000
  S   S287      1.0  0.86957  0.50184  0.65272  1.0000
  C   C1214     1.0  0.78720  0.26725  0.83491  1.0000
  H   H2120     1.0  0.56638  0.45889  0.94159  1.0000
  H   H2121     1.0  0.56779  0.27205  0.83550  1.0000
  H   H2122     1.0  0.52006  0.39489  0.71472  1.0000
  H   H2123     1.0  0.65042  0.34340  0.98199  1.0000
  H   H2124     1.0  0.90035  0.26509  0.74439  1.0000
  H   H2125     1.0  0.59786  0.26118  0.76605  1.0000
  H   H2126     1.0  0.54832  0.31082  0.97251  1.0000
  C   C1215     1.0  0.55722  0.44642  0.93266  1.0000
  S   S288      1.0  0.98169  0.46447  0.80484  1.0000
  H   H2127     1.0  0.90685  0.38343  0.67658  1.0000
  H   H2128     1.0  0.87705  0.37797  0.64933  1.0000
  H   H2129     1.0  0.85166  0.35620  0.86434  1.0000
  C   C1216     1.0  0.93897  0.40801  0.68406  1.0000
  C   C1217     1.0  0.94823  0.33096  0.98435  1.0000
  H   H2130     1.0  0.82452  0.37348  0.77657  1.0000
  H   H2131     1.0  0.59117  0.43122  0.95923  1.0000
  C   C1218     1.0  0.61308  0.40176  0.93314  1.0000
  C   C1219     1.0  0.58117  0.25498  0.91138  1.0000
  C   C1220     1.0  0.80420  0.33199  0.81506  1.0000
  H   H2132     1.0  0.76689  0.29356  0.83887  1.0000
  C   C1221     1.0  0.87171  0.42424  0.68147  1.0000
  H   H2133     1.0  0.54899  0.38776  0.76117  1.0000
  C   C1222     1.0  0.85084  0.34089  0.87490  1.0000
  H   H2134     1.0  0.96456  0.29244  0.92019  1.0000
  H   H2135     1.0  0.64538  0.39733  0.89532  1.0000
  H   H2136     1.0  0.93249  0.27499  0.74827  1.0000
  H   H2137     1.0  0.94327  0.39641  0.66888  1.0000
  H   H2138     1.0  0.52614  0.29366  0.97440  1.0000
  C   C1223     1.0  0.96049  0.27781  0.93099  1.0000
  H   H2139     1.0  0.89461  0.25957  0.83989  1.0000
  H   H2140     1.0  0.83095  0.35302  0.81741  1.0000
  H   H2141     1.0  0.59050  0.36709  0.93695  1.0000
  H   H2142     1.0  0.80637  0.36638  0.81861  1.0000
  H   H2143     1.0  0.54261  0.36622  0.92120  1.0000
  Fe  Fe144     1.0  0.80612  0.48382  0.60229  1.0000
  H   H2144     1.0  0.98253  0.39828  0.85453  1.0000
  C   C1224     1.0  0.55316  0.26590  0.84296  1.0000
  H   H2145     1.0  0.88646  0.46239  0.70109  1.0000
  H   H2146     1.0  0.84745  0.39331  0.69406  1.0000
  H   H2147     1.0  0.57564  0.38521  0.91865  1.0000
  H   H2148     1.0  0.93153  0.32864  0.98496  1.0000
  H   H2149     1.0  0.82601  0.49821  0.69747  1.0000
  H   H2150     1.0  0.90182  0.39390  0.70797  1.0000
  H   H2151     1.0  0.84100  0.32435  0.84113  1.0000
  C   C1225     1.0  0.86411  0.38907  0.69744  1.0000
  H   H2152     1.0  0.85786  0.39803  0.64639  1.0000
  H   H2153     1.0  0.55728  0.34510  0.93641  1.0000
  C   C1226     1.0  0.60133  0.27339  0.78038  1.0000
  H   H2154     1.0  0.61920  0.41771  0.93572  1.0000
  C   C1227     1.0  0.81283  0.33570  0.86285  1.0000
  H   H2155     1.0  0.79019  0.33137  0.80258  1.0000
  C   C1228     1.0  0.93635  0.27894  0.76874  1.0000
  H   H2156     1.0  0.54407  0.44205  0.94627  1.0000
  H   H2157     1.0  0.62974  0.40241  0.86676  1.0000
  H   H2158     1.0  0.85562  0.42658  0.67400  1.0000
  H   H2159     1.0  0.74654  0.37976  0.85592  1.0000
  H   H2160     1.0  0.94966  0.42144  0.68159  1.0000
  H   H2161     1.0  0.54950  0.28622  0.95626  1.0000
  S   S289      1.0  0.96452  0.48297  0.68151  1.0000
  H   H2162     1.0  0.61029  0.27627  0.82048  1.0000
  C   C1229     1.0  0.57111  0.42745  0.92681  1.0000
  N   N70       1.0  0.66390  0.36594  0.76830  1.0000
  C   C1230     1.0  0.66284  0.36569  0.79805  1.0000
  C   C1231     1.0  0.64725  0.35193  0.75832  1.0000
  C   C1232     1.0  0.68483  0.35666  0.75999  1.0000
  C   C1233     1.0  0.66190  0.38766  0.75633  1.0000
  C   C1234     1.0  0.64804  0.40363  0.77167  1.0000
  C   C1235     1.0  0.68170  0.37559  0.81147  1.0000
  C   C1236     1.0  0.68820  0.35258  0.73017  1.0000
  C   C1237     1.0  0.62436  0.35734  0.76617  1.0000
  C   C1238     1.0  0.60959  0.34067  0.75691  1.0000
  C   C1239     1.0  0.64385  0.42324  0.75493  1.0000
  C   C1240     1.0  0.67715  0.37954  0.84062  1.0000
  C   C1241     1.0  0.71097  0.34674  0.72381  1.0000
  H   H2163     1.0  0.66164  0.34940  0.80578  1.0000
  H   H2164     1.0  0.64838  0.37342  0.80560  1.0000
  H   H2165     1.0  0.64762  0.35189  0.73642  1.0000
  H   H2166     1.0  0.65044  0.33553  0.76488  1.0000
  H   H2167     1.0  0.68758  0.34156  0.77064  1.0000
  H   H2168     1.0  0.69773  0.36697  0.76557  1.0000
  H   H2169     1.0  0.67750  0.39501  0.75393  1.0000
  H   H2170     1.0  0.65600  0.38689  0.73592  1.0000
  H   H2171     1.0  0.65597  0.40849  0.78966  1.0000
  H   H2172     1.0  0.63277  0.39725  0.77810  1.0000
  H   H2173     1.0  0.69547  0.36489  0.81036  1.0000
  H   H2174     1.0  0.68602  0.39056  0.80161  1.0000
  H   H2175     1.0  0.68399  0.36655  0.71808  1.0000
  H   H2176     1.0  0.67859  0.33930  0.72423  1.0000
  H   H2177     1.0  0.62209  0.35840  0.78780  1.0000
  H   H2178     1.0  0.61949  0.37220  0.75649  1.0000
  H   H2179     1.0  0.59326  0.34499  0.76257  1.0000
  H   H2180     1.0  0.61069  0.33932  0.73514  1.0000
  H   H2181     1.0  0.61340  0.32533  0.76629  1.0000
  H   H2182     1.0  0.63488  0.41941  0.73728  1.0000
  H   H2183     1.0  0.63445  0.43455  0.76669  1.0000
  H   H2184     1.0  0.65873  0.43071  0.74859  1.0000
  H   H2185     1.0  0.66331  0.38998  0.84309  1.0000
  H   H2186     1.0  0.67434  0.36459  0.85149  1.0000
  H   H2187     1.0  0.69077  0.38708  0.84930  1.0000
  H   H2188     1.0  0.72146  0.35972  0.72835  1.0000
  H   H2189     1.0  0.71575  0.33261  0.73534  1.0000
  H   H2190     1.0  0.71289  0.34336  0.70252  1.0000
  C   C1242     1.0  0.86603  0.36500  0.69552  1.0000
  C   C1243     1.0  0.85581  0.35395  0.71940  1.0000
  H   H2191     1.0  0.88258  0.35976  0.69410  1.0000
  H   H2192     1.0  0.85787  0.35974  0.67785  1.0000
  H   H2193     1.0  0.85551  0.33692  0.71607  1.0000
  H   H2194     1.0  0.86470  0.35665  0.73744  1.0000
  H   H2195     1.0  0.83948  0.35952  0.72244  1.0000
  N   N71       1.0  0.92352  0.41247  0.78175  1.0000
  C   C1244     1.0  0.93457  0.39199  0.77644  1.0000
  C   C1245     1.0  0.90041  0.40980  0.77813  1.0000
  C   C1246     1.0  0.93121  0.42809  0.76109  1.0000
  C   C1247     1.0  0.92772  0.42075  0.80873  1.0000
  C   C1248     1.0  0.93091  0.40442  0.83139  1.0000
  C   C1249     1.0  0.95868  0.39294  0.77395  1.0000
  C   C1250     1.0  0.92043  0.44988  0.76106  1.0000
  C   C1251     1.0  0.88931  0.39360  0.79648  1.0000
  C   C1252     1.0  0.86667  0.39080  0.78868  1.0000
  C   C1253     1.0  0.92834  0.41425  0.85844  1.0000
  C   C1254     1.0  0.96862  0.37127  0.77639  1.0000
  C   C1255     1.0  0.93105  0.46452  0.74088  1.0000
  H   H2196     1.0  0.92906  0.38533  0.75781  1.0000
  H   H2197     1.0  0.93066  0.38004  0.79177  1.0000
  H   H2198     1.0  0.89181  0.42467  0.78158  1.0000
  H   H2199     1.0  0.89753  0.40555  0.75740  1.0000
  H   H2200     1.0  0.92978  0.42174  0.74102  1.0000
  H   H2201     1.0  0.94814  0.43110  0.76354  1.0000
  H   H2202     1.0  0.94208  0.43039  0.80819  1.0000
  H   H2203     1.0  0.91499  0.43173  0.81485  1.0000
  H   H2204     1.0  0.94687  0.39767  0.82971  1.0000
  H   H2205     1.0  0.92001  0.39128  0.83101  1.0000
  H   H2206     1.0  0.96348  0.39965  0.75439  1.0000
  H   H2207     1.0  0.96502  0.40283  0.78933  1.0000
  H   H2208     1.0  0.92122  0.45699  0.78073  1.0000
  H   H2209     1.0  0.90387  0.44896  0.75546  1.0000
  H   H2210     1.0  0.89700  0.37806  0.79574  1.0000
  H   H2211     1.0  0.88886  0.39909  0.81705  1.0000
  H   H2212     1.0  0.85781  0.40575  0.78996  1.0000
  H   H2213     1.0  0.86597  0.38495  0.76833  1.0000
  H   H2214     1.0  0.85914  0.37922  0.80230  1.0000
  H   H2215     1.0  0.93854  0.42795  0.85993  1.0000
  H   H2216     1.0  0.91186  0.41924  0.86200  1.0000
  H   H2217     1.0  0.93264  0.40266  0.87403  1.0000
  C   C1256     1.0  0.74944  0.36270  0.85762  1.0000
  H   H2218     1.0  0.96574  0.36474  0.79656  1.0000
  H   H2219     1.0  0.96216  0.36063  0.76181  1.0000
  H   H2220     1.0  0.92975  0.45855  0.72064  1.0000
  H   H2221     1.0  0.92352  0.48019  0.74150  1.0000
  H   H2222     1.0  0.91003  0.27423  0.86213  1.0000
  C   C1257     1.0  0.91645  0.41554  0.68075  1.0000
  C   C1258     1.0  0.77172  0.35761  0.84804  1.0000
  H   H2223     1.0  0.77301  0.36314  0.82720  1.0000
  N   N72       1.0  0.99834  0.27158  0.94657  1.0000
  H   H2224     1.0  0.56854  0.41704  0.96777  1.0000
  C   C1259     1.0  0.99065  0.43858  0.81037  1.0000
  H   H2225     1.0  0.67677  0.26534  0.89842  1.0000
  H   H2226     1.0  0.80371  0.42752  0.50626  1.0000
  H   H2227     1.0  0.76505  0.32715  0.83586  1.0000
  H   H2228     1.0  0.63296  0.42265  0.89024  1.0000
  C   C1260     1.0  0.56061  0.37519  0.95500  1.0000
  H   H2229     1.0  0.53388  0.35500  0.95235  1.0000
  C   C1261     1.0  0.54788  0.35943  0.94027  1.0000
  H   H2230     1.0  0.58702  0.28306  0.78365  1.0000
  C   C1262     1.0  0.51347  0.39957  0.73422  1.0000
  H   H2231     1.0  0.55039  0.38894  0.95865  1.0000
  C   C1263     1.0  0.88850  0.40483  0.62917  1.0000
  H   H2232     1.0  0.62574  0.39089  0.93984  1.0000
  H   H2233     1.0  0.81367  0.35286  0.86048  1.0000
  H   H2234     1.0  0.54820  0.26060  0.91420  1.0000
  H   H2235     1.0  0.96599  0.28826  0.78625  1.0000
  H   H2236     1.0  0.78432  0.29492  0.81040  1.0000
  H   H2237     1.0  0.89919  0.46896  0.63670  1.0000
  H   H2238     1.0  0.94832  0.26370  0.89606  1.0000
  C   C1264     1.0  0.63408  0.33981  0.98502  1.0000
  H   H2239     1.0  0.54170  0.36135  0.76912  1.0000
  C   C1265     1.0  0.78314  0.29067  0.83167  1.0000
  H   H2240     1.0  0.50820  0.36677  0.74611  1.0000
  C   C1266     1.0  0.54345  0.29430  0.97407  1.0000
  H   H2241     1.0  0.82728  0.34609  0.77029  1.0000
  Fe  Fe145     1.0  0.79007  0.25921  0.72190  1.0000
  H   H2242     1.0  0.74709  0.35777  0.87860  1.0000
  H   H2243     1.0  0.58348  0.43270  0.91261  1.0000
  H   H2244     1.0  0.85843  0.46313  0.69742  1.0000
  C   C1267     1.0  0.87117  0.43283  0.70980  1.0000
  N   N73       1.0  0.87829  0.40168  0.67911  1.0000
  H   H2245     1.0  0.88457  0.42698  0.72128  1.0000
  H   H2246     1.0  0.92946  0.27861  0.91500  1.0000
  H   H2247     1.0  0.95307  0.31869  0.76001  1.0000
  H   H2248     1.0  0.51292  0.27813  0.88483  1.0000
  H   H2249     1.0  0.77127  0.32812  0.86986  1.0000
  S   S290      1.0  0.98735  0.26646  0.85215  1.0000
  S   S291      1.0  0.78630  0.26540  0.76536  1.0000
  H   H2250     1.0  0.77925  0.42498  0.52452  1.0000
  H   H2251     1.0  0.93621  0.46218  0.64829  1.0000
  C   C1268     1.0  0.90820  0.25677  0.78530  1.0000
  C   C1269     1.0  0.99204  0.28007  0.97315  1.0000
  H   H2252     1.0  0.71383  0.49419  0.53288  1.0000
  C   C1270     1.0  0.77614  0.33388  0.84977  1.0000
  C   C1271     1.0  0.96187  0.30575  0.75045  1.0000
  H   H2253     1.0  0.78295  0.45975  0.54270  1.0000
  H   H2254     1.0  0.54586  0.36940  0.73513  1.0000
  H   H2255     1.0  0.86667  0.33359  0.87429  1.0000
  H   H2256     1.0  0.94783  0.46616  0.74526  1.0000
  C   C1272     1.0  0.94295  0.26761  0.91634  1.0000
  C   C1273     1.0  0.90816  0.25883  0.85304  1.0000
  C   C1274     1.0  0.61469  0.40646  0.99141  1.0000
  H   H2257     1.0  0.78633  0.26238  0.85603  1.0000
  C   C1275     1.0  0.97983  0.26308  0.93274  1.0000
  H   H2258     1.0  0.80280  0.26296  0.82650  1.0000
  C   C1276     1.0  0.79485  0.43231  0.52423  1.0000
  H   H2259     1.0  0.79433  0.49651  0.53194  1.0000
  H   H2260     1.0  0.99642  0.30276  0.92996  1.0000
  H   H2261     1.0  0.60655  0.42131  0.99620  1.0000
  H   H2262     1.0  0.58463  0.26418  0.92898  1.0000
  C   C1277     1.0  0.98105  0.26461  0.99270  1.0000
  C   C1278     1.0  0.55217  0.28372  0.99882  1.0000
  C   C1279     1.0  0.59182  0.33178  0.99310  1.0000
  H   H2263     1.0  0.56948  0.28370  0.99664  1.0000
  H   H2264     1.0  0.95080  0.27229  0.81856  1.0000
  H   H2265     1.0  0.56465  0.36776  0.97418  1.0000
  C   C1280     1.0  0.89561  0.49555  0.66151  1.0000
  H   H2266     1.0  0.54682  0.26736  0.99958  1.0000
  C   C1281     1.0  0.79260  0.45601  0.52499  1.0000
  H   H2267     1.0  0.59484  0.25397  0.81416  1.0000
  H   H2268     1.0  0.96898  0.27335  0.75679  1.0000
  H   H2269     1.0  0.81310  0.25595  0.61966  1.0000
  C   C1282     1.0  0.93431  0.26831  0.81545  1.0000
  H   H2270     1.0  0.58293  0.26532  0.89364  1.0000
  H   H2271     1.0  0.63482  0.26975  0.84851  1.0000
  C   C1283     1.0  0.60801  0.26352  0.80656  1.0000
  C   C1284     1.0  0.64682  0.25795  0.84282  1.0000
  H   H2272     1.0  0.57531  0.32934  0.99595  1.0000
  H   H2273     1.0  0.96794  0.25662  0.98359  1.0000
  H   H2274     1.0  0.93773  0.25323  0.92697  1.0000
  H   H2275     1.0  0.62883  0.41003  0.97920  1.0000
  H   H2276     1.0  0.60750  0.37612  0.97654  1.0000
  C   C1285     1.0  0.59982  0.39173  0.97724  1.0000
  H   H2277     1.0  0.50376  0.44019  0.64803  1.0000
  H   H2278     1.0  0.97487  0.25285  0.79306  1.0000
  H   H2279     1.0  0.86764  0.25372  0.76735  1.0000
  H   H2280     1.0  0.99239  0.25266  0.99982  1.0000
  Fe  Fe146     1.0  0.67194  0.62198  0.33959  1.0000
  S   S292      1.0  0.64294  0.60507  0.35448  1.0000
  S   S293      1.0  0.66706  0.65450  0.32019  1.0000
  Fe  Fe147     1.0  0.69999  0.58392  0.35319  1.0000
  S   S294      1.0  0.67304  0.56445  0.36737  1.0000
  S   S295      1.0  0.73427  0.57467  0.35802  1.0000
  Fe  Fe148     1.0  0.65559  0.57745  0.33239  1.0000
  S   S296      1.0  0.63770  0.55948  0.30144  1.0000
  Fe  Fe149     1.0  0.66244  0.59342  0.38854  1.0000
  S   S297      1.0  0.65176  0.58697  0.43145  1.0000
  S   S298      1.0  0.68388  0.59475  0.31623  1.0000
  S   S299      1.0  0.69006  0.61251  0.37550  1.0000
  S   S300      1.0  0.72380  0.73107  0.28051  1.0000
  C   C1286     1.0  0.58115  0.55205  0.19700  1.0000
  S   S301      1.0  0.53647  0.51618  0.22292  1.0000
  H   H2281     1.0  0.99895  0.55858  0.15247  1.0000
  H   H2282     1.0  0.92025  0.52240  0.37530  1.0000
  H   H2283     1.0  0.88499  0.52824  0.34039  1.0000
  H   H2284     1.0  0.56237  0.56023  0.24347  1.0000
  C   C1287     1.0  0.72851  0.58200  0.47453  1.0000
  H   H2285     1.0  0.88447  0.51005  0.39698  1.0000
  C   C1288     1.0  0.98038  0.52970  0.15212  1.0000
  H   H2286     1.0  0.89894  0.50934  0.46052  1.0000
  H   H2287     1.0  0.56843  0.59117  0.29174  1.0000
  H   H2288     1.0  0.54892  0.56431  0.28574  1.0000
  H   H2289     1.0  0.70119  0.74364  0.34379  1.0000
  H   H2290     1.0  0.61048  0.53254  0.49513  1.0000
  H   H2291     1.0  0.54322  0.56263  0.21923  1.0000
  C   C1289     1.0  0.92214  0.51337  0.42870  1.0000
  C   C1290     1.0  0.98906  0.73666  0.10985  1.0000
  C   C1291     1.0  0.61269  0.54764  0.30130  1.0000
  C   C1292     1.0  0.60500  0.54086  0.27723  1.0000
  C   C1293     1.0  0.58540  0.53117  0.27609  1.0000
  C   C1294     1.0  0.57355  0.52741  0.29917  1.0000
  C   C1295     1.0  0.58126  0.53407  0.32324  1.0000
  C   C1296     1.0  0.60057  0.54434  0.32430  1.0000
  H   H2292     1.0  0.61424  0.54327  0.25932  1.0000
  H   H2293     1.0  0.57973  0.52605  0.25750  1.0000
  C   C1297     1.0  0.76036  0.50768  0.36348  1.0000
  H   H2294     1.0  0.60626  0.54934  0.34298  1.0000
  C   C1298     1.0  0.66246  0.59663  0.46066  1.0000
  C   C1299     1.0  0.67211  0.61598  0.46113  1.0000
  H   H2295     1.0  0.97392  0.51895  0.10373  1.0000
  H   H2296     1.0  0.67343  0.62538  0.44322  1.0000
  S   S302      1.0  0.98885  0.70198  0.14356  1.0000
  C   C1300     1.0  0.74369  0.54870  0.36099  1.0000
  C   C1301     1.0  0.73054  0.53165  0.35916  1.0000
  H   H2297     1.0  0.93965  0.50533  0.27450  1.0000
  H   H2298     1.0  0.80827  0.67770  0.28332  1.0000
  C   C1302     1.0  0.77339  0.52471  0.36640  1.0000
  C   C1303     1.0  0.76508  0.54512  0.36504  1.0000
  H   H2299     1.0  0.71403  0.53419  0.35617  1.0000
  C   C1304     1.0  0.80719  0.70573  0.25864  1.0000
  H   H2300     1.0  0.78988  0.52215  0.36929  1.0000
  H   H2301     1.0  0.77531  0.55824  0.36680  1.0000
  C   C1305     1.0  0.68414  0.67411  0.30698  1.0000
  C   C1306     1.0  0.70455  0.67637  0.31559  1.0000
  C   C1307     1.0  0.71655  0.69363  0.30686  1.0000
  C   C1308     1.0  0.70851  0.70872  0.28910  1.0000
  C   C1309     1.0  0.68849  0.70589  0.27952  1.0000
  C   C1310     1.0  0.67630  0.68893  0.28874  1.0000
  H   H2302     1.0  0.71084  0.66518  0.32963  1.0000
  H   H2303     1.0  0.73207  0.69547  0.31427  1.0000
  H   H2304     1.0  0.68226  0.71692  0.26528  1.0000
  H   H2305     1.0  0.66062  0.68729  0.28175  1.0000
  C   C1311     1.0  0.91318  0.50702  0.37174  1.0000
  H   H2306     1.0  0.74381  0.63990  0.42496  1.0000
  H   H2307     1.0  0.82317  0.53642  0.34832  1.0000
  N   N74       1.0  0.73243  0.57679  0.44589  1.0000
  C   C1312     1.0  0.75033  0.56155  0.44172  1.0000
  C   C1313     1.0  0.71316  0.56797  0.43397  1.0000
  C   C1314     1.0  0.73766  0.59661  0.43057  1.0000
  H   H2308     1.0  0.56867  0.58256  0.18957  1.0000
  C   C1315     1.0  0.91575  0.51315  0.45793  1.0000
  C   C1316     1.0  0.77232  0.56968  0.44796  1.0000
  C   C1317     1.0  0.72170  0.61489  0.43312  1.0000
  C   C1318     1.0  0.70472  0.54745  0.44653  1.0000
  C   C1319     1.0  0.68856  0.53768  0.42917  1.0000
  C   C1320     1.0  0.67166  0.71800  0.37383  1.0000
  H   H2309     1.0  0.58778  0.58092  0.21512  1.0000
  C   C1321     1.0  0.72902  0.63403  0.41719  1.0000
  H   H2310     1.0  0.75104  0.55660  0.42076  1.0000
  H   H2311     1.0  0.74789  0.54698  0.45336  1.0000
  H   H2312     1.0  0.69981  0.57911  0.43523  1.0000
  H   H2313     1.0  0.71599  0.56555  0.41246  1.0000
  H   H2314     1.0  0.74006  0.59330  0.40922  1.0000
  H   H2315     1.0  0.75255  0.60313  0.43715  1.0000
  H   H2316     1.0  0.55094  0.60958  0.20372  1.0000
  H   H2317     1.0  0.62815  0.74116  0.26149  1.0000
  C   C1322     1.0  0.53610  0.74906  0.07142  1.0000
  H   H2318     1.0  0.91260  0.52562  0.41882  1.0000
  H   H2319     1.0  0.77826  0.57943  0.43108  1.0000
  H   H2320     1.0  0.86337  0.52887  0.36371  1.0000
  H   H2321     1.0  0.71954  0.61955  0.45393  1.0000
  H   H2322     1.0  0.70636  0.61068  0.42571  1.0000
  H   H2323     1.0  0.71710  0.53555  0.44948  1.0000
  H   H2324     1.0  0.69689  0.55077  0.46580  1.0000
  H   H2325     1.0  0.69567  0.53366  0.40970  1.0000
  C   C1323     1.0  0.79350  0.52569  0.25867  1.0000
  H   H2326     1.0  0.67518  0.54853  0.42610  1.0000
  H   H2327     1.0  0.59374  0.55407  0.18175  1.0000
  H   H2328     1.0  0.59237  0.62132  0.28635  1.0000
  C   C1324     1.0  0.51788  0.63549  0.20159  1.0000
  H   H2329     1.0  0.81931  0.54891  0.28988  1.0000
  H   H2330     1.0  0.98192  0.52582  0.17355  1.0000
  H   H2331     1.0  0.80396  0.55824  0.45359  1.0000
  H   H2332     1.0  0.78227  0.68744  0.27738  1.0000
  H   H2333     1.0  0.73144  0.63021  0.39608  1.0000
  H   H2334     1.0  0.71696  0.64658  0.41858  1.0000
  H   H2335     1.0  0.53181  0.73770  0.08745  1.0000
  C   C1325     1.0  0.78052  0.53333  0.21266  1.0000
  C   C1326     1.0  0.78275  0.73577  0.18233  1.0000
  H   H2336     1.0  0.79401  0.70545  0.22031  1.0000
  H   H2337     1.0  0.76609  0.54113  0.22032  1.0000
  C   C1327     1.0  0.98287  0.55365  0.14848  1.0000
  H   H2338     1.0  0.90261  0.51573  0.28366  1.0000
  C   C1328     1.0  0.59710  0.60552  0.27982  1.0000
  C   C1329     1.0  0.57399  0.57334  0.20693  1.0000
  H   H2339     1.0  0.57601  0.60945  0.23574  1.0000
  C   C1330     1.0  0.99090  0.52036  0.10727  1.0000
  H   H2340     1.0  0.65594  0.74393  0.25716  1.0000
  H   H2341     1.0  0.65216  0.71807  0.34023  1.0000
  H   H2342     1.0  0.95156  0.56202  0.16294  1.0000
  N   N75       1.0  0.79940  0.73786  0.22833  1.0000
  C   C1331     1.0  0.53091  0.58639  0.26028  1.0000
  H   H2343     1.0  0.52006  0.57851  0.31394  1.0000
  H   H2344     1.0  0.63067  0.74720  0.30934  1.0000
  H   H2345     1.0  0.95487  0.72829  0.16109  1.0000
  H   H2346     1.0  0.71208  0.58759  0.47753  1.0000
  H   H2347     1.0  0.83463  0.52746  0.30265  1.0000
  C   C1332     1.0  0.82006  0.53671  0.30563  1.0000
  H   H2348     1.0  0.68685  0.63857  0.48512  1.0000
  H   H2349     1.0  0.52818  0.59407  0.20600  1.0000
  C   C1333     1.0  0.56506  0.60367  0.25154  1.0000
  H   H2350     1.0  0.60123  0.50403  0.22692  1.0000
  H   H2351     1.0  0.77187  0.57933  0.46583  1.0000
  C   C1334     1.0  0.53856  0.60389  0.21774  1.0000
  H   H2352     1.0  0.78097  0.71868  0.18433  1.0000
  H   H2353     1.0  0.58738  0.54227  0.21340  1.0000
  H   H2354     1.0  0.79689  0.67412  0.25165  1.0000
  H   H2355     1.0  0.53610  0.74073  0.05253  1.0000
  H   H2356     1.0  0.76606  0.51130  0.47224  1.0000
  H   H2357     1.0  0.78424  0.54315  0.47066  1.0000
  H   H2358     1.0  0.76519  0.73727  0.14631  1.0000
  H   H2359     1.0  0.77702  0.52629  0.19350  1.0000
  H   H2360     1.0  0.99649  0.52710  0.05327  1.0000
  C   C1335     1.0  0.82072  0.73696  0.21510  1.0000
  C   C1336     1.0  0.82174  0.54786  0.33174  1.0000
  H   H2361     1.0  0.57227  0.53122  0.34126  1.0000
  H   H2362     1.0  0.73833  0.59531  0.48009  1.0000
  H   H2363     1.0  0.79287  0.54512  0.20920  1.0000
  H   H2364     1.0  0.83585  0.55772  0.33112  1.0000
  N   N76       1.0  0.99526  0.51629  0.13600  1.0000
  C   C1337     1.0  0.97947  0.72641  0.13144  1.0000
  H   H2365     1.0  0.80180  0.50876  0.22294  1.0000
  H   H2366     1.0  0.73622  0.51167  0.49817  1.0000
  S   S303      1.0  0.54965  0.51351  0.29914  1.0000
  H   H2367     1.0  0.00197  0.72922  0.09942  1.0000
  H   H2368     1.0  0.80138  0.51190  0.32319  1.0000
  C   C1338     1.0  0.96807  0.56540  0.16717  1.0000
  H   H2369     1.0  0.67505  0.68970  0.39774  1.0000
  C   C1339     1.0  0.66043  0.58488  0.48431  1.0000
  H   H2370     1.0  0.80782  0.55800  0.33531  1.0000
  H   H2371     1.0  0.88686  0.54268  0.37044  1.0000
  C   C1340     1.0  0.60878  0.54964  0.49198  1.0000
  H   H2372     1.0  0.74985  0.56132  0.49653  1.0000
  H   H2373     1.0  0.68255  0.52320  0.43882  1.0000
  C   C1341     1.0  0.79804  0.68498  0.26826  1.0000
  N   N77       1.0  0.54800  0.59105  0.23992  1.0000
  H   H2374     1.0  0.82312  0.70250  0.25052  1.0000
  H   H2375     1.0  0.58378  0.57731  0.26725  1.0000
  H   H2376     1.0  0.84838  0.74410  0.17197  1.0000
  H   H2377     1.0  0.53054  0.55239  0.26516  1.0000
  C   C1342     1.0  0.53325  0.56617  0.27740  1.0000
  H   H2378     1.0  0.97841  0.50585  0.05841  1.0000
  C   C1343     1.0  0.55628  0.57108  0.22816  1.0000
  C   C1344     1.0  0.96248  0.73617  0.14448  1.0000
  H   H2379     1.0  0.72508  0.54989  0.49110  1.0000
  H   H2380     1.0  0.97051  0.58243  0.16460  1.0000
  H   H2381     1.0  0.78688  0.53326  0.30969  1.0000
  H   H2382     1.0  0.83263  0.73179  0.22949  1.0000
  H   H2383     1.0  0.53484  0.63419  0.23739  1.0000
  C   C1345     1.0  0.57801  0.59279  0.27331  1.0000
  H   H2384     1.0  0.60570  0.59757  0.29601  1.0000
  C   C1346     1.0  0.00309  0.50676  0.08720  1.0000
  H   H2385     1.0  0.65869  0.72327  0.38707  1.0000
  C   C1347     1.0  0.66750  0.72479  0.34484  1.0000
  H   H2386     1.0  0.60790  0.60688  0.26241  1.0000
  C   C1348     1.0  0.67316  0.69428  0.37671  1.0000
  C   C1349     1.0  0.67953  0.62351  0.48498  1.0000
  H   H2387     1.0  0.97909  0.55882  0.12814  1.0000
  H   H2388     1.0  0.65884  0.68691  0.36956  1.0000
  H   H2389     1.0  0.68686  0.68823  0.36530  1.0000
  H   H2390     1.0  0.52867  0.59976  0.27370  1.0000
  H   H2391     1.0  0.79730  0.73897  0.17074  1.0000
  H   H2392     1.0  0.65330  0.56977  0.48400  1.0000
  H   H2393     1.0  0.51150  0.61892  0.23790  1.0000
  N   N78       1.0  0.79734  0.51042  0.28109  1.0000
  H   H2394     1.0  0.76726  0.74428  0.21878  1.0000
  C   C1350     1.0  0.73284  0.56460  0.49549  1.0000
  C   C1351     1.0  0.78803  0.55185  0.45207  1.0000
  H   H2395     1.0  0.77838  0.73675  0.27979  1.0000
  H   H2396     1.0  0.96391  0.52655  0.14737  1.0000
  H   H2397     1.0  0.55844  0.61797  0.26059  1.0000
  C   C1352     1.0  0.80045  0.52272  0.30572  1.0000
  C   C1353     1.0  0.73885  0.51124  0.36048  1.0000
  C   C1354     1.0  0.64212  0.74866  0.26937  1.0000
  H   H2398     1.0  0.56798  0.54392  0.18805  1.0000
  H   H2399     1.0  0.61931  0.55446  0.47526  1.0000
  C   C1355     1.0  0.79338  0.71614  0.23723  1.0000
  H   H2400     1.0  0.95219  0.50788  0.38808  1.0000
  H   H2401     1.0  0.80763  0.53514  0.25436  1.0000
  H   H2402     1.0  0.97115  0.56099  0.18800  1.0000
  C   C1356     1.0  0.88065  0.52841  0.36171  1.0000
  H   H2403     1.0  0.78115  0.53721  0.26444  1.0000
  H   H2404     1.0  0.67928  0.71670  0.33209  1.0000
  H   H2405     1.0  0.78805  0.54109  0.43522  1.0000
  H   H2406     1.0  0.68646  0.72440  0.38081  1.0000
  C   C1357     1.0  0.99502  0.51045  0.05937  1.0000
  H   H2407     1.0  0.75319  0.51710  0.27359  1.0000
  H   H2408     1.0  0.99468  0.53672  0.10157  1.0000
  H   H2409     1.0  0.53131  0.64155  0.18961  1.0000
  H   H2410     1.0  0.82128  0.72500  0.19955  1.0000
  C   C1358     1.0  0.66491  0.75105  0.30953  1.0000
  H   H2411     1.0  0.56918  0.74251  0.07567  1.0000
  C   C1359     1.0  0.51733  0.56562  0.30029  1.0000
  C   C1360     1.0  0.52551  0.62340  0.22589  1.0000
  H   H2412     1.0  0.50845  0.62539  0.18916  1.0000
  H   H2413     1.0  0.64548  0.72466  0.29878  1.0000
  C   C1361     1.0  0.78311  0.74611  0.20967  1.0000
  H   H2414     1.0  0.59249  0.55347  0.48643  1.0000
  H   H2415     1.0  0.91828  0.52873  0.46622  1.0000
  H   H2416     1.0  0.99915  0.59640  0.20970  1.0000
  C   C1362     1.0  0.75747  0.50738  0.29103  1.0000
  H   H2417     1.0  0.50796  0.64891  0.20782  1.0000
  H   H2418     1.0  0.50591  0.74403  0.02407  1.0000
  C   C1363     1.0  0.76454  0.74416  0.16618  1.0000
  H   H2419     1.0  0.51568  0.58460  0.25050  1.0000
  H   H2420     1.0  0.74942  0.73994  0.17592  1.0000
  H   H2421     1.0  0.75750  0.51746  0.30841  1.0000
  C   C1364     1.0  0.88917  0.50896  0.37590  1.0000
  C   C1365     1.0  0.64478  0.74194  0.29819  1.0000
  H   H2422     1.0  0.91573  0.50451  0.35026  1.0000
  H   H2423     1.0  0.90500  0.74602  0.06521  1.0000
  H   H2424     1.0  0.93879  0.51781  0.42699  1.0000
  H   H2425     1.0  0.80855  0.71565  0.27607  1.0000
  C   C1366     1.0  0.78781  0.51632  0.23203  1.0000
  H   H2426     1.0  0.77511  0.50485  0.23422  1.0000
  H   H2427     1.0  0.86165  0.74859  0.20244  1.0000
  H   H2428     1.0  0.98408  0.50574  0.35822  1.0000
  H   H2429     1.0  0.74298  0.50864  0.43314  1.0000
  H   H2430     1.0  0.51892  0.55061  0.31145  1.0000
  H   H2431     1.0  0.80967  0.51038  0.47609  1.0000
  Fe  Fe150     1.0  0.52863  0.50673  0.26459  1.0000
  H   H2432     1.0  0.82899  0.50724  0.26514  1.0000
  N   N79       1.0  0.66779  0.74795  0.33881  1.0000
  H   H2433     1.0  0.63550  0.74975  0.35224  1.0000
  H   H2434     1.0  0.67846  0.74410  0.29859  1.0000
  H   H2435     1.0  0.60021  0.50566  0.17879  1.0000
  H   H2436     1.0  0.77679  0.71588  0.24441  1.0000
  H   H2437     1.0  0.84157  0.51835  0.49792  1.0000
  H   H2438     1.0  0.81426  0.74893  0.26322  1.0000
  C   C1367     1.0  0.78080  0.75225  0.27023  1.0000
  C   C1368     1.0  0.80021  0.75227  0.25133  1.0000
  C   C1369     1.0  0.81187  0.50274  0.49567  1.0000
  H   H2439     1.0  0.66235  0.75053  0.68005  1.0000
  C   C1370     1.0  0.63495  0.59022  0.72875  1.0000
  H   H2440     1.0  0.59798  0.71374  0.88465  1.0000
  Fe  Fe151     1.0  0.65183  0.59832  0.62638  1.0000
  S   S304      1.0  0.67543  0.60428  0.65699  1.0000
  S   S305      1.0  0.61731  0.59272  0.63686  1.0000
  Fe  Fe152     1.0  0.68171  0.61348  0.58161  1.0000
  S   S306      1.0  0.70717  0.62107  0.60990  1.0000
  S   S307      1.0  0.68696  0.62233  0.53803  1.0000
  Fe  Fe153     1.0  0.69888  0.59003  0.62866  1.0000
  S   S308      1.0  0.72209  0.56732  0.64723  1.0000
  Fe  Fe154     1.0  0.68177  0.63490  0.63607  1.0000
  S   S309      1.0  0.67674  0.66441  0.66058  1.0000
  S   S310      1.0  0.67473  0.58170  0.59918  1.0000
  S   S311      1.0  0.65706  0.62954  0.60638  1.0000
  H   H2441     1.0  0.61488  0.64115  0.63301  1.0000
  H   H2442     1.0  0.51890  0.63617  0.79129  1.0000
  S   S312      1.0  0.73239  0.74007  0.69847  1.0000
  H   H2443     1.0  0.77179  0.50883  0.63966  1.0000
  H   H2444     1.0  0.00225  0.73986  0.83235  1.0000
  H   H2445     1.0  0.85245  0.54503  0.65321  1.0000
  C   C1371     1.0  0.76331  0.52088  0.62903  1.0000
  H   H2446     1.0  0.61249  0.60140  0.70022  1.0000
  N   N80       1.0  0.60456  0.56414  0.56652  1.0000
  H   H2447     1.0  0.55321  0.53623  0.60692  1.0000
  H   H2448     1.0  0.51060  0.64618  0.83947  1.0000
  H   H2449     1.0  0.63831  0.63505  0.67053  1.0000
  H   H2450     1.0  0.82585  0.52214  0.65789  1.0000
  H   H2451     1.0  0.66358  0.62801  0.70353  1.0000
  H   H2452     1.0  0.57196  0.73500  0.92885  1.0000
  H   H2453     1.0  0.97610  0.60399  0.79094  1.0000
  H   H2454     1.0  0.58379  0.56138  0.53391  1.0000
  H   H2455     1.0  0.85082  0.57635  0.62200  1.0000
  C   C1372     1.0  0.55223  0.55352  0.60614  1.0000
  H   H2456     1.0  0.56188  0.69922  0.94043  1.0000
  C   C1373     1.0  0.62685  0.64042  0.68596  1.0000
  C   C1374     1.0  0.73834  0.55007  0.62906  1.0000
  C   C1375     1.0  0.74982  0.53462  0.64267  1.0000
  C   C1376     1.0  0.56592  0.56233  0.58354  1.0000
  C   C1377     1.0  0.76542  0.52251  0.60161  1.0000
  C   C1378     1.0  0.75396  0.53794  0.58796  1.0000
  C   C1379     1.0  0.74044  0.55167  0.60160  1.0000
  H   H2457     1.0  0.92081  0.71487  0.83933  1.0000
  Fe  Fe155     1.0  0.53742  0.51352  0.71927  1.0000
  H   H2458     1.0  0.75563  0.53935  0.56677  1.0000
  H   H2459     1.0  0.73176  0.56358  0.59097  1.0000
  C   C1380     1.0  0.69267  0.68527  0.67072  1.0000
  C   C1381     1.0  0.71374  0.68697  0.66319  1.0000
  C   C1382     1.0  0.72560  0.70380  0.67186  1.0000
  C   C1383     1.0  0.71669  0.71904  0.68839  1.0000
  C   C1384     1.0  0.69562  0.71732  0.69595  1.0000
  C   C1385     1.0  0.68370  0.70066  0.68702  1.0000
  H   H2460     1.0  0.72091  0.67535  0.65066  1.0000
  H   H2461     1.0  0.74187  0.70492  0.66585  1.0000
  H   H2462     1.0  0.68851  0.72886  0.70866  1.0000
  H   H2463     1.0  0.66741  0.69970  0.69287  1.0000
  H   H2464     1.0  0.71523  0.52193  0.53703  1.0000
  H   H2465     1.0  0.89720  0.52112  0.68814  1.0000
  H   H2466     1.0  0.61224  0.65241  0.73092  1.0000
  C   C1386     1.0  0.61700  0.62369  0.55580  1.0000
  H   H2467     1.0  0.66611  0.58324  0.52624  1.0000
  H   H2468     1.0  0.87760  0.58292  0.67047  1.0000
  H   H2469     1.0  0.61005  0.66637  0.64731  1.0000
  H   H2470     1.0  0.54465  0.69062  0.83781  1.0000
  C   C1387     1.0  0.58267  0.54023  0.68291  1.0000
  C   C1388     1.0  0.57324  0.55979  0.67882  1.0000
  C   C1389     1.0  0.58423  0.57575  0.66510  1.0000
  C   C1390     1.0  0.60483  0.57249  0.65560  1.0000
  C   C1391     1.0  0.61431  0.55302  0.65981  1.0000
  C   C1392     1.0  0.60327  0.53702  0.67336  1.0000
  H   H2471     1.0  0.55740  0.56247  0.68592  1.0000
  H   H2472     1.0  0.57662  0.59066  0.66162  1.0000
  H   H2473     1.0  0.63005  0.55018  0.65244  1.0000
  H   H2474     1.0  0.61073  0.52197  0.67641  1.0000
  C   C1393     1.0  0.62218  0.60051  0.55907  1.0000
  H   H2475     1.0  0.60864  0.72687  0.91123  1.0000
  H   H2476     1.0  0.96621  0.59284  0.87814  1.0000
  C   C1394     1.0  0.97575  0.60096  0.86270  1.0000
  H   H2477     1.0  0.53570  0.55826  0.60324  1.0000
  C   C1395     1.0  0.81693  0.53104  0.69721  1.0000
  H   H2478     1.0  0.62915  0.59571  0.74818  1.0000
  H   H2479     1.0  0.99773  0.61757  0.88616  1.0000
  H   H2480     1.0  0.72146  0.74636  0.56964  1.0000
  H   H2481     1.0  0.65603  0.51220  0.58575  1.0000
  H   H2482     1.0  0.99067  0.52644  0.83473  1.0000
  S   S313      1.0  0.98241  0.56401  0.76795  1.0000
  H   H2483     1.0  0.73264  0.58599  0.52841  1.0000
  H   H2484     1.0  0.52662  0.61811  0.74965  1.0000
  C   C1396     1.0  0.58907  0.55539  0.58669  1.0000
  H   H2485     1.0  0.50624  0.63280  0.73347  1.0000
  H   H2486     1.0  0.61469  0.73224  0.83397  1.0000
  Fe  Fe156     1.0  0.99227  0.53192  0.75359  1.0000
  C   C1397     1.0  0.62539  0.73429  0.85048  1.0000
  H   H2487     1.0  0.63393  0.56166  0.70667  1.0000
  H   H2488     1.0  0.84321  0.54102  0.61154  1.0000
  H   H2489     1.0  0.97896  0.59060  0.96857  1.0000
  H   H2490     1.0  0.99790  0.54218  0.87723  1.0000
  C   C1398     1.0  0.78368  0.56959  0.67096  1.0000
  C   C1399     1.0  0.99276  0.60100  0.78995  1.0000
  H   H2491     1.0  0.62912  0.56405  0.59480  1.0000
  S   S314      1.0  0.53439  0.51039  0.76370  1.0000
  C   C1400     1.0  0.95689  0.74475  0.86801  1.0000
  H   H2492     1.0  0.82041  0.53134  0.51503  1.0000
  H   H2493     1.0  0.56421  0.62662  0.75709  1.0000
  H   H2494     1.0  0.62998  0.59538  0.54067  1.0000
  C   C1401     1.0  0.59372  0.62426  0.73543  1.0000
  C   C1402     1.0  0.82731  0.51586  0.51037  1.0000
  C   C1403     1.0  0.67991  0.65678  0.73552  1.0000
  H   H2495     1.0  0.78470  0.51741  0.51250  1.0000
  C   C1404     1.0  0.62849  0.60535  0.70599  1.0000
  C   C1405     1.0  0.80777  0.57196  0.67007  1.0000
  H   H2496     1.0  0.97624  0.59163  0.84456  1.0000
  H   H2497     1.0  0.94650  0.73574  0.88078  1.0000
  H   H2498     1.0  0.56409  0.57953  0.58359  1.0000
  H   H2499     1.0  0.58907  0.53808  0.58644  1.0000
  C   C1406     1.0  0.84298  0.55898  0.65891  1.0000
  H   H2500     1.0  0.95419  0.71042  0.81326  1.0000
  H   H2501     1.0  0.83183  0.50771  0.52896  1.0000
  H   H2502     1.0  0.93932  0.70301  0.78520  1.0000
  C   C1407     1.0  0.63054  0.53373  0.57713  1.0000
  C   C1408     1.0  0.99885  0.57658  0.90644  1.0000
  C   C1409     1.0  0.77313  0.58642  0.68764  1.0000
  C   C1410     1.0  0.00037  0.58227  0.77932  1.0000
  C   C1411     1.0  0.98195  0.57986  0.95199  1.0000
  H   H2503     1.0  0.82073  0.52463  0.61342  1.0000
  H   H2504     1.0  0.97322  0.63038  0.84045  1.0000
  H   H2505     1.0  0.65640  0.62251  0.73699  1.0000
  S   S315      1.0  0.97947  0.70826  0.86317  1.0000
  H   H2506     1.0  0.89225  0.73382  0.84574  1.0000
  H   H2507     1.0  0.54196  0.71052  0.81212  1.0000
  C   C1412     1.0  0.51260  0.69677  0.82593  1.0000
  C   C1413     1.0  0.85214  0.57806  0.64359  1.0000
  H   H2508     1.0  0.65225  0.58895  0.72929  1.0000
  H   H2509     1.0  0.62054  0.52625  0.59268  1.0000
  H   H2510     1.0  0.70801  0.57353  0.52341  1.0000
  H   H2511     1.0  0.92742  0.73948  0.78746  1.0000
  C   C1414     1.0  0.65227  0.63235  0.71959  1.0000
  H   H2512     1.0  0.63358  0.59883  0.57510  1.0000
  C   C1415     1.0  0.51358  0.64351  0.77268  1.0000
  H   H2513     1.0  0.58620  0.63579  0.77469  1.0000
  C   C1416     1.0  0.93933  0.70353  0.80705  1.0000
  C   C1417     1.0  0.60461  0.65003  0.64681  1.0000
  H   H2514     1.0  0.77898  0.55430  0.67955  1.0000
  C   C1418     1.0  0.62685  0.56827  0.72488  1.0000
  H   H2515     1.0  0.80510  0.54073  0.70776  1.0000
  C   C1419     1.0  0.60238  0.58769  0.56630  1.0000
  H   H2516     1.0  0.62791  0.52622  0.55808  1.0000
  C   C1420     1.0  0.59940  0.55561  0.54006  1.0000
  C   C1421     1.0  0.90559  0.50810  0.67958  1.0000
  H   H2517     1.0  0.81084  0.58748  0.66072  1.0000
  H   H2518     1.0  0.65465  0.66643  0.71156  1.0000
  H   H2519     1.0  0.93858  0.68734  0.81514  1.0000
  H   H2520     1.0  0.84398  0.59266  0.64939  1.0000
  C   C1422     1.0  0.72523  0.57123  0.52288  1.0000
  H   H2521     1.0  0.81315  0.57318  0.69066  1.0000
  C   C1423     1.0  0.97498  0.73523  0.85725  1.0000
  H   H2522     1.0  0.99104  0.56621  0.95947  1.0000
  H   H2523     1.0  0.55968  0.55656  0.56493  1.0000
  H   H2524     1.0  0.77728  0.57121  0.65091  1.0000
  H   H2525     1.0  0.80496  0.54556  0.57629  1.0000
  S   S316      1.0  0.56956  0.51917  0.69933  1.0000
  C   C1424     1.0  0.82197  0.54570  0.57998  1.0000
  H   H2526     1.0  0.58851  0.65004  0.63923  1.0000
  H   H2527     1.0  0.59367  0.64886  0.68696  1.0000
  H   H2528     1.0  0.85769  0.74211  0.75303  1.0000
  H   H2529     1.0  0.51864  0.68745  0.78576  1.0000
  H   H2530     1.0  0.68309  0.67309  0.74087  1.0000
  C   C1425     1.0  0.92216  0.73942  0.80853  1.0000
  H   H2531     1.0  0.96289  0.63125  0.87388  1.0000
  C   C1426     1.0  0.57655  0.70196  0.92880  1.0000
  H   H2532     1.0  0.77676  0.60217  0.67939  1.0000
  H   H2533     1.0  0.65639  0.53587  0.60405  1.0000
  H   H2534     1.0  0.53453  0.71613  0.84568  1.0000
  C   C1427     1.0  0.98834  0.74703  0.84085  1.0000
  H   H2535     1.0  0.75593  0.58446  0.68754  1.0000
  H   H2536     1.0  0.88164  0.59397  0.63781  1.0000
  H   H2537     1.0  0.59798  0.53836  0.54139  1.0000
  H   H2538     1.0  0.81571  0.57223  0.61884  1.0000
  H   H2539     1.0  0.57882  0.68904  0.91479  1.0000
  H   H2540     1.0  0.60603  0.62641  0.53945  1.0000
  H   H2541     1.0  0.84643  0.56113  0.68003  1.0000
  H   H2542     1.0  0.58974  0.59293  0.55293  1.0000
  H   H2543     1.0  0.58140  0.72998  0.84998  1.0000
  H   H2544     1.0  0.87766  0.73183  0.80282  1.0000
  H   H2545     1.0  0.69053  0.65269  0.71870  1.0000
  H   H2546     1.0  0.55717  0.55957  0.62528  1.0000
  C   C1428     1.0  0.67715  0.61195  0.50873  1.0000
  S   S317      1.0  0.50628  0.53009  0.71509  1.0000
  H   H2547     1.0  0.82826  0.56120  0.57420  1.0000
  H   H2548     1.0  0.93406  0.51412  0.70005  1.0000
  H   H2549     1.0  0.86809  0.74340  0.88401  1.0000
  H   H2550     1.0  0.82977  0.53378  0.56751  1.0000
  C   C1429     1.0  0.65712  0.65496  0.72776  1.0000
  C   C1430     1.0  0.00243  0.53891  0.83571  1.0000
  N   N81       1.0  0.81997  0.55524  0.65573  1.0000
  H   H2551     1.0  0.59743  0.59319  0.58621  1.0000
  H   H2552     1.0  0.59369  0.55952  0.60688  1.0000
  C   C1431     1.0  0.57964  0.74528  0.85969  1.0000
  H   H2553     1.0  0.62754  0.71900  0.86075  1.0000
  H   H2554     1.0  0.79736  0.55240  0.62509  1.0000
  C   C1432     1.0  0.62610  0.55752  0.57512  1.0000
  C   C1433     1.0  0.88625  0.74515  0.79347  1.0000
  H   H2555     1.0  0.63835  0.60121  0.68850  1.0000
  C   C1434     1.0  0.60479  0.63989  0.67435  1.0000
  H   H2556     1.0  0.56129  0.72231  0.90108  1.0000
  N   N82       1.0  0.63016  0.62829  0.71143  1.0000
  H   H2557     1.0  0.77828  0.58516  0.70834  1.0000
  C   C1435     1.0  0.87531  0.58038  0.64917  1.0000
  H   H2558     1.0  0.59913  0.62381  0.67259  1.0000
  H   H2559     1.0  0.52367  0.66785  0.80992  1.0000
  H   H2560     1.0  0.90618  0.70913  0.81043  1.0000
  C   C1436     1.0  0.92065  0.71622  0.81746  1.0000
  C   C1437     1.0  0.65318  0.52929  0.58452  1.0000
  C   C1438     1.0  0.53486  0.70385  0.83058  1.0000
  C   C1439     1.0  0.81414  0.55612  0.62714  1.0000
  C   C1440     1.0  0.82611  0.54071  0.60898  1.0000
  C   C1441     1.0  0.59531  0.72733  0.89758  1.0000
  H   H2561     1.0  0.88423  0.56622  0.64317  1.0000
  C   C1442     1.0  0.61451  0.56114  0.51678  1.0000
  C   C1443     1.0  0.51140  0.62627  0.75272  1.0000
  N   N83       1.0  0.59526  0.74725  0.88126  1.0000
  C   C1444     1.0  0.57499  0.72287  0.91396  1.0000
  H   H2562     1.0  0.56753  0.74380  0.80694  1.0000
  H   H2563     1.0  0.62843  0.75096  0.88619  1.0000
  C   C1445     1.0  0.99755  0.55255  0.85942  1.0000
  H   H2564     1.0  0.96669  0.57458  0.94492  1.0000
  H   H2565     1.0  0.62998  0.65719  0.68821  1.0000
  H   H2566     1.0  0.61338  0.57802  0.51188  1.0000
  H   H2567     1.0  0.94869  0.61833  0.84891  1.0000
  H   H2568     1.0  0.62233  0.63297  0.75265  1.0000
  H   H2569     1.0  0.52608  0.65407  0.76515  1.0000
  C   C1446     1.0  0.99821  0.60481  0.87170  1.0000
  C   C1447     1.0  0.57906  0.63527  0.75500  1.0000
  C   C1448     1.0  0.96452  0.62152  0.85611  1.0000
  H   H2570     1.0  0.58574  0.62362  0.71645  1.0000
  H   H2571     1.0  0.58972  0.70192  0.94261  1.0000
  H   H2572     1.0  0.74810  0.53317  0.66389  1.0000
  H   H2573     1.0  0.72926  0.55901  0.53778  1.0000
  H   H2574     1.0  0.66415  0.53608  0.56947  1.0000
  H   H2575     1.0  0.64719  0.65967  0.74488  1.0000
  H   H2576     1.0  0.89370  0.73867  0.77530  1.0000
  H   H2577     1.0  0.98367  0.56999  0.90116  1.0000
  H   H2578     1.0  0.63840  0.56408  0.56174  1.0000
  C   C1449     1.0  0.51218  0.68010  0.80427  1.0000
  H   H2579     1.0  0.63157  0.63234  0.55101  1.0000
  H   H2580     1.0  0.68334  0.64638  0.75269  1.0000
  H   H2581     1.0  0.63124  0.55801  0.74180  1.0000
  H   H2582     1.0  0.59576  0.60796  0.74273  1.0000
  H   H2583     1.0  0.83264  0.53537  0.70370  1.0000
  C   C1450     1.0  0.61516  0.63531  0.73301  1.0000
  H   H2584     1.0  0.79920  0.52905  0.66145  1.0000
  H   H2585     1.0  0.00052  0.63055  0.80655  1.0000
  H   H2586     1.0  0.60957  0.56838  0.72350  1.0000
  S   S318      1.0  0.78195  0.50547  0.58355  1.0000
  H   H2587     1.0  0.98453  0.60489  0.92362  1.0000
  C   C1451     1.0  0.99412  0.59123  0.92986  1.0000
  C   C1452     1.0  0.81509  0.53387  0.66691  1.0000
  H   H2588     1.0  0.57548  0.65138  0.74789  1.0000
  C   C1453     1.0  0.64656  0.74061  0.83852  1.0000
  C   C1454     1.0  0.66768  0.59247  0.50824  1.0000
  C   C1455     1.0  0.89515  0.75039  0.84035  1.0000
  H   H2589     1.0  0.98150  0.55884  0.85747  1.0000
  H   H2590     1.0  0.84329  0.74072  0.78425  1.0000
  H   H2591     1.0  0.61003  0.62984  0.57437  1.0000
  C   C1456     1.0  0.74270  0.50829  0.51786  1.0000
  S   S319      1.0  0.96829  0.50657  0.75334  1.0000
  H   H2592     1.0  0.74495  0.74405  0.58866  1.0000
  C   C1457     1.0  0.72434  0.50710  0.53765  1.0000
  H   H2593     1.0  0.75229  0.52165  0.52333  1.0000
  C   C1458     1.0  0.81348  0.50839  0.70589  1.0000
  H   H2594     1.0  0.81391  0.50694  0.72771  1.0000
  H   H2595     1.0  0.65262  0.72829  0.82524  1.0000
  H   H2596     1.0  0.50618  0.69057  0.84498  1.0000
  C   C1459     1.0  0.61700  0.75079  0.87009  1.0000
  H   H2597     1.0  0.93528  0.74618  0.81935  1.0000
  H   H2598     1.0  0.63086  0.55685  0.52124  1.0000
  H   H2599     1.0  0.65807  0.74284  0.85418  1.0000
  H   H2600     1.0  0.56344  0.74546  0.86815  1.0000
  C   C1460     1.0  0.92649  0.50415  0.68640  1.0000
  H   H2601     1.0  0.00189  0.54831  0.81715  1.0000
  C   C1461     1.0  0.85185  0.75118  0.77013  1.0000
  H   H2602     1.0  0.73007  0.50461  0.55799  1.0000
  H   H2603     1.0  0.79806  0.50297  0.69945  1.0000
  Fe  Fe157     1.0  0.91930  0.85369  0.14809  1.0000
  S   S320      1.0  0.91455  0.81933  0.15781  1.0000
  S   S321      1.0  0.92714  0.87566  0.18152  1.0000
  Fe  Fe158     1.0  0.90773  0.84806  0.08997  1.0000
  S   S322      1.0  0.90218  0.81403  0.09595  1.0000
  S   S323      1.0  0.90486  0.86513  0.05025  1.0000
  Fe  Fe159     1.0  0.88523  0.82260  0.13398  1.0000
  S   S324      1.0  0.85282  0.80756  0.13892  1.0000
  Fe  Fe160     1.0  0.93163  0.81353  0.11913  1.0000
  S   S325      1.0  0.95927  0.79282  0.10650  1.0000
  S   S326      1.0  0.88911  0.85707  0.12636  1.0000
  S   S327      1.0  0.93815  0.84754  0.11115  1.0000
  Fe  Fe161     1.0  0.68728  0.94690  0.33918  1.0000
  S   S328      1.0  0.67056  0.97608  0.32552  1.0000
  S   S329      1.0  0.70251  0.92693  0.30722  1.0000
  Fe  Fe162     1.0  0.68140  0.95851  0.39742  1.0000
  S   S330      1.0  0.68960  0.94592  0.43816  1.0000
  Fe  Fe163     1.0  0.64736  0.96971  0.35838  1.0000
  S   S331      1.0  0.61181  0.96835  0.35614  1.0000
  C   C1462     1.0  0.74136  0.99097  0.28670  1.0000
  S   S332      1.0  0.66281  0.93921  0.37012  1.0000
  S   S333      1.0  0.70734  0.96362  0.36738  1.0000
  H   H2604     1.0  0.97017  0.82019  0.05326  1.0000
  H   H2605     1.0  0.72109  0.96602  0.27279  1.0000
  H   H2606     1.0  0.96482  0.94164  0.27148  1.0000
  H   H2607     1.0  0.86711  0.92445  0.06524  1.0000
  H   H2608     1.0  0.62335  0.91165  0.44341  1.0000
  H   H2609     1.0  0.56952  0.95119  0.40207  1.0000
  H   H2610     1.0  0.68876  0.75956  0.36785  1.0000
  S   S334      1.0  0.54297  0.79755  0.12747  1.0000
  Fe  Fe164     1.0  0.53492  0.85732  0.13798  1.0000
  S   S335      1.0  0.56605  0.84287  0.12689  1.0000
  S   S336      1.0  0.53538  0.89284  0.14110  1.0000
  Fe  Fe165     1.0  0.54855  0.82388  0.09816  1.0000
  S   S337      1.0  0.56119  0.81666  0.05691  1.0000
  Fe  Fe166     1.0  0.55793  0.81804  0.15696  1.0000
  S   S338      1.0  0.57983  0.80787  0.18978  1.0000
  S   S339      1.0  0.52738  0.83335  0.16958  1.0000
  Fe  Fe167     1.0  0.74435  0.79689  0.23123  1.0000
  S   S340      1.0  0.73523  0.78893  0.27342  1.0000
  S   S341      1.0  0.77884  0.80616  0.22647  1.0000
  Fe  Fe168     1.0  0.69936  0.79009  0.21441  1.0000
  S   S342      1.0  0.68776  0.78124  0.25517  1.0000
  S   S343      1.0  0.67828  0.79276  0.17902  1.0000
  Fe  Fe169     1.0  0.70659  0.80857  0.26746  1.0000
  S   S344      1.0  0.69221  0.82864  0.29969  1.0000
  Fe  Fe170     1.0  0.71733  0.76201  0.25807  1.0000
  S   S345      1.0  0.71659  0.81860  0.22655  1.0000
  S   S346      1.0  0.72795  0.76893  0.21603  1.0000
  C   C1463     1.0  0.89586  0.83251  0.01762  1.0000
  C   C1464     1.0  0.53317  0.92960  0.30323  1.0000
  S   S347      1.0  0.98160  0.95855  0.18604  1.0000
  C   C1465     1.0  0.54924  0.82389  0.02688  1.0000
  C   C1466     1.0  0.53032  0.83497  0.02634  1.0000
  C   C1467     1.0  0.98967  0.78777  0.01147  1.0000
  H   H2611     1.0  0.80923  0.87647  0.05334  1.0000
  C   C1468     1.0  0.60702  0.80291  0.18595  1.0000
  C   C1469     1.0  0.61838  0.79656  0.20814  1.0000
  C   C1470     1.0  0.64013  0.79319  0.20623  1.0000
  C   C1471     1.0  0.65080  0.79623  0.18210  1.0000
  C   C1472     1.0  0.63941  0.80232  0.15984  1.0000
  C   C1473     1.0  0.61762  0.80564  0.16171  1.0000
  H   H2612     1.0  0.61027  0.79417  0.22689  1.0000
  H   H2613     1.0  0.64862  0.78812  0.22337  1.0000
  H   H2614     1.0  0.64749  0.80453  0.14103  1.0000
  H   H2615     1.0  0.60905  0.81036  0.14444  1.0000
  H   H2616     1.0  0.60459  0.94954  0.40718  1.0000
  H   H2617     1.0  0.91833  0.79758  0.03463  1.0000
  H   H2618     1.0  0.98681  0.81137  0.17499  1.0000
  C   C1474     1.0  0.51111  0.89784  0.18683  1.0000
  H   H2619     1.0  0.51698  0.77146  0.09254  1.0000
  C   C1475     1.0  0.98954  0.85839  0.19048  1.0000
  C   C1476     1.0  0.66896  0.97525  0.46882  1.0000
  C   C1477     1.0  0.68018  0.95644  0.46815  1.0000
  H   H2620     1.0  0.79033  0.85701  0.10509  1.0000
  H   H2621     1.0  0.71419  0.97538  0.30497  1.0000
  C   C1478     1.0  0.59604  0.98212  0.33314  1.0000
  H   H2622     1.0  0.86409  0.83595  0.05997  1.0000
  H   H2623     1.0  0.62170  0.98769  0.41262  1.0000
  H   H2624     1.0  0.84654  0.85464  0.15982  1.0000
  H   H2625     1.0  0.56839  0.87256  0.24464  1.0000
  S   S348      1.0  0.99594  0.97557  0.26057  1.0000
  C   C1479     1.0  0.69962  0.89957  0.30558  1.0000
  C   C1480     1.0  0.70907  0.88889  0.28443  1.0000
  C   C1481     1.0  0.70701  0.86716  0.28235  1.0000
  C   C1482     1.0  0.69549  0.85592  0.30148  1.0000
  C   C1483     1.0  0.68594  0.86662  0.32253  1.0000
  C   C1484     1.0  0.68800  0.88833  0.32461  1.0000
  H   H2626     1.0  0.71811  0.89745  0.26963  1.0000
  H   H2627     1.0  0.71446  0.85912  0.26607  1.0000
  H   H2628     1.0  0.67699  0.85806  0.33740  1.0000
  H   H2629     1.0  0.68066  0.89635  0.34098  1.0000
  C   C1485     1.0  0.94136  0.89938  0.18160  1.0000
  C   C1486     1.0  0.95420  0.90587  0.16035  1.0000
  C   C1487     1.0  0.96612  0.92413  0.16200  1.0000
  C   C1488     1.0  0.96532  0.93626  0.18479  1.0000
  C   C1489     1.0  0.95220  0.92999  0.20587  1.0000
  C   C1490     1.0  0.94044  0.91161  0.20432  1.0000
  H   H2630     1.0  0.95514  0.89670  0.14274  1.0000
  H   H2631     1.0  0.97610  0.92885  0.14549  1.0000
  H   H2632     1.0  0.95116  0.93925  0.22338  1.0000
  H   H2633     1.0  0.93052  0.90683  0.22087  1.0000
  H   H2634     1.0  0.87461  0.90292  0.04471  1.0000
  C   C1491     1.0  0.51631  0.89268  0.07539  1.0000
  H   H2635     1.0  0.55785  0.95628  0.43385  1.0000
  H   H2636     1.0  0.89264  0.82353  0.03542  1.0000
  H   H2637     1.0  0.56956  0.90910  0.30233  1.0000
  C   C1492     1.0  0.96563  0.76674  0.11556  1.0000
  H   H2638     1.0  0.54824  0.91510  0.01003  1.0000
  H   H2639     1.0  0.61137  0.93170  0.30526  1.0000
  C   C1493     1.0  0.56363  0.96368  0.41521  1.0000
  H   H2640     1.0  0.53336  0.96230  0.39703  1.0000
  C   C1494     1.0  0.63278  0.92134  0.42931  1.0000
  H   H2641     1.0  0.65971  0.79070  0.35654  1.0000
  C   C1495     1.0  0.83214  0.80866  0.16311  1.0000
  C   C1496     1.0  0.83521  0.81519  0.18880  1.0000
  C   C1497     1.0  0.81861  0.81464  0.20766  1.0000
  C   C1498     1.0  0.79868  0.80769  0.20115  1.0000
  C   C1499     1.0  0.79548  0.80158  0.17529  1.0000
  C   C1500     1.0  0.81215  0.80192  0.15649  1.0000
  H   H2642     1.0  0.85046  0.82035  0.19429  1.0000
  H   H2643     1.0  0.82131  0.81947  0.22755  1.0000
  H   H2644     1.0  0.78026  0.79633  0.16988  1.0000
  H   H2645     1.0  0.80957  0.79674  0.13673  1.0000
  C   C1501     1.0  0.93280  0.78866  0.03924  1.0000
  H   H2646     1.0  0.54715  0.94337  0.03461  1.0000
  C   C1502     1.0  0.55171  0.91323  0.25122  1.0000
  H   H2647     1.0  0.56809  0.96620  0.34602  1.0000
  H   H2648     1.0  0.95734  0.92115  0.29436  1.0000
  H   H2649     1.0  0.93738  0.79370  0.05901  1.0000
  H   H2650     1.0  0.94297  0.82752  0.05677  1.0000
  H   H2651     1.0  0.76947  0.76716  0.30585  1.0000
  C   C1503     1.0  0.86871  0.90724  0.06466  1.0000
  H   H2652     1.0  0.50939  0.88111  0.18726  1.0000
  H   H2653     1.0  0.76653  0.75658  0.25942  1.0000
  C   C1504     1.0  0.84915  0.87312  0.06950  1.0000
  H   H2654     1.0  0.60347  0.90908  0.32464  1.0000
  C   C1505     1.0  0.84984  0.82697  0.06471  1.0000
  H   H2655     1.0  0.70251  0.77043  0.31070  1.0000
  H   H2656     1.0  0.82107  0.84276  0.11457  1.0000
  C   C1506     1.0  0.57455  0.97798  0.33277  1.0000
  C   C1507     1.0  0.77893  0.98971  0.29424  1.0000
  H   H2657     1.0  0.50655  0.80766  0.06162  1.0000
  H   H2658     1.0  0.62004  0.97479  0.48539  1.0000
  H   H2659     1.0  0.53577  0.91288  0.24290  1.0000
  H   H2660     1.0  0.52454  0.88171  0.08872  1.0000
  H   H2661     1.0  0.66652  0.98401  0.45072  1.0000
  C   C1508     1.0  0.58287  0.91700  0.29238  1.0000
  H   H2662     1.0  0.54813  0.87786  0.22100  1.0000
  H   H2663     1.0  0.68882  0.98644  0.27102  1.0000
  N   N84       1.0  0.83051  0.86069  0.07959  1.0000
  H   H2664     1.0  0.74198  0.98741  0.47773  1.0000
  H   H2665     1.0  0.89521  0.77188  0.05761  1.0000
  H   H2666     1.0  0.85530  0.77008  0.18057  1.0000
  H   H2667     1.0  0.74812  0.98765  0.33663  1.0000
  H   H2668     1.0  0.53733  0.98562  0.41523  1.0000
  H   H2669     1.0  0.78737  0.84754  0.07222  1.0000
  H   H2670     1.0  0.97681  0.85198  0.02585  1.0000
  C   C1509     1.0  0.69757  0.77513  0.33085  1.0000
  H   H2671     1.0  0.54598  0.93137  0.31726  1.0000
  H   H2672     1.0  0.81029  0.88783  0.08465  1.0000
  H   H2673     1.0  0.81704  0.83072  0.07144  1.0000
  H   H2674     1.0  0.83473  0.79974  0.04922  1.0000
  H   H2675     1.0  0.77226  0.89004  0.09241  1.0000
  H   H2676     1.0  0.55235  0.98240  0.20138  1.0000
  H   H2677     1.0  0.62468  0.80620  0.36076  1.0000
  H   H2678     1.0  0.75660  0.86765  0.08647  1.0000
  H   H2679     1.0  0.86349  0.86799  0.07990  1.0000
  H   H2680     1.0  0.73351  0.99719  0.43187  1.0000
  H   H2681     1.0  0.66515  0.76775  0.30372  1.0000
  H   H2682     1.0  0.75089  0.96752  0.24455  1.0000
  H   H2683     1.0  0.78180  0.99371  0.27304  1.0000
  S   S349      1.0  0.51816  0.84010  0.10670  1.0000
  H   H2684     1.0  0.52354  0.94288  0.26577  1.0000
  C   C1510     1.0  0.56131  0.98905  0.31547  1.0000
  H   H2685     1.0  0.56144  0.86871  0.00937  1.0000
  C   C1511     1.0  0.96948  0.78274  0.02752  1.0000
  H   H2686     1.0  0.96786  0.79137  0.17033  1.0000
  C   C1512     1.0  0.84980  0.75484  0.18865  1.0000
  H   H2687     1.0  0.84212  0.90255  0.09040  1.0000
  H   H2688     1.0  0.57094  0.94460  0.22352  1.0000
  H   H2689     1.0  0.98305  0.84905  0.20737  1.0000
  C   C1513     1.0  0.55986  0.97260  0.24152  1.0000
  H   H2690     1.0  0.56348  0.76746  0.06034  1.0000
  C   C1514     1.0  0.70380  0.99472  0.27267  1.0000
  H   H2691     1.0  0.58347  0.90771  0.23452  1.0000
  C   C1515     1.0  0.99608  0.88939  0.21905  1.0000
  H   H2692     1.0  0.51524  0.95385  0.32337  1.0000
  H   H2693     1.0  0.83021  0.98782  0.43282  1.0000
  H   H2694     1.0  0.76529  0.76137  0.16378  1.0000
  H   H2695     1.0  0.59510  0.86896  0.09430  1.0000
  H   H2696     1.0  0.71257  0.78919  0.36408  1.0000
  H   H2697     1.0  0.99693  0.76609  0.15433  1.0000
  H   H2698     1.0  0.52818  0.78150  0.06305  1.0000
  C   C1516     1.0  0.82987  0.84093  0.06404  1.0000
  C   C1517     1.0  0.68402  0.94559  0.49192  1.0000
  H   H2699     1.0  0.60975  0.94870  0.48603  1.0000
  C   C1518     1.0  0.54498  0.97419  0.40189  1.0000
  C   C1519     1.0  0.72196  0.00015  0.44808  1.0000
  H   H2700     1.0  0.58975  0.93915  0.26126  1.0000
  H   H2701     1.0  0.99024  0.76478  0.08590  1.0000
  C   C1520     1.0  0.60570  0.96551  0.48714  1.0000
  H   H2702     1.0  0.59089  0.90530  0.27977  1.0000
  H   H2703     1.0  0.53570  0.96927  0.06707  1.0000
  H   H2704     1.0  0.57337  0.99382  0.42789  1.0000
  H   H2705     1.0  0.59546  0.93873  0.43778  1.0000
  C   C1521     1.0  0.97909  0.79764  0.18436  1.0000
  H   H2706     1.0  0.57383  0.90723  0.01813  1.0000
  H   H2707     1.0  0.55000  0.98241  0.38335  1.0000
  H   H2708     1.0  0.94032  0.75590  0.04981  1.0000
  C   C1522     1.0  0.97956  0.91151  0.26389  1.0000
  H   H2709     1.0  0.85157  0.81966  0.08451  1.0000
  H   H2710     1.0  0.62848  0.78643  0.38603  1.0000
  C   C1523     1.0  0.95683  0.82780  0.04321  1.0000
  C   C1524     1.0  0.82872  0.75783  0.20290  1.0000
  C   C1525     1.0  0.73324  0.00212  0.47406  1.0000
  H   H2711     1.0  0.78518  0.97469  0.34391  1.0000
  H   H2712     1.0  0.94265  0.76370  0.14701  1.0000
  H   H2713     1.0  0.91439  0.76780  0.08293  1.0000
  H   H2714     1.0  0.99277  0.80470  0.01063  1.0000
  C   C1526     1.0  0.83218  0.86412  0.15647  1.0000
  H   H2715     1.0  0.84831  0.81578  0.02456  1.0000
  C   C1527     1.0  0.78998  0.86160  0.08390  1.0000
  H   H2716     1.0  0.61287  0.78111  0.35772  1.0000
  H   H2717     1.0  0.72253  0.79750  0.33217  1.0000
  N   N85       1.0  0.64621  0.85910  0.22665  1.0000
  C   C1528     1.0  0.62961  0.85362  0.20752  1.0000
  C   C1529     1.0  0.65014  0.84047  0.24460  1.0000
  C   C1530     1.0  0.63876  0.87768  0.24206  1.0000
  C   C1531     1.0  0.66646  0.86461  0.21248  1.0000
  C   C1532     1.0  0.67455  0.84896  0.19165  1.0000
  C   C1533     1.0  0.62453  0.87049  0.18618  1.0000
  C   C1534     1.0  0.65294  0.88403  0.26479  1.0000
  C   C1535     1.0  0.63151  0.83378  0.26292  1.0000
  C   C1536     1.0  0.63759  0.81567  0.28130  1.0000
  C   C1537     1.0  0.69501  0.85621  0.17862  1.0000
  C   C1538     1.0  0.60980  0.86208  0.16587  1.0000
  C   C1539     1.0  0.64347  0.90243  0.27960  1.0000
  H   H2718     1.0  0.61455  0.85045  0.21813  1.0000
  H   H2719     1.0  0.63370  0.83879  0.19763  1.0000
  H   H2720     1.0  0.65452  0.82666  0.23281  1.0000
  H   H2721     1.0  0.66395  0.84292  0.25696  1.0000
  H   H2722     1.0  0.62266  0.87525  0.25017  1.0000
  H   H2723     1.0  0.63747  0.89163  0.22878  1.0000
  H   H2724     1.0  0.66533  0.88026  0.20273  1.0000
  H   H2725     1.0  0.67916  0.86592  0.22691  1.0000
  H   H2726     1.0  0.66326  0.84704  0.17572  1.0000
  H   H2727     1.0  0.67750  0.83353  0.20104  1.0000
  H   H2728     1.0  0.61667  0.88412  0.19537  1.0000
  H   H2729     1.0  0.63875  0.87590  0.17537  1.0000
  H   H2730     1.0  0.66853  0.88877  0.25701  1.0000
  H   H2731     1.0  0.65501  0.87112  0.27939  1.0000
  H   H2732     1.0  0.62593  0.84670  0.27550  1.0000
  H   H2733     1.0  0.61832  0.82850  0.25116  1.0000
  H   H2734     1.0  0.64874  0.82092  0.29604  1.0000
  H   H2735     1.0  0.62349  0.80973  0.29201  1.0000
  H   H2736     1.0  0.64482  0.80277  0.26997  1.0000
  H   H2737     1.0  0.70083  0.84424  0.16467  1.0000
  H   H2738     1.0  0.69257  0.87109  0.16747  1.0000
  H   H2739     1.0  0.70707  0.85838  0.19361  1.0000
  H   H2740     1.0  0.59559  0.85542  0.17563  1.0000
  H   H2741     1.0  0.60489  0.87483  0.15213  1.0000
  H   H2742     1.0  0.61780  0.84979  0.15417  1.0000
  H   H2743     1.0  0.65435  0.90742  0.29485  1.0000
  H   H2744     1.0  0.64058  0.91589  0.26600  1.0000
  H   H2745     1.0  0.62867  0.89768  0.28959  1.0000
  H   H2746     1.0  0.59025  0.87681  0.03484  1.0000
  H   H2747     1.0  0.81827  0.85439  0.16089  1.0000
  H   H2748     1.0  0.94935  0.85898  0.02792  1.0000
  C   C1540     1.0  0.84759  0.89723  0.07082  1.0000
  N   N86       1.0  0.94968  0.79354  0.01879  1.0000
  H   H2749     1.0  0.80209  0.76866  0.24415  1.0000
  H   H2750     1.0  0.53406  0.93679  0.15078  1.0000
  H   H2751     1.0  0.97228  0.78588  0.04862  1.0000
  H   H2752     1.0  0.50973  0.92773  0.33481  1.0000
  C   C1541     1.0  0.90232  0.85310  0.01934  1.0000
  C   C1542     1.0  0.65041  0.75807  0.35476  1.0000
  C   C1543     1.0  0.60423  0.99726  0.31573  1.0000
  H   H2753     1.0  0.65184  0.99699  0.49331  1.0000
  H   H2754     1.0  0.72936  0.77193  0.34488  1.0000
  H   H2755     1.0  0.79744  0.76413  0.30363  1.0000
  N   N87       1.0  0.59862  0.97231  0.43744  1.0000
  Fe  Fe171     1.0  0.51316  0.81467  0.13749  1.0000
  H   H2756     1.0  0.56122  0.95911  0.07496  1.0000
  C   C1544     1.0  0.95550  0.75621  0.13653  1.0000
  H   H2757     1.0  0.70903  0.99996  0.25261  1.0000
  H   H2758     1.0  0.51650  0.95813  0.18539  1.0000
  H   H2759     1.0  0.85267  0.86996  0.04830  1.0000
  H   H2760     1.0  0.96467  0.85833  0.05715  1.0000
  H   H2761     1.0  0.62072  0.00065  0.31579  1.0000
  H   H2762     1.0  0.98269  0.93269  0.29657  1.0000
  H   H2763     1.0  0.63358  0.94754  0.45453  1.0000
  H   H2764     1.0  0.52505  0.87772  0.03926  1.0000
  H   H2765     1.0  0.77804  0.95285  0.38293  1.0000
  H   H2766     1.0  0.55119  0.90170  0.26774  1.0000
  H   H2767     1.0  0.58741  0.98439  0.39997  1.0000
  H   H2768     1.0  0.86281  0.79915  0.04678  1.0000
  H   H2769     1.0  0.75228  0.94718  0.37199  1.0000
  H   H2770     1.0  0.71105  0.98689  0.44926  1.0000
  N   N88       1.0  0.55018  0.89845  0.04745  1.0000
  H   H2771     1.0  0.83647  0.90331  0.05596  1.0000
  H   H2772     1.0  0.98771  0.88022  0.23465  1.0000
  C   C1545     1.0  0.56212  0.88058  0.06020  1.0000
  C   C1546     1.0  0.55404  0.91781  0.06282  1.0000
  H   H2773     1.0  0.82659  0.84476  0.04299  1.0000
  H   H2774     1.0  0.54045  0.95840  0.28399  1.0000
  C   C1547     1.0  0.58619  0.88071  0.05555  1.0000
  C   C1548     1.0  0.59775  0.92318  0.31386  1.0000
  C   C1549     1.0  0.56444  0.88132  0.22628  1.0000
  C   C1550     1.0  0.84875  0.80936  0.04506  1.0000
  C   C1551     1.0  0.55743  0.94907  0.23645  1.0000
  H   H2775     1.0  0.92159  0.75889  0.02404  1.0000
  H   H2776     1.0  0.56372  0.91238  0.21036  1.0000
  H   H2777     1.0  0.57263  0.97539  0.25528  1.0000
  N   N89       1.0  0.55617  0.93485  0.26058  1.0000
  C   C1552     1.0  0.81503  0.99640  0.43269  1.0000
  H   H2778     1.0  0.55648  0.86529  0.05360  1.0000
  H   H2779     1.0  0.55910  0.88020  0.08192  1.0000
  H   H2780     1.0  0.55097  0.91481  0.08430  1.0000
  H   H2781     1.0  0.57077  0.92206  0.06130  1.0000
  H   H2782     1.0  0.84589  0.88243  0.12522  1.0000
  Fe  Fe172     1.0  0.68944  0.99234  0.35565  1.0000
  C   C1553     1.0  0.83194  0.87255  0.12808  1.0000
  H   H2783     1.0  0.84801  0.84659  0.11119  1.0000
  H   H2784     1.0  0.59282  0.89612  0.05952  1.0000
  H   H2785     1.0  0.81773  0.76444  0.18839  1.0000
  H   H2786     1.0  0.55934  0.76350  0.09548  1.0000
  H   H2787     1.0  0.68591  0.78786  0.32887  1.0000
  H   H2788     1.0  0.51842  0.90425  0.03490  1.0000
  H   H2789     1.0  0.57580  0.95015  0.28790  1.0000
  C   C1554     1.0  0.96226  0.85066  0.03810  1.0000
  H   H2790     1.0  0.58278  0.98690  0.47057  1.0000
  C   C1555     1.0  0.57634  0.93622  0.27519  1.0000
  H   H2791     1.0  0.58951  0.93332  0.32830  1.0000
  H   H2792     1.0  0.75870  0.97342  0.38101  1.0000
  H   H2793     1.0  0.61414  0.86435  0.06834  1.0000
  H   H2794     1.0  0.54326  0.94743  0.22447  1.0000
  H   H2795     1.0  0.97020  0.80279  0.20218  1.0000
  C   C1556     1.0  0.83279  0.85461  0.10826  1.0000
  H   H2796     1.0  0.58005  0.97971  0.20731  1.0000
  N   N90       1.0  0.75888  0.97787  0.29792  1.0000
  H   H2797     1.0  0.62883  0.91754  0.40880  1.0000
  C   C1557     1.0  0.76120  0.95733  0.28422  1.0000
  H   H2798     1.0  0.76968  0.88085  0.05917  1.0000
  C   C1558     1.0  0.75389  0.97337  0.32668  1.0000
  C   C1559     1.0  0.77194  0.96382  0.34307  1.0000
  H   H2799     1.0  0.62986  0.98289  0.44516  1.0000
  C   C1560     1.0  0.56474  0.98474  0.21590  1.0000
  C   C1561     1.0  0.76381  0.95857  0.25375  1.0000
  C   C1562     1.0  0.76403  0.93680  0.24218  1.0000
  C   C1563     1.0  0.76472  0.95907  0.37147  1.0000
  H   H2800     1.0  0.53837  0.95044  0.09367  1.0000
  H   H2801     1.0  0.54511  0.97919  0.24988  1.0000
  C   C1564     1.0  0.78328  0.76784  0.29220  1.0000
  H   H2802     1.0  0.79254  0.97980  0.29998  1.0000
  H   H2803     1.0  0.77509  0.94858  0.29146  1.0000
  H   H2804     1.0  0.74774  0.94705  0.28935  1.0000
  C   C1565     1.0  0.55732  0.90208  0.01920  1.0000
  H   H2805     1.0  0.52263  0.83934  0.04462  1.0000
  C   C1566     1.0  0.51502  0.94137  0.18597  1.0000
  H   H2806     1.0  0.74073  0.96229  0.32863  1.0000
  C   C1567     1.0  0.61613  0.98763  0.43363  1.0000
  H   H2807     1.0  0.77777  0.94903  0.33457  1.0000
  C   C1568     1.0  0.53796  0.94226  0.27753  1.0000
  H   H2808     1.0  0.57724  0.96033  0.46765  1.0000
  H   H2809     1.0  0.96685  0.90742  0.25058  1.0000
  C   C1569     1.0  0.52296  0.90741  0.16659  1.0000
  H   H2810     1.0  0.80755  0.99373  0.41357  1.0000
  H   H2811     1.0  0.77876  0.96607  0.24787  1.0000
  H   H2812     1.0  0.74906  0.92883  0.24690  1.0000
  H   H2813     1.0  0.76607  0.93800  0.22041  1.0000
  H   H2814     1.0  0.77712  0.92725  0.25015  1.0000
  C   C1570     1.0  0.54158  0.93764  0.05431  1.0000
  C   C1571     1.0  0.99861  0.92000  0.24757  1.0000
  Fe  Fe173     1.0  0.99064  0.98189  0.21742  1.0000
  C   C1572     1.0  0.81043  0.87261  0.07479  1.0000
  C   C1573     1.0  0.98229  0.75678  0.10213  1.0000
  S   S350      1.0  0.66460  0.98856  0.38776  1.0000
  C   C1574     1.0  0.52496  0.92922  0.16637  1.0000
  C   C1575     1.0  0.60587  0.95089  0.42891  1.0000
  C   C1576     1.0  0.77103  0.87599  0.08021  1.0000
  H   H2815     1.0  0.57498  0.87589  0.21007  1.0000
  C   C1577     1.0  0.59717  0.86472  0.07330  1.0000
  H   H2816     1.0  0.83198  0.87725  0.17032  1.0000
  C   C1578     1.0  0.62890  0.94446  0.43421  1.0000
  H   H2817     1.0  0.81762  0.88225  0.12610  1.0000
  C   C1579     1.0  0.59011  0.97167  0.46546  1.0000
  H   H2818     1.0  0.78440  0.78394  0.28378  1.0000
  H   H2819     1.0  0.69287  0.93112  0.49158  1.0000
  H   H2820     1.0  0.64407  0.78529  0.32837  1.0000
  H   H2821     1.0  0.80467  0.99020  0.44880  1.0000
  H   H2822     1.0  0.63955  0.95336  0.42065  1.0000
  H   H2823     1.0  0.51598  0.90823  0.08446  1.0000
  C   C1580     1.0  0.52022  0.76757  0.07151  1.0000
  H   H2824     1.0  0.59092  0.84892  0.07049  1.0000
  H   H2825     1.0  0.99197  0.93283  0.23504  1.0000
  C   C1581     1.0  0.64645  0.78162  0.34950  1.0000
  H   H2826     1.0  0.98361  0.89801  0.20829  1.0000
  C   C1582     1.0  0.56701  0.90472  0.22971  1.0000
  H   H2827     1.0  0.52462  0.93477  0.05343  1.0000
  H   H2828     1.0  0.88033  0.90211  0.07943  1.0000
  C   C1583     1.0  0.52729  0.89327  0.04785  1.0000
  C   C1584     1.0  0.62691  0.78921  0.36448  1.0000
  C   C1585     1.0  0.54446  0.95514  0.07374  1.0000
  C   C1586     1.0  0.58112  0.97962  0.41986  1.0000
  C   C1587     1.0  0.99521  0.78093  0.19203  1.0000
  H   H2829     1.0  0.65354  0.75649  0.37616  1.0000
  C   C1588     1.0  0.90926  0.76269  0.06337  1.0000
  H   H2830     1.0  0.56546  0.00162  0.22002  1.0000
  H   H2831     1.0  0.99679  0.84767  0.17594  1.0000
  H   H2832     1.0  0.64956  0.91752  0.43214  1.0000
  H   H2833     1.0  0.54476  0.98602  0.31577  1.0000
  C   C1589     1.0  0.95191  0.81692  0.01716  1.0000
  C   C1590     1.0  0.66084  0.98262  0.49296  1.0000
  H   H2834     1.0  0.98340  0.89737  0.27563  1.0000
  C   C1591     1.0  0.68888  0.75595  0.34649  1.0000
  C   C1592     1.0  0.72003  0.98009  0.28501  1.0000
  C   C1593     1.0  0.92688  0.76537  0.04277  1.0000
  C   C1594     1.0  0.71668  0.78388  0.34392  1.0000
  H   H2835     1.0  0.98638  0.76777  0.20118  1.0000
  H   H2836     1.0  0.93727  0.82420  0.00980  1.0000
  H   H2837     1.0  0.70430  0.99655  0.49614  1.0000
  H   H2838     1.0  0.53087  0.91290  0.29936  1.0000
  C   C1595     1.0  0.51325  0.93758  0.31703  1.0000
  H   H2839     1.0  0.63990  0.76579  0.26756  1.0000
  H   H2840     1.0  0.74579  0.99729  0.26677  1.0000
  H   H2841     1.0  0.52155  0.78931  0.02017  1.0000
  C   C1596     1.0  0.52103  0.77288  0.01437  1.0000
  H   H2842     1.0  0.97657  0.86699  0.18075  1.0000
  C   C1597     1.0  0.97065  0.92779  0.28271  1.0000
  H   H2843     1.0  0.83081  0.76946  0.21842  1.0000
  H   H2844     1.0  0.57374  0.80985  0.00312  1.0000
  H   H2845     1.0  0.96785  0.76556  0.02677  1.0000
  H   H2846     1.0  0.53634  0.76571  0.01927  1.0000
  H   H2847     1.0  0.78473  0.76319  0.20621  1.0000
  C   C1598     1.0  0.55835  0.75615  0.07600  1.0000
  C   C1599     1.0  0.55908  0.81841  0.00291  1.0000
  Fe  Fe174     1.0  0.90139  0.83367  0.89626  1.0000
  S   S351      1.0  0.90194  0.80639  0.86883  1.0000
  S   S352      1.0  0.89451  0.82264  0.93879  1.0000
  Fe  Fe175     1.0  0.91039  0.86513  0.85080  1.0000
  S   S353      1.0  0.91186  0.83968  0.82148  1.0000
  S   S354      1.0  0.90995  0.89843  0.83311  1.0000
  Fe  Fe176     1.0  0.88299  0.82665  0.84142  1.0000
  S   S355      1.0  0.85975  0.81662  0.81036  1.0000
  Fe  Fe177     1.0  0.93039  0.82125  0.85098  1.0000
  S   S356      1.0  0.95910  0.80355  0.83589  1.0000
  S   S357      1.0  0.88042  0.85305  0.86985  1.0000
  S   S358      1.0  0.93119  0.84765  0.87947  1.0000
  Fe  Fe178     1.0  0.65794  0.98472  0.64401  1.0000
  S   S359      1.0  0.64448  0.95944  0.62037  1.0000
  C   C1600     1.0  0.58895  0.76563  0.89776  1.0000
  Fe  Fe179     1.0  0.70212  0.97743  0.62095  1.0000
  S   S360      1.0  0.69157  0.95087  0.59620  1.0000
  Fe  Fe180     1.0  0.66443  0.97191  0.58660  1.0000
  S   S361      1.0  0.65173  0.97999  0.54603  1.0000
  Fe  Fe181     1.0  0.67279  0.94051  0.63231  1.0000
  S   S362      1.0  0.66512  0.90759  0.64759  1.0000
  S   S363      1.0  0.68540  0.96533  0.65777  1.0000
  H   H2848     1.0  0.94239  0.81292  0.96597  1.0000
  H   H2849     1.0  0.85529  0.76857  0.88266  1.0000
  H   H2850     1.0  0.90788  0.86449  0.95318  1.0000
  H   H2851     1.0  0.88838  0.80761  0.99177  1.0000
  Fe  Fe182     1.0  0.52809  0.84195  0.84788  1.0000
  S   S364      1.0  0.55056  0.85222  0.87815  1.0000
  H   H2852     1.0  0.53886  0.95221  0.74315  1.0000
  Fe  Fe183     1.0  0.52714  0.79676  0.86968  1.0000
  S   S365      1.0  0.54978  0.80408  0.90122  1.0000
  Fe  Fe184     1.0  0.53107  0.83323  0.90730  1.0000
  S   S366      1.0  0.52023  0.84402  0.94805  1.0000
  Fe  Fe185     1.0  0.56759  0.82207  0.86970  1.0000
  S   S367      1.0  0.60316  0.82038  0.86857  1.0000
  S   S368      1.0  0.54644  0.81278  0.83766  1.0000
  Fe  Fe186     1.0  0.73996  0.79053  0.77477  1.0000
  S   S369      1.0  0.74862  0.79174  0.73175  1.0000
  S   S370      1.0  0.76307  0.79198  0.80864  1.0000
  Fe  Fe187     1.0  0.69302  0.78872  0.76331  1.0000
  S   S371      1.0  0.69896  0.79045  0.71931  1.0000
  S   S372      1.0  0.65823  0.78524  0.77295  1.0000
  Fe  Fe188     1.0  0.72449  0.76685  0.72657  1.0000
  Fe  Fe189     1.0  0.72215  0.81498  0.72781  1.0000
  S   S373      1.0  0.72868  0.84500  0.70444  1.0000
  C   C1601     1.0  0.51917  0.77267  0.98442  1.0000
  S   S374      1.0  0.71455  0.81516  0.77125  1.0000
  C   C1602     1.0  0.70869  0.83040  0.63095  1.0000
  S   S375      1.0  0.98754  0.95570  0.79840  1.0000
  S   S376      1.0  0.98391  0.98671  0.72945  1.0000
  C   C1603     1.0  0.61827  0.81052  0.84192  1.0000
  C   C1604     1.0  0.60913  0.80460  0.81861  1.0000
  C   C1605     1.0  0.62161  0.79648  0.79797  1.0000
  C   C1606     1.0  0.64339  0.79474  0.80012  1.0000
  C   C1607     1.0  0.65257  0.80072  0.82340  1.0000
  C   C1608     1.0  0.64002  0.80850  0.84426  1.0000
  H   H2853     1.0  0.59245  0.80627  0.81646  1.0000
  H   H2854     1.0  0.61438  0.79185  0.78004  1.0000
  H   H2855     1.0  0.66930  0.79925  0.82540  1.0000
  H   H2856     1.0  0.64721  0.81301  0.86228  1.0000
  H   H2857     1.0  0.70672  0.86389  0.62465  1.0000
  C   C1609     1.0  0.53138  0.83535  0.97806  1.0000
  C   C1610     1.0  0.55023  0.82413  0.97861  1.0000
  H   H2858     1.0  0.55814  0.82013  0.96030  1.0000
  H   H2859     1.0  0.89362  0.92814  0.76612  1.0000
  C   C1611     1.0  0.73574  0.96763  0.52593  1.0000
  H   H2860     1.0  0.94218  0.92434  0.72684  1.0000
  C   C1612     1.0  0.90654  0.86458  0.99591  1.0000
  C   C1613     1.0  0.94441  0.78577  0.94240  1.0000
  H   H2861     1.0  0.99062  0.92124  0.76375  1.0000
  H   H2862     1.0  0.58262  0.88886  0.97617  1.0000
  Fe  Fe190     1.0  0.50724  0.98283  0.76876  1.0000
  C   C1614     1.0  0.51648  0.93341  0.80498  1.0000
  H   H2863     1.0  0.77828  0.00062  0.60786  1.0000
  C   C1615     1.0  0.87446  0.76171  0.84801  1.0000
  H   H2864     1.0  0.70137  0.76656  0.60528  1.0000
  H   H2865     1.0  0.72232  0.78506  0.57352  1.0000
  H   H2866     1.0  0.52672  0.89421  0.84998  1.0000
  H   H2867     1.0  0.88717  0.93058  0.73186  1.0000
  H   H2868     1.0  0.92324  0.95336  0.69895  1.0000
  H   H2869     1.0  0.86306  0.77094  0.79971  1.0000
  C   C1616     1.0  0.68294  0.89062  0.66388  1.0000
  C   C1617     1.0  0.70351  0.89631  0.66823  1.0000
  C   C1618     1.0  0.71723  0.88224  0.68097  1.0000
  C   C1619     1.0  0.71046  0.86252  0.68991  1.0000
  C   C1620     1.0  0.68981  0.85694  0.68591  1.0000
  C   C1621     1.0  0.67620  0.87083  0.67269  1.0000
  H   H2870     1.0  0.70894  0.91144  0.66150  1.0000
  H   H2871     1.0  0.73323  0.88666  0.68383  1.0000
  H   H2872     1.0  0.68457  0.84169  0.69227  1.0000
  H   H2873     1.0  0.66049  0.86613  0.66890  1.0000
  C   C1622     1.0  0.66400  0.97133  0.51660  1.0000
  H   H2874     1.0  0.64326  0.84694  0.81308  1.0000
  C   C1623     1.0  0.67597  0.95299  0.51606  1.0000
  H   H2875     1.0  0.67842  0.94413  0.53412  1.0000
  C   C1624     1.0  0.93178  0.91375  0.82262  1.0000
  C   C1625     1.0  0.95236  0.90735  0.82711  1.0000
  C   C1626     1.0  0.96912  0.92038  0.81946  1.0000
  C   C1627     1.0  0.96563  0.93981  0.80681  1.0000
  C   C1628     1.0  0.94507  0.94600  0.80169  1.0000
  C   C1629     1.0  0.92827  0.93313  0.80978  1.0000
  H   H2876     1.0  0.95535  0.89257  0.83706  1.0000
  H   H2877     1.0  0.98491  0.91543  0.82369  1.0000
  H   H2878     1.0  0.94213  0.96084  0.79201  1.0000
  H   H2879     1.0  0.91244  0.93835  0.80647  1.0000
  C   C1630     1.0  0.96523  0.77749  0.84534  1.0000
  C   C1631     1.0  0.91577  0.98653  0.69391  1.0000
  S   S377      1.0  0.73638  0.98601  0.61457  1.0000
  H   H2880     1.0  0.87070  0.94286  0.75665  1.0000
  H   H2881     1.0  0.93836  0.77309  0.87101  1.0000
  H   H2882     1.0  0.67425  0.83110  0.79462  1.0000
  H   H2883     1.0  0.57566  0.95621  0.73138  1.0000
  C   C1632     1.0  0.83305  0.80910  0.81041  1.0000
  C   C1633     1.0  0.82185  0.80390  0.83358  1.0000
  C   C1634     1.0  0.80054  0.79867  0.83259  1.0000
  C   C1635     1.0  0.79007  0.79858  0.80851  1.0000
  C   C1636     1.0  0.80133  0.80373  0.78532  1.0000
  C   C1637     1.0  0.82267  0.80885  0.78630  1.0000
  H   H2884     1.0  0.82958  0.80390  0.85228  1.0000
  H   H2885     1.0  0.79206  0.79466  0.85066  1.0000
  H   H2886     1.0  0.79359  0.80370  0.76663  1.0000
  H   H2887     1.0  0.83114  0.81280  0.76821  1.0000
  H   H2888     1.0  0.92786  0.80436  0.75212  1.0000
  C   C1638     1.0  0.89788  0.83493  0.96937  1.0000
  C   C1639     1.0  0.90451  0.85551  0.97104  1.0000
  S   S378      1.0  0.51575  0.96104  0.80313  1.0000
  N   N91       1.0  0.83076  0.87990  0.81049  1.0000
  C   C1640     1.0  0.83002  0.86290  0.83146  1.0000
  C   C1641     1.0  0.84385  0.87215  0.78744  1.0000
  C   C1642     1.0  0.83999  0.89903  0.82199  1.0000
  C   C1643     1.0  0.80914  0.88517  0.80103  1.0000
  C   C1644     1.0  0.79583  0.86632  0.79325  1.0000
  C   C1645     1.0  0.81726  0.86791  0.85697  1.0000
  C   C1646     1.0  0.84283  0.91788  0.80266  1.0000
  C   C1647     1.0  0.86782  0.87120  0.79128  1.0000
  C   C1648     1.0  0.87913  0.86172  0.76744  1.0000
  C   C1649     1.0  0.77550  0.87347  0.78060  1.0000
  C   C1650     1.0  0.81461  0.84849  0.87461  1.0000
  C   C1651     1.0  0.85557  0.93485  0.81512  1.0000
  H   H2889     1.0  0.84596  0.85865  0.83768  1.0000
  H   H2890     1.0  0.82402  0.84834  0.82336  1.0000
  H   H2891     1.0  0.83911  0.85613  0.78238  1.0000
  H   H2892     1.0  0.84102  0.88179  0.76934  1.0000
  H   H2893     1.0  0.85522  0.89512  0.83122  1.0000
  H   H2894     1.0  0.82986  0.90487  0.83840  1.0000
  H   H2895     1.0  0.80004  0.89407  0.81607  1.0000
  H   H2896     1.0  0.81012  0.89586  0.78348  1.0000
  H   H2897     1.0  0.79154  0.85660  0.81089  1.0000
  H   H2898     1.0  0.80443  0.85633  0.77899  1.0000
  H   H2899     1.0  0.82552  0.87956  0.86854  1.0000
  H   H2900     1.0  0.80146  0.87406  0.85259  1.0000
  H   H2901     1.0  0.82736  0.92471  0.79769  1.0000
  H   H2902     1.0  0.85091  0.91347  0.78403  1.0000
  H   H2903     1.0  0.87430  0.88694  0.79370  1.0000
  H   H2904     1.0  0.87179  0.86168  0.80892  1.0000
  H   H2905     1.0  0.87586  0.87098  0.74924  1.0000
  H   H2906     1.0  0.89623  0.86166  0.77049  1.0000
  H   H2907     1.0  0.76602  0.88317  0.79438  1.0000
  H   H2908     1.0  0.77875  0.88252  0.76207  1.0000
  H   H2909     1.0  0.76624  0.85963  0.77570  1.0000
  H   H2910     1.0  0.80681  0.85277  0.89355  1.0000
  H   H2911     1.0  0.80474  0.83700  0.86492  1.0000
  H   H2912     1.0  0.83002  0.84121  0.87894  1.0000
  H   H2913     1.0  0.85655  0.94867  0.80165  1.0000
  H   H2914     1.0  0.84813  0.93978  0.83403  1.0000
  H   H2915     1.0  0.87168  0.92906  0.81890  1.0000
  H   H2916     1.0  0.56285  0.87371  0.96118  1.0000
  H   H2917     1.0  0.93089  0.81025  0.78620  1.0000
  H   H2918     1.0  0.54812  0.75840  0.82569  1.0000
  C   C1652     1.0  0.58038  0.92610  0.71132  1.0000
  C   C1653     1.0  0.71263  0.81025  0.61515  1.0000
  C   C1654     1.0  0.59324  0.78710  0.93870  1.0000
  H   H2919     1.0  0.99360  0.77690  0.82164  1.0000
  H   H2920     1.0  0.57707  0.78368  0.94579  1.0000
  H   H2921     1.0  0.76145  0.80981  0.67755  1.0000
  C   C1655     1.0  0.89356  0.82352  0.99282  1.0000
  C   C1656     1.0  0.66504  0.76585  0.67005  1.0000
  H   H2922     1.0  0.72501  0.80199  0.66726  1.0000
  H   H2923     1.0  0.91931  0.78033  0.82185  1.0000
  C   C1657     1.0  0.72327  0.98600  0.53803  1.0000
  C   C1658     1.0  0.70961  0.84973  0.61285  1.0000
  C   C1659     1.0  0.61088  0.00038  0.67467  1.0000
  H   H2924     1.0  0.50760  0.88991  0.76989  1.0000
  H   H2925     1.0  0.58993  0.78024  0.88574  1.0000
  H   H2926     1.0  0.74273  0.93500  0.53421  1.0000
  C   C1660     1.0  0.92006  0.77905  0.77943  1.0000
  H   H2927     1.0  0.69748  0.84917  0.59765  1.0000
  H   H2928     1.0  0.97439  0.90257  0.72168  1.0000
  H   H2929     1.0  0.92536  0.78588  0.99164  1.0000
  H   H2930     1.0  0.74548  0.78272  0.59238  1.0000
  H   H2931     1.0  0.75774  0.77970  0.63192  1.0000
  H   H2932     1.0  0.90120  0.96524  0.76812  1.0000
  C   C1661     1.0  0.86997  0.75995  0.87771  1.0000
  H   H2933     1.0  0.55350  0.93009  0.75532  1.0000
  C   C1662     1.0  0.69173  0.78779  0.64447  1.0000
  S   S379      1.0  0.67580  0.99892  0.60954  1.0000
  H   H2934     1.0  0.58477  0.91725  0.72955  1.0000
  H   H2935     1.0  0.59319  0.80183  0.92677  1.0000
  C   C1663     1.0  0.95557  0.92645  0.73991  1.0000
  H   H2936     1.0  0.91243  0.77090  0.76333  1.0000
  C   C1664     1.0  0.55481  0.88331  0.00084  1.0000
  N   N92       1.0  0.59980  0.93086  0.69485  1.0000
  C   C1665     1.0  0.61169  0.91102  0.68834  1.0000
  C   C1666     1.0  0.61360  0.94408  0.71126  1.0000
  C   C1667     1.0  0.59477  0.94308  0.67006  1.0000
  C   C1668     1.0  0.58098  0.93212  0.65019  1.0000
  C   C1669     1.0  0.63609  0.94803  0.70024  1.0000
  C   C1670     1.0  0.59870  0.89123  0.68384  1.0000
  C   C1671     1.0  0.61213  0.87415  0.67124  1.0000
  C   C1672     1.0  0.57387  0.94715  0.62837  1.0000
  C   C1673     1.0  0.64843  0.96059  0.71963  1.0000
  H   H2937     1.0  0.62216  0.91373  0.67073  1.0000
  H   H2938     1.0  0.62228  0.90645  0.70462  1.0000
  H   H2939     1.0  0.61505  0.93699  0.73139  1.0000
  H   H2940     1.0  0.60650  0.95979  0.71396  1.0000
  H   H2941     1.0  0.58741  0.95825  0.67502  1.0000
  H   H2942     1.0  0.60930  0.94725  0.65890  1.0000
  H   H2943     1.0  0.56672  0.92560  0.65979  1.0000
  H   H2944     1.0  0.59016  0.91948  0.64057  1.0000
  H   H2945     1.0  0.56041  0.95349  0.70231  1.0000
  H   H2946     1.0  0.63578  0.95702  0.68138  1.0000
  H   H2947     1.0  0.64490  0.93336  0.69672  1.0000
  H   H2948     1.0  0.58529  0.89422  0.67098  1.0000
  H   H2949     1.0  0.61801  0.87934  0.65140  1.0000
  H   H2950     1.0  0.56236  0.95855  0.63649  1.0000
  H   H2951     1.0  0.58736  0.95556  0.61923  1.0000
  H   H2952     1.0  0.56615  0.93838  0.61284  1.0000
  H   H2953     1.0  0.64079  0.97597  0.72292  1.0000
  H   H2954     1.0  0.64967  0.95212  0.73883  1.0000
  H   H2955     1.0  0.66442  0.96333  0.71150  1.0000
  H   H2956     1.0  0.78259  0.79841  0.65851  1.0000
  C   C1674     1.0  0.56553  0.88717  0.97400  1.0000
  H   H2957     1.0  0.95278  0.91702  0.75826  1.0000
  H   H2958     1.0  0.58180  0.95993  0.51786  1.0000
  C   C1675     1.0  0.68467  0.84994  0.82576  1.0000
  C   C1676     1.0  0.76632  0.79605  0.66588  1.0000
  H   H2959     1.0  0.55901  0.90139  0.96422  1.0000
  C   C1677     1.0  0.92088  0.80221  0.77222  1.0000
  H   H2960     1.0  0.60833  0.99766  0.63272  1.0000
  H   H2961     1.0  0.65336  0.76803  0.65440  1.0000
  H   H2962     1.0  0.60276  0.85991  0.66911  1.0000
  H   H2963     1.0  0.60265  0.75516  0.93557  1.0000
  C   C1678     1.0  0.52206  0.92349  0.82882  1.0000
  H   H2964     1.0  0.76606  0.78181  0.67874  1.0000
  H   H2965     1.0  0.75357  0.80770  0.62996  1.0000
  C   C1679     1.0  0.99753  0.88167  0.76577  1.0000
  C   C1680     1.0  0.97574  0.91934  0.72600  1.0000
  N   N93       1.0  0.71296  0.79008  0.63106  1.0000
  C   C1681     1.0  0.51730  0.88935  0.81026  1.0000
  H   H2966     1.0  0.69302  0.83034  0.64071  1.0000
  H   H2967     1.0  0.69812  0.76313  0.67429  1.0000
  H   H2968     1.0  0.70661  0.98143  0.53770  1.0000
  H   H2969     1.0  0.52601  0.93282  0.84541  1.0000
  H   H2970     1.0  0.93647  0.77328  0.78032  1.0000
  S   S380      1.0  0.51857  0.76227  0.86977  1.0000
  H   H2971     1.0  0.72525  0.85108  0.60309  1.0000
  H   H2972     1.0  0.59249  0.88506  0.70309  1.0000
  C   C1682     1.0  0.67471  0.84794  0.79891  1.0000
  H   H2973     1.0  0.57911  0.88007  0.81933  1.0000
  C   C1683     1.0  0.75195  0.79355  0.64268  1.0000
  H   H2974     1.0  0.96722  0.79970  0.96645  1.0000
  H   H2975     1.0  0.53787  0.92791  0.72625  1.0000
  H   H2976     1.0  0.70040  0.84243  0.82531  1.0000
  H   H2977     1.0  0.57667  0.77797  0.84641  1.0000
  C   C1684     1.0  0.54815  0.93829  0.73715  1.0000
  Fe  Fe191     1.0  0.99450  0.98394  0.77132  1.0000
  H   H2978     1.0  0.71692  0.94318  0.54468  1.0000
  C   C1685     1.0  0.73351  0.94791  0.54314  1.0000
  H   H2979     1.0  0.95580  0.95298  0.67228  1.0000
  C   C1686     1.0  0.94274  0.78543  0.99261  1.0000
  H   H2980     1.0  0.67920  0.79079  0.62997  1.0000
  N   N94       1.0  0.90408  0.99235  0.71894  1.0000
  C   C1687     1.0  0.68719  0.76634  0.65815  1.0000
  C   C1688     1.0  0.86988  0.76154  0.78366  1.0000
  H   H2981     1.0  0.62561  0.87031  0.68372  1.0000
  H   H2982     1.0  0.56965  0.99559  0.63435  1.0000
  C   C1689     1.0  0.98338  0.76800  0.83476  1.0000
  H   H2983     1.0  0.60301  0.78937  0.95613  1.0000
  H   H2984     1.0  0.94938  0.79494  0.92456  1.0000
  H   H2985     1.0  0.68510  0.85544  0.78393  1.0000
  N   N95       1.0  0.64130  0.85912  0.77293  1.0000
  C   C1690     1.0  0.64734  0.84112  0.75552  1.0000
  C   C1691     1.0  0.65223  0.85725  0.79903  1.0000
  C   C1692     1.0  0.61804  0.85774  0.77866  1.0000
  C   C1693     1.0  0.64558  0.87982  0.75943  1.0000
  C   C1694     1.0  0.66851  0.88368  0.75046  1.0000
  C   C1695     1.0  0.63879  0.84187  0.72725  1.0000
  C   C1696     1.0  0.60866  0.87319  0.79907  1.0000
  C   C1697     1.0  0.67016  0.90277  0.73208  1.0000
  C   C1698     1.0  0.64335  0.82141  0.71327  1.0000
  C   C1699     1.0  0.58562  0.86865  0.80508  1.0000
  H   H2986     1.0  0.64226  0.82636  0.76519  1.0000
  H   H2987     1.0  0.66450  0.83940  0.75287  1.0000
  H   H2988     1.0  0.65261  0.87270  0.80853  1.0000
  H   H2989     1.0  0.61408  0.84172  0.78593  1.0000
  H   H2990     1.0  0.60903  0.86041  0.76048  1.0000
  H   H2991     1.0  0.63545  0.88200  0.74207  1.0000
  H   H2992     1.0  0.64122  0.89280  0.77268  1.0000
  H   H2993     1.0  0.67547  0.87033  0.73978  1.0000
  H   H2994     1.0  0.67802  0.88676  0.76787  1.0000
  H   H2995     1.0  0.62170  0.84452  0.72704  1.0000
  H   H2996     1.0  0.64651  0.85452  0.71559  1.0000
  H   H2997     1.0  0.60964  0.88946  0.79137  1.0000
  H   H2998     1.0  0.61678  0.87210  0.81810  1.0000
  H   H2999     1.0  0.66121  0.90047  0.71396  1.0000
  H   H3000     1.0  0.66423  0.91689  0.74216  1.0000
  H   H3001     1.0  0.68676  0.90522  0.72609  1.0000
  H   H3002     1.0  0.63495  0.80840  0.72347  1.0000
  H   H3003     1.0  0.63812  0.82267  0.69260  1.0000
  H   H3004     1.0  0.66031  0.81774  0.71305  1.0000
  H   H3005     1.0  0.57636  0.86986  0.78689  1.0000
  H   H3006     1.0  0.58384  0.85280  0.81407  1.0000
  C   C1700     1.0  0.57787  0.99948  0.69987  1.0000
  C   C1701     1.0  0.73064  0.77507  0.58815  1.0000
  C   C1702     1.0  0.89037  0.97471  0.72884  1.0000
  H   H3007     1.0  0.56955  0.99946  0.71863  1.0000
  H   H3008     1.0  0.72677  0.98666  0.55934  1.0000
  C   C1703     1.0  0.90021  0.95849  0.74824  1.0000
  H   H3009     1.0  0.89498  0.78567  0.80790  1.0000
  H   H3010     1.0  0.53271  0.78076  0.97494  1.0000
  C   C1704     1.0  0.93166  0.96824  0.69594  1.0000
  C   C1705     1.0  0.94486  0.96648  0.67057  1.0000
  C   C1706     1.0  0.88706  0.93885  0.75084  1.0000
  C   C1707     1.0  0.56675  0.94513  0.71979  1.0000
  H   H3011     1.0  0.67503  0.84205  0.84141  1.0000
  H   H3012     1.0  0.56977  0.91576  0.70097  1.0000
  H   H3013     1.0  0.66275  0.77819  0.68486  1.0000
  C   C1708     1.0  0.95016  0.79735  0.96713  1.0000
  H   H3014     1.0  0.72068  0.83217  0.64608  1.0000
  H   H3015     1.0  0.68639  0.86658  0.83062  1.0000
  H   H3016     1.0  0.50472  0.78101  0.97831  1.0000
  H   H3017     1.0  0.87715  0.77260  0.76917  1.0000
  H   H3018     1.0  0.88427  0.96620  0.71184  1.0000
  H   H3019     1.0  0.94728  0.76871  0.99066  1.0000
  H   H3020     1.0  0.91616  0.95363  0.74209  1.0000
  H   H3021     1.0  0.87419  0.84539  0.76493  1.0000
  C   C1709     1.0  0.99513  0.92351  0.74271  1.0000
  C   C1710     1.0  0.99910  0.85833  0.77211  1.0000
  H   H3022     1.0  0.90498  0.80936  0.77257  1.0000
  H   H3023     1.0  0.95233  0.77028  0.94183  1.0000
  C   C1711     1.0  0.52252  0.90160  0.83146  1.0000
  H   H3024     1.0  0.90754  0.75558  0.85364  1.0000
  C   C1712     1.0  0.71649  0.77173  0.61316  1.0000
  H   H3025     1.0  0.86742  0.99379  0.68992  1.0000
  S   S381      1.0  0.51672  0.86175  0.81292  1.0000
  C   C1713     1.0  0.56414  0.75874  0.81685  1.0000
  C   C1714     1.0  0.51137  0.92117  0.78370  1.0000
  H   H3026     1.0  0.73933  0.95050  0.56324  1.0000
  C   C1715     1.0  0.57801  0.99698  0.65246  1.0000
  H   H3027     1.0  0.87475  0.77844  0.84241  1.0000
  H   H3028     1.0  0.92724  0.78374  0.94179  1.0000
  H   H3029     1.0  0.97710  0.92813  0.70692  1.0000
  H   H3030     1.0  0.59270  0.98586  0.51744  1.0000
  C   C1716     1.0  0.60217  0.76916  0.92244  1.0000
  H   H3031     1.0  0.70041  0.80962  0.59996  1.0000
  H   H3032     1.0  0.00131  0.89001  0.78381  1.0000
  H   H3033     1.0  0.61840  0.77332  0.91652  1.0000
  C   C1717     1.0  0.59626  0.96906  0.51465  1.0000
  H   H3034     1.0  0.99473  0.84916  0.75486  1.0000
  H   H3035     1.0  0.95647  0.94315  0.74494  1.0000
  H   H3036     1.0  0.93479  0.96417  0.65341  1.0000
  S   S382      1.0  0.71757  0.76381  0.77022  1.0000
  H   H3037     1.0  0.87616  0.98084  0.73933  1.0000
  H   H3038     1.0  0.75262  0.97096  0.52401  1.0000
  H   H3039     1.0  0.93100  0.99624  0.79269  1.0000
  H   H3040     1.0  0.92935  0.98573  0.74606  1.0000
  H   H3041     1.0  0.57224  0.76460  0.90411  1.0000
  H   H3042     1.0  0.61813  0.76654  0.86051  1.0000
  H   H3043     1.0  0.94261  0.97018  0.71215  1.0000
  H   H3044     1.0  0.50682  0.84927  0.00183  1.0000
  S   S383      1.0  0.53956  0.99368  0.67705  1.0000
  C   C1718     1.0  0.56690  0.99724  0.67666  1.0000
  C   C1719     1.0  0.72910  0.79019  0.65219  1.0000
  H   H3045     1.0  0.74557  0.75723  0.55693  1.0000
  H   H3046     1.0  0.72748  0.81260  0.60391  1.0000
  H   H3047     1.0  0.51899  0.75644  0.97735  1.0000
  H   H3048     1.0  0.72956  0.96410  0.50633  1.0000
  C   C1720     1.0  0.90866  0.77498  0.80642  1.0000
  H   H3049     1.0  0.99837  0.94050  0.74064  1.0000
  H   H3050     1.0  0.90480  0.98199  0.67849  1.0000
  Fe  Fe192     1.0  0.51878  0.99893  0.71333  1.0000
  H   H3051     1.0  0.53801  0.88085  0.99728  1.0000
  C   C1721     1.0  0.95217  0.76587  0.86240  1.0000
  H   H3052     1.0  0.68940  0.79962  0.66000  1.0000
  H   H3053     1.0  0.60767  0.96400  0.52972  1.0000
  H   H3054     1.0  0.98097  0.88528  0.76148  1.0000
  H   H3055     1.0  0.98827  0.85432  0.78887  1.0000
  H   H3056     1.0  0.92416  0.00034  0.68563  1.0000
  H   H3057     1.0  0.95423  0.98077  0.66706  1.0000
  H   H3058     1.0  0.59564  0.76321  0.82763  1.0000
  C   C1722     1.0  0.51174  0.89926  0.78637  1.0000
  H   H3059     1.0  0.72916  0.77513  0.66336  1.0000
  H   H3060     1.0  0.56474  0.77156  0.80179  1.0000
  H   H3061     1.0  0.75937  0.99872  0.56127  1.0000
  H   H3062     1.0  0.89648  0.00148  0.77180  1.0000
  C   C1723     1.0  0.58019  0.76257  0.83787  1.0000
  C   C1724     1.0  0.91959  0.99896  0.73895  1.0000
  H   H3063     1.0  0.91152  0.88055  0.99699  1.0000
  H   H3064     1.0  0.50712  0.92855  0.76523  1.0000
  H   H3065     1.0  0.72271  0.75807  0.62465  1.0000
  N   N96       1.0  0.90258  0.75264  0.81194  1.0000
  H   H3066     1.0  0.98862  0.78184  0.99123  1.0000
  C   C1725     1.0  0.59974  0.00137  0.69881  1.0000
  C   C1726     1.0  0.59993  0.99815  0.65147  1.0000
  S   S384      1.0  0.50704  0.82507  0.87751  1.0000
  H   H3067     1.0  0.88280  0.76676  0.88887  1.0000
  H   H3068     1.0  0.84071  0.76333  0.76296  1.0000
  H   H3069     1.0  0.64500  0.75527  0.82671  1.0000
  H   H3070     1.0  0.96406  0.82158  0.00237  1.0000
  H   H3071     1.0  0.86119  0.75435  0.83831  1.0000
  C   C1727     1.0  0.73593  0.75437  0.57511  1.0000
  H   H3072     1.0  0.68864  0.75330  0.64425  1.0000
  C   C1728     1.0  0.52140  0.84058  0.00206  1.0000
