data_image0
_chemical_formula_structural       CHFeNSH3S2FeSHFeS2FeSFeS4HSH2SHFeS2FeS2FeSFeS3C2H2C2H3C6H4C6H4C2HC6H4C6H2CH2C6H4NC11H25NC8HCHCH2FeH12CH11NC10H21C2H2FeH4CHC2H4CH3C2H7CH4CH2CHFeC2H2FeHSC3HSHCH2CSNH6CH3C2H6FeH2C2H2C3HC2HSC2H3CH3CH3CHC2H5CH11CHCH3CHCSFeS2FeS2FeSFeS4H2SH2FeHSH2S3FeS2FeS2FeHFeS3C6H4C2H2C7H4C5H4C6H4C7H3C6H4NC12H35CH4CNH10CHCH2CHC2H3FeH2C2H2C2HCHCSH8CH2NHCHCHCNHCHCHCH4CH5C3HFe2HCH3FeHC2HCHC2H7CH2C7H3C3H5C2H3CH4CSH2C3HC2H2CH2C2HCH3CH5NH6CH2SHSH3CH2NH11C2H2SH2CSCHS2FeS2FeS2FeSFeS3H3SHSFeSHFe2SH2FeS2FeS2FeSFeCS2H2C6H6C8H3C4H5C6H4C6H4C6H4CHCH7CH3CH2CNC11H13FeH8CH8CH3C2H5CSHCHCHCNH5CHFeCNHC3HCH4SCHCH2CH3C3HSH4C2H3C2HCH2CH2NH4CH2CHC2H7CH2CH3CHCH2C2HCH3FeH3C2H2SH6C2HCHCH2CH3CH2CH7CS2HC2HCH5CH4CN2CH4FeS2FeS2FeSFeS3H2SFeCSH5S2FeS2FeS2FeSFeS3CHC2HC3H5C6H4FeHC4H4C6H4C6H4C6H4C2H2CH3CH3C2H6C2H3SH2CFeCH2CH3SH7FeHC2H2CH4CH2NC12H31C2H3CH2CNHNH3CHCHCHC2HC2H4C2H2CH2NC2HC3HC3H8CH4CH5NC11SH12CH4FeH3CH2C2HC2H3CH2CHNCH7C3HCH3CSH5CH6CHC2HCH8C2H2CH4CH2CH3SH3SCH4SH2NH2FeS2FeS2FeSFeS3FeS2FeS2FeSFeS4CSCHS2H3CH3C4HCH3C6H4C8H4C6H4C6H5CHCH2CH2CH2CH2CHC2H3CH6CH5CHCH4CHCH2C3H7CHCHCH2CH2CHCH2CH3CHC2HCSHNCH6C2H7C2H3CH5C2H2CHNC3NCH2C2H6FeH6CNH2CH8CH4CHNC12H23CHFeCH8C2HC2H2C3H6C2HCHC2NH4FeSH2SHFeS2FeS2FeSFeS3FeSHFeS2FeSFeS3CSH5C4NH3C6H4C6H6C6H4C6H4NC3HC5H6CH8CHC2H2C2H3CH8SH8CHCHCH2C2HSCH2CH7NCH8CHSFeC3H4CHSH2CH6CH8C3H5C2HC2HNH2C2H2C3H4CHCH4CH5CH6CH2C2FeCH3CH3CHC2H3C2H3C2H2CH3CHCH2C4H3CHC2NH2CHNC3H2CH2CH7CH6CH4C3S2HCSFeS2FeS2FeHFeS3FeS2FeSCFeSFeS3CH3CNC4HC2H4C6H4C6H4C6H4C6H5NH4C3HCHSC2NH2CH7SHSH7C2HC3HCH6CH2C2H3CHFeCH3C3H2CH3C2H2CFeHCH5FeH2NCH3C4HCH3CHCH8CH2CHCHCNHCH4SH7CHCH3CH3NCHCHNC3H2CH8CH9CHCH2C3H2CH2CH4CHCH5CH2CH4C2HCH3CHC2HSHCH5C3H16CHCH5CHCHSFeS2FeS2FeS2FeSFeS3FeS2FeS2FeSFeS4H2C2H2C2HC2HC6H4C6H4C6H4C6H10C2H3C3H4CHCHCH2C2H4CH6FeH4C2H2NHC2HCH3CHNCHC3H4CH2SH10C4H2C3H3C5HCH6C3HC3HNHNH4CH3CHNC9HC2H31CHCH6CH4CH7CH3C2HCH6C2H3CH7CHC3H5SH2SFeS2FeS2FeSFeS3FeSCFeS2FeSFeS3HC3HC2HC2HC6H4C6H4C6H4C6H4C2H6CFeHCHNH12CH3CH2CH3C2H3CH8SHCH8CHC4H2C2H2C3H2CH2C2H5CHCH2FeH3SCH3C2HCH6CH2CH4CNCH2SCH2CH4CH2CH11CH5CHFeHCH3CHNC3H2CHCH3CH2CH2N2HC3H7CH2CH2C3H5C3H2NHNHC4H5C3HCH8CHC2H3CSH2CHCSH6C2H3CHSHFeHSFeS2FeS2FeSFeS3FeSHFeS2FeSFeS4C4HCHCH2C6H4C6H4C6H4C6H18C3H7C2HCHCH2CHCHCH5C4H5C2H3CH10C2H3CH10CNSCNC10HCH19CHCH7SH7CHSFeHCH4CH6NCH2CHNCH3CH2CHNHC3H3FeNC7H2CH2CH2CHCHCHCHCH2CHCHCHCH3CH2CHFeS2FeS2FeSFeS3FeSCFeS2FeSFeS4H2SFeSHC3H2CH3C6H4C6H4C6H4C6H6CH5CH2C2H3NHCH3CNH3CHCNH5C7H6CH4CH7CHSC2H3SCFeC4HCH6C2HC2HCSHCH3CHCH3CHCH5C3H5CH2CNC2H2CH2C2HCH4CHC2H2C2HC2H2CH5CHCH2CH2C2H5NC7HCH16NH7C2H2CHCH2C2HCHSH2CHCH6FeH5CH3CHCHC2H12C2HC2SCHSHFeS2FeS2FeSFeS3FeS2FeS2FeHFeS4C6H4C6H4C6H4C6H4C6H8CH8SCH3NHCH4C4H2FeCH3C2HC2H8CHNC4HC3H18C2H12SH7C4H6FeHCH4C2H4SCH2C2H4NC7H2CHCH3NH6CH3CHSH5CHCH3C2HCHFeH2C2H5CH6CFeS2FeS2FeSFeS3FeS3HSHCSFeSFeCHFeS2FeS2FeCFeS3C6H4C6H3C6H4C6H4C6H6CH2C5H9CH3SHNC12H25NH3C3H4CH2CH6C3NH4SH6CH2CH2CH3CH2CH4CHCH2CFeH5CH2CH3C2HC3H8CHC3H5NCH6CNHC2H4CHSH8CH4CHCH2CHCHFeCHC5H3CH4CSHCH3NHCHCSH4C3HSHC2H3SCH3CNS2FeS2FeS2FeSFeS3HSHCSH2SCFeSH2FeS2FeS2FeSFeS4C6H5C6H4C6H4C6H4C6H4NCH2C5H3CHC2HCH4C2HC2H8CH3CH2CH3CHCH2CHNHNC11H14CH2C3H11CH6CH4C3H7CH5FeHCHCH8C3NH2CHCHC3H3CHCH2CHC3HCH2CH7CH3CH5CH2CHCHCH2CH9CH2CH4CH3CHCH3FeH5CHCH4CNH4CFeH2CHCHNC3H3C2H4C2HC2HC2H5CH3SCH6CH2FeH5CHSCHSHFeSHCFeS2FeS2FeSFeS3HFeS2FeS2FeSFeS3HS2CHC7H4C6H4C6H4C6H5C6H4C2HC7H8CH3CH2CH4CH2CH3CH2CH2CFeHC2FeHCHCH4C2HCH5CH2CH5CHCH3NC10HCH30SC2H3CH2CHCH3NHCFe2H2CH2CH4SC5H2C2H4C2H4CH3NH2SH9C2HCNHNH2S2C2HC2H4CH2CH5CH5CHCH3CH3CH11C2H8C2HC4SH3NC2H2C2HNHCHFeS2FeS2FeSFeS3HS3CSHCSFeSFeH2FeS2FeS2FeSFeHS2C6H4C6H3C6H4C6H4C6H5C2H2CH2C4H3C3H4CH3CH2CHCH2C2H5C2HC2H2NHFeH11CH2CH6NCH7NHC4HCH2C2H6CH8CHCFeH4CHCSCFeCHNH2CH3C2H2CH4C2H3CH6CH7C3HCH4CHCH2C2HCHC2H5SH3CH5CH2CH5C4H3CHCH4SCH2C3HC2HNHSH3C
_chemical_formula_sum              "C1728 H3072 Fe192 N96 S384"
_cell_length_a       53.5843
_cell_length_b       36.8574
_cell_length_c       103.399
_cell_angle_alpha    88.7713
_cell_angle_beta     96.7581
_cell_angle_gamma    87.9507

_space_group_name_H-M_alt    "P 1"
_space_group_IT_number       1

loop_
  _space_group_symop_operation_xyz
  'x, y, z'

loop_
  _atom_site_type_symbol
  _atom_site_label
  _atom_site_symmetry_multiplicity
  _atom_site_fract_x
  _atom_site_fract_y
  _atom_site_fract_z
  _atom_site_occupancy
  C   C1        1.0  0.19408  0.42225  0.04439  1.0000
  H   H1        1.0  0.26863  0.11157  0.20690  1.0000
  Fe  Fe1       1.0  0.34151  0.10882  0.21250  1.0000
  N   N1        1.0  0.99355  0.13314  0.03064  1.0000
  S   S1        1.0  0.31281  0.15331  0.20437  1.0000
  H   H2        1.0  0.39677  0.49528  0.19638  1.0000
  H   H3        1.0  0.04175  0.22351  0.20857  1.0000
  H   H4        1.0  0.25287  0.37721  0.07174  1.0000
  S   S2        1.0  0.37203  0.07949  0.20317  1.0000
  S   S3        1.0  0.32521  0.05635  0.21844  1.0000
  Fe  Fe2       1.0  0.28751  0.43265  0.16640  1.0000
  S   S4        1.0  0.24537  0.42404  0.16365  1.0000
  H   H5        1.0  0.21833  0.48427  0.08554  1.0000
  Fe  Fe3       1.0  0.29976  0.35424  0.17714  1.0000
  S   S5        1.0  0.25918  0.34129  0.17536  1.0000
  S   S6        1.0  0.33187  0.31336  0.18420  1.0000
  Fe  Fe4       1.0  0.25516  0.36918  0.15553  1.0000
  S   S7        1.0  0.23487  0.33141  0.14049  1.0000
  Fe  Fe5       1.0  0.25257  0.39619  0.18350  1.0000
  S   S8        1.0  0.23240  0.39658  0.20167  1.0000
  S   S9        1.0  0.29658  0.37950  0.15698  1.0000
  S   S10       1.0  0.29390  0.40774  0.18661  1.0000
  S   S11       1.0  0.12275  0.45540  0.20979  1.0000
  H   H6        1.0  0.05936  0.28147  0.21708  1.0000
  S   S12       1.0  0.24612  0.43169  0.00699  1.0000
  H   H7        1.0  0.17593  0.36987  0.04367  1.0000
  H   H8        1.0  0.25826  0.20098  0.03927  1.0000
  S   S13       1.0  0.20068  0.07022  0.99550  1.0000
  H   H9        1.0  0.24917  0.24691  0.04304  1.0000
  Fe  Fe6       1.0  0.17406  0.29163  0.06482  1.0000
  S   S14       1.0  0.13755  0.31174  0.05337  1.0000
  S   S15       1.0  0.19144  0.33149  0.07993  1.0000
  Fe  Fe7       1.0  0.17781  0.22615  0.04651  1.0000
  S   S16       1.0  0.14160  0.24209  0.03408  1.0000
  S   S17       1.0  0.20531  0.17935  0.04309  1.0000
  Fe  Fe8       1.0  0.15611  0.29885  0.03550  1.0000
  S   S18       1.0  0.15296  0.33853  0.01820  1.0000
  Fe  Fe9       1.0  0.12595  0.25364  0.05301  1.0000
  S   S19       1.0  0.08898  0.23526  0.05997  1.0000
  S   S20       1.0  0.19309  0.28238  0.04679  1.0000
  S   S21       1.0  0.16166  0.23391  0.06556  1.0000
  C   C2        1.0  0.05661  0.24011  0.05344  1.0000
  C   C3        1.0  0.03824  0.22593  0.06063  1.0000
  H   H10       1.0  0.21983  0.49733  0.22369  1.0000
  H   H11       1.0  0.07924  0.35899  0.08226  1.0000
  C   C4        1.0  0.02284  0.26053  0.03669  1.0000
  C   C5        1.0  0.04869  0.25772  0.04146  1.0000
  H   H12       1.0  0.04405  0.21243  0.06995  1.0000
  H   H13       1.0  0.41941  0.49949  0.21696  1.0000
  H   H14       1.0  0.06248  0.26888  0.03581  1.0000
  C   C6        1.0  0.20257  0.09989  0.00894  1.0000
  C   C7        1.0  0.18249  0.12510  0.00985  1.0000
  C   C8        1.0  0.18297  0.14945  0.02022  1.0000
  C   C9        1.0  0.20355  0.14881  0.02990  1.0000
  C   C10       1.0  0.22373  0.12382  0.02896  1.0000
  C   C11       1.0  0.22330  0.09954  0.01854  1.0000
  H   H15       1.0  0.16635  0.12562  0.00249  1.0000
  H   H16       1.0  0.16730  0.16843  0.02079  1.0000
  H   H17       1.0  0.23980  0.12314  0.03636  1.0000
  H   H18       1.0  0.23891  0.08041  0.01799  1.0000
  C   C12       1.0  0.22014  0.40485  0.00910  1.0000
  C   C13       1.0  0.22399  0.37335  0.01707  1.0000
  C   C14       1.0  0.20358  0.35262  0.01978  1.0000
  C   C15       1.0  0.17912  0.36303  0.01447  1.0000
  C   C16       1.0  0.17535  0.39383  0.00613  1.0000
  C   C17       1.0  0.19575  0.41479  0.00349  1.0000
  H   H19       1.0  0.24284  0.36528  0.02132  1.0000
  H   H20       1.0  0.20679  0.32864  0.02601  1.0000
  H   H21       1.0  0.15649  0.40196  0.00189  1.0000
  H   H22       1.0  0.19254  0.43893  0.99729  1.0000
  C   C18       1.0  0.01028  0.36192  0.22099  1.0000
  C   C19       1.0  0.02247  0.36232  0.20975  1.0000
  H   H23       1.0  0.04035  0.37512  0.20984  1.0000
  C   C20       1.0  0.22370  0.33192  0.12352  1.0000
  C   C21       1.0  0.21446  0.29976  0.11793  1.0000
  C   C22       1.0  0.20497  0.29878  0.10460  1.0000
  C   C23       1.0  0.20428  0.33017  0.09669  1.0000
  C   C24       1.0  0.21368  0.36224  0.10226  1.0000
  C   C25       1.0  0.22338  0.36314  0.11556  1.0000
  H   H24       1.0  0.21465  0.27539  0.12396  1.0000
  H   H25       1.0  0.19824  0.27374  0.10047  1.0000
  H   H26       1.0  0.21340  0.38667  0.09629  1.0000
  H   H27       1.0  0.23039  0.38806  0.11969  1.0000
  C   C26       1.0  0.20070  0.40973  0.20282  1.0000
  C   C27       1.0  0.18636  0.43150  0.19324  1.0000
  C   C28       1.0  0.16210  0.44449  0.19528  1.0000
  C   C29       1.0  0.15190  0.43530  0.20678  1.0000
  C   C30       1.0  0.16582  0.41220  0.21607  1.0000
  C   C31       1.0  0.19022  0.39989  0.21416  1.0000
  H   H28       1.0  0.19426  0.43923  0.18447  1.0000
  H   H29       1.0  0.19426  0.23133  0.98804  1.0000
  C   C32       1.0  0.21572  0.42870  0.06716  1.0000
  H   H30       1.0  0.20116  0.38298  0.22159  1.0000
  H   H31       1.0  0.33553  0.16966  0.17138  1.0000
  C   C33       1.0  0.32669  0.26948  0.19047  1.0000
  C   C34       1.0  0.30319  0.26018  0.19381  1.0000
  C   C35       1.0  0.29933  0.22458  0.19815  1.0000
  C   C36       1.0  0.31910  0.19815  0.19955  1.0000
  C   C37       1.0  0.34283  0.20768  0.19657  1.0000
  C   C38       1.0  0.34656  0.24316  0.19199  1.0000
  H   H32       1.0  0.28794  0.28043  0.19298  1.0000
  H   H33       1.0  0.28088  0.21753  0.20039  1.0000
  H   H34       1.0  0.35803  0.18736  0.19738  1.0000
  H   H35       1.0  0.36479  0.25009  0.18936  1.0000
  N   N2        1.0  0.26997  0.22667  0.15497  1.0000
  C   C39       1.0  0.28440  0.25148  0.14699  1.0000
  C   C40       1.0  0.24977  0.20822  0.14624  1.0000
  C   C41       1.0  0.25702  0.25003  0.16421  1.0000
  C   C42       1.0  0.28706  0.19924  0.16307  1.0000
  C   C43       1.0  0.30441  0.17481  0.15573  1.0000
  C   C44       1.0  0.30501  0.27365  0.15467  1.0000
  C   C45       1.0  0.23911  0.23040  0.17261  1.0000
  C   C46       1.0  0.25541  0.19918  0.13225  1.0000
  C   C47       1.0  0.23489  0.17636  0.12531  1.0000
  C   C48       1.0  0.31996  0.29443  0.14543  1.0000
  C   C49       1.0  0.22631  0.25732  0.18100  1.0000
  H   H36       1.0  0.27109  0.27131  0.14122  1.0000
  H   H37       1.0  0.29373  0.23622  0.13967  1.0000
  H   H38       1.0  0.24442  0.18278  0.15105  1.0000
  H   H39       1.0  0.23223  0.22587  0.14470  1.0000
  H   H40       1.0  0.24595  0.27273  0.15870  1.0000
  H   H41       1.0  0.27104  0.26299  0.17120  1.0000
  H   H42       1.0  0.29903  0.21301  0.17086  1.0000
  H   H43       1.0  0.27589  0.18032  0.16837  1.0000
  H   H44       1.0  0.31581  0.19090  0.14960  1.0000
  H   H45       1.0  0.29302  0.15572  0.14959  1.0000
  H   H46       1.0  0.29644  0.29407  0.16069  1.0000
  H   H47       1.0  0.31854  0.25585  0.16107  1.0000
  H   H48       1.0  0.24962  0.20982  0.17932  1.0000
  H   H49       1.0  0.22409  0.21675  0.16643  1.0000
  H   H50       1.0  0.25592  0.22469  0.12635  1.0000
  H   H51       1.0  0.27365  0.18419  0.13222  1.0000
  H   H52       1.0  0.21629  0.19105  0.12469  1.0000
  H   H53       1.0  0.23913  0.17104  0.11524  1.0000
  H   H54       1.0  0.23399  0.14987  0.13053  1.0000
  H   H55       1.0  0.33404  0.31088  0.15120  1.0000
  H   H56       1.0  0.33008  0.27534  0.13950  1.0000
  H   H57       1.0  0.30725  0.31308  0.13886  1.0000
  H   H58       1.0  0.21534  0.27873  0.17480  1.0000
  H   H59       1.0  0.21326  0.24287  0.18672  1.0000
  H   H60       1.0  0.24050  0.27037  0.18792  1.0000
  N   N3        1.0  0.22544  0.24169  0.00274  1.0000
  C   C50       1.0  0.19820  0.23368  0.99880  1.0000
  C   C51       1.0  0.24161  0.21610  0.99576  1.0000
  C   C52       1.0  0.23087  0.23658  0.01733  1.0000
  C   C53       1.0  0.23097  0.28020  0.99916  1.0000
  C   C54       1.0  0.02957  0.24539  0.21202  1.0000
  C   C55       1.0  0.17848  0.26107  0.00328  1.0000
  C   C56       1.0  0.25864  0.24018  0.02321  1.0000
  C   C57       1.0  0.98812  0.32965  0.19804  1.0000
  H   H61       1.0  0.21624  0.48630  0.03989  1.0000
  C   C58       1.0  0.24117  0.17533  0.99982  1.0000
  H   H62       1.0  0.19752  0.41732  0.03415  1.0000
  C   C59       1.0  0.26210  0.23011  0.03775  1.0000
  H   H63       1.0  0.19393  0.20666  0.00282  1.0000
  H   H64       1.0  0.02610  0.30120  0.07034  1.0000
  Fe  Fe10      1.0  0.35793  0.02691  0.21083  1.0000
  H   H65       1.0  0.26152  0.22434  0.99690  1.0000
  H   H66       1.0  0.22443  0.20986  0.02048  1.0000
  H   H67       1.0  0.21977  0.25681  0.02234  1.0000
  H   H68       1.0  0.22136  0.29961  0.00519  1.0000
  H   H69       1.0  0.25136  0.28499  0.00153  1.0000
  H   H70       1.0  0.14191  0.43857  0.04477  1.0000
  H   H71       1.0  0.01488  0.08201  0.03317  1.0000
  H   H72       1.0  0.18051  0.26274  0.01404  1.0000
  H   H73       1.0  0.01357  0.23320  0.21625  1.0000
  H   H74       1.0  0.26442  0.26861  0.02215  1.0000
  H   H75       1.0  0.27160  0.22207  0.01849  1.0000
  H   H76       1.0  0.23646  0.12264  0.20057  1.0000
  C   C60       1.0  0.25801  0.15190  0.99213  1.0000
  H   H77       1.0  0.23011  0.15709  0.22001  1.0000
  H   H78       1.0  0.27373  0.31743  0.06861  1.0000
  H   H79       1.0  0.22665  0.36728  0.04380  1.0000
  H   H80       1.0  0.24335  0.09466  0.21517  1.0000
  H   H81       1.0  0.06697  0.27786  0.08080  1.0000
  H   H82       1.0  0.01704  0.27376  0.02732  1.0000
  H   H83       1.0  0.40797  0.16968  0.22052  1.0000
  H   H84       1.0  0.26735  0.37581  0.05683  1.0000
  H   H85       1.0  0.40592  0.16124  0.19709  1.0000
  H   H86       1.0  0.11612  0.31377  0.21942  1.0000
  H   H87       1.0  0.28175  0.23466  0.04193  1.0000
  N   N4        1.0  0.10719  0.32140  0.09262  1.0000
  C   C61       1.0  0.12917  0.34383  0.08994  1.0000
  C   C62       1.0  0.11406  0.28128  0.09210  1.0000
  C   C63       1.0  0.08605  0.33024  0.08185  1.0000
  C   C64       1.0  0.09785  0.33032  0.10543  1.0000
  C   C65       1.0  0.11749  0.32735  0.11769  1.0000
  C   C66       1.0  0.12458  0.38568  0.08975  1.0000
  C   C67       1.0  0.14154  0.26873  0.09707  1.0000
  C   C68       1.0  0.14411  0.22742  0.09882  1.0000
  C   C69       1.0  0.10650  0.34231  0.12958  1.0000
  C   C70       1.0  0.14882  0.40528  0.08839  1.0000
  H   H88       1.0  0.13530  0.33647  0.08038  1.0000
  H   H89       1.0  0.14593  0.33755  0.09710  1.0000
  H   H90       1.0  0.10110  0.26495  0.09734  1.0000
  H   H91       1.0  0.11134  0.27212  0.08185  1.0000
  H   H92       1.0  0.08875  0.35801  0.10492  1.0000
  H   H93       1.0  0.08273  0.31189  0.10747  1.0000
  H   H94       1.0  0.13448  0.34275  0.11647  1.0000
  H   H95       1.0  0.12296  0.29843  0.11999  1.0000
  H   H96       1.0  0.11078  0.39471  0.08136  1.0000
  H   H97       1.0  0.11765  0.39476  0.09889  1.0000
  H   H98       1.0  0.15406  0.27701  0.08979  1.0000
  H   H99       1.0  0.14861  0.28071  0.10643  1.0000
  H   H100      1.0  0.16423  0.21903  0.10138  1.0000
  H   H101      1.0  0.13343  0.21814  0.10677  1.0000
  H   H102      1.0  0.13693  0.21401  0.08967  1.0000
  H   H103      1.0  0.08964  0.32732  0.13151  1.0000
  H   H104      1.0  0.12075  0.33912  0.13829  1.0000
  H   H105      1.0  0.10126  0.37167  0.12806  1.0000
  H   H106      1.0  0.16317  0.39838  0.09681  1.0000
  H   H107      1.0  0.15643  0.39752  0.07926  1.0000
  H   H108      1.0  0.14497  0.43510  0.08806  1.0000
  C   C71       1.0  0.01139  0.34626  0.19833  1.0000
  C   C72       1.0  0.22823  0.33220  0.98250  1.0000
  H   H109      1.0  0.02089  0.34677  0.18966  1.0000
  H   H110      1.0  0.25455  0.48378  0.02862  1.0000
  Fe  Fe11      1.0  0.10690  0.44029  0.22848  1.0000
  H   H111      1.0  0.99856  0.21810  0.06161  1.0000
  H   H112      1.0  0.46637  0.49921  0.21801  1.0000
  H   H113      1.0  0.25495  0.17546  0.21177  1.0000
  H   H114      1.0  0.42295  0.20188  0.19497  1.0000
  C   C73       1.0  0.24969  0.15234  0.21780  1.0000
  H   H115      1.0  0.03593  0.34739  0.07144  1.0000
  C   C74       1.0  0.01182  0.15943  0.02595  1.0000
  C   C75       1.0  0.01236  0.22910  0.05592  1.0000
  H   H116      1.0  0.00161  0.11097  0.07150  1.0000
  H   H117      1.0  0.05127  0.20320  0.02254  1.0000
  H   H118      1.0  0.05343  0.31055  0.09088  1.0000
  H   H119      1.0  0.04578  0.12485  0.03256  1.0000
  C   C76       1.0  0.25500  0.32473  0.06322  1.0000
  H   H120      1.0  0.48294  0.13242  0.22925  1.0000
  H   H121      1.0  0.29593  0.00338  0.20078  1.0000
  H   H122      1.0  0.14756  0.41540  0.03005  1.0000
  C   C77       1.0  0.04464  0.26839  0.22205  1.0000
  C   C78       1.0  0.17253  0.39747  0.04737  1.0000
  H   H123      1.0  0.36055  0.31680  0.21136  1.0000
  H   H124      1.0  0.47766  0.23983  0.22955  1.0000
  H   H125      1.0  0.13234  0.39254  0.04234  1.0000
  H   H126      1.0  0.14856  0.22242  0.00325  1.0000
  H   H127      1.0  0.99884  0.03050  0.01280  1.0000
  H   H128      1.0  0.27789  0.15978  0.99404  1.0000
  H   H129      1.0  0.17711  0.45170  0.06651  1.0000
  C   C79       1.0  0.41415  0.27523  0.22900  1.0000
  H   H130      1.0  0.01163  0.15814  0.01520  1.0000
  H   H131      1.0  0.17145  0.39465  0.05797  1.0000
  H   H132      1.0  0.10065  0.25273  0.22408  1.0000
  H   H133      1.0  0.21542  0.34885  0.98792  1.0000
  C   C80       1.0  0.23864  0.43728  0.04770  1.0000
  H   H134      1.0  0.25694  0.12291  0.99516  1.0000
  H   H135      1.0  0.44784  0.19665  0.22519  1.0000
  C   C81       1.0  0.25151  0.36606  0.06181  1.0000
  H   H136      1.0  0.23562  0.21781  0.98509  1.0000
  Fe  Fe12      1.0  0.39464  0.08245  0.22297  1.0000
  C   C82       1.0  0.32277  0.15191  0.16534  1.0000
  C   C83       1.0  0.03971  0.15398  0.03195  1.0000
  H   H137      1.0  0.21162  0.36083  0.05796  1.0000
  H   H138      1.0  0.31248  0.13515  0.17187  1.0000
  Fe  Fe13      1.0  0.24341  0.47778  0.99179  1.0000
  H   H139      1.0  0.43965  0.23519  0.21472  1.0000
  S   S22       1.0  0.27892  0.49153  0.98318  1.0000
  C   C84       1.0  0.25502  0.49500  0.03854  1.0000
  C   C85       1.0  0.22593  0.37715  0.05381  1.0000
  C   C86       1.0  0.99607  0.13419  0.04533  1.0000
  H   H140      1.0  0.19205  0.48348  0.21436  1.0000
  S   S23       1.0  0.30845  0.48258  0.16009  1.0000
  H   H141      1.0  0.43829  0.16283  0.20398  1.0000
  C   C87       1.0  0.37831  0.31619  0.21811  1.0000
  H   H142      1.0  0.25380  0.31226  0.05349  1.0000
  H   H143      1.0  0.29451  0.19908  0.22496  1.0000
  C   C88       1.0  0.00446  0.24617  0.04383  1.0000
  S   S24       1.0  0.43535  0.09875  0.22404  1.0000
  N   N5        1.0  0.21828  0.41709  0.05342  1.0000
  H   H144      1.0  0.28738  0.28322  0.22546  1.0000
  H   H145      1.0  0.26609  0.22476  0.22536  1.0000
  H   H146      1.0  0.33442  0.13348  0.15992  1.0000
  H   H147      1.0  0.18505  0.49532  0.08390  1.0000
  H   H148      1.0  0.23440  0.43576  0.07217  1.0000
  H   H149      1.0  0.14140  0.27985  0.22168  1.0000
  C   C89       1.0  0.26829  0.14717  0.23046  1.0000
  H   H150      1.0  0.19656  0.45068  0.08973  1.0000
  H   H151      1.0  0.20971  0.40561  0.07307  1.0000
  H   H152      1.0  0.18028  0.28869  0.99910  1.0000
  C   C90       1.0  0.05733  0.17411  0.02393  1.0000
  C   C91       1.0  0.23445  0.47891  0.04573  1.0000
  H   H153      1.0  0.25686  0.43355  0.05401  1.0000
  H   H154      1.0  0.09299  0.32721  0.07215  1.0000
  H   H155      1.0  0.39244  0.26799  0.21002  1.0000
  H   H156      1.0  0.24039  0.31335  0.06876  1.0000
  H   H157      1.0  0.07674  0.17251  0.02912  1.0000
  H   H158      1.0  0.24174  0.42581  0.03808  1.0000
  Fe  Fe14      1.0  0.22461  0.02552  0.98700  1.0000
  H   H159      1.0  0.13803  0.26947  0.00228  1.0000
  H   H160      1.0  0.24797  0.17071  0.01029  1.0000
  C   C92       1.0  0.35939  0.48713  0.20142  1.0000
  C   C93       1.0  0.19939  0.47339  0.08287  1.0000
  H   H161      1.0  0.05761  0.16172  0.01425  1.0000
  H   H162      1.0  0.15138  0.46224  0.18803  1.0000
  C   C94       1.0  0.14705  0.41205  0.04072  1.0000
  C   C95       1.0  0.15175  0.24949  0.99893  1.0000
  C   C96       1.0  0.22415  0.29174  0.98463  1.0000
  H   H163      1.0  0.18678  0.45078  0.04414  1.0000
  C   C97       1.0  0.99998  0.09556  0.02609  1.0000
  C   C98       1.0  0.43217  0.21666  0.22187  1.0000
  H   H164      1.0  0.39172  0.33400  0.21387  1.0000
  S   S25       1.0  0.38269  0.02819  0.22996  1.0000
  C   C99       1.0  0.19667  0.46054  0.06884  1.0000
  C   C100      1.0  0.42036  0.17911  0.20183  1.0000
  H   H165      1.0  0.04219  0.16506  0.04191  1.0000
  H   H166      1.0  0.27390  0.48906  0.04399  1.0000
  H   H167      1.0  0.35639  0.46298  0.19525  1.0000
  C   C101      1.0  0.24960  0.11818  0.20964  1.0000
  H   H168      1.0  0.99171  0.16231  0.04839  1.0000
  H   H169      1.0  0.02178  0.26282  0.20348  1.0000
  H   H170      1.0  0.15808  0.40465  0.22491  1.0000
  C   C102      1.0  0.06231  0.30716  0.08181  1.0000
  H   H171      1.0  0.21881  0.49569  0.19558  1.0000
  H   H172      1.0  0.39376  0.20888  0.21183  1.0000
  H   H173      1.0  0.36611  0.47770  0.21154  1.0000
  C   C103      1.0  0.38908  0.27719  0.21983  1.0000
  H   H174      1.0  0.05035  0.31606  0.06102  1.0000
  C   C104      1.0  0.12710  0.29490  0.22665  1.0000
  C   C105      1.0  0.04253  0.31879  0.07045  1.0000
  H   H175      1.0  0.22187  0.16526  0.99793  1.0000
  H   H176      1.0  0.24799  0.33885  0.98582  1.0000
  H   H177      1.0  0.19900  0.48418  0.06239  1.0000
  H   H178      1.0  0.01191  0.45226  0.22075  1.0000
  H   H179      1.0  0.37448  0.26068  0.22356  1.0000
  C   C106      1.0  0.41176  0.19352  0.21439  1.0000
  H   H180      1.0  0.06829  0.22274  0.23052  1.0000
  H   H181      1.0  0.23541  0.49203  0.05532  1.0000
  H   H182      1.0  0.00583  0.18789  0.02782  1.0000
  H   H183      1.0  0.28663  0.13851  0.22725  1.0000
  H   H184      1.0  0.14831  0.24846  0.98815  1.0000
  H   H185      1.0  0.37403  0.32700  0.22758  1.0000
  H   H186      1.0  0.01571  0.12739  0.04962  1.0000
  H   H187      1.0  0.27310  0.01964  0.21116  1.0000
  H   H188      1.0  0.00848  0.09715  0.01677  1.0000
  H   H189      1.0  0.03160  0.28986  0.22497  1.0000
  H   H190      1.0  0.42776  0.28987  0.22367  1.0000
  C   C107      1.0  0.30433  0.26929  0.23087  1.0000
  H   H191      1.0  0.00176  0.47894  0.20620  1.0000
  C   C108      1.0  0.99584  0.46845  0.21548  1.0000
  H   H192      1.0  0.99131  0.49156  0.22162  1.0000
  H   H193      1.0  0.31650  0.25830  0.22376  1.0000
  H   H194      1.0  0.99987  0.01964  0.03005  1.0000
  C   C109      1.0  0.98783  0.03069  0.02126  1.0000
  H   H195      1.0  0.06874  0.02769  0.26312  1.0000
  C   C110      1.0  0.23935  0.26939  0.44701  1.0000
  S   S26       1.0  0.29299  0.42743  0.46866  1.0000
  Fe  Fe15      1.0  0.30932  0.25819  0.41853  1.0000
  S   S27       1.0  0.34009  0.22281  0.42984  1.0000
  S   S28       1.0  0.28546  0.30647  0.42479  1.0000
  Fe  Fe16      1.0  0.30773  0.21136  0.39411  1.0000
  S   S29       1.0  0.33816  0.17311  0.40378  1.0000
  S   S30       1.0  0.29243  0.21036  0.37234  1.0000
  Fe  Fe17      1.0  0.31793  0.17605  0.42159  1.0000
  S   S31       1.0  0.31830  0.12478  0.43437  1.0000
  Fe  Fe18      1.0  0.35891  0.22193  0.41134  1.0000
  S   S32       1.0  0.40126  0.21156  0.40976  1.0000
  S   S33       1.0  0.28590  0.21093  0.41146  1.0000
  S   S34       1.0  0.32953  0.26056  0.40048  1.0000
  S   S35       1.0  0.23190  0.02376  0.44951  1.0000
  H   H196      1.0  0.05091  0.34387  0.27828  1.0000
  H   H197      1.0  0.28578  0.02352  0.45788  1.0000
  S   S36       1.0  0.33790  0.04837  0.25686  1.0000
  H   H198      1.0  0.20663  0.29731  0.45246  1.0000
  H   H199      1.0  0.29293  0.15324  0.45708  1.0000
  Fe  Fe19      1.0  0.11480  0.39188  0.25290  1.0000
  H   H200      1.0  0.27500  0.03738  0.37411  1.0000
  S   S37       1.0  0.14502  0.34869  0.26064  1.0000
  H   H201      1.0  0.45595  0.13221  0.44549  1.0000
  H   H202      1.0  0.17310  0.08619  0.41756  1.0000
  S   S38       1.0  0.13603  0.02161  0.30032  1.0000
  S   S39       1.0  0.12675  0.44869  0.24851  1.0000
  S   S40       1.0  0.07862  0.41264  0.25967  1.0000
  Fe  Fe20      1.0  0.20773  0.09723  0.28461  1.0000
  S   S41       1.0  0.16534  0.10316  0.28069  1.0000
  S   S42       1.0  0.22546  0.09063  0.26579  1.0000
  Fe  Fe21      1.0  0.20812  0.10539  0.31401  1.0000
  S   S43       1.0  0.16595  0.11104  0.31171  1.0000
  S   S44       1.0  0.22638  0.10354  0.33534  1.0000
  Fe  Fe22      1.0  0.16542  0.06461  0.29786  1.0000
  H   H203      1.0  0.17062  0.49469  0.24640  1.0000
  Fe  Fe23      1.0  0.16930  0.14895  0.29471  1.0000
  S   S45       1.0  0.14440  0.20103  0.29412  1.0000
  S   S46       1.0  0.20757  0.05618  0.30114  1.0000
  S   S47       1.0  0.21165  0.14571  0.29764  1.0000
  C   C111      1.0  0.14302  0.30680  0.26925  1.0000
  C   C112      1.0  0.16022  0.27808  0.26748  1.0000
  C   C113      1.0  0.16052  0.24519  0.27476  1.0000
  C   C114      1.0  0.14390  0.24091  0.28408  1.0000
  C   C115      1.0  0.12653  0.26949  0.28576  1.0000
  C   C116      1.0  0.12606  0.30223  0.27840  1.0000
  H   H204      1.0  0.17350  0.28144  0.26047  1.0000
  H   H205      1.0  0.17378  0.22332  0.27327  1.0000
  H   H206      1.0  0.11355  0.26647  0.29294  1.0000
  H   H207      1.0  0.11313  0.32436  0.28009  1.0000
  C   C117      1.0  0.43775  0.12192  0.24934  1.0000
  C   C118      1.0  0.44953  0.13881  0.26037  1.0000
  H   H208      1.0  0.41943  0.11068  0.24957  1.0000
  H   H209      1.0  0.44006  0.14070  0.26903  1.0000
  C   C119      1.0  0.30623  0.05685  0.25953  1.0000
  C   C120      1.0  0.30028  0.06246  0.27223  1.0000
  C   C121      1.0  0.27542  0.07178  0.27448  1.0000
  C   C122      1.0  0.25630  0.07455  0.26403  1.0000
  C   C123      1.0  0.26204  0.06668  0.25147  1.0000
  C   C124      1.0  0.28693  0.05857  0.24917  1.0000
  C   C125      1.0  0.18033  0.48709  0.23793  1.0000
  H   H210      1.0  0.27117  0.07755  0.28422  1.0000
  H   H211      1.0  0.41591  0.31050  0.37393  1.0000
  H   H212      1.0  0.47869  0.20086  0.43517  1.0000
  H   H213      1.0  0.09589  0.21815  0.24974  1.0000
  C   C126      1.0  0.45393  0.28984  0.41524  1.0000
  C   C127      1.0  0.43082  0.27220  0.41435  1.0000
  C   C128      1.0  0.42976  0.23562  0.41106  1.0000
  C   C129      1.0  0.45217  0.21708  0.40866  1.0000
  C   C130      1.0  0.28840  0.16735  0.25129  1.0000
  H   H214      1.0  0.45442  0.31819  0.41772  1.0000
  H   H215      1.0  0.41382  0.28692  0.41619  1.0000
  H   H216      1.0  0.45158  0.18886  0.40601  1.0000
  H   H217      1.0  0.05559  0.19619  0.25531  1.0000
  C   C131      1.0  0.27343  0.18088  0.36227  1.0000
  C   C132      1.0  0.26053  0.15270  0.36741  1.0000
  C   C133      1.0  0.24627  0.12942  0.35902  1.0000
  C   C134      1.0  0.24422  0.13446  0.34538  1.0000
  C   C135      1.0  0.25669  0.16316  0.34024  1.0000
  C   C136      1.0  0.27122  0.18612  0.34864  1.0000
  H   H218      1.0  0.26154  0.14902  0.37786  1.0000
  H   H219      1.0  0.23653  0.10752  0.36309  1.0000
  H   H220      1.0  0.25559  0.16716  0.32980  1.0000
  H   H221      1.0  0.28112  0.20784  0.34455  1.0000
  C   C137      1.0  0.25578  0.05306  0.44601  1.0000
  C   C138      1.0  0.28078  0.04652  0.45129  1.0000
  C   C139      1.0  0.29955  0.06921  0.44775  1.0000
  C   C140      1.0  0.29354  0.09871  0.43897  1.0000
  C   C141      1.0  0.26841  0.10598  0.43399  1.0000
  C   C142      1.0  0.24961  0.08312  0.43748  1.0000
  C   C143      1.0  0.09024  0.28824  0.23977  1.0000
  H   H222      1.0  0.31895  0.06353  0.45170  1.0000
  H   H223      1.0  0.26355  0.12892  0.42735  1.0000
  H   H224      1.0  0.23024  0.08856  0.43346  1.0000
  C   C144      1.0  0.28812  0.33944  0.43723  1.0000
  C   C145      1.0  0.26938  0.36736  0.43690  1.0000
  C   C146      1.0  0.27054  0.39434  0.44642  1.0000
  C   C147      1.0  0.29034  0.39359  0.45653  1.0000
  C   C148      1.0  0.30898  0.36549  0.45695  1.0000
  C   C149      1.0  0.30791  0.33856  0.44737  1.0000
  H   H225      1.0  0.25407  0.36851  0.42907  1.0000
  H   H226      1.0  0.25645  0.41627  0.44573  1.0000
  H   H227      1.0  0.32451  0.36472  0.46465  1.0000
  H   H228      1.0  0.32248  0.31735  0.44777  1.0000
  N   N6        1.0  0.19438  0.24883  0.32904  1.0000
  C   C150      1.0  0.17230  0.27386  0.33104  1.0000
  C   C151      1.0  0.21722  0.25982  0.33786  1.0000
  C   C152      1.0  0.19976  0.25476  0.31512  1.0000
  C   C153      1.0  0.18930  0.20915  0.33121  1.0000
  C   C154      1.0  0.17192  0.20014  0.34180  1.0000
  C   C155      1.0  0.14859  0.27041  0.32101  1.0000
  C   C156      1.0  0.22423  0.23621  0.31137  1.0000
  C   C157      1.0  0.21600  0.25655  0.35272  1.0000
  C   C158      1.0  0.23847  0.27421  0.36027  1.0000
  C   C159      1.0  0.17399  0.15994  0.34580  1.0000
  C   C160      1.0  0.12535  0.28877  0.32566  1.0000
  C   C161      1.0  0.22519  0.23893  0.29665  1.0000
  H   H229      1.0  0.17777  0.30273  0.33055  1.0000
  H   H230      1.0  0.16656  0.27026  0.34091  1.0000
  H   H231      1.0  0.23398  0.24257  0.33630  1.0000
  H   H232      1.0  0.22178  0.28828  0.33543  1.0000
  H   H233      1.0  0.20063  0.28435  0.31279  1.0000
  H   H234      1.0  0.18412  0.24472  0.30822  1.0000
  H   H235      1.0  0.18040  0.19710  0.32207  1.0000
  H   H236      1.0  0.20736  0.19321  0.33359  1.0000
  H   H237      1.0  0.15200  0.20673  0.33799  1.0000
  H   H238      1.0  0.17624  0.21561  0.35076  1.0000
  H   H239      1.0  0.15156  0.28389  0.31162  1.0000
  H   H240      1.0  0.14458  0.24159  0.31908  1.0000
  H   H241      1.0  0.22559  0.20715  0.31445  1.0000
  H   H242      1.0  0.24103  0.24978  0.31602  1.0000
  H   H243      1.0  0.19882  0.26998  0.35566  1.0000
  H   H244      1.0  0.21688  0.22742  0.35581  1.0000
  H   H245      1.0  0.25644  0.26296  0.35737  1.0000
  H   H246      1.0  0.23745  0.30407  0.35846  1.0000
  H   H247      1.0  0.23852  0.26876  0.37089  1.0000
  H   H248      1.0  0.17007  0.14276  0.33719  1.0000
  H   H249      1.0  0.19311  0.15272  0.35072  1.0000
  H   H250      1.0  0.16018  0.15405  0.35270  1.0000
  H   H251      1.0  0.10903  0.28672  0.31805  1.0000
  H   H252      1.0  0.12079  0.27520  0.33474  1.0000
  H   H253      1.0  0.12850  0.31796  0.32744  1.0000
  H   H254      1.0  0.24276  0.22521  0.29419  1.0000
  H   H255      1.0  0.20895  0.22550  0.29136  1.0000
  H   H256      1.0  0.22483  0.26781  0.29330  1.0000
  H   H257      1.0  0.07788  0.32743  0.26154  1.0000
  H   H258      1.0  0.16259  0.05117  0.43657  1.0000
  H   H259      1.0  0.30544  0.12179  0.38973  1.0000
  H   H260      1.0  0.35811  0.02270  0.43412  1.0000
  H   H261      1.0  0.18830  0.33922  0.46383  1.0000
  H   H262      1.0  0.17667  0.06051  0.47795  1.0000
  H   H263      1.0  0.30527  0.03634  0.36860  1.0000
  C   C162      1.0  0.45179  0.33716  0.37440  1.0000
  H   H264      1.0  0.16230  0.05077  0.40678  1.0000
  H   H265      1.0  0.19954  0.11886  0.46175  1.0000
  H   H266      1.0  0.31749  0.04614  0.42377  1.0000
  H   H267      1.0  0.14793  0.00527  0.47550  1.0000
  C   C163      1.0  0.35745  0.04159  0.42556  1.0000
  N   N7        1.0  0.42472  0.23782  0.23331  1.0000
  H   H268      1.0  0.17923  0.41975  0.45704  1.0000
  H   H269      1.0  0.41183  0.29211  0.23760  1.0000
  H   H270      1.0  0.32258  0.49085  0.47573  1.0000
  H   H271      1.0  0.06950  0.17183  0.27724  1.0000
  H   H272      1.0  0.24903  0.33079  0.45923  1.0000
  H   H273      1.0  0.25472  0.04165  0.39148  1.0000
  H   H274      1.0  0.33090  0.09504  0.40951  1.0000
  H   H275      1.0  0.34752  0.11800  0.36194  1.0000
  H   H276      1.0  0.46721  0.05239  0.25220  1.0000
  H   H277      1.0  0.24718  0.06791  0.24341  1.0000
  C   C164      1.0  0.42607  0.33264  0.37915  1.0000
  H   H278      1.0  0.41484  0.23451  0.26055  1.0000
  C   C165      1.0  0.22438  0.28484  0.45748  1.0000
  H   H279      1.0  0.25565  0.29638  0.47132  1.0000
  H   H280      1.0  0.29197  0.19010  0.25799  1.0000
  C   C166      1.0  0.24379  0.22066  0.25273  1.0000
  H   H281      1.0  0.23395  0.14958  0.46333  1.0000
  C   C167      1.0  0.33207  0.14690  0.26170  1.0000
  C   C168      1.0  0.19736  0.43453  0.25318  1.0000
  H   H282      1.0  0.07149  0.28844  0.27125  1.0000
  H   H283      1.0  0.48010  0.22978  0.38258  1.0000
  H   H284      1.0  0.31455  0.10847  0.35930  1.0000
  Fe  Fe24      1.0  0.08893  0.46917  0.25352  1.0000
  H   H285      1.0  0.36031  0.06950  0.42918  1.0000
  H   H286      1.0  0.25981  0.19383  0.47470  1.0000
  C   C169      1.0  0.23980  0.31249  0.46578  1.0000
  C   C170      1.0  0.25006  0.13780  0.47004  1.0000
  H   H287      1.0  0.37367  0.22264  0.26750  1.0000
  H   H288      1.0  0.14023  0.07595  0.41554  1.0000
  C   C171      1.0  0.21799  0.22243  0.25768  1.0000
  C   C172      1.0  0.25820  0.07010  0.39427  1.0000
  H   H289      1.0  0.21861  0.08103  0.39581  1.0000
  C   C173      1.0  0.20959  0.37932  0.45572  1.0000
  H   H290      1.0  0.33557  0.17393  0.26591  1.0000
  C   C174      1.0  0.47362  0.13407  0.23796  1.0000
  S   S48       1.0  0.22152  0.46960  0.46710  1.0000
  H   H291      1.0  0.47591  0.04100  0.23633  1.0000
  H   H292      1.0  0.29252  0.20068  0.46063  1.0000
  H   H293      1.0  0.28348  0.05186  0.41062  1.0000
  H   H294      1.0  0.28530  0.09904  0.40715  1.0000
  H   H295      1.0  0.18260  0.41661  0.24875  1.0000
  H   H296      1.0  0.25804  0.11557  0.46445  1.0000
  H   H297      1.0  0.18457  0.02664  0.42784  1.0000
  H   H298      1.0  0.45688  0.27913  0.37407  1.0000
  C   C175      1.0  0.06667  0.21410  0.26211  1.0000
  H   H299      1.0  0.03410  0.35166  0.26231  1.0000
  H   H300      1.0  0.09622  0.17262  0.26816  1.0000
  N   N8        1.0  0.22562  0.33441  0.47489  1.0000
  H   H301      1.0  0.18695  0.12554  0.47697  1.0000
  C   C176      1.0  0.29388  0.02382  0.37568  1.0000
  H   H302      1.0  0.32381  0.12967  0.26891  1.0000
  C   C177      1.0  0.47632  0.27123  0.41291  1.0000
  H   H303      1.0  0.29232  0.09353  0.37753  1.0000
  C   C178      1.0  0.14629  0.00476  0.42582  1.0000
  N   N9        1.0  0.30701  0.06482  0.39554  1.0000
  H   H304      1.0  0.27907  0.14671  0.25694  1.0000
  C   C179      1.0  0.48695  0.30067  0.35653  1.0000
  H   H305      1.0  0.35028  0.13387  0.25987  1.0000
  C   C180      1.0  0.23693  0.08230  0.40201  1.0000
  H   H306      1.0  0.29813  0.00811  0.39627  1.0000
  C   C181      1.0  0.33197  0.03981  0.41726  1.0000
  H   H307      1.0  0.22869  0.24789  0.44171  1.0000
  H   H308      1.0  0.42824  0.32623  0.38979  1.0000
  H   H309      1.0  0.46579  0.00628  0.24687  1.0000
  H   H310      1.0  0.29117  0.05387  0.23938  1.0000
  C   C182      1.0  0.30813  0.09468  0.38541  1.0000
  H   H311      1.0  0.17115  0.38348  0.44596  1.0000
  H   H312      1.0  0.23651  0.06418  0.41070  1.0000
  H   H313      1.0  0.44883  0.34391  0.36381  1.0000
  H   H314      1.0  0.09941  0.00526  0.26506  1.0000
  H   H315      1.0  0.32345  0.16684  0.24184  1.0000
  C   C183      1.0  0.04265  0.33033  0.26937  1.0000
  C   C184      1.0  0.28414  0.07194  0.40252  1.0000
  C   C185      1.0  0.15966  0.06395  0.41612  1.0000
  H   H316      1.0  0.19538  0.37500  0.47456  1.0000
  Fe  Fe25      1.0  0.06164  0.40711  0.23881  1.0000
  Fe  Fe26      1.0  0.26278  0.46833  0.47405  1.0000
  H   H317      1.0  0.33955  0.06780  0.37669  1.0000
  C   C186      1.0  0.47336  0.15342  0.26027  1.0000
  H   H318      1.0  0.23742  0.16496  0.24720  1.0000
  H   H319      1.0  0.02775  0.31236  0.27202  1.0000
  H   H320      1.0  0.46867  0.28777  0.35371  1.0000
  Fe  Fe27      1.0  0.35058  0.06040  0.23706  1.0000
  H   H321      1.0  0.41452  0.35826  0.37731  1.0000
  C   C187      1.0  0.37902  0.21042  0.25844  1.0000
  C   C188      1.0  0.47652  0.03146  0.24664  1.0000
  H   H322      1.0  0.25102  0.37914  0.47451  1.0000
  C   C189      1.0  0.30690  0.02735  0.38985  1.0000
  H   H323      1.0  0.21695  0.24547  0.26437  1.0000
  C   C190      1.0  0.39857  0.23341  0.25288  1.0000
  C   C191      1.0  0.28070  0.17656  0.45939  1.0000
  H   H324      1.0  0.41502  0.18902  0.24307  1.0000
  H   H325      1.0  0.39011  0.26116  0.25088  1.0000
  H   H326      1.0  0.18908  0.05379  0.46258  1.0000
  H   H327      1.0  0.28629  0.25118  0.24718  1.0000
  H   H328      1.0  0.45423  0.21587  0.24773  1.0000
  H   H329      1.0  0.10129  0.30197  0.24790  1.0000
  H   H330      1.0  0.21563  0.36162  0.44803  1.0000
  C   C192      1.0  0.33288  0.09549  0.37897  1.0000
  H   H331      1.0  0.34789  0.10755  0.38571  1.0000
  H   H332      1.0  0.25789  0.21745  0.26143  1.0000
  C   C193      1.0  0.20374  0.46274  0.24314  1.0000
  C   C194      1.0  0.40660  0.21657  0.24033  1.0000
  C   C195      1.0  0.31440  0.15047  0.24897  1.0000
  C   C196      1.0  0.06322  0.30836  0.26362  1.0000
  C   C197      1.0  0.08400  0.23763  0.25464  1.0000
  C   C198      1.0  0.32967  0.11869  0.36642  1.0000
  C   C199      1.0  0.22296  0.09335  0.47874  1.0000
  H   H333      1.0  0.25785  0.25748  0.45140  1.0000
  H   H334      1.0  0.34743  0.06266  0.40089  1.0000
  H   H335      1.0  0.19124  0.41875  0.44149  1.0000
  C   C200      1.0  0.45551  0.16150  0.44269  1.0000
  C   C201      1.0  0.24558  0.18949  0.24302  1.0000
  C   C202      1.0  0.16469  0.03647  0.42748  1.0000
  H   H336      1.0  0.22461  0.39833  0.45843  1.0000
  H   H337      1.0  0.03566  0.27455  0.25304  1.0000
  H   H338      1.0  0.12697  0.01733  0.42513  1.0000
  H   H339      1.0  0.09197  0.20669  0.28013  1.0000
  H   H340      1.0  0.48325  0.15609  0.42951  1.0000
  C   C203      1.0  0.18632  0.40161  0.44972  1.0000
  C   C204      1.0  0.19714  0.10598  0.47129  1.0000
  H   H341      1.0  0.32979  0.01153  0.41398  1.0000
  H   H342      1.0  0.23934  0.11074  0.40515  1.0000
  H   H343      1.0  0.36190  0.20916  0.25131  1.0000
  C   C205      1.0  0.32991  0.06722  0.40551  1.0000
  H   H344      1.0  0.05343  0.23099  0.26712  1.0000
  H   H345      1.0  0.23139  0.07317  0.47250  1.0000
  H   H346      1.0  0.32501  0.14734  0.36858  1.0000
  H   H347      1.0  0.31508  0.06087  0.28032  1.0000
  C   C206      1.0  0.44971  0.11961  0.23808  1.0000
  S   S49       1.0  0.02322  0.38185  0.23559  1.0000
  H   H348      1.0  0.25685  0.08765  0.38541  1.0000
  H   H349      1.0  0.19063  0.44795  0.26171  1.0000
  C   C207      1.0  0.47126  0.25765  0.23712  1.0000
  C   C208      1.0  0.48057  0.17195  0.43827  1.0000
  C   C209      1.0  0.20378  0.35650  0.46769  1.0000
  H   H350      1.0  0.44017  0.16683  0.43457  1.0000
  C   C210      1.0  0.08210  0.18985  0.27251  1.0000
  C   C211      1.0  0.47527  0.23473  0.40955  1.0000
  H   H351      1.0  0.46043  0.36045  0.37964  1.0000
  H   H352      1.0  0.21994  0.26178  0.46379  1.0000
  C   C212      1.0  0.44806  0.24236  0.24282  1.0000
  H   H353      1.0  0.38683  0.18241  0.26085  1.0000
  H   H354      1.0  0.24257  0.29114  0.43986  1.0000
  C   C213      1.0  0.26930  0.16834  0.47194  1.0000
  C   C214      1.0  0.46872  0.30223  0.37729  1.0000
  H   H355      1.0  0.24601  0.24709  0.24773  1.0000
  C   C215      1.0  0.29688  0.23881  0.23976  1.0000
  H   H356      1.0  0.26582  0.18218  0.45109  1.0000
  H   H357      1.0  0.16187  0.08350  0.46333  1.0000
  H   H358      1.0  0.21486  0.19697  0.26313  1.0000
  C   C216      1.0  0.05251  0.28948  0.25100  1.0000
  H   H359      1.0  0.09749  0.25115  0.26182  1.0000
  H   H360      1.0  0.48293  0.22918  0.36551  1.0000
  H   H361      1.0  0.21437  0.41730  0.25661  1.0000
  H   H362      1.0  0.31456  0.22645  0.24490  1.0000
  H   H363      1.0  0.15700  0.01205  0.45242  1.0000
  N   N10       1.0  0.07079  0.26500  0.24487  1.0000
  H   H364      1.0  0.27088  0.05931  0.47969  1.0000
  H   H365      1.0  0.46693  0.28524  0.23277  1.0000
  H   H366      1.0  0.47265  0.29911  0.38807  1.0000
  H   H367      1.0  0.44401  0.26087  0.25074  1.0000
  H   H368      1.0  0.31230  0.12282  0.24508  1.0000
  H   H369      1.0  0.07990  0.00358  0.24966  1.0000
  C   C217      1.0  0.18020  0.07387  0.46864  1.0000
  H   H370      1.0  0.04500  0.31172  0.24404  1.0000
  H   H371      1.0  0.28499  0.16098  0.47961  1.0000
  S   S50       1.0  0.06973  0.46431  0.23306  1.0000
  H   H372      1.0  0.29221  0.09549  0.47873  1.0000
  S   S51       1.0  0.48641  0.17614  0.27418  1.0000
  H   H373      1.0  0.21917  0.47925  0.24766  1.0000
  H   H374      1.0  0.13708  0.31090  0.23452  1.0000
  H   H375      1.0  0.37297  0.03369  0.41983  1.0000
  C   C218      1.0  0.07972  0.00348  0.26039  1.0000
  H   H376      1.0  0.20278  0.22666  0.24944  1.0000
  H   H377      1.0  0.45579  0.49594  0.23390  1.0000
  N   N11       1.0  0.27129  0.17949  0.23920  1.0000
  H   H378      1.0  0.18632  0.28396  0.47278  1.0000
  H   H379      1.0  0.48097  0.28185  0.33040  1.0000
  H   H380      1.0  0.48401  0.32909  0.35260  1.0000
  H   H381      1.0  0.32650  0.01630  0.38971  1.0000
  H   H382      1.0  0.45117  0.17801  0.45106  1.0000
  H   H383      1.0  0.04046  0.23082  0.23778  1.0000
  H   H384      1.0  0.38908  0.21158  0.23389  1.0000
  H   H385      1.0  0.12196  0.24906  0.23895  1.0000
  H   H386      1.0  0.21076  0.44752  0.23505  1.0000
  H   H387      1.0  0.31500  0.28966  0.23679  1.0000
  H   H388      1.0  0.26206  0.12367  0.23593  1.0000
  C   C219      1.0  0.05632  0.24486  0.23404  1.0000
  C   C220      1.0  0.48536  0.15117  0.24900  1.0000
  H   H389      1.0  0.23242  0.19840  0.23434  1.0000
  H   H390      1.0  0.16700  0.46950  0.23214  1.0000
  S   S52       1.0  0.09708  0.38300  0.23247  1.0000
  H   H391      1.0  0.08094  0.31066  0.23339  1.0000
  H   H392      1.0  0.12470  0.00752  0.44715  1.0000
  C   C221      1.0  0.10984  0.26814  0.23229  1.0000
  S   S53       1.0  0.36488  0.11482  0.23178  1.0000
  C   C222      1.0  0.28161  0.21013  0.23174  1.0000
  H   H393      1.0  0.99810  0.14205  0.52237  1.0000
  S   S54       1.0  0.18661  0.43066  0.49439  1.0000
  S   S55       1.0  0.25719  0.46585  0.49532  1.0000
  Fe  Fe28      1.0  0.16860  0.25189  0.53846  1.0000
  S   S56       1.0  0.13835  0.22844  0.52459  1.0000
  S   S57       1.0  0.19815  0.29104  0.53290  1.0000
  Fe  Fe29      1.0  0.15419  0.20758  0.56186  1.0000
  S   S58       1.0  0.12252  0.18146  0.54948  1.0000
  S   S59       1.0  0.15765  0.19410  0.58380  1.0000
  Fe  Fe30      1.0  0.14996  0.17487  0.53476  1.0000
  S   S60       1.0  0.14798  0.12363  0.52288  1.0000
  Fe  Fe31      1.0  0.11281  0.23644  0.54028  1.0000
  S   S61       1.0  0.07298  0.25948  0.53328  1.0000
  S   S62       1.0  0.18227  0.19717  0.54766  1.0000
  S   S63       1.0  0.14257  0.26376  0.55359  1.0000
  H   H394      1.0  0.44419  0.05529  0.72869  1.0000
  H   H395      1.0  0.17283  0.06707  0.72209  1.0000
  H   H396      1.0  0.12358  0.18095  0.69788  1.0000
  S   S64       1.0  0.12569  0.06268  0.70514  1.0000
  H   H397      1.0  0.18395  0.04670  0.59107  1.0000
  S   S65       1.0  0.33475  0.43975  0.70964  1.0000
  Fe  Fe32      1.0  0.40308  0.40488  0.72023  1.0000
  S   S66       1.0  0.38575  0.40703  0.69918  1.0000
  H   H398      1.0  0.98928  0.17471  0.57003  1.0000
  Fe  Fe33      1.0  0.37023  0.46270  0.70363  1.0000
  Fe  Fe34      1.0  0.35176  0.38382  0.70689  1.0000
  S   S67       1.0  0.32276  0.34373  0.69839  1.0000
  H   H399      1.0  0.35532  0.43361  0.51069  1.0000
  H   H400      1.0  0.16206  0.20944  0.70841  1.0000
  Fe  Fe35      1.0  0.26059  0.11946  0.64665  1.0000
  S   S68       1.0  0.30279  0.11389  0.65046  1.0000
  S   S69       1.0  0.25047  0.13887  0.62525  1.0000
  Fe  Fe36      1.0  0.25636  0.09736  0.67501  1.0000
  S   S70       1.0  0.29849  0.09102  0.68015  1.0000
  S   S71       1.0  0.23796  0.08820  0.69361  1.0000
  Fe  Fe37      1.0  0.29988  0.14365  0.66896  1.0000
  S   S72       1.0  0.32945  0.18611  0.67420  1.0000
  Fe  Fe38      1.0  0.29817  0.06162  0.66133  1.0000
  C   C223      1.0  0.16196  0.06883  0.56825  1.0000
  S   S73       1.0  0.25795  0.15211  0.66478  1.0000
  S   S74       1.0  0.25594  0.06485  0.65656  1.0000
  H   H401      1.0  0.15585  0.32173  0.51481  1.0000
  H   H402      1.0  0.32902  0.47625  0.53519  1.0000
  C   C224      1.0  0.32592  0.29836  0.69307  1.0000
  C   C225      1.0  0.30462  0.27680  0.69182  1.0000
  C   C226      1.0  0.30564  0.24167  0.68668  1.0000
  C   C227      1.0  0.32782  0.22809  0.68233  1.0000
  C   C228      1.0  0.34923  0.24937  0.68380  1.0000
  C   C229      1.0  0.34839  0.28413  0.68925  1.0000
  H   H403      1.0  0.28718  0.28745  0.69481  1.0000
  H   H404      1.0  0.28915  0.22542  0.68585  1.0000
  H   H405      1.0  0.36652  0.23912  0.68051  1.0000
  H   H406      1.0  0.36489  0.30038  0.69010  1.0000
  H   H407      1.0  0.00467  0.14223  0.53995  1.0000
  H   H408      1.0  0.25963  0.31225  0.63844  1.0000
  C   C230      1.0  0.02315  0.14004  0.71311  1.0000
  C   C231      1.0  0.20077  0.03276  0.56761  1.0000
  C   C232      1.0  0.20657  0.08050  0.69636  1.0000
  C   C233      1.0  0.18692  0.07934  0.68622  1.0000
  C   C234      1.0  0.16222  0.07361  0.68904  1.0000
  C   C235      1.0  0.15694  0.06957  0.70199  1.0000
  C   C236      1.0  0.17662  0.07056  0.71210  1.0000
  C   C237      1.0  0.20132  0.07569  0.70928  1.0000
  H   H409      1.0  0.19074  0.08284  0.67624  1.0000
  H   H410      1.0  0.14709  0.07271  0.68116  1.0000
  H   H411      1.0  0.21651  0.07605  0.71714  1.0000
  C   C238      1.0  0.01819  0.23627  0.55639  1.0000
  C   C239      1.0  0.04161  0.23685  0.55141  1.0000
  C   C240      1.0  0.04353  0.25396  0.53938  1.0000
  C   C241      1.0  0.02156  0.26943  0.53225  1.0000
  H   H412      1.0  0.27240  0.46079  0.52723  1.0000
  H   H413      1.0  0.01714  0.22387  0.56587  1.0000
  H   H414      1.0  0.05827  0.22480  0.55704  1.0000
  H   H415      1.0  0.02279  0.28290  0.52296  1.0000
  H   H416      1.0  0.15215  0.37627  0.50001  1.0000
  C   C242      1.0  0.18379  0.17918  0.59520  1.0000
  C   C243      1.0  0.17957  0.16856  0.60791  1.0000
  C   C244      1.0  0.19966  0.15655  0.61730  1.0000
  C   C245      1.0  0.22431  0.15493  0.61407  1.0000
  C   C246      1.0  0.22852  0.16563  0.60136  1.0000
  C   C247      1.0  0.20844  0.17776  0.59200  1.0000
  H   H417      1.0  0.16060  0.16962  0.61053  1.0000
  H   H418      1.0  0.19605  0.14833  0.62699  1.0000
  H   H419      1.0  0.24749  0.16456  0.59875  1.0000
  H   H420      1.0  0.21205  0.18639  0.58236  1.0000
  C   C248      1.0  0.17344  0.09431  0.52005  1.0000
  C   C249      1.0  0.19741  0.09712  0.52683  1.0000
  C   C250      1.0  0.21710  0.07285  0.52439  1.0000
  C   C251      1.0  0.21303  0.04599  0.51502  1.0000
  C   C252      1.0  0.18911  0.04332  0.50817  1.0000
  C   C253      1.0  0.16937  0.06727  0.51074  1.0000
  H   H421      1.0  0.20071  0.11795  0.53395  1.0000
  H   H422      1.0  0.23559  0.07503  0.52971  1.0000
  H   H423      1.0  0.21595  0.19776  0.50873  1.0000
  H   H424      1.0  0.15083  0.06485  0.50550  1.0000
  C   C254      1.0  0.19024  0.39224  0.50528  1.0000
  C   C255      1.0  0.21284  0.38350  0.51312  1.0000
  C   C256      1.0  0.21489  0.35252  0.52151  1.0000
  C   C257      1.0  0.19433  0.33011  0.52229  1.0000
  C   C258      1.0  0.17174  0.33888  0.51445  1.0000
  C   C259      1.0  0.16973  0.36975  0.50602  1.0000
  H   H425      1.0  0.22859  0.40087  0.51282  1.0000
  H   H426      1.0  0.23245  0.34604  0.52753  1.0000
  H   H427      1.0  0.24304  0.17387  0.49232  1.0000
  H   H428      1.0  0.31782  0.23183  0.64999  1.0000
  C   C260      1.0  0.26282  0.10650  0.49154  1.0000
  H   H429      1.0  0.47728  0.30631  0.71232  1.0000
  C   C261      1.0  0.25031  0.26835  0.66195  1.0000
  H   H430      1.0  0.45799  0.26693  0.71000  1.0000
  H   H431      1.0  0.19341  0.05003  0.54690  1.0000
  H   H432      1.0  0.25849  0.13076  0.55781  1.0000
  H   H433      1.0  0.22115  0.22819  0.66035  1.0000
  H   H434      1.0  0.32196  0.41835  0.52436  1.0000
  H   H435      1.0  0.11063  0.07549  0.57107  1.0000
  H   H436      1.0  0.18965  0.10905  0.55662  1.0000
  C   C262      1.0  0.27887  0.29387  0.62224  1.0000
  H   H437      1.0  0.19886  0.24101  0.49092  1.0000
  H   H438      1.0  0.23325  0.37900  0.48789  1.0000
  H   H439      1.0  0.23823  0.15319  0.56810  1.0000
  C   C263      1.0  0.23617  0.18857  0.70362  1.0000
  H   H440      1.0  0.39172  0.00193  0.70631  1.0000
  H   H441      1.0  0.30758  0.50093  0.52355  1.0000
  C   C264      1.0  0.46463  0.00539  0.72450  1.0000
  N   N12       1.0  0.07973  0.34533  0.55926  1.0000
  C   C265      1.0  0.10185  0.34391  0.55146  1.0000
  C   C266      1.0  0.07882  0.30926  0.56639  1.0000
  C   C267      1.0  0.05613  0.34987  0.54969  1.0000
  C   C268      1.0  0.08042  0.37641  0.56860  1.0000
  C   C269      1.0  0.10676  0.38819  0.57463  1.0000
  C   C270      1.0  0.10311  0.37591  0.54159  1.0000
  C   C271      1.0  0.46493  0.28775  0.71701  1.0000
  C   C272      1.0  0.10071  0.29928  0.57716  1.0000
  C   C273      1.0  0.09980  0.25963  0.58171  1.0000
  C   C274      1.0  0.10448  0.41571  0.58532  1.0000
  C   C275      1.0  0.12908  0.37705  0.53689  1.0000
  H   H442      1.0  0.19439  0.00950  0.57329  1.0000
  H   H443      1.0  0.10159  0.31874  0.54567  1.0000
  H   H444      1.0  0.11994  0.34172  0.55788  1.0000
  H   H445      1.0  0.06162  0.30779  0.57138  1.0000
  H   H446      1.0  0.07774  0.28707  0.55925  1.0000
  H   H447      1.0  0.05631  0.32956  0.54187  1.0000
  H   H448      1.0  0.05543  0.37685  0.54459  1.0000
  H   H449      1.0  0.07094  0.40135  0.56373  1.0000
  H   H450      1.0  0.06928  0.36994  0.57674  1.0000
  H   H451      1.0  0.11681  0.40131  0.56710  1.0000
  H   H452      1.0  0.11883  0.36504  0.57893  1.0000
  H   H453      1.0  0.08922  0.37238  0.53288  1.0000
  H   H454      1.0  0.09874  0.40242  0.54586  1.0000
  Fe  Fe39      1.0  0.35521  0.43485  0.72981  1.0000
  H   H455      1.0  0.01119  0.07669  0.52260  1.0000
  H   H456      1.0  0.11934  0.30279  0.57381  1.0000
  H   H457      1.0  0.09911  0.31640  0.58575  1.0000
  H   H458      1.0  0.11535  0.25328  0.58962  1.0000
  H   H459      1.0  0.08166  0.25445  0.58549  1.0000
  H   H460      1.0  0.10219  0.24109  0.57357  1.0000
  H   H461      1.0  0.44851  0.30414  0.71959  1.0000
  H   H462      1.0  0.12350  0.42431  0.58923  1.0000
  C   C276      1.0  0.26699  0.34332  0.49013  1.0000
  H   H463      1.0  0.13400  0.35070  0.53263  1.0000
  H   H464      1.0  0.12914  0.39879  0.52928  1.0000
  H   H465      1.0  0.14366  0.38271  0.54508  1.0000
  H   H466      1.0  0.37761  0.04660  0.68914  1.0000
  H   H467      1.0  0.18685  0.09469  0.59045  1.0000
  H   H468      1.0  0.42486  0.43405  0.51366  1.0000
  H   H469      1.0  0.30958  0.28137  0.66327  1.0000
  H   H470      1.0  0.26885  0.32165  0.60352  1.0000
  C   C277      1.0  0.33098  0.34337  0.65856  1.0000
  H   H471      1.0  0.39869  0.47659  0.52463  1.0000
  H   H472      1.0  0.27651  0.21470  0.62772  1.0000
  H   H473      1.0  0.30491  0.16342  0.62305  1.0000
  C   C278      1.0  0.28059  0.37100  0.49889  1.0000
  C   C279      1.0  0.23223  0.24369  0.66799  1.0000
  H   H474      1.0  0.03064  0.36212  0.56455  1.0000
  H   H475      1.0  0.17774  0.14459  0.71984  1.0000
  H   H476      1.0  0.01790  0.07704  0.54021  1.0000
  H   H477      1.0  0.34394  0.32548  0.66527  1.0000
  H   H478      1.0  0.21891  0.14782  0.71424  1.0000
  C   C280      1.0  0.29342  0.20780  0.63471  1.0000
  S   S75       1.0  0.23825  0.01628  0.51219  1.0000
  H   H479      1.0  0.29681  0.30790  0.62382  1.0000
  C   C281      1.0  0.47912  0.26982  0.72932  1.0000
  H   H480      1.0  0.39123  0.48048  0.50741  1.0000
  C   C282      1.0  0.21688  0.14254  0.50140  1.0000
  H   H481      1.0  0.26201  0.32097  0.49657  1.0000
  C   C283      1.0  0.22204  0.06584  0.59331  1.0000
  N   N13       1.0  0.19010  0.06817  0.57214  1.0000
  H   H482      1.0  0.23095  0.00785  0.54845  1.0000
  H   H483      1.0  0.23255  0.21691  0.69982  1.0000
  H   H484      1.0  0.15397  0.12752  0.56936  1.0000
  H   H485      1.0  0.28145  0.22912  0.66193  1.0000
  H   H486      1.0  0.28783  0.18835  0.64209  1.0000
  C   C284      1.0  0.40501  0.42764  0.51452  1.0000
  H   H487      1.0  0.15385  0.04363  0.57188  1.0000
  Fe  Fe40      1.0  0.21601  0.46936  0.48836  1.0000
  C   C285      1.0  0.01050  0.12996  0.72362  1.0000
  N   N14       1.0  0.28484  0.26785  0.64621  1.0000
  H   H488      1.0  0.15761  0.06917  0.55744  1.0000
  C   C286      1.0  0.44207  0.03222  0.72195  1.0000
  C   C287      1.0  0.19443  0.06880  0.58684  1.0000
  C   C288      1.0  0.28666  0.43835  0.52982  1.0000
  H   H489      1.0  0.34240  0.36290  0.65371  1.0000
  C   C289      1.0  0.29984  0.06108  0.49581  1.0000
  H   H490      1.0  0.16642  0.25599  0.49085  1.0000
  H   H491      1.0  0.19019  0.27373  0.50255  1.0000
  H   H492      1.0  0.28260  0.26814  0.61731  1.0000
  H   H493      1.0  0.24254  0.30351  0.61052  1.0000
  S   S76       1.0  0.32699  0.01635  0.65765  1.0000
  C   C290      1.0  0.99806  0.26839  0.53714  1.0000
  H   H494      1.0  0.99069  0.35585  0.54978  1.0000
  C   C291      1.0  0.01669  0.09387  0.53109  1.0000
  H   H495      1.0  0.26052  0.28303  0.67010  1.0000
  H   H496      1.0  0.28977  0.04435  0.50246  1.0000
  C   C292      1.0  0.11893  0.10040  0.56746  1.0000
  H   H497      1.0  0.25694  0.34416  0.61697  1.0000
  H   H498      1.0  0.12750  0.14480  0.71003  1.0000
  H   H499      1.0  0.00845  0.34721  0.53636  1.0000
  C   C293      1.0  0.26061  0.31726  0.61278  1.0000
  C   C294      1.0  0.20312  0.17500  0.50672  1.0000
  C   C295      1.0  0.23870  0.13441  0.55987  1.0000
  H   H500      1.0  0.36152  0.47862  0.49097  1.0000
  S   S77       1.0  0.08059  0.03772  0.73093  1.0000
  H   H501      1.0  0.32971  0.30558  0.64314  1.0000
  H   H502      1.0  0.18572  0.02249  0.50104  1.0000
  H   H503      1.0  0.20399  0.22859  0.71732  1.0000
  H   H504      1.0  0.25093  0.26943  0.63238  1.0000
  C   C296      1.0  0.19000  0.29504  0.48265  1.0000
  C   C297      1.0  0.31595  0.32085  0.64834  1.0000
  H   H505      1.0  0.04304  0.13339  0.71336  1.0000
  H   H506      1.0  0.21897  0.26036  0.67310  1.0000
  H   H507      1.0  0.20306  0.12116  0.49937  1.0000
  C   C298      1.0  0.22862  0.09764  0.56334  1.0000
  C   C299      1.0  0.31299  0.18826  0.62748  1.0000
  H   H508      1.0  0.36287  0.44107  0.52755  1.0000
  C   C300      1.0  0.00864  0.36111  0.54580  1.0000
  H   H509      1.0  0.30461  0.34025  0.64146  1.0000
  H   H510      1.0  0.23899  0.28835  0.65531  1.0000
  C   C301      1.0  0.29834  0.29547  0.65477  1.0000
  H   H511      1.0  0.19750  0.17587  0.70351  1.0000
  H   H512      1.0  0.00162  0.21390  0.72588  1.0000
  N   N15       1.0  0.34323  0.48654  0.51667  1.0000
  H   H513      1.0  0.24281  0.22439  0.67521  1.0000
  H   H514      1.0  0.14749  0.10194  0.58359  1.0000
  H   H515      1.0  0.19867  0.12511  0.57234  1.0000
  H   H516      1.0  0.25774  0.22660  0.64854  1.0000
  C   C302      1.0  0.21676  0.31010  0.48533  1.0000
  H   H517      1.0  0.31825  0.35891  0.66437  1.0000
  H   H518      1.0  0.31578  0.25563  0.63495  1.0000
  C   C303      1.0  0.37082  0.01858  0.68809  1.0000
  H   H519      1.0  0.32989  0.17999  0.63434  1.0000
  C   C304      1.0  0.26911  0.24615  0.65458  1.0000
  C   C305      1.0  0.26759  0.28614  0.63516  1.0000
  H   H520      1.0  0.31853  0.20602  0.61957  1.0000
  H   H521      1.0  0.25557  0.09092  0.49959  1.0000
  H   H522      1.0  0.21654  0.32482  0.49463  1.0000
  H   H523      1.0  0.24120  0.08594  0.57173  1.0000
  H   H524      1.0  0.98757  0.00664  0.72125  1.0000
  H   H525      1.0  0.25412  0.18682  0.71022  1.0000
  H   H526      1.0  0.23166  0.13230  0.50918  1.0000
  C   C306      1.0  0.30414  0.24188  0.64159  1.0000
  H   H527      1.0  0.23030  0.28661  0.48771  1.0000
  H   H528      1.0  0.32182  0.46878  0.49887  1.0000
  C   C307      1.0  0.36193  0.45465  0.51776  1.0000
  H   H529      1.0  0.02015  0.16701  0.69424  1.0000
  H   H530      1.0  0.02736  0.31782  0.55763  1.0000
  H   H531      1.0  0.28473  0.31415  0.65887  1.0000
  C   C308      1.0  0.15197  0.19024  0.71416  1.0000
  H   H532      1.0  0.31279  0.04276  0.49111  1.0000
  C   C309      1.0  0.21446  0.17611  0.71078  1.0000
  H   H533      1.0  0.31437  0.49408  0.67911  1.0000
  H   H534      1.0  0.09555  0.40341  0.59345  1.0000
  C   C310      1.0  0.99626  0.25206  0.54932  1.0000
  C   C311      1.0  0.03077  0.34674  0.55545  1.0000
  H   H535      1.0  0.36973  0.01177  0.67764  1.0000
  C   C312      1.0  0.01012  0.15911  0.70229  1.0000
  H   H536      1.0  0.35167  0.01803  0.69121  1.0000
  H   H537      1.0  0.40467  0.40925  0.52315  1.0000
  H   H538      1.0  0.22748  0.14672  0.55107  1.0000
  Fe  Fe41      1.0  0.11305  0.06938  0.72522  1.0000
  H   H539      1.0  0.44011  0.04287  0.71172  1.0000
  H   H540      1.0  0.21459  0.16874  0.48214  1.0000
  H   H541      1.0  0.28695  0.39352  0.49297  1.0000
  C   C313      1.0  0.20077  0.10113  0.56613  1.0000
  C   C314      1.0  0.14671  0.10172  0.57282  1.0000
  H   H542      1.0  0.30113  0.43991  0.51149  1.0000
  H   H543      1.0  0.31116  0.08110  0.50158  1.0000
  S   S78       1.0  0.38951  0.46163  0.72407  1.0000
  H   H544      1.0  0.09314  0.44016  0.58137  1.0000
  H   H545      1.0  0.18665  0.18410  0.49973  1.0000
  H   H546      1.0  0.23823  0.17070  0.69526  1.0000
  H   H547      1.0  0.10852  0.12444  0.57076  1.0000
  H   H548      1.0  0.15071  0.15027  0.69887  1.0000
  H   H549      1.0  0.42460  0.01844  0.72360  1.0000
  C   C315      1.0  0.38963  0.46272  0.51599  1.0000
  C   C316      1.0  0.13760  0.16495  0.70468  1.0000
  H   H550      1.0  0.21934  0.07733  0.48755  1.0000
  C   C317      1.0  0.22320  0.05912  0.60803  1.0000
  H   H551      1.0  0.13797  0.20622  0.71906  1.0000
  C   C318      1.0  0.19360  0.02494  0.55297  1.0000
  H   H552      1.0  0.39745  0.41348  0.50560  1.0000
  H   H553      1.0  0.11662  0.10090  0.55663  1.0000
  C   C319      1.0  0.32209  0.47823  0.52464  1.0000
  H   H554      1.0  0.29322  0.43892  0.54041  1.0000
  H   H555      1.0  0.26802  0.38218  0.50574  1.0000
  H   H556      1.0  0.27750  0.41220  0.52775  1.0000
  C   C320      1.0  0.30874  0.44198  0.52181  1.0000
  H   H557      1.0  0.23028  0.07970  0.55497  1.0000
  H   H558      1.0  0.23131  0.09179  0.59179  1.0000
  C   C321      1.0  0.33146  0.49311  0.50273  1.0000
  H   H559      1.0  0.19601  0.16722  0.51600  1.0000
  H   H560      1.0  0.21169  0.08004  0.61246  1.0000
  H   H561      1.0  0.27416  0.12798  0.49652  1.0000
  H   H562      1.0  0.29736  0.35773  0.50465  1.0000
  H   H563      1.0  0.17054  0.24194  0.72849  1.0000
  H   H564      1.0  0.17443  0.01401  0.55147  1.0000
  H   H565      1.0  0.22860  0.20633  0.72769  1.0000
  C   C322      1.0  0.22894  0.15353  0.48906  1.0000
  S   S79       1.0  0.44503  0.39316  0.72575  1.0000
  S   S80       1.0  0.37028  0.37794  0.72765  1.0000
  H   H566      1.0  0.00976  0.39083  0.54409  1.0000
  C   C323      1.0  0.17032  0.16874  0.72456  1.0000
  C   C324      1.0  0.20996  0.20177  0.72209  1.0000
  H   H567      1.0  0.03562  0.10430  0.53016  1.0000
  C   C325      1.0  0.18618  0.26460  0.49237  1.0000
  H   H568      1.0  0.17570  0.31715  0.48363  1.0000
  H   H569      1.0  0.28062  0.33236  0.48375  1.0000
  H   H570      1.0  0.37321  0.49516  0.53998  1.0000
  H   H571      1.0  0.99583  0.28006  0.72407  1.0000
  H   H572      1.0  0.43905  0.48834  0.68470  1.0000
  C   C326      1.0  0.99781  0.12581  0.53150  1.0000
  H   H573      1.0  0.24295  0.06045  0.61263  1.0000
  H   H574      1.0  0.22154  0.03102  0.56960  1.0000
  H   H575      1.0  0.21626  0.03188  0.61019  1.0000
  H   H576      1.0  0.23304  0.04331  0.58953  1.0000
  C   C327      1.0  0.28117  0.08037  0.48537  1.0000
  N   N16       1.0  0.19139  0.19022  0.73121  1.0000
  N   N17       1.0  0.24117  0.12289  0.48234  1.0000
  C   C328      1.0  0.24351  0.36079  0.48165  1.0000
  H   H577      1.0  0.48739  0.04321  0.71502  1.0000
  H   H578      1.0  0.27772  0.47778  0.73609  1.0000
  H   H579      1.0  0.23983  0.12453  0.75836  1.0000
  H   H580      1.0  0.39523  0.41986  0.94236  1.0000
  Fe  Fe42      1.0  0.30565  0.28288  0.91964  1.0000
  S   S81       1.0  0.29321  0.23439  0.90798  1.0000
  S   S82       1.0  0.27941  0.30555  0.93346  1.0000
  Fe  Fe43      1.0  0.36034  0.27474  0.91304  1.0000
  S   S83       1.0  0.35165  0.22572  0.90113  1.0000
  S   S84       1.0  0.39884  0.29976  0.91747  1.0000
  Fe  Fe44      1.0  0.31604  0.25754  0.89289  1.0000
  S   S85       1.0  0.30639  0.25701  0.87069  1.0000
  Fe  Fe45      1.0  0.32942  0.20726  0.91713  1.0000
  S   S86       1.0  0.33634  0.15412  0.92889  1.0000
  S   S87       1.0  0.32610  0.30799  0.90405  1.0000
  S   S88       1.0  0.34056  0.25440  0.92954  1.0000
  H   H581      1.0  0.35961  0.45659  0.93807  1.0000
  H   H582      1.0  0.22086  0.18287  0.74745  1.0000
  S   S89       1.0  0.24873  0.05251  0.94254  1.0000
  Fe  Fe46      1.0  0.12120  0.10739  0.75128  1.0000
  C   C329      1.0  0.30675  0.39700  0.74726  1.0000
  S   S90       1.0  0.15125  0.14141  0.76233  1.0000
  H   H583      1.0  0.39550  0.34529  0.95630  1.0000
  H   H584      1.0  0.12143  0.38277  0.78483  1.0000
  H   H585      1.0  0.11242  0.42894  0.78237  1.0000
  H   H586      1.0  0.23342  0.18666  0.90085  1.0000
  H   H587      1.0  0.35091  0.37872  0.96159  1.0000
  S   S91       1.0  0.13747  0.05578  0.74383  1.0000
  S   S92       1.0  0.08975  0.07799  0.75908  1.0000
  Fe  Fe47      1.0  0.21549  0.36252  0.81107  1.0000
  S   S93       1.0  0.17426  0.37415  0.80532  1.0000
  S   S94       1.0  0.22345  0.35013  0.83303  1.0000
  Fe  Fe48      1.0  0.22557  0.37472  0.78300  1.0000
  S   S95       1.0  0.18490  0.38746  0.77552  1.0000
  S   S96       1.0  0.25246  0.36204  0.76815  1.0000
  Fe  Fe49      1.0  0.18423  0.42173  0.79325  1.0000
  S   S97       1.0  0.15580  0.46908  0.79535  1.0000
  Fe  Fe50      1.0  0.17720  0.33961  0.78803  1.0000
  S   S98       1.0  0.14411  0.30423  0.78181  1.0000
  S   S99       1.0  0.22585  0.41248  0.80007  1.0000
  S   S100      1.0  0.21764  0.32442  0.79449  1.0000
  C   C330      1.0  0.22457  0.10956  0.75285  1.0000
  H   H588      1.0  0.34143  0.39480  0.90185  1.0000
  C   C331      1.0  0.27503  0.38976  0.76219  1.0000
  C   C332      1.0  0.28802  0.37668  0.75210  1.0000
  H   H589      1.0  0.39711  0.14082  0.89765  1.0000
  C   C333      1.0  0.31291  0.43043  0.75261  1.0000
  C   C334      1.0  0.29974  0.44389  0.76258  1.0000
  C   C335      1.0  0.28077  0.42367  0.76735  1.0000
  H   H590      1.0  0.43611  0.40509  0.76200  1.0000
  H   H591      1.0  0.30442  0.46980  0.76675  1.0000
  H   H592      1.0  0.27089  0.43396  0.77513  1.0000
  H   H593      1.0  0.33014  0.33067  0.93912  1.0000
  H   H594      1.0  0.37146  0.40964  0.89801  1.0000
  C   C336      1.0  0.14875  0.18688  0.76750  1.0000
  C   C337      1.0  0.17051  0.20326  0.77327  1.0000
  C   C338      1.0  0.16950  0.23930  0.77754  1.0000
  C   C339      1.0  0.14659  0.25922  0.77621  1.0000
  C   C340      1.0  0.12486  0.24289  0.77041  1.0000
  C   C341      1.0  0.12592  0.20698  0.76601  1.0000
  H   H595      1.0  0.18826  0.18794  0.77445  1.0000
  H   H596      1.0  0.18638  0.25158  0.78192  1.0000
  H   H597      1.0  0.10708  0.25810  0.76927  1.0000
  H   H598      1.0  0.10906  0.19471  0.76158  1.0000
  Fe  Fe51      1.0  0.06812  0.09034  0.73923  1.0000
  H   H599      1.0  0.22413  0.33969  0.97199  1.0000
  C   C342      1.0  0.45077  0.29344  0.92080  1.0000
  C   C343      1.0  0.42823  0.27655  0.91649  1.0000
  C   C344      1.0  0.42957  0.24154  0.91166  1.0000
  C   C345      1.0  0.45309  0.22322  0.91147  1.0000
  H   H600      1.0  0.02008  0.23458  0.73917  1.0000
  H   H601      1.0  0.44998  0.32063  0.92451  1.0000
  H   H602      1.0  0.41240  0.22870  0.90804  1.0000
  H   H603      1.0  0.45384  0.19600  0.90780  1.0000
  C   C346      1.0  0.28435  0.28538  0.86047  1.0000
  C   C347      1.0  0.26517  0.30560  0.86540  1.0000
  C   C348      1.0  0.24702  0.32567  0.85685  1.0000
  C   C349      1.0  0.24806  0.32648  0.84330  1.0000
  C   C350      1.0  0.26768  0.30711  0.83839  1.0000
  C   C351      1.0  0.28547  0.28628  0.84692  1.0000
  H   H604      1.0  0.26398  0.30515  0.87577  1.0000
  H   H605      1.0  0.23198  0.34057  0.86077  1.0000
  H   H606      1.0  0.26893  0.30772  0.82804  1.0000
  H   H607      1.0  0.30026  0.27081  0.84300  1.0000
  C   C352      1.0  0.31184  0.12621  0.93272  1.0000
  C   C353      1.0  0.28963  0.12412  0.92428  1.0000
  C   C354      1.0  0.27075  0.10093  0.92738  1.0000
  C   C355      1.0  0.27362  0.08017  0.93906  1.0000
  C   C356      1.0  0.29582  0.08237  0.94756  1.0000
  C   C357      1.0  0.31500  0.10494  0.94430  1.0000
  H   H608      1.0  0.28720  0.13981  0.91522  1.0000
  H   H609      1.0  0.25379  0.09901  0.92067  1.0000
  H   H610      1.0  0.29833  0.06632  0.95653  1.0000
  H   H611      1.0  0.33225  0.10606  0.95083  1.0000
  C   C358      1.0  0.27101  0.42649  0.94236  1.0000
  C   C359      1.0  0.26460  0.39992  0.95111  1.0000
  C   C360      1.0  0.26703  0.36292  0.94820  1.0000
  C   C361      1.0  0.27628  0.35225  0.93664  1.0000
  C   C362      1.0  0.28271  0.37878  0.92790  1.0000
  C   C363      1.0  0.27992  0.41578  0.93072  1.0000
  H   H612      1.0  0.25765  0.40792  0.96009  1.0000
  H   H613      1.0  0.26194  0.34252  0.95498  1.0000
  H   H614      1.0  0.28934  0.37080  0.91885  1.0000
  H   H615      1.0  0.28455  0.43623  0.92382  1.0000
  C   C364      1.0  0.38550  0.39957  0.94790  1.0000
  C   C365      1.0  0.00056  0.22967  0.73485  1.0000
  H   H616      1.0  0.32875  0.43998  0.93632  1.0000
  H   H617      1.0  0.31318  0.32490  0.96071  1.0000
  C   C366      1.0  0.45770  0.26306  0.86819  1.0000
  H   H618      1.0  0.46553  0.25374  0.73416  1.0000
  H   H619      1.0  0.39774  0.34883  0.93900  1.0000
  H   H620      1.0  0.13362  0.41887  0.76175  1.0000
  C   C367      1.0  0.44226  0.25579  0.87972  1.0000
  H   H621      1.0  0.32649  0.43983  0.95972  1.0000
  H   H622      1.0  0.41387  0.10075  0.91694  1.0000
  H   H623      1.0  0.41790  0.24480  0.95989  1.0000
  C   C368      1.0  0.20452  0.16833  0.74272  1.0000
  C   C369      1.0  0.41443  0.26647  0.87610  1.0000
  H   H624      1.0  0.34485  0.31454  0.96842  1.0000
  H   H625      1.0  0.38288  0.43601  0.76519  1.0000
  H   H626      1.0  0.20903  0.10617  0.75897  1.0000
  H   H627      1.0  0.39443  0.27052  0.94915  1.0000
  H   H628      1.0  0.45122  0.24425  0.86028  1.0000
  H   H629      1.0  0.45181  0.29090  0.86438  1.0000
  C   C370      1.0  0.42899  0.36861  0.95113  1.0000
  C   C371      1.0  0.46665  0.13733  0.94596  1.0000
  H   H630      1.0  0.19824  0.29949  0.75483  1.0000
  H   H631      1.0  0.38648  0.17099  0.92441  1.0000
  H   H632      1.0  0.36132  0.43706  0.91819  1.0000
  S   S101      1.0  0.26357  0.03193  0.98114  1.0000
  H   H633      1.0  0.44931  0.27151  0.88834  1.0000
  H   H634      1.0  0.44337  0.22645  0.88248  1.0000
  C   C372      1.0  0.18534  0.28412  0.74793  1.0000
  Fe  Fe52      1.0  0.10428  0.02706  0.75018  1.0000
  C   C373      1.0  0.48253  0.32418  0.76076  1.0000
  H   H635      1.0  0.38845  0.40618  0.92128  1.0000
  H   H636      1.0  0.45972  0.33179  0.79509  1.0000
  C   C374      1.0  0.39298  0.11315  0.96883  1.0000
  H   H637      1.0  0.31662  0.38651  0.73951  1.0000
  H   H638      1.0  0.30974  0.17090  0.95884  1.0000
  H   H639      1.0  0.21505  0.25295  0.74061  1.0000
  S   S102      1.0  0.33777  0.45500  0.74742  1.0000
  H   H640      1.0  0.29944  0.21162  0.96655  1.0000
  H   H641      1.0  0.40635  0.25113  0.86757  1.0000
  H   H642      1.0  0.40384  0.26017  0.88444  1.0000
  H   H643      1.0  0.41194  0.29607  0.87384  1.0000
  H   H644      1.0  0.44691  0.29853  0.76029  1.0000
  H   H645      1.0  0.38763  0.40921  0.95805  1.0000
  H   H646      1.0  0.44357  0.29569  0.80221  1.0000
  Fe  Fe53      1.0  0.25398  0.49283  0.96416  1.0000
  H   H647      1.0  0.38892  0.08533  0.96543  1.0000
  C   C375      1.0  0.07706  0.32773  0.78483  1.0000
  C   C376      1.0  0.45727  0.31926  0.75593  1.0000
  H   H648      1.0  0.35936  0.44817  0.96336  1.0000
  H   H649      1.0  0.38855  0.40545  0.79342  1.0000
  C   C377      1.0  0.05338  0.44719  0.77911  1.0000
  H   H650      1.0  0.36673  0.14287  0.90373  1.0000
  H   H651      1.0  0.20436  0.21300  0.89703  1.0000
  H   H652      1.0  0.08940  0.44906  0.79813  1.0000
  H   H653      1.0  0.43653  0.47156  0.76457  1.0000
  C   C378      1.0  0.11168  0.41129  0.81108  1.0000
  H   H654      1.0  0.12837  0.40955  0.80578  1.0000
  H   H655      1.0  0.11007  0.38515  0.81639  1.0000
  N   N18       1.0  0.20969  0.22995  0.82702  1.0000
  C   C379      1.0  0.22456  0.24827  0.81738  1.0000
  C   C380      1.0  0.18667  0.25334  0.82901  1.0000
  C   C381      1.0  0.22631  0.22658  0.83990  1.0000
  C   C382      1.0  0.20243  0.19229  0.82296  1.0000
  C   C383      1.0  0.18767  0.18902  0.80925  1.0000
  C   C384      1.0  0.24969  0.22878  0.81496  1.0000
  C   C385      1.0  0.21397  0.21129  0.85164  1.0000
  C   C386      1.0  0.17377  0.27619  0.81712  1.0000
  C   C387      1.0  0.14842  0.29273  0.81984  1.0000
  C   C388      1.0  0.18411  0.14926  0.80580  1.0000
  C   C389      1.0  0.26117  0.24734  0.80382  1.0000
  C   C390      1.0  0.23189  0.21288  0.86426  1.0000
  H   H656      1.0  0.22901  0.27619  0.82063  1.0000
  H   H657      1.0  0.21327  0.25231  0.80774  1.0000
  H   H658      1.0  0.17218  0.23650  0.83283  1.0000
  H   H659      1.0  0.19159  0.27387  0.83661  1.0000
  H   H660      1.0  0.23365  0.25357  0.84266  1.0000
  H   H661      1.0  0.24310  0.20847  0.83915  1.0000
  H   H662      1.0  0.21936  0.17366  0.82364  1.0000
  H   H663      1.0  0.19037  0.18040  0.82988  1.0000
  H   H664      1.0  0.19757  0.20144  0.80155  1.0000
  H   H665      1.0  0.16860  0.20190  0.80900  1.0000
  H   H666      1.0  0.26372  0.22965  0.82374  1.0000
  H   H667      1.0  0.24687  0.20009  0.81234  1.0000
  H   H668      1.0  0.20937  0.18244  0.85017  1.0000
  H   H669      1.0  0.19651  0.22695  0.85309  1.0000
  H   H670      1.0  0.18586  0.29892  0.81507  1.0000
  H   H671      1.0  0.17060  0.26033  0.80816  1.0000
  H   H672      1.0  0.13530  0.27104  0.82167  1.0000
  H   H673      1.0  0.15092  0.31060  0.82838  1.0000
  H   H674      1.0  0.13995  0.30933  0.81124  1.0000
  H   H675      1.0  0.17379  0.13526  0.81304  1.0000
  H   H676      1.0  0.17296  0.14777  0.79606  1.0000
  H   H677      1.0  0.20258  0.13491  0.80541  1.0000
  H   H678      1.0  0.26493  0.27612  0.80608  1.0000
  H   H679      1.0  0.27927  0.23320  0.80242  1.0000
  H   H680      1.0  0.24835  0.24638  0.79458  1.0000
  H   H681      1.0  0.23586  0.24150  0.86664  1.0000
  H   H682      1.0  0.22319  0.20044  0.87243  1.0000
  H   H683      1.0  0.24995  0.19787  0.86337  1.0000
  H   H684      1.0  0.40037  0.11125  0.97933  1.0000
  H   H685      1.0  0.16768  0.28015  0.75234  1.0000
  H   H686      1.0  0.40835  0.43759  0.77782  1.0000
  C   C391      1.0  0.40255  0.21633  0.94261  1.0000
  C   C392      1.0  0.33204  0.31347  0.95919  1.0000
  H   H687      1.0  0.09667  0.28279  0.79637  1.0000
  H   H688      1.0  0.06393  0.28986  0.79890  1.0000
  H   H689      1.0  0.02760  0.48327  0.76666  1.0000
  C   C393      1.0  0.40444  0.15512  0.92418  1.0000
  H   H690      1.0  0.13388  0.36968  0.76273  1.0000
  H   H691      1.0  0.23089  0.13147  0.73426  1.0000
  C   C394      1.0  0.19749  0.11124  0.95619  1.0000
  N   N19       1.0  0.35804  0.39892  0.94258  1.0000
  H   H692      1.0  0.21726  0.31564  0.94703  1.0000
  N   N20       1.0  0.41901  0.15145  0.93761  1.0000
  H   H693      1.0  0.05791  0.33295  0.77965  1.0000
  H   H694      1.0  0.43344  0.38225  0.96056  1.0000
  H   H695      1.0  0.43561  0.38518  0.94319  1.0000
  C   C395      1.0  0.34273  0.45283  0.95601  1.0000
  H   H696      1.0  0.33403  0.38653  0.92513  1.0000
  C   C396      1.0  0.12230  0.39459  0.75956  1.0000
  H   H697      1.0  0.23570  0.12642  0.96040  1.0000
  C   C397      1.0  0.34366  0.37562  0.95114  1.0000
  H   H698      1.0  0.33808  0.32950  0.75195  1.0000
  C   C398      1.0  0.36200  0.39331  0.90502  1.0000
  C   C399      1.0  0.42578  0.45990  0.75590  1.0000
  H   H699      1.0  0.19280  0.28778  0.93974  1.0000
  C   C400      1.0  0.39716  0.11904  0.91748  1.0000
  C   C401      1.0  0.36774  0.40808  0.91870  1.0000
  H   H700      1.0  0.20361  0.23367  0.75485  1.0000
  H   H701      1.0  0.36099  0.35746  0.92801  1.0000
  H   H702      1.0  0.21256  0.16103  0.96316  1.0000
  H   H703      1.0  0.05439  0.39060  0.77363  1.0000
  C   C402      1.0  0.38445  0.12633  0.90360  1.0000
  C   C403      1.0  0.07746  0.29029  0.79155  1.0000
  H   H704      1.0  0.44902  0.13289  0.92659  1.0000
  H   H705      1.0  0.32350  0.38507  0.95017  1.0000
  C   C404      1.0  0.03115  0.45364  0.76853  1.0000
  H   H706      1.0  0.19153  0.16537  0.75027  1.0000
  H   H707      1.0  0.20015  0.11303  0.73507  1.0000
  N   N21       1.0  0.39415  0.38385  0.77469  1.0000
  C   C405      1.0  0.37814  0.38955  0.78562  1.0000
  C   C406      1.0  0.41879  0.36406  0.77973  1.0000
  H   H708      1.0  0.07213  0.26954  0.78419  1.0000
  C   C407      1.0  0.38051  0.36409  0.76351  1.0000
  C   C408      1.0  0.37062  0.32652  0.76681  1.0000
  C   C409      1.0  0.35199  0.40876  0.78186  1.0000
  H   H709      1.0  0.23226  0.23489  0.90385  1.0000
  C   C410      1.0  0.41868  0.33611  0.79118  1.0000
  C   C411      1.0  0.35484  0.31139  0.75500  1.0000
  C   C412      1.0  0.33748  0.41175  0.79369  1.0000
  H   H710      1.0  0.43951  0.09952  0.93741  1.0000
  H   H711      1.0  0.37434  0.36341  0.79037  1.0000
  H   H712      1.0  0.42671  0.34999  0.77166  1.0000
  H   H713      1.0  0.08646  0.41919  0.76198  1.0000
  H   H714      1.0  0.36453  0.38135  0.75858  1.0000
  H   H715      1.0  0.39308  0.35918  0.75586  1.0000
  H   H716      1.0  0.35860  0.32792  0.77482  1.0000
  H   H717      1.0  0.38666  0.30692  0.76953  1.0000
  C   C413      1.0  0.34263  0.33449  0.94829  1.0000
  H   H718      1.0  0.34047  0.39310  0.77448  1.0000
  H   H719      1.0  0.41633  0.35064  0.80030  1.0000
  H   H720      1.0  0.40330  0.31693  0.78948  1.0000
  H   H721      1.0  0.38356  0.10455  0.92284  1.0000
  C   C414      1.0  0.17966  0.22383  0.73657  1.0000
  H   H722      1.0  0.34825  0.28421  0.75753  1.0000
  H   H723      1.0  0.34805  0.42740  0.80145  1.0000
  H   H724      1.0  0.31901  0.42605  0.79079  1.0000
  H   H725      1.0  0.33394  0.38433  0.79760  1.0000
  H   H726      1.0  0.20159  0.08893  0.94960  1.0000
  N   N22       1.0  0.23424  0.18960  0.94168  1.0000
  C   C415      1.0  0.23855  0.19557  0.92764  1.0000
  C   C416      1.0  0.25914  0.18297  0.95011  1.0000
  C   C417      1.0  0.21925  0.15570  0.94244  1.0000
  C   C418      1.0  0.21909  0.22066  0.94661  1.0000
  C   C419      1.0  0.22902  0.25928  0.94511  1.0000
  C   C420      1.0  0.21467  0.20167  0.91771  1.0000
  C   C421      1.0  0.21746  0.13985  0.95636  1.0000
  C   C422      1.0  0.28177  0.20498  0.94668  1.0000
  C   C423      1.0  0.30415  0.20011  0.95726  1.0000
  C   C424      1.0  0.20910  0.28839  0.94743  1.0000
  C   C425      1.0  0.22169  0.20951  0.90404  1.0000
  S   S103      1.0  0.26860  0.47322  0.94567  1.0000
  H   H727      1.0  0.24939  0.17191  0.92438  1.0000
  H   H728      1.0  0.25055  0.21901  0.92642  1.0000
  H   H729      1.0  0.25683  0.18730  0.96053  1.0000
  H   H730      1.0  0.26570  0.15402  0.94957  1.0000
  H   H731      1.0  0.22735  0.13339  0.93692  1.0000
  H   H732      1.0  0.19966  0.16065  0.93768  1.0000
  H   H733      1.0  0.19934  0.22094  0.94183  1.0000
  H   H734      1.0  0.21751  0.21671  0.95715  1.0000
  H   H735      1.0  0.23420  0.26480  0.93524  1.0000
  H   H736      1.0  0.24552  0.26296  0.95245  1.0000
  H   H737      1.0  0.20320  0.17715  0.91718  1.0000
  H   H738      1.0  0.20296  0.22515  0.92038  1.0000
  C   C426      1.0  0.47563  0.23984  0.91592  1.0000
  H   H739      1.0  0.39989  0.10406  0.94342  1.0000
  H   H740      1.0  0.28805  0.19541  0.93744  1.0000
  H   H741      1.0  0.27707  0.23426  0.94540  1.0000
  H   H742      1.0  0.07017  0.45932  0.77571  1.0000
  Fe  Fe54      1.0  0.24608  0.01862  0.96108  1.0000
  H   H743      1.0  0.11710  0.39368  0.74886  1.0000
  H   H744      1.0  0.20246  0.28426  0.95709  1.0000
  H   H745      1.0  0.36114  0.32190  0.94702  1.0000
  C   C427      1.0  0.41846  0.42125  0.75897  1.0000
  H   H746      1.0  0.10340  0.34886  0.79955  1.0000
  H   H747      1.0  0.04332  0.39811  0.78874  1.0000
  C   C428      1.0  0.08788  0.42028  0.80138  1.0000
  C   C429      1.0  0.10493  0.40119  0.78133  1.0000
  H   H748      1.0  0.13333  0.43354  0.82791  1.0000
  C   C430      1.0  0.09857  0.39611  0.76642  1.0000
  C   C431      1.0  0.35447  0.38617  0.92871  1.0000
  H   H749      1.0  0.11827  0.46734  0.81650  1.0000
  H   H750      1.0  0.07141  0.41976  0.80703  1.0000
  H   H751      1.0  0.43621  0.18836  0.95185  1.0000
  C   C432      1.0  0.34724  0.43749  0.94253  1.0000
  H   H752      1.0  0.07146  0.35519  0.80259  1.0000
  H   H753      1.0  0.43324  0.38369  0.78334  1.0000
  C   C433      1.0  0.11591  0.44059  0.82126  1.0000
  H   H754      1.0  0.36906  0.36466  0.90475  1.0000
  N   N23       1.0  0.08389  0.39608  0.78972  1.0000
  C   C434      1.0  0.08424  0.35733  0.79486  1.0000
  H   H755      1.0  0.11129  0.49248  0.74814  1.0000
  H   H756      1.0  0.35368  0.43671  0.77797  1.0000
  H   H757      1.0  0.44584  0.29663  0.78499  1.0000
  H   H758      1.0  0.09984  0.44263  0.82712  1.0000
  H   H759      1.0  0.48317  0.20150  0.87039  1.0000
  H   H760      1.0  0.23214  0.08216  0.75071  1.0000
  H   H761      1.0  0.19742  0.09942  0.96616  1.0000
  C   C435      1.0  0.05821  0.40614  0.78267  1.0000
  C   C436      1.0  0.44531  0.34082  0.74543  1.0000
  C   C437      1.0  0.40021  0.42089  0.76961  1.0000
  H   H762      1.0  0.18823  0.01155  0.75082  1.0000
  C   C438      1.0  0.19788  0.24755  0.74527  1.0000
  H   H763      1.0  0.36614  0.30856  0.74670  1.0000
  H   H764      1.0  0.10897  0.47784  0.76472  1.0000
  H   H765      1.0  0.28360  0.35056  0.74802  1.0000
  C   C439      1.0  0.40077  0.36303  0.94833  1.0000
  S   S104      1.0  0.02643  0.10723  0.73762  1.0000
  H   H766      1.0  0.47352  0.16449  0.94354  1.0000
  H   H767      1.0  0.16430  0.21624  0.74242  1.0000
  H   H768      1.0  0.04896  0.46206  0.78785  1.0000
  H   H769      1.0  0.08846  0.37103  0.76412  1.0000
  H   H770      1.0  0.46281  0.13722  0.95624  1.0000
  C   C440      1.0  0.44348  0.31381  0.79349  1.0000
  H   H771      1.0  0.09086  0.32598  0.77769  1.0000
  H   H772      1.0  0.40936  0.41016  0.74977  1.0000
  H   H773      1.0  0.25166  0.15448  0.98154  1.0000
  H   H774      1.0  0.37968  0.10018  0.89895  1.0000
  H   H775      1.0  0.48568  0.29148  0.73598  1.0000
  H   H776      1.0  0.43932  0.34183  0.95166  1.0000
  C   C441      1.0  0.47437  0.27526  0.92049  1.0000
  H   H777      1.0  0.41538  0.17054  0.91758  1.0000
  C   C442      1.0  0.40270  0.13258  0.94641  1.0000
  C   C443      1.0  0.42520  0.18920  0.94208  1.0000
  H   H778      1.0  0.38344  0.14543  0.94530  1.0000
  C   C444      1.0  0.48414  0.37142  0.74416  1.0000
  H   H779      1.0  0.32042  0.21446  0.95416  1.0000
  H   H780      1.0  0.39422  0.22455  0.93260  1.0000
  H   H781      1.0  0.38777  0.20445  0.94785  1.0000
  H   H782      1.0  0.37517  0.12995  0.96775  1.0000
  H   H783      1.0  0.17850  0.12350  0.95293  1.0000
  H   H784      1.0  0.43776  0.20176  0.93554  1.0000
  H   H785      1.0  0.42978  0.11288  0.96279  1.0000
  H   H786      1.0  0.48101  0.31242  0.87999  1.0000
  C   C445      1.0  0.44294  0.12905  0.93648  1.0000
  C   C446      1.0  0.41237  0.13031  0.96110  1.0000
  H   H787      1.0  0.10178  0.49541  0.95381  1.0000
  H   H788      1.0  0.42567  0.26393  0.94464  1.0000
  C   C447      1.0  0.41075  0.25095  0.94952  1.0000
  H   H789      1.0  0.33004  0.28463  0.95650  1.0000
  H   H790      1.0  0.41592  0.15753  0.96511  1.0000
  H   H791      1.0  0.46929  0.29377  0.84501  1.0000
  H   H792      1.0  0.18101  0.30057  0.73876  1.0000
  C   C448      1.0  0.45875  0.36695  0.73947  1.0000
  H   H793      1.0  0.48476  0.21828  0.88649  1.0000
  H   H794      1.0  0.42594  0.33660  0.74171  1.0000
  C   C449      1.0  0.21485  0.12979  0.74008  1.0000
  H   H795      1.0  0.01388  0.44211  0.77167  1.0000
  H   H796      1.0  0.03522  0.44103  0.75930  1.0000
  H   H797      1.0  0.43783  0.45944  0.74785  1.0000
  S   S105      1.0  0.21916  0.47579  0.97254  1.0000
  H   H798      1.0  0.32028  0.49996  0.94753  1.0000
  H   H799      1.0  0.98778  0.28227  0.74044  1.0000
  H   H800      1.0  0.40875  0.47746  0.75279  1.0000
  S   S106      1.0  0.20693  0.01393  0.96667  1.0000
  C   C450      1.0  0.33661  0.49371  0.95500  1.0000
  H   H801      1.0  0.16082  0.49488  0.82248  1.0000
  H   H802      1.0  0.19393  0.49180  0.82799  1.0000
  H   H803      1.0  0.23619  0.27640  0.97844  1.0000
  H   H804      1.0  0.48268  0.08187  0.94745  1.0000
  S   S107      1.0  0.09874  0.12302  0.73204  1.0000
  H   H805      1.0  0.99133  0.21332  0.74195  1.0000
  H   H806      1.0  0.48671  0.32243  0.85637  1.0000
  N   N24       1.0  0.48601  0.25971  0.87137  1.0000
  H   H807      1.0  0.20419  0.28700  0.98120  1.0000
  H   H808      1.0  0.15880  0.15743  0.73191  1.0000
  Fe  Fe55      1.0  0.37065  0.70310  0.04494  1.0000
  S   S108      1.0  0.35984  0.74557  0.05872  1.0000
  S   S109      1.0  0.34728  0.65296  0.04163  1.0000
  Fe  Fe56      1.0  0.42114  0.73820  0.04174  1.0000
  S   S110      1.0  0.41325  0.78428  0.05490  1.0000
  S   S111      1.0  0.45695  0.72010  0.03291  1.0000
  Fe  Fe57      1.0  0.39983  0.74143  0.06808  1.0000
  S   S112      1.0  0.41650  0.73186  0.08930  1.0000
  Fe  Fe58      1.0  0.37342  0.78553  0.04441  1.0000
  S   S113      1.0  0.34598  0.83488  0.04041  1.0000
  S   S114      1.0  0.40964  0.69567  0.05546  1.0000
  S   S115      1.0  0.38222  0.74269  0.03019  1.0000
  Fe  Fe59      1.0  0.37429  0.73393  0.15971  1.0000
  S   S116      1.0  0.34659  0.73716  0.17453  1.0000
  S   S117      1.0  0.35919  0.75380  0.13923  1.0000
  Fe  Fe60      1.0  0.41614  0.70205  0.17973  1.0000
  S   S118      1.0  0.39130  0.70311  0.19568  1.0000
  S   S119      1.0  0.45719  0.68208  0.18223  1.0000
  Fe  Fe61      1.0  0.36190  0.68068  0.18077  1.0000
  S   S120      1.0  0.33750  0.63412  0.18645  1.0000
  Fe  Fe62      1.0  0.37839  0.75951  0.18788  1.0000
  S   S121      1.0  0.37849  0.80641  0.20234  1.0000
  S   S122      1.0  0.38756  0.67656  0.16517  1.0000
  S   S123      1.0  0.40519  0.75936  0.17268  1.0000
  S   S124      1.0  0.34958  0.97745  0.19788  1.0000
  C   C451      1.0  0.40180  0.60652  0.22204  1.0000
  S   S125      1.0  0.23337  0.53642  0.99535  1.0000
  C   C452      1.0  0.11515  0.55692  0.22395  1.0000
  H   H809      1.0  0.44414  0.56950  0.20890  1.0000
  S   S126      1.0  0.23106  0.96539  0.99198  1.0000
  S   S127      1.0  0.30539  0.93747  0.99099  1.0000
  H   H810      1.0  0.36871  0.63336  0.99763  1.0000
  H   H811      1.0  0.29842  0.53256  0.13324  1.0000
  H   H812      1.0  0.23887  0.86701  0.98236  1.0000
  C   C453      1.0  0.46095  0.66147  0.20840  1.0000
  H   H813      1.0  0.36965  0.82962  0.14151  1.0000
  H   H814      1.0  0.44241  0.67391  0.20840  1.0000
  H   H815      1.0  0.47854  0.84470  0.07591  1.0000
  C   C454      1.0  0.33325  0.54690  0.16229  1.0000
  C   C455      1.0  0.33953  0.58079  0.16766  1.0000
  C   C456      1.0  0.32958  0.59219  0.17889  1.0000
  C   C457      1.0  0.31333  0.56909  0.18462  1.0000
  H   H816      1.0  0.31208  0.85674  0.20663  1.0000
  C   C458      1.0  0.46578  0.63787  0.00155  1.0000
  H   H817      1.0  0.35224  0.59792  0.16319  1.0000
  H   H818      1.0  0.30554  0.57745  0.19333  1.0000
  H   H819      1.0  0.41652  0.89265  0.19175  1.0000
  C   C459      1.0  0.37034  0.85393  0.20082  1.0000
  C   C460      1.0  0.35403  0.86893  0.19035  1.0000
  C   C461      1.0  0.34776  0.90659  0.18972  1.0000
  C   C462      1.0  0.35780  0.92995  0.19945  1.0000
  C   C463      1.0  0.37412  0.91495  0.20992  1.0000
  C   C464      1.0  0.38006  0.87719  0.21067  1.0000
  H   H820      1.0  0.34594  0.85133  0.18288  1.0000
  H   H821      1.0  0.33502  0.91775  0.18159  1.0000
  H   H822      1.0  0.38243  0.93246  0.21736  1.0000
  H   H823      1.0  0.39266  0.86599  0.21884  1.0000
  C   C465      1.0  0.42938  0.54908  0.20688  1.0000
  C   C466      1.0  0.21691  0.90013  0.01750  1.0000
  C   C467      1.0  0.33471  0.86234  0.02637  1.0000
  C   C468      1.0  0.31441  0.88727  0.02710  1.0000
  C   C469      1.0  0.30504  0.91020  0.01637  1.0000
  C   C470      1.0  0.31593  0.90860  0.00474  1.0000
  C   C471      1.0  0.33623  0.88364  0.00400  1.0000
  C   C472      1.0  0.34546  0.86045  0.01470  1.0000
  H   H824      1.0  0.30603  0.88917  0.03610  1.0000
  H   H825      1.0  0.28968  0.92958  0.01718  1.0000
  H   H826      1.0  0.34497  0.88238  0.99510  1.0000
  H   H827      1.0  0.36118  0.84165  0.01399  1.0000
  C   C473      1.0  0.40025  0.73873  0.10304  1.0000
  C   C474      1.0  0.41172  0.72648  0.11536  1.0000
  C   C475      1.0  0.39940  0.73101  0.12654  1.0000
  C   C476      1.0  0.37549  0.74795  0.12548  1.0000
  C   C477      1.0  0.36405  0.76043  0.11319  1.0000
  C   C478      1.0  0.37635  0.75582  0.10200  1.0000
  H   H828      1.0  0.43011  0.71304  0.11624  1.0000
  H   H829      1.0  0.40842  0.72140  0.13597  1.0000
  H   H830      1.0  0.34553  0.77361  0.11230  1.0000
  H   H831      1.0  0.36735  0.76545  0.09256  1.0000
  C   C479      1.0  0.33147  0.63915  0.02661  1.0000
  C   C480      1.0  0.33093  0.66006  0.01512  1.0000
  C   C481      1.0  0.31848  0.64762  0.00335  1.0000
  C   C482      1.0  0.30635  0.61432  0.00297  1.0000
  C   C483      1.0  0.30671  0.59363  0.01448  1.0000
  C   C484      1.0  0.31926  0.60598  0.02622  1.0000
  H   H832      1.0  0.34000  0.68580  0.01533  1.0000
  H   H833      1.0  0.31825  0.66383  0.99449  1.0000
  H   H834      1.0  0.29747  0.56798  0.01432  1.0000
  H   H835      1.0  0.31955  0.58966  0.03506  1.0000
  H   H836      1.0  0.37683  0.65479  0.22153  1.0000
  C   C485      1.0  0.41750  0.91626  0.18498  1.0000
  H   H837      1.0  0.43479  0.93095  0.18820  1.0000
  C   C486      1.0  0.19502  0.77878  0.98537  1.0000
  H   H838      1.0  0.48111  0.78383  0.04467  1.0000
  H   H839      1.0  0.38463  0.61953  0.20234  1.0000
  C   C487      1.0  0.40204  0.60510  0.20712  1.0000
  H   H840      1.0  0.20434  0.83472  0.98628  1.0000
  H   H841      1.0  0.41977  0.62685  0.18394  1.0000
  C   C488      1.0  0.42493  0.59801  0.18240  1.0000
  H   H842      1.0  0.46994  0.69174  0.06012  1.0000
  H   H843      1.0  0.30752  0.74771  0.01059  1.0000
  C   C489      1.0  0.41818  0.90365  0.17104  1.0000
  H   H844      1.0  0.31072  0.75624  0.02779  1.0000
  H   H845      1.0  0.37334  0.82089  0.15847  1.0000
  C   C490      1.0  0.31664  0.52409  0.16787  1.0000
  H   H846      1.0  0.29405  0.51823  0.18359  1.0000
  C   C491      1.0  0.42447  0.63354  0.01794  1.0000
  C   C492      1.0  0.46979  0.63513  0.06507  1.0000
  H   H847      1.0  0.29513  0.83630  0.00384  1.0000
  H   H848      1.0  0.23870  0.62203  0.99001  1.0000
  H   H849      1.0  0.38492  0.62363  0.02132  1.0000
  C   C493      1.0  0.37084  0.84334  0.15097  1.0000
  H   H850      1.0  0.24711  0.77608  0.99243  1.0000
  H   H851      1.0  0.40669  0.91666  0.14457  1.0000
  H   H852      1.0  0.47910  0.74695  0.06623  1.0000
  H   H853      1.0  0.45315  0.79057  0.14911  1.0000
  H   H854      1.0  0.43973  0.64740  0.02401  1.0000
  H   H855      1.0  0.18695  0.54086  0.20197  1.0000
  C   C494      1.0  0.32395  0.83422  0.14999  1.0000
  H   H856      1.0  0.19796  0.91371  0.01546  1.0000
  H   H857      1.0  0.39920  0.65952  0.03042  1.0000
  H   H858      1.0  0.30540  0.53519  0.11662  1.0000
  H   H859      1.0  0.27880  0.89019  0.21694  1.0000
  H   H860      1.0  0.37402  0.91808  0.14545  1.0000
  C   C495      1.0  0.47338  0.64454  0.21984  1.0000
  H   H861      1.0  0.41868  0.59838  0.13670  1.0000
  C   C496      1.0  0.16055  0.53573  0.22312  1.0000
  H   H862      1.0  0.26135  0.87594  0.01126  1.0000
  H   H863      1.0  0.24726  0.83860  0.01830  1.0000
  H   H864      1.0  0.38396  0.59111  0.00402  1.0000
  H   H865      1.0  0.36443  0.56382  0.20091  1.0000
  C   C497      1.0  0.22094  0.87368  0.00667  1.0000
  H   H866      1.0  0.38752  0.58880  0.22547  1.0000
  C   C498      1.0  0.37543  0.73868  0.99446  1.0000
  H   H867      1.0  0.26883  0.87877  0.98930  1.0000
  H   H868      1.0  0.42047  0.59558  0.11934  1.0000
  C   C499      1.0  0.41727  0.84615  0.15160  1.0000
  C   C500      1.0  0.38611  0.89092  0.12864  1.0000
  C   C501      1.0  0.40879  0.62628  0.99450  1.0000
  H   H869      1.0  0.21813  0.88932  0.99733  1.0000
  H   H870      1.0  0.18629  0.77967  0.99460  1.0000
  H   H871      1.0  0.43437  0.63263  0.12835  1.0000
  H   H872      1.0  0.44373  0.59159  0.18784  1.0000
  H   H873      1.0  0.39391  0.60630  0.04449  1.0000
  H   H874      1.0  0.40628  0.82282  0.13211  1.0000
  H   H875      1.0  0.25194  0.52493  0.03747  1.0000
  C   C502      1.0  0.48577  0.68374  0.08065  1.0000
  H   H876      1.0  0.32486  0.78602  0.01698  1.0000
  C   C503      1.0  0.40949  0.60605  0.03830  1.0000
  H   H877      1.0  0.46682  0.81450  0.06335  1.0000
  C   C504      1.0  0.27865  0.99671  0.20517  1.0000
  H   H878      1.0  0.47250  0.73619  0.12490  1.0000
  H   H879      1.0  0.43572  0.88680  0.17093  1.0000
  C   C505      1.0  0.39450  0.88203  0.16640  1.0000
  H   H880      1.0  0.46676  0.53845  0.22827  1.0000
  H   H881      1.0  0.36041  0.93702  0.12253  1.0000
  C   C506      1.0  0.48221  0.67174  0.06628  1.0000
  H   H882      1.0  0.26333  0.99320  0.19713  1.0000
  C   C507      1.0  0.40276  0.63213  0.02662  1.0000
  H   H883      1.0  0.35840  0.72923  0.99850  1.0000
  H   H884      1.0  0.44146  0.77842  0.13279  1.0000
  C   C508      1.0  0.30436  0.96523  0.22471  1.0000
  H   H885      1.0  0.21103  0.56156  0.21281  1.0000
  H   H886      1.0  0.41049  0.70446  0.01254  1.0000
  H   H887      1.0  0.30535  0.84801  0.15053  1.0000
  C   C509      1.0  0.44341  0.66615  0.00090  1.0000
  H   H888      1.0  0.39335  0.94575  0.12196  1.0000
  C   C510      1.0  0.20074  0.50721  0.21933  1.0000
  C   C511      1.0  0.22446  0.52170  0.20009  1.0000
  H   H889      1.0  0.46788  0.62720  0.05471  1.0000
  C   C512      1.0  0.23711  0.80073  0.99564  1.0000
  S   S128      1.0  0.29155  0.59939  0.98787  1.0000
  H   H890      1.0  0.26489  0.95556  0.21701  1.0000
  N   N25       1.0  0.25512  0.83108  0.99838  1.0000
  C   C513      1.0  0.44279  0.80096  0.13974  1.0000
  H   H891      1.0  0.46656  0.68577  0.08376  1.0000
  H   H892      1.0  0.42167  0.60196  0.99452  1.0000
  H   H893      1.0  0.46151  0.61579  0.99461  1.0000
  H   H894      1.0  0.41002  0.66400  0.22350  1.0000
  H   H895      1.0  0.15191  0.51579  0.21617  1.0000
  H   H896      1.0  0.41242  0.57790  0.03500  1.0000
  C   C514      1.0  0.38989  0.89971  0.14329  1.0000
  C   C515      1.0  0.34454  0.86199  0.15145  1.0000
  H   H897      1.0  0.28829  0.94000  0.20685  1.0000
  H   H898      1.0  0.38596  0.58517  0.18249  1.0000
  H   H899      1.0  0.34324  0.87560  0.16079  1.0000
  H   H900      1.0  0.32181  0.96763  0.21999  1.0000
  H   H901      1.0  0.28246  0.56673  0.12222  1.0000
  H   H902      1.0  0.22977  0.79198  0.00481  1.0000
  H   H903      1.0  0.34138  0.53805  0.15376  1.0000
  C   C516      1.0  0.47262  0.66251  0.19700  1.0000
  C   C517      1.0  0.24735  0.85467  0.00909  1.0000
  H   H904      1.0  0.23115  0.92142  0.01799  1.0000
  H   H905      1.0  0.44082  0.67754  0.99077  1.0000
  H   H906      1.0  0.34025  0.88243  0.14338  1.0000
  C   C518      1.0  0.41636  0.81487  0.14175  1.0000
  H   H907      1.0  0.32347  0.82086  0.14043  1.0000
  H   H908      1.0  0.47038  0.62566  0.01148  1.0000
  H   H909      1.0  0.20615  0.61439  0.99145  1.0000
  H   H910      1.0  0.21821  0.88554  0.02708  1.0000
  H   H911      1.0  0.37115  0.87127  0.12633  1.0000
  C   C519      1.0  0.48205  0.74959  0.07696  1.0000
  C   C520      1.0  0.28404  0.79314  0.01616  1.0000
  H   H912      1.0  0.38499  0.75831  0.00120  1.0000
  H   H913      1.0  0.35323  0.58145  0.98507  1.0000
  C   C521      1.0  0.42713  0.59409  0.16788  1.0000
  H   H914      1.0  0.43434  0.56635  0.16594  1.0000
  N   N26       1.0  0.39303  0.86766  0.15274  1.0000
  C   C522      1.0  0.31510  0.89948  0.22907  1.0000
  C   C523      1.0  0.28105  0.81470  0.00296  1.0000
  C   C524      1.0  0.42939  0.52482  0.21934  1.0000
  N   N27       1.0  0.40472  0.56798  0.20143  1.0000
  C   C525      1.0  0.47141  0.81715  0.07404  1.0000
  H   H915      1.0  0.28901  0.82671  0.21163  1.0000
  H   H916      1.0  0.43179  0.60523  0.01687  1.0000
  C   C526      1.0  0.40453  0.57336  0.18688  1.0000
  C   C527      1.0  0.48135  0.72922  0.10514  1.0000
  H   H917      1.0  0.44050  0.61401  0.16480  1.0000
  H   H918      1.0  0.40101  0.93507  0.18553  1.0000
  H   H919      1.0  0.47052  0.75456  0.10176  1.0000
  H   H920      1.0  0.45343  0.82288  0.13563  1.0000
  H   H921      1.0  0.38163  0.54007  0.21416  1.0000
  H   H922      1.0  0.42448  0.83260  0.16114  1.0000
  Fe  Fe63      1.0  0.26673  0.55014  0.98506  1.0000
  H   H923      1.0  0.40653  0.79175  0.14562  1.0000
  H   H924      1.0  0.41929  0.92827  0.16482  1.0000
  H   H925      1.0  0.37810  0.90059  0.16746  1.0000
  H   H926      1.0  0.45076  0.63695  0.06834  1.0000
  H   H927      1.0  0.20622  0.85326  0.00669  1.0000
  H   H928      1.0  0.11688  0.57878  0.21659  1.0000
  C   C528      1.0  0.30427  0.84489  0.21521  1.0000
  N   N28       1.0  0.41894  0.65239  0.00469  1.0000
  H   H929      1.0  0.38331  0.68897  0.98514  1.0000
  H   H930      1.0  0.37677  0.91828  0.10980  1.0000
  C   C529      1.0  0.30683  0.53536  0.17915  1.0000
  H   H931      1.0  0.40839  0.63879  0.98458  1.0000
  H   H932      1.0  0.22638  0.54191  0.19218  1.0000
  H   H933      1.0  0.45399  0.81435  0.07879  1.0000
  H   H934      1.0  0.44983  0.68900  0.00721  1.0000
  H   H935      1.0  0.41778  0.62212  0.20504  1.0000
  H   H936      1.0  0.46287  0.74803  0.07997  1.0000
  H   H937      1.0  0.40976  0.71781  0.98836  1.0000
  H   H938      1.0  0.26803  0.77529  0.01694  1.0000
  C   C530      1.0  0.30827  0.76935  0.01792  1.0000
  H   H939      1.0  0.39370  0.85917  0.17359  1.0000
  H   H940      1.0  0.16352  0.56022  0.21711  1.0000
  H   H941      1.0  0.29189  0.69724  0.14674  1.0000
  H   H942      1.0  0.38384  0.67787  0.00928  1.0000
  C   C531      1.0  0.40147  0.68518  0.00543  1.0000
  H   H943      1.0  0.40858  0.59940  0.16202  1.0000
  N   N29       1.0  0.34520  0.63213  0.12100  1.0000
  C   C532      1.0  0.32550  0.60436  0.11782  1.0000
  C   C533      1.0  0.34391  0.65919  0.10975  1.0000
  C   C534      1.0  0.37062  0.61254  0.12333  1.0000
  C   C535      1.0  0.34088  0.65229  0.13314  1.0000
  C   C536      1.0  0.31427  0.67022  0.13333  1.0000
  C   C537      1.0  0.32149  0.57757  0.12910  1.0000
  C   C538      1.0  0.39369  0.63701  0.12466  1.0000
  C   C539      1.0  0.34964  0.64344  0.09654  1.0000
  C   C540      1.0  0.34973  0.67337  0.08609  1.0000
  C   C541      1.0  0.31082  0.68385  0.14688  1.0000
  C   C542      1.0  0.30065  0.55151  0.12497  1.0000
  C   C543      1.0  0.41825  0.61433  0.12743  1.0000
  H   H944      1.0  0.33050  0.58723  0.10970  1.0000
  H   H945      1.0  0.30706  0.61780  0.11406  1.0000
  H   H946      1.0  0.32480  0.67247  0.10793  1.0000
  H   H947      1.0  0.35665  0.68189  0.11219  1.0000
  H   H948      1.0  0.37304  0.59294  0.11548  1.0000
  H   H949      1.0  0.37205  0.59560  0.13245  1.0000
  H   H950      1.0  0.34522  0.63424  0.14195  1.0000
  H   H951      1.0  0.35420  0.67468  0.13471  1.0000
  H   H952      1.0  0.29912  0.65112  0.13071  1.0000
  H   H953      1.0  0.31154  0.69388  0.12640  1.0000
  H   H954      1.0  0.33892  0.56090  0.13210  1.0000
  H   H955      1.0  0.31607  0.59201  0.13771  1.0000
  H   H956      1.0  0.39286  0.65586  0.13282  1.0000
  H   H957      1.0  0.39471  0.65306  0.11556  1.0000
  H   H958      1.0  0.36827  0.62894  0.09743  1.0000
  H   H959      1.0  0.33507  0.62428  0.09292  1.0000
  H   H960      1.0  0.36564  0.69135  0.08857  1.0000
  H   H961      1.0  0.35208  0.66112  0.07656  1.0000
  H   H962      1.0  0.33180  0.68985  0.08501  1.0000
  H   H963      1.0  0.31254  0.66093  0.15415  1.0000
  H   H964      1.0  0.32510  0.70395  0.14995  1.0000
  H   H965      1.0  0.42673  0.61455  0.04428  1.0000
  H   H966      1.0  0.32767  0.90466  0.22142  1.0000
  C   C544      1.0  0.20473  0.53559  0.20854  1.0000
  H   H967      1.0  0.43220  0.86476  0.14933  1.0000
  Fe  Fe64      1.0  0.26871  0.97075  0.98459  1.0000
  C   C545      1.0  0.38250  0.61150  0.99589  1.0000
  H   H968      1.0  0.21866  0.65814  0.99522  1.0000
  H   H969      1.0  0.40701  0.54678  0.18219  1.0000
  H   H970      1.0  0.30188  0.99188  0.22933  1.0000
  H   H971      1.0  0.28514  0.81232  0.02435  1.0000
  H   H972      1.0  0.40401  0.87985  0.12563  1.0000
  H   H973      1.0  0.32723  0.81311  0.15791  1.0000
  H   H974      1.0  0.46862  0.70617  0.10384  1.0000
  H   H975      1.0  0.10783  0.53240  0.21894  1.0000
  C   C546      1.0  0.37872  0.92519  0.12027  1.0000
  C   C547      1.0  0.39334  0.70660  0.99244  1.0000
  H   H976      1.0  0.28720  0.79580  0.99560  1.0000
  C   C548      1.0  0.21946  0.63478  0.98866  1.0000
  C   C549      1.0  0.21422  0.80839  0.98507  1.0000
  H   H977      1.0  0.41996  0.53840  0.22697  1.0000
  H   H978      1.0  0.20409  0.75152  0.98455  1.0000
  C   C550      1.0  0.25737  0.85486  0.98652  1.0000
  C   C551      1.0  0.38194  0.54676  0.20368  1.0000
  C   C552      1.0  0.28299  0.96167  0.21342  1.0000
  H   H979      1.0  0.43658  0.53105  0.19951  1.0000
  H   H980      1.0  0.24307  0.51735  0.20600  1.0000
  H   H981      1.0  0.46406  0.64348  0.22856  1.0000
  H   H982      1.0  0.48146  0.61382  0.07096  1.0000
  H   H983      1.0  0.36943  0.75304  0.98499  1.0000
  H   H984      1.0  0.31936  0.82836  0.22117  1.0000
  C   C553      1.0  0.29384  0.87496  0.22326  1.0000
  C   C554      1.0  0.39570  0.64508  0.22621  1.0000
  H   H985      1.0  0.37168  0.51757  0.18567  1.0000
  C   C555      1.0  0.37868  0.51109  0.19605  1.0000
  H   H986      1.0  0.42069  0.59839  0.22707  1.0000
  C   C556      1.0  0.45624  0.51399  0.22520  1.0000
  C   C557      1.0  0.37183  0.59234  0.98361  1.0000
  N   N30       1.0  0.18530  0.52002  0.22982  1.0000
  H   H987      1.0  0.34105  0.50228  0.20128  1.0000
  H   H988      1.0  0.48642  0.66754  0.98797  1.0000
  H   H989      1.0  0.28506  0.86181  0.23129  1.0000
  H   H990      1.0  0.10134  0.56628  0.23050  1.0000
  Fe  Fe65      1.0  0.22238  0.53054  0.46836  1.0000
  S   S129      1.0  0.20528  0.56931  0.45173  1.0000
  H   H991      1.0  0.02384  0.70428  0.44358  1.0000
  H   H992      1.0  0.17895  0.77867  0.43641  1.0000
  S   S130      1.0  0.23841  0.92007  0.46444  1.0000
  H   H993      1.0  0.99424  0.90374  0.25626  1.0000
  Fe  Fe66      1.0  0.06926  0.72975  0.39976  1.0000
  S   S131      1.0  0.05814  0.78579  0.40588  1.0000
  S   S132      1.0  0.06026  0.70852  0.37921  1.0000
  Fe  Fe67      1.0  0.08598  0.70284  0.42802  1.0000
  S   S133      1.0  0.07523  0.75687  0.43598  1.0000
  S   S134      1.0  0.09906  0.65719  0.44292  1.0000
  Fe  Fe68      1.0  0.03991  0.75702  0.42159  1.0000
  S   S135      1.0  0.00202  0.77280  0.42893  1.0000
  Fe  Fe69      1.0  0.09416  0.78090  0.41977  1.0000
  S   S136      1.0  0.12344  0.82461  0.42209  1.0000
  S   S137      1.0  0.04943  0.70120  0.41490  1.0000
  S   S138      1.0  0.10667  0.72675  0.41240  1.0000
  Fe  Fe70      1.0  0.03896  0.78951  0.28200  1.0000
  S   S139      1.0  0.06805  0.78435  0.26806  1.0000
  H   H994      1.0  0.03343  0.89731  0.23793  1.0000
  Fe  Fe71      1.0  0.07782  0.77970  0.30605  1.0000
  S   S140      1.0  0.10939  0.77394  0.29362  1.0000
  S   S141      1.0  0.09031  0.78520  0.32771  1.0000
  Fe  Fe72      1.0  0.09072  0.82123  0.28177  1.0000
  S   S142      1.0  0.11407  0.86721  0.27483  1.0000
  Fe  Fe73      1.0  0.08418  0.73714  0.28120  1.0000
  S   S143      1.0  0.10326  0.68532  0.27406  1.0000
  S   S144      1.0  0.06061  0.82915  0.29481  1.0000
  S   S145      1.0  0.05369  0.74029  0.29446  1.0000
  C   C558      1.0  0.02741  0.65473  0.30364  1.0000
  S   S146      1.0  0.07822  0.51759  0.26590  1.0000
  H   H995      1.0  0.28230  0.98235  0.36190  1.0000
  H   H996      1.0  0.10464  0.65905  0.34184  1.0000
  H   H997      1.0  0.10498  0.70935  0.30979  1.0000
  H   H998      1.0  0.03050  0.98931  0.26225  1.0000
  H   H999      1.0  0.04614  0.92585  0.28247  1.0000
  C   C559      1.0  0.13899  0.93131  0.27790  1.0000
  C   C560      1.0  0.11974  0.91026  0.28192  1.0000
  C   C561      1.0  0.10567  0.92388  0.29143  1.0000
  C   C562      1.0  0.11090  0.95801  0.29686  1.0000
  N   N31       1.0  0.02862  0.93080  0.26254  1.0000
  H   H1000     1.0  0.14998  0.92112  0.27053  1.0000
  H   H1001     1.0  0.09070  0.90817  0.29455  1.0000
  H   H1002     1.0  0.28828  0.97539  0.25560  1.0000
  C   C563      1.0  0.09450  0.63982  0.27049  1.0000
  C   C564      1.0  0.07188  0.62590  0.27357  1.0000
  C   C565      1.0  0.06710  0.58869  0.27187  1.0000
  C   C566      1.0  0.08431  0.56502  0.26660  1.0000
  C   C567      1.0  0.10649  0.57925  0.26305  1.0000
  C   C568      1.0  0.11164  0.61622  0.26513  1.0000
  H   H1003     1.0  0.05836  0.64356  0.27756  1.0000
  H   H1004     1.0  0.04989  0.57810  0.27468  1.0000
  H   H1005     1.0  0.12007  0.56148  0.25915  1.0000
  H   H1006     1.0  0.12920  0.62653  0.26270  1.0000
  C   C569      1.0  0.06808  0.73087  0.36495  1.0000
  C   C570      1.0  0.05795  0.71900  0.35265  1.0000
  C   C571      1.0  0.06418  0.73562  0.34110  1.0000
  C   C572      1.0  0.08086  0.76402  0.34179  1.0000
  C   C573      1.0  0.09100  0.77583  0.35408  1.0000
  C   C574      1.0  0.08455  0.75951  0.36561  1.0000
  H   H1007     1.0  0.04511  0.69695  0.35208  1.0000
  H   H1008     1.0  0.05615  0.72645  0.33170  1.0000
  H   H1009     1.0  0.10388  0.79782  0.35472  1.0000
  H   H1010     1.0  0.09247  0.76885  0.37501  1.0000
  H   H1011     1.0  0.08306  0.85882  0.24962  1.0000
  H   H1012     1.0  0.07729  0.66282  0.29969  1.0000
  C   C575      1.0  0.16179  0.86500  0.46102  1.0000
  C   C576      1.0  0.17384  0.86647  0.44976  1.0000
  C   C577      1.0  0.16206  0.85341  0.43796  1.0000
  C   C578      1.0  0.13841  0.83783  0.43737  1.0000
  C   C579      1.0  0.12684  0.83482  0.44877  1.0000
  C   C580      1.0  0.13846  0.84848  0.46052  1.0000
  H   H1013     1.0  0.19219  0.87783  0.45015  1.0000
  H   H1014     1.0  0.17130  0.85542  0.42923  1.0000
  H   H1015     1.0  0.10860  0.82299  0.44844  1.0000
  H   H1016     1.0  0.12907  0.84685  0.46922  1.0000
  C   C581      1.0  0.17526  0.59250  0.44935  1.0000
  C   C582      1.0  0.16889  0.61450  0.43806  1.0000
  C   C583      1.0  0.14567  0.63433  0.43591  1.0000
  C   C584      1.0  0.12849  0.63245  0.44507  1.0000
  C   C585      1.0  0.13479  0.61035  0.45634  1.0000
  C   C586      1.0  0.15802  0.59053  0.45850  1.0000
  H   H1017     1.0  0.18202  0.61618  0.43090  1.0000
  H   H1018     1.0  0.14102  0.65088  0.42714  1.0000
  H   H1019     1.0  0.12160  0.60852  0.46346  1.0000
  H   H1020     1.0  0.16260  0.57375  0.46722  1.0000
  N   N32       1.0  0.09864  0.63090  0.31520  1.0000
  C   C587      1.0  0.12098  0.65515  0.31560  1.0000
  C   C588      1.0  0.10298  0.60033  0.30610  1.0000
  C   C589      1.0  0.09650  0.61444  0.32850  1.0000
  H   H1021     1.0  0.16877  0.71877  0.41641  1.0000
  C   C590      1.0  0.12761  0.57682  0.30946  1.0000
  C   C591      1.0  0.11641  0.69597  0.31833  1.0000
  C   C592      1.0  0.14121  0.71547  0.32056  1.0000
  C   C593      1.0  0.19956  0.54847  0.23765  1.0000
  C   C594      1.0  0.13104  0.54996  0.29868  1.0000
  H   H1022     1.0  0.13658  0.64428  0.32288  1.0000
  H   H1023     1.0  0.12871  0.65523  0.30602  1.0000
  H   H1024     1.0  0.10300  0.61146  0.29602  1.0000
  H   H1025     1.0  0.08750  0.58095  0.30565  1.0000
  H   H1026     1.0  0.08298  0.59211  0.32772  1.0000
  H   H1027     1.0  0.11473  0.60115  0.33265  1.0000
  C   C595      1.0  0.99587  0.82683  0.25140  1.0000
  H   H1028     1.0  0.12701  0.56080  0.31863  1.0000
  H   H1029     1.0  0.14442  0.59368  0.31059  1.0000
  H   H1030     1.0  0.10624  0.70031  0.32689  1.0000
  H   H1031     1.0  0.13731  0.74470  0.32220  1.0000
  H   H1032     1.0  0.15308  0.70382  0.32930  1.0000
  H   H1033     1.0  0.15158  0.71323  0.31190  1.0000
  H   H1034     1.0  0.10106  0.60358  0.35545  1.0000
  H   H1035     1.0  0.44368  0.70828  0.25807  1.0000
  C   C596      1.0  0.99083  0.54961  0.41900  1.0000
  H   H1036     1.0  0.99860  0.69430  0.40127  1.0000
  C   C597      1.0  0.21552  0.93482  0.42961  1.0000
  C   C598      1.0  0.07487  0.65163  0.30956  1.0000
  H   H1037     1.0  0.08086  0.94559  0.26250  1.0000
  H   H1038     1.0  0.05109  0.60841  0.30100  1.0000
  C   C599      1.0  0.99203  0.66804  0.42535  1.0000
  C   C600      1.0  0.17153  0.80009  0.35959  1.0000
  H   H1039     1.0  0.00988  0.59948  0.42052  1.0000
  H   H1040     1.0  0.06799  0.60218  0.34929  1.0000
  H   H1041     1.0  0.07946  0.63980  0.35880  1.0000
  C   C601      1.0  0.08906  0.64079  0.33898  1.0000
  H   H1042     1.0  0.32520  0.97276  0.24867  1.0000
  H   H1043     1.0  0.07030  0.86129  0.23272  1.0000
  H   H1044     1.0  0.01017  0.63870  0.30296  1.0000
  H   H1045     1.0  0.18917  0.98216  0.44321  1.0000
  H   H1046     1.0  0.13755  0.92098  0.43925  1.0000
  H   H1047     1.0  0.00908  0.65788  0.42130  1.0000
  H   H1048     1.0  0.13319  0.56473  0.28942  1.0000
  H   H1049     1.0  0.03064  0.89800  0.30183  1.0000
  S   S147      1.0  0.26470  0.52960  0.47370  1.0000
  H   H1050     1.0  0.09669  0.71679  0.46214  1.0000
  H   H1051     1.0  0.14665  0.86745  0.30046  1.0000
  H   H1052     1.0  0.11425  0.90436  0.33801  1.0000
  H   H1053     1.0  0.99463  0.84950  0.23189  1.0000
  H   H1054     1.0  0.26814  0.92176  0.23468  1.0000
  H   H1055     1.0  0.17876  0.93859  0.44588  1.0000
  H   H1056     1.0  0.15762  0.77838  0.35829  1.0000
  H   H1057     1.0  0.09524  0.90687  0.41857  1.0000
  C   C602      1.0  0.27414  0.96548  0.24791  1.0000
  H   H1058     1.0  0.32644  0.88172  0.23662  1.0000
  C   C603      1.0  0.48360  0.70633  0.25606  1.0000
  H   H1059     1.0  0.21733  0.91132  0.43658  1.0000
  C   C604      1.0  0.29104  0.98401  0.37215  1.0000
  H   H1060     1.0  0.16515  0.82023  0.36647  1.0000
  H   H1061     1.0  0.39567  0.64540  0.23694  1.0000
  C   C605      1.0  0.19444  0.55242  0.25205  1.0000
  C   C606      1.0  0.09005  0.91867  0.42774  1.0000
  H   H1062     1.0  0.18986  0.78760  0.36394  1.0000
  S   S148      1.0  0.20554  0.98202  0.47810  1.0000
  C   C607      1.0  0.02700  0.92990  0.27702  1.0000
  H   H1063     1.0  0.15928  0.98109  0.28025  1.0000
  H   H1064     1.0  0.30971  0.96945  0.37310  1.0000
  C   C608      1.0  0.17451  0.81844  0.34648  1.0000
  H   H1065     1.0  0.19688  0.61131  0.25261  1.0000
  H   H1066     1.0  0.24394  0.98337  0.25879  1.0000
  H   H1067     1.0  0.24312  0.80077  0.46961  1.0000
  H   H1068     1.0  0.00120  0.68026  0.37848  1.0000
  H   H1069     1.0  0.22131  0.75641  0.45481  1.0000
  H   H1070     1.0  0.37462  0.93504  0.26096  1.0000
  H   H1071     1.0  0.18192  0.79722  0.34032  1.0000
  N   N33       1.0  0.17369  0.72688  0.45720  1.0000
  C   C609      1.0  0.14434  0.96534  0.28340  1.0000
  H   H1072     1.0  0.17768  0.92379  0.42233  1.0000
  H   H1073     1.0  0.16171  0.89947  0.34222  1.0000
  H   H1074     1.0  0.17106  0.69641  0.43959  1.0000
  H   H1075     1.0  0.19996  0.71767  0.44295  1.0000
  H   H1076     1.0  0.99141  0.59287  0.40497  1.0000
  H   H1077     1.0  0.17003  0.76676  0.41299  1.0000
  H   H1078     1.0  0.13738  0.93431  0.42277  1.0000
  H   H1079     1.0  0.34788  0.51873  0.47213  1.0000
  C   C610      1.0  0.12303  0.86814  0.32225  1.0000
  H   H1080     1.0  0.22319  0.92620  0.42060  1.0000
  S   S149      1.0  0.99676  0.79961  0.27668  1.0000
  Fe  Fe74      1.0  0.23780  0.98111  0.46602  1.0000
  C   C611      1.0  0.16280  0.83743  0.31831  1.0000
  C   C612      1.0  0.17950  0.72176  0.44340  1.0000
  C   C613      1.0  0.20698  0.67306  0.46260  1.0000
  H   H1081     1.0  0.98994  0.98776  0.25471  1.0000
  H   H1082     1.0  0.06952  0.92526  0.42648  1.0000
  H   H1083     1.0  0.09983  0.96841  0.30416  1.0000
  H   H1084     1.0  0.02907  0.66667  0.29383  1.0000
  C   C614      1.0  0.02261  0.67480  0.44579  1.0000
  H   H1085     1.0  0.22262  0.74357  0.47190  1.0000
  S   S150      1.0  0.17503  0.88374  0.47582  1.0000
  H   H1086     1.0  0.13857  0.93916  0.32560  1.0000
  H   H1087     1.0  0.06977  0.96958  0.27584  1.0000
  C   C615      1.0  0.20582  0.58672  0.25789  1.0000
  H   H1088     1.0  0.00416  0.93275  0.24427  1.0000
  H   H1089     1.0  0.17634  0.84447  0.28609  1.0000
  H   H1090     1.0  0.13601  0.71024  0.45061  1.0000
  H   H1091     1.0  0.07092  0.87742  0.31870  1.0000
  H   H1092     1.0  0.11434  0.84376  0.31774  1.0000
  H   H1093     1.0  0.17714  0.96339  0.33792  1.0000
  C   C616      1.0  0.01086  0.89974  0.28210  1.0000
  H   H1094     1.0  0.00017  0.87835  0.30026  1.0000
  H   H1095     1.0  0.16166  0.80756  0.29349  1.0000
  H   H1096     1.0  0.03336  0.87264  0.26090  1.0000
  H   H1097     1.0  0.14818  0.53240  0.30145  1.0000
  H   H1098     1.0  0.18718  0.96882  0.41866  1.0000
  H   H1099     1.0  0.14955  0.75651  0.43251  1.0000
  H   H1100     1.0  0.14329  0.74938  0.47700  1.0000
  H   H1101     1.0  0.06240  0.91917  0.24293  1.0000
  C   C617      1.0  0.18797  0.94735  0.42638  1.0000
  C   C618      1.0  0.17675  0.96136  0.43863  1.0000
  C   C619      1.0  0.08412  0.62013  0.35135  1.0000
  H   H1102     1.0  0.39380  0.95290  0.24928  1.0000
  H   H1103     1.0  0.21590  0.82064  0.45985  1.0000
  H   H1104     1.0  0.22267  0.69138  0.46195  1.0000
  H   H1105     1.0  0.99143  0.69795  0.42358  1.0000
  H   H1106     1.0  0.01515  0.81674  0.25187  1.0000
  C   C620      1.0  0.35543  0.94322  0.24123  1.0000
  C   C621      1.0  0.25050  0.95808  0.25433  1.0000
  H   H1107     1.0  0.18858  0.83972  0.34818  1.0000
  C   C622      1.0  0.14895  0.83476  0.33990  1.0000
  C   C623      1.0  0.18495  0.76073  0.46298  1.0000
  H   H1108     1.0  0.17052  0.98259  0.32167  1.0000
  N   N34       1.0  0.14983  0.85909  0.32800  1.0000
  H   H1109     1.0  0.35681  0.96204  0.23290  1.0000
  H   H1110     1.0  0.17645  0.78534  0.45751  1.0000
  C   C624      1.0  0.22227  0.80069  0.46785  1.0000
  C   C625      1.0  0.15735  0.92803  0.32380  1.0000
  H   H1111     1.0  0.15667  0.92389  0.31322  1.0000
  H   H1112     1.0  0.99093  0.90265  0.27775  1.0000
  C   C626      1.0  0.28403  0.93086  0.24153  1.0000
  C   C627      1.0  0.99176  0.59014  0.41569  1.0000
  C   C628      1.0  0.17486  0.82989  0.29547  1.0000
  H   H1113     1.0  0.20371  0.65917  0.45315  1.0000
  H   H1114     1.0  0.32862  0.92642  0.25402  1.0000
  H   H1115     1.0  0.18479  0.88657  0.33213  1.0000
  H   H1116     1.0  0.06145  0.89401  0.26603  1.0000
  C   C629      1.0  0.06867  0.96861  0.26508  1.0000
  H   H1117     1.0  0.19603  0.57557  0.23265  1.0000
  C   C630      1.0  0.17029  0.75281  0.43346  1.0000
  H   H1118     1.0  0.09927  0.73502  0.47822  1.0000
  H   H1119     1.0  0.12227  0.88801  0.31406  1.0000
  H   H1120     1.0  0.36113  0.91554  0.23841  1.0000
  H   H1121     1.0  0.18427  0.70002  0.47600  1.0000
  C   C631      1.0  0.45619  0.71459  0.25055  1.0000
  H   H1122     1.0  0.17416  0.55363  0.25315  1.0000
  H   H1123     1.0  0.19373  0.81829  0.29936  1.0000
  H   H1124     1.0  0.25452  0.93678  0.26214  1.0000
  H   H1125     1.0  0.06790  0.90751  0.33197  1.0000
  H   H1126     1.0  0.26907  0.98751  0.24049  1.0000
  C   C632      1.0  0.04098  0.96520  0.25902  1.0000
  H   H1127     1.0  0.13724  0.52665  0.23922  1.0000
  H   H1128     1.0  0.15298  0.81152  0.31638  1.0000
  H   H1129     1.0  0.01822  0.87253  0.27977  1.0000
  H   H1130     1.0  0.14032  0.84977  0.34758  1.0000
  H   H1131     1.0  0.01982  0.95653  0.28024  1.0000
  H   H1132     1.0  0.04717  0.61752  0.31775  1.0000
  C   C633      1.0  0.00284  0.93034  0.25490  1.0000
  H   H1133     1.0  0.07115  0.67573  0.31538  1.0000
  H   H1134     1.0  0.19806  0.74170  0.42007  1.0000
  C   C634      1.0  0.18238  0.69338  0.46548  1.0000
  C   C635      1.0  0.05038  0.63002  0.30827  1.0000
  Fe  Fe75      1.0  0.20848  0.92085  0.47782  1.0000
  C   C636      1.0  0.21555  0.64393  0.47307  1.0000
  H   H1135     1.0  0.05397  0.83721  0.24427  1.0000
  H   H1136     1.0  0.07172  0.65714  0.33555  1.0000
  H   H1137     1.0  0.45322  0.74377  0.24765  1.0000
  C   C637      1.0  0.14541  0.73131  0.45681  1.0000
  H   H1138     1.0  0.21445  0.80940  0.47683  1.0000
  H   H1139     1.0  0.18011  0.76421  0.47303  1.0000
  H   H1140     1.0  0.02535  0.67694  0.31058  1.0000
  C   C638      1.0  0.10527  0.88293  0.33191  1.0000
  H   H1141     1.0  0.16789  0.67231  0.46419  1.0000
  C   C639      1.0  0.13480  0.72925  0.47018  1.0000
  C   C640      1.0  0.16423  0.89243  0.33201  1.0000
  H   H1142     1.0  0.00715  0.53490  0.41554  1.0000
  H   H1143     1.0  0.11460  0.53233  0.29703  1.0000
  H   H1144     1.0  0.18247  0.82968  0.32231  1.0000
  C   C641      1.0  0.08050  0.89850  0.32477  1.0000
  C   C642      1.0  0.17732  0.74434  0.41992  1.0000
  H   H1145     1.0  0.20043  0.62454  0.47404  1.0000
  H   H1146     1.0  0.13850  0.75788  0.45218  1.0000
  H   H1147     1.0  0.10046  0.86060  0.33846  1.0000
  C   C643      1.0  0.13328  0.94456  0.43237  1.0000
  C   C644      1.0  0.16503  0.85638  0.30504  1.0000
  H   H1148     1.0  0.02548  0.67050  0.45653  1.0000
  H   H1149     1.0  0.22025  0.54306  0.23805  1.0000
  C   C645      1.0  0.04372  0.89756  0.25927  1.0000
  H   H1150     1.0  0.13669  0.81153  0.33743  1.0000
  H   H1151     1.0  0.17854  0.87852  0.30630  1.0000
  H   H1152     1.0  0.08384  0.92222  0.31850  1.0000
  C   C646      1.0  0.21389  0.76272  0.46409  1.0000
  H   H1153     1.0  0.09418  0.89794  0.43575  1.0000
  C   C647      1.0  0.32839  0.94469  0.24527  1.0000
  H   H1154     1.0  0.19531  0.94836  0.32515  1.0000
  H   H1155     1.0  0.23516  0.94938  0.24701  1.0000
  C   C648      1.0  0.17631  0.95723  0.32742  1.0000
  C   C649      1.0  0.99693  0.66128  0.44031  1.0000
  C   C650      1.0  0.37470  0.95395  0.25246  1.0000
  C   C651      1.0  0.05056  0.89626  0.24509  1.0000
  H   H1156     1.0  0.09894  0.97329  0.42298  1.0000
  H   H1157     1.0  0.03798  0.65972  0.44160  1.0000
  H   H1158     1.0  0.10173  0.76474  0.46440  1.0000
  C   C652      1.0  0.10638  0.73697  0.46858  1.0000
  H   H1159     1.0  0.28736  0.90894  0.24921  1.0000
  C   C653      1.0  0.13030  0.97895  0.29294  1.0000
  C   C654      1.0  0.33463  0.51322  0.47936  1.0000
  N   N35       1.0  0.14980  0.97563  0.43642  1.0000
  H   H1160     1.0  0.23223  0.62836  0.47037  1.0000
  H   H1161     1.0  0.20248  0.58826  0.26827  1.0000
  C   C655      1.0  0.01110  0.90103  0.29688  1.0000
  H   H1162     1.0  0.00360  0.64643  0.39941  1.0000
  N   N36       1.0  0.30749  0.93498  0.23490  1.0000
  C   C656      1.0  0.06536  0.86122  0.24285  1.0000
  C   C657      1.0  0.98962  0.66930  0.39753  1.0000
  C   C658      1.0  0.10452  0.95299  0.43097  1.0000
  H   H1163     1.0  0.13830  0.70179  0.47480  1.0000
  H   H1164     1.0  0.27876  0.97047  0.37857  1.0000
  C   C659      1.0  0.14053  0.54792  0.23197  1.0000
  H   H1165     1.0  0.22643  0.58634  0.25739  1.0000
  H   H1166     1.0  0.99674  0.63196  0.44290  1.0000
  C   C660      1.0  0.13435  0.98417  0.47241  1.0000
  H   H1167     1.0  0.12798  0.94357  0.45805  1.0000
  H   H1168     1.0  0.04001  0.96879  0.24825  1.0000
  H   H1169     1.0  0.00241  0.92708  0.29966  1.0000
  H   H1170     1.0  0.14638  0.57299  0.23705  1.0000
  H   H1171     1.0  0.37056  0.98206  0.25547  1.0000
  H   H1172     1.0  0.32262  0.53806  0.48011  1.0000
  H   H1173     1.0  0.99183  0.54499  0.42971  1.0000
  C   C661      1.0  0.14300  0.99190  0.44888  1.0000
  H   H1174     1.0  0.09839  0.96358  0.44009  1.0000
  H   H1175     1.0  0.14755  0.99278  0.41611  1.0000
  H   H1176     1.0  0.20307  0.52886  0.25805  1.0000
  H   H1177     1.0  0.45085  0.69777  0.24193  1.0000
  H   H1178     1.0  0.16047  0.95126  0.46324  1.0000
  H   H1179     1.0  0.11517  0.99697  0.47031  1.0000
  C   C662      1.0  0.14182  0.96477  0.46044  1.0000
  H   H1180     1.0  0.13440  0.96413  0.48060  1.0000
  H   H1181     1.0  0.22692  0.95719  0.43385  1.0000
  H   H1182     1.0  0.48521  0.67724  0.25927  1.0000
  H   H1183     1.0  0.37256  0.80555  0.60684  1.0000
  C   C663      1.0  0.30502  0.93634  0.62841  1.0000
  C   C664      1.0  0.42173  0.86253  0.63107  1.0000
  C   C665      1.0  0.02000  0.58002  0.72928  1.0000
  S   S151      1.0  0.29773  0.87620  0.48459  1.0000
  S   S152      1.0  0.27396  0.56012  0.51160  1.0000
  H   H1184     1.0  0.06357  0.68402  0.73027  1.0000
  C   C666      1.0  0.35180  0.81977  0.58835  1.0000
  S   S153      1.0  0.23550  0.91700  0.49628  1.0000
  Fe  Fe76      1.0  0.39148  0.72331  0.56557  1.0000
  S   S154      1.0  0.41480  0.76973  0.56053  1.0000
  S   S155      1.0  0.37740  0.71459  0.58536  1.0000
  Fe  Fe77      1.0  0.38561  0.69498  0.53738  1.0000
  S   S156      1.0  0.40898  0.73986  0.53053  1.0000
  S   S157      1.0  0.37180  0.65523  0.52145  1.0000
  Fe  Fe78      1.0  0.43529  0.72924  0.54911  1.0000
  H   H1185     1.0  0.00644  0.53225  0.71892  1.0000
  Fe  Fe79      1.0  0.38673  0.77660  0.54242  1.0000
  S   S158      1.0  0.36822  0.83248  0.53714  1.0000
  S   S159      1.0  0.41318  0.68186  0.55519  1.0000
  S   S160      1.0  0.36209  0.73252  0.54821  1.0000
  Fe  Fe80      1.0  0.41587  0.76853  0.65882  1.0000
  S   S161      1.0  0.37688  0.75250  0.66202  1.0000
  S   S162      1.0  0.43365  0.76141  0.64004  1.0000
  Fe  Fe81      1.0  0.42770  0.79876  0.68624  1.0000
  S   S163      1.0  0.38932  0.78447  0.69096  1.0000
  C   C667      1.0  0.28511  0.59040  0.70838  1.0000
  Fe  Fe82      1.0  0.39511  0.73067  0.68162  1.0000
  S   S164      1.0  0.38872  0.68056  0.69443  1.0000
  Fe  Fe83      1.0  0.37459  0.80765  0.67119  1.0000
  S   S165      1.0  0.33914  0.84492  0.66897  1.0000
  S   S166      1.0  0.43448  0.74381  0.67791  1.0000
  S   S167      1.0  0.41247  0.82484  0.66687  1.0000
  C   C668      1.0  0.34935  0.50273  0.49256  1.0000
  H   H1186     1.0  0.19309  0.92387  0.72426  1.0000
  H   H1187     1.0  0.34086  0.79180  0.60501  1.0000
  H   H1188     1.0  0.33431  0.74217  0.62546  1.0000
  C   C669      1.0  0.32641  0.72333  0.49981  1.0000
  N   N37       1.0  0.34889  0.85090  0.62433  1.0000
  C   C670      1.0  0.31203  0.54318  0.69931  1.0000
  C   C671      1.0  0.33684  0.89302  0.66672  1.0000
  C   C672      1.0  0.31507  0.91221  0.66959  1.0000
  C   C673      1.0  0.31189  0.95009  0.66720  1.0000
  H   H1189     1.0  0.00071  0.72110  0.71582  1.0000
  C   C674      1.0  0.35212  0.94988  0.65886  1.0000
  C   C675      1.0  0.35544  0.91219  0.66143  1.0000
  H   H1190     1.0  0.30042  0.89766  0.67358  1.0000
  H   H1191     1.0  0.29496  0.96443  0.66936  1.0000
  H   H1192     1.0  0.30958  0.80995  0.63628  1.0000
  H   H1193     1.0  0.37206  0.89782  0.65898  1.0000
  C   C676      1.0  0.38315  0.63342  0.69249  1.0000
  C   C677      1.0  0.38759  0.60987  0.70350  1.0000
  C   C678      1.0  0.38393  0.57222  0.70251  1.0000
  C   C679      1.0  0.37509  0.55761  0.69053  1.0000
  C   C680      1.0  0.37048  0.58118  0.67953  1.0000
  C   C681      1.0  0.37448  0.61880  0.68048  1.0000
  H   H1194     1.0  0.39437  0.62077  0.71284  1.0000
  H   H1195     1.0  0.38832  0.55445  0.71097  1.0000
  H   H1196     1.0  0.36366  0.57028  0.67019  1.0000
  H   H1197     1.0  0.37071  0.63650  0.67194  1.0000
  C   C682      1.0  0.41749  0.74881  0.62490  1.0000
  C   C683      1.0  0.42895  0.75368  0.61346  1.0000
  C   C684      1.0  0.41683  0.74377  0.60126  1.0000
  C   C685      1.0  0.39320  0.72844  0.60041  1.0000
  C   C686      1.0  0.38171  0.72368  0.61185  1.0000
  C   C687      1.0  0.39369  0.73399  0.62402  1.0000
  H   H1198     1.0  0.44734  0.76514  0.61403  1.0000
  H   H1199     1.0  0.42591  0.74755  0.59255  1.0000
  H   H1200     1.0  0.36352  0.71163  0.61127  1.0000
  H   H1201     1.0  0.38472  0.72984  0.63274  1.0000
  C   C688      1.0  0.31702  0.86451  0.49934  1.0000
  C   C689      1.0  0.31356  0.88110  0.51108  1.0000
  C   C690      1.0  0.32939  0.87106  0.52257  1.0000
  C   C691      1.0  0.34855  0.84400  0.52249  1.0000
  C   C692      1.0  0.35197  0.82740  0.51077  1.0000
  C   C693      1.0  0.33626  0.83756  0.49926  1.0000
  H   H1202     1.0  0.29888  0.90195  0.51127  1.0000
  H   H1203     1.0  0.32676  0.88433  0.53157  1.0000
  H   H1204     1.0  0.36702  0.80717  0.51056  1.0000
  H   H1205     1.0  0.28855  0.51443  0.66833  1.0000
  C   C694      1.0  0.29974  0.58964  0.51361  1.0000
  C   C695      1.0  0.31489  0.59628  0.50374  1.0000
  C   C696      1.0  0.33662  0.61683  0.50627  1.0000
  C   C697      1.0  0.34313  0.63194  0.51855  1.0000
  C   C698      1.0  0.32740  0.62661  0.52825  1.0000
  C   C699      1.0  0.30598  0.60537  0.52581  1.0000
  H   H1206     1.0  0.31021  0.58483  0.49427  1.0000
  H   H1207     1.0  0.34857  0.62085  0.49866  1.0000
  H   H1208     1.0  0.33214  0.63786  0.53777  1.0000
  H   H1209     1.0  0.29441  0.60053  0.53353  1.0000
  H   H1210     1.0  0.31857  0.58344  0.72901  1.0000
  N   N38       1.0  0.39667  0.92319  0.70187  1.0000
  H   H1211     1.0  0.08706  0.95633  0.69792  1.0000
  H   H1212     1.0  0.33040  0.92000  0.61475  1.0000
  H   H1213     1.0  0.42516  0.52032  0.69491  1.0000
  H   H1214     1.0  0.39975  0.54695  0.53472  1.0000
  C   C700      1.0  0.47949  0.84418  0.70594  1.0000
  C   C701      1.0  0.44101  0.64981  0.65698  1.0000
  C   C702      1.0  0.32881  0.87524  0.62917  1.0000
  H   H1215     1.0  0.27590  0.70757  0.50157  1.0000
  C   C703      1.0  0.28846  0.52817  0.71749  1.0000
  H   H1216     1.0  0.45064  0.94109  0.67574  1.0000
  S   S168      1.0  0.21382  0.53076  0.48913  1.0000
  C   C704      1.0  0.35325  0.72948  0.49685  1.0000
  C   C705      1.0  0.00982  0.56123  0.71682  1.0000
  N   N39       1.0  0.30263  0.55760  0.71146  1.0000
  H   H1217     1.0  0.39809  0.81729  0.62821  1.0000
  H   H1218     1.0  0.31164  0.80188  0.61936  1.0000
  C   C706      1.0  0.30346  0.51988  0.67637  1.0000
  H   H1219     1.0  0.38862  0.93753  0.72124  1.0000
  H   H1220     1.0  0.36644  0.96428  0.65452  1.0000
  H   H1221     1.0  0.31649  0.51509  0.50231  1.0000
  H   H1222     1.0  0.31360  0.73666  0.49181  1.0000
  H   H1223     1.0  0.47215  0.80638  0.50287  1.0000
  H   H1224     1.0  0.45906  0.57815  0.69592  1.0000
  H   H1225     1.0  0.48074  0.64280  0.49896  1.0000
  S   S169      1.0  0.44959  0.82429  0.70393  1.0000
  H   H1226     1.0  0.27989  0.55903  0.68462  1.0000
  S   S170      1.0  0.26776  0.97976  0.48313  1.0000
  H   H1227     1.0  0.48320  0.74116  0.49893  1.0000
  H   H1228     1.0  0.37509  0.89452  0.62451  1.0000
  H   H1229     1.0  0.37640  0.86916  0.63948  1.0000
  H   H1230     1.0  0.28467  0.79214  0.55166  1.0000
  H   H1231     1.0  0.21246  0.97129  0.55378  1.0000
  H   H1232     1.0  0.36477  0.84098  0.58585  1.0000
  H   H1233     1.0  0.36619  0.82482  0.71216  1.0000
  C   C707      1.0  0.39755  0.84597  0.62489  1.0000
  C   C708      1.0  0.32192  0.73764  0.51345  1.0000
  H   H1234     1.0  0.39787  0.84760  0.61419  1.0000
  C   C709      1.0  0.48740  0.67065  0.50053  1.0000
  C   C710      1.0  0.43918  0.91699  0.67357  1.0000
  C   C711      1.0  0.38368  0.88753  0.70051  1.0000
  H   H1235     1.0  0.29692  0.80882  0.53016  1.0000
  C   C712      1.0  0.08669  0.97133  0.70710  1.0000
  H   H1236     1.0  0.48703  0.63101  0.66951  1.0000
  H   H1237     1.0  0.36720  0.71914  0.50499  1.0000
  H   H1238     1.0  0.43822  0.84675  0.62825  1.0000
  H   H1239     1.0  0.17415  0.91770  0.70939  1.0000
  H   H1240     1.0  0.32520  0.56222  0.69547  1.0000
  H   H1241     1.0  0.13497  0.88942  0.72076  1.0000
  C   C713      1.0  0.14594  0.90341  0.72890  1.0000
  H   H1242     1.0  0.42274  0.89117  0.62767  1.0000
  H   H1243     1.0  0.30091  0.61282  0.69113  1.0000
  C   C714      1.0  0.46092  0.63871  0.52288  1.0000
  C   C715      1.0  0.18699  0.97252  0.71233  1.0000
  H   H1244     1.0  0.34779  0.52691  0.54198  1.0000
  H   H1245     1.0  0.25896  0.64355  0.69171  1.0000
  H   H1246     1.0  0.35343  0.52602  0.71801  1.0000
  C   C716      1.0  0.35141  0.84477  0.70776  1.0000
  H   H1247     1.0  0.27053  0.52350  0.71126  1.0000
  Fe  Fe84      1.0  0.23543  0.97813  0.49517  1.0000
  C   C717      1.0  0.40642  0.66561  0.48787  1.0000
  H   H1248     1.0  0.26067  0.84467  0.50830  1.0000
  H   H1249     1.0  0.35377  0.81566  0.64155  1.0000
  H   H1250     1.0  0.39544  0.66595  0.49634  1.0000
  C   C718      1.0  0.36403  0.52152  0.53642  1.0000
  C   C719      1.0  0.28321  0.77423  0.50766  1.0000
  C   C720      1.0  0.32314  0.75639  0.63233  1.0000
  H   H1251     1.0  0.41695  0.62901  0.64046  1.0000
  H   H1252     1.0  0.29512  0.68372  0.51436  1.0000
  C   C721      1.0  0.40505  0.93084  0.71595  1.0000
  H   H1253     1.0  0.32381  0.85349  0.60615  1.0000
  H   H1254     1.0  0.25738  0.64273  0.51222  1.0000
  H   H1255     1.0  0.33013  0.87333  0.64001  1.0000
  C   C722      1.0  0.29469  0.74900  0.53035  1.0000
  C   C723      1.0  0.29555  0.62189  0.70062  1.0000
  H   H1256     1.0  0.34498  0.92920  0.63094  1.0000
  H   H1257     1.0  0.30464  0.72583  0.53616  1.0000
  C   C724      1.0  0.46516  0.62548  0.53711  1.0000
  Fe  Fe85      1.0  0.25607  0.52721  0.49444  1.0000
  H   H1258     1.0  0.32666  0.78456  0.53397  1.0000
  C   C725      1.0  0.29155  0.53446  0.68804  1.0000
  H   H1259     1.0  0.27540  0.74983  0.53319  1.0000
  H   H1260     1.0  0.33242  0.71837  0.52079  1.0000
  H   H1261     1.0  0.35761  0.79395  0.58399  1.0000
  H   H1262     1.0  0.36624  0.88858  0.71895  1.0000
  H   H1263     1.0  0.33158  0.76364  0.51471  1.0000
  Fe  Fe86      1.0  0.26554  0.91879  0.48295  1.0000
  H   H1264     1.0  0.33619  0.58832  0.71568  1.0000
  H   H1265     1.0  0.09004  0.67254  0.72166  1.0000
  N   N40       1.0  0.15362  0.94019  0.72428  1.0000
  C   C726      1.0  0.36109  0.88322  0.70850  1.0000
  H   H1266     1.0  0.24537  0.72130  0.51968  1.0000
  H   H1267     1.0  0.35672  0.71509  0.48787  1.0000
  H   H1268     1.0  0.43122  0.89611  0.69780  1.0000
  C   C727      1.0  0.37403  0.86668  0.62869  1.0000
  C   C728      1.0  0.41464  0.92050  0.67968  1.0000
  C   C729      1.0  0.10564  0.95406  0.71790  1.0000
  C   C730      1.0  0.45837  0.64605  0.70106  1.0000
  H   H1269     1.0  0.38818  0.55187  0.55030  1.0000
  C   C731      1.0  0.48106  0.60668  0.67473  1.0000
  H   H1270     1.0  0.33483  0.84287  0.71321  1.0000
  H   H1271     1.0  0.29917  0.50161  0.71782  1.0000
  H   H1272     1.0  0.98890  0.72704  0.69883  1.0000
  C   C732      1.0  0.44535  0.54476  0.67995  1.0000
  H   H1273     1.0  0.44189  0.71849  0.49311  1.0000
  C   C733      1.0  0.30465  0.78915  0.54986  1.0000
  H   H1274     1.0  0.45428  0.64301  0.54321  1.0000
  H   H1275     1.0  0.25318  0.78839  0.51995  1.0000
  H   H1276     1.0  0.44049  0.63710  0.51963  1.0000
  H   H1277     1.0  0.31372  0.76549  0.55565  1.0000
  H   H1278     1.0  0.46355  0.68111  0.71770  1.0000
  H   H1279     1.0  0.48542  0.62589  0.54092  1.0000
  H   H1280     1.0  0.28271  0.76858  0.49714  1.0000
  H   H1281     1.0  0.13315  0.94118  0.70486  1.0000
  C   C734      1.0  0.30654  0.78462  0.53534  1.0000
  H   H1282     1.0  0.44243  0.63277  0.70498  1.0000
  H   H1283     1.0  0.45875  0.51091  0.69714  1.0000
  C   C735      1.0  0.25885  0.69800  0.51942  1.0000
  H   H1284     1.0  0.45542  0.69492  0.52645  1.0000
  C   C736      1.0  0.32894  0.91615  0.62530  1.0000
  H   H1285     1.0  0.40153  0.66194  0.64996  1.0000
  C   C737      1.0  0.35469  0.52120  0.52163  1.0000
  N   N41       1.0  0.46974  0.69302  0.50782  1.0000
  H   H1286     1.0  0.33420  0.51523  0.73042  1.0000
  C   C738      1.0  0.38257  0.55154  0.53961  1.0000
  H   H1287     1.0  0.46265  0.53785  0.67549  1.0000
  H   H1288     1.0  0.29529  0.79815  0.50903  1.0000
  H   H1289     1.0  0.42278  0.86142  0.64185  1.0000
  H   H1290     1.0  0.47582  0.63020  0.70460  1.0000
  S   S171      1.0  0.36925  0.51045  0.68875  1.0000
  H   H1291     1.0  0.26550  0.68907  0.52963  1.0000
  H   H1292     1.0  0.34522  0.90205  0.70462  1.0000
  H   H1293     1.0  0.28391  0.67521  0.69230  1.0000
  H   H1294     1.0  0.46664  0.66850  0.68248  1.0000
  H   H1295     1.0  0.99164  0.57469  0.71271  1.0000
  H   H1296     1.0  0.43235  0.94372  0.69739  1.0000
  H   H1297     1.0  0.32343  0.51759  0.70164  1.0000
  C   C739      1.0  0.13289  0.95555  0.71423  1.0000
  H   H1298     1.0  0.31231  0.63318  0.70623  1.0000
  C   C740      1.0  0.44356  0.69555  0.50041  1.0000
  H   H1299     1.0  0.39735  0.86423  0.70301  1.0000
  H   H1300     1.0  0.37615  0.88341  0.69018  1.0000
  H   H1301     1.0  0.40333  0.89701  0.67666  1.0000
  C   C741      1.0  0.37840  0.95319  0.69630  1.0000
  H   H1302     1.0  0.25256  0.82410  0.49278  1.0000
  H   H1303     1.0  0.45881  0.59726  0.53794  1.0000
  H   H1304     1.0  0.34076  0.54421  0.51970  1.0000
  N   N42       1.0  0.29476  0.74235  0.51597  1.0000
  C   C742      1.0  0.41968  0.92111  0.69473  1.0000
  H   H1305     1.0  0.45016  0.89201  0.67730  1.0000
  C   C743      1.0  0.28176  0.70761  0.51227  1.0000
  H   H1306     1.0  0.23595  0.67549  0.50301  1.0000
  N   N43       1.0  0.45505  0.61343  0.67860  1.0000
  C   C744      1.0  0.44680  0.58215  0.68656  1.0000
  C   C745      1.0  0.25598  0.78631  0.50956  1.0000
  C   C746      1.0  0.43687  0.61742  0.66627  1.0000
  H   H1307     1.0  0.42935  0.70210  0.50717  1.0000
  H   H1308     1.0  0.27038  0.66404  0.70696  1.0000
  C   C747      1.0  0.24915  0.82367  0.50317  1.0000
  H   H1309     1.0  0.43493  0.91521  0.66283  1.0000
  H   H1310     1.0  0.42777  0.58870  0.68936  1.0000
  H   H1311     1.0  0.06745  0.97055  0.71007  1.0000
  H   H1312     1.0  0.43451  0.66184  0.68381  1.0000
  H   H1313     1.0  0.41725  0.62007  0.66877  1.0000
  H   H1314     1.0  0.43762  0.59272  0.66031  1.0000
  H   H1315     1.0  0.26701  0.58247  0.70297  1.0000
  H   H1316     1.0  0.48528  0.84410  0.68570  1.0000
  C   C748      1.0  0.41934  0.65440  0.64599  1.0000
  H   H1317     1.0  0.45854  0.64508  0.65241  1.0000
  H   H1318     1.0  0.44236  0.67586  0.66213  1.0000
  H   H1319     1.0  0.47961  0.84824  0.72672  1.0000
  H   H1320     1.0  0.42894  0.54482  0.67230  1.0000
  H   H1321     1.0  0.46198  0.98339  0.71743  1.0000
  H   H1322     1.0  0.36198  0.95518  0.70193  1.0000
  H   H1323     1.0  0.21711  0.99178  0.70201  1.0000
  H   H1324     1.0  0.42346  0.67643  0.63916  1.0000
  H   H1325     1.0  0.44324  0.76117  0.50967  1.0000
  C   C749      1.0  0.45360  0.64852  0.68593  1.0000
  H   H1326     1.0  0.28827  0.92658  0.62231  1.0000
  C   C750      1.0  0.24460  0.66683  0.51291  1.0000
  H   H1327     1.0  0.36136  0.79427  0.62742  1.0000
  H   H1328     1.0  0.35309  0.87318  0.60519  1.0000
  C   C751      1.0  0.34426  0.84975  0.60961  1.0000
  C   C752      1.0  0.27590  0.65299  0.69775  1.0000
  C   C753      1.0  0.38899  0.99183  0.69623  1.0000
  H   H1329     1.0  0.30976  0.86594  0.62559  1.0000
  H   H1330     1.0  0.31623  0.53995  0.67280  1.0000
  C   C754      1.0  0.35309  0.81453  0.60313  1.0000
  H   H1331     1.0  0.31446  0.81393  0.55321  1.0000
  H   H1332     1.0  0.33234  0.82752  0.58402  1.0000
  C   C755      1.0  0.33031  0.96910  0.66167  1.0000
  H   H1333     1.0  0.37009  0.94680  0.68627  1.0000
  H   H1334     1.0  0.33192  0.75071  0.64247  1.0000
  H   H1335     1.0  0.40454  0.94575  0.67560  1.0000
  H   H1336     1.0  0.30397  0.74551  0.63129  1.0000
  C   C756      1.0  0.32143  0.79723  0.62935  1.0000
  H   H1337     1.0  0.35595  0.75885  0.49522  1.0000
  C   C757      1.0  0.34775  0.81406  0.63087  1.0000
  H   H1338     1.0  0.22898  0.83081  0.50369  1.0000
  H   H1339     1.0  0.13589  0.98463  0.71197  1.0000
  H   H1340     1.0  0.02205  0.60900  0.72671  1.0000
  H   H1341     1.0  0.46166  0.81773  0.51827  1.0000
  H   H1342     1.0  0.02315  0.56308  0.70941  1.0000
  C   C758      1.0  0.47964  0.73094  0.50875  1.0000
  H   H1343     1.0  0.46226  0.75412  0.52512  1.0000
  H   H1344     1.0  0.44248  0.70003  0.70423  1.0000
  C   C759      1.0  0.44189  0.51435  0.68981  1.0000
  H   H1345     1.0  0.48120  0.98579  0.70000  1.0000
  H   H1346     1.0  0.36111  0.52592  0.49551  1.0000
  H   H1347     1.0  0.41632  0.95560  0.71663  1.0000
  H   H1348     1.0  0.22941  0.65886  0.51871  1.0000
  C   C760      1.0  0.21065  0.96556  0.70568  1.0000
  C   C761      1.0  0.46278  0.75999  0.51459  1.0000
  H   H1349     1.0  0.33918  0.82482  0.49021  1.0000
  C   C762      1.0  0.46895  0.67836  0.52148  1.0000
  H   H1350     1.0  0.24268  0.76678  0.50485  1.0000
  H   H1351     1.0  0.20667  0.94755  0.69727  1.0000
  H   H1352     1.0  0.37376  0.57851  0.53644  1.0000
  C   C763      1.0  0.43457  0.66208  0.49251  1.0000
  H   H1353     1.0  0.99460  0.66395  0.73072  1.0000
  C   C764      1.0  0.32491  0.56868  0.72062  1.0000
  C   C765      1.0  0.17724  0.93657  0.71767  1.0000
  H   H1354     1.0  0.27988  0.60225  0.71754  1.0000
  S   S172      1.0  0.47797  0.71566  0.55130  1.0000
  H   H1355     1.0  0.06447  0.61929  0.72303  1.0000
  C   C766      1.0  0.21176  0.99709  0.54798  1.0000
  H   H1356     1.0  0.32339  0.69371  0.49946  1.0000
  H   H1357     1.0  0.34555  0.83775  0.69749  1.0000
  H   H1358     1.0  0.10002  0.92574  0.71937  1.0000
  H   H1359     1.0  0.37049  0.52876  0.51624  1.0000
  H   H1360     1.0  0.17280  0.98625  0.70499  1.0000
  C   C767      1.0  0.47309  0.79787  0.51329  1.0000
  C   C768      1.0  0.34371  0.53751  0.72597  1.0000
  C   C769      1.0  0.08135  0.66731  0.73072  1.0000
  H   H1361     1.0  0.43808  0.63633  0.49822  1.0000
  H   H1362     1.0  0.30253  0.93237  0.63886  1.0000
  H   H1363     1.0  0.44467  0.65992  0.48374  1.0000
  H   H1364     1.0  0.10380  0.96871  0.72697  1.0000
  H   H1365     1.0  0.41159  0.87452  0.72386  1.0000
  H   H1366     1.0  0.22602  0.95298  0.71267  1.0000
  H   H1367     1.0  0.05793  0.55947  0.72758  1.0000
  H   H1368     1.0  0.48106  0.58462  0.66755  1.0000
  H   H1369     1.0  0.47169  0.61976  0.51727  1.0000
  H   H1370     1.0  0.27906  0.51342  0.69115  1.0000
  H   H1371     1.0  0.40719  0.99241  0.69215  1.0000
  H   H1372     1.0  0.20537  0.99134  0.53763  1.0000
  H   H1373     1.0  0.43930  0.89532  0.71937  1.0000
  H   H1374     1.0  0.19195  0.99150  0.72033  1.0000
  H   H1375     1.0  0.30639  0.96591  0.62643  1.0000
  H   H1376     1.0  0.47608  0.69839  0.70344  1.0000
  C   C770      1.0  0.42156  0.90036  0.72370  1.0000
  H   H1377     1.0  0.09094  0.00015  0.70529  1.0000
  C   C771      1.0  0.46026  0.68374  0.70691  1.0000
  H   H1378     1.0  0.17617  0.86405  0.72580  1.0000
  H   H1379     1.0  0.24848  0.50158  0.72995  1.0000
  H   H1380     1.0  0.40068  0.64203  0.48185  1.0000
  H   H1381     1.0  0.40187  0.69089  0.48188  1.0000
  H   H1382     1.0  0.26951  0.56042  0.73151  1.0000
  C   C772      1.0  0.28140  0.53521  0.73138  1.0000
  H   H1383     1.0  0.22072  0.65650  0.48259  1.0000
  C   C773      1.0  0.17932  0.66203  0.79517  1.0000
  H   H1384     1.0  0.24929  0.66339  0.97231  1.0000
  S   S173      1.0  0.24423  0.55241  0.96528  1.0000
  Fe  Fe87      1.0  0.21625  0.95466  0.97106  1.0000
  S   S174      1.0  0.19320  0.90308  0.96820  1.0000
  S   S175      1.0  0.25403  0.95840  0.96387  1.0000
  Fe  Fe88      1.0  0.10796  0.70821  0.91869  1.0000
  S   S176      1.0  0.11469  0.75271  0.90444  1.0000
  S   S177      1.0  0.14039  0.66605  0.92201  1.0000
  Fe  Fe89      1.0  0.05486  0.73883  0.92172  1.0000
  S   S178      1.0  0.05890  0.78616  0.90817  1.0000
  S   S179      1.0  0.01974  0.72812  0.93193  1.0000
  Fe  Fe90      1.0  0.07526  0.74503  0.89535  1.0000
  S   S180      1.0  0.05914  0.74539  0.87389  1.0000
  Fe  Fe91      1.0  0.09843  0.79031  0.91838  1.0000
  S   S181      1.0  0.11781  0.84478  0.92082  1.0000
  S   S182      1.0  0.06945  0.69747  0.90849  1.0000
  S   S183      1.0  0.09339  0.74601  0.93312  1.0000
  Fe  Fe92      1.0  0.09275  0.72121  0.80095  1.0000
  S   S184      1.0  0.11914  0.72796  0.78560  1.0000
  S   S185      1.0  0.11119  0.72822  0.82183  1.0000
  Fe  Fe93      1.0  0.05038  0.69735  0.78072  1.0000
  S   S186      1.0  0.07397  0.70272  0.76436  1.0000
  S   S187      1.0  0.01126  0.67406  0.77851  1.0000
  Fe  Fe94      1.0  0.10480  0.67462  0.77810  1.0000
  S   S188      1.0  0.13047  0.62951  0.77127  1.0000
  Fe  Fe95      1.0  0.08609  0.75587  0.77332  1.0000
  S   S189      1.0  0.08615  0.80438  0.75875  1.0000
  S   S190      1.0  0.08060  0.66636  0.79403  1.0000
  S   S191      1.0  0.06034  0.75196  0.78909  1.0000
  S   S192      1.0  0.11189  0.97353  0.76232  1.0000
  H   H1385     1.0  0.16371  0.59673  0.80491  1.0000
  H   H1386     1.0  0.41154  0.91444  0.74286  1.0000
  C   C774      1.0  0.13815  0.58580  0.77866  1.0000
  C   C775      1.0  0.15897  0.56552  0.77515  1.0000
  H   H1387     1.0  0.07861  0.64556  0.96646  1.0000
  H   H1388     1.0  0.09460  0.61170  0.73263  1.0000
  C   C776      1.0  0.99481  0.65963  0.76371  1.0000
  C   C777      1.0  0.12350  0.57019  0.78749  1.0000
  H   H1389     1.0  0.17045  0.57726  0.76832  1.0000
  C   C778      1.0  0.05317  0.59450  0.77102  1.0000
  C   C779      1.0  0.19024  0.72794  0.94137  1.0000
  H   H1390     1.0  0.10755  0.58544  0.79037  1.0000
  C   C780      1.0  0.09265  0.85160  0.76022  1.0000
  C   C781      1.0  0.10616  0.86550  0.77133  1.0000
  C   C782      1.0  0.11177  0.90273  0.77175  1.0000
  C   C783      1.0  0.10363  0.92689  0.76121  1.0000
  C   C784      1.0  0.08981  0.91310  0.75018  1.0000
  C   C785      1.0  0.08470  0.87570  0.74963  1.0000
  H   H1391     1.0  0.11256  0.84749  0.77953  1.0000
  H   H1392     1.0  0.12243  0.91294  0.78036  1.0000
  H   H1393     1.0  0.15068  0.68003  0.83417  1.0000
  H   H1394     1.0  0.18437  0.68603  0.95514  1.0000
  C   C786      1.0  0.07388  0.73753  0.85964  1.0000
  C   C787      1.0  0.05917  0.74045  0.84744  1.0000
  C   C788      1.0  0.07017  0.73674  0.83578  1.0000
  C   C789      1.0  0.09614  0.73062  0.83621  1.0000
  C   C790      1.0  0.11087  0.72740  0.84841  1.0000
  C   C791      1.0  0.09979  0.73032  0.86008  1.0000
  H   H1395     1.0  0.03910  0.74596  0.84699  1.0000
  H   H1396     1.0  0.05861  0.73938  0.82647  1.0000
  H   H1397     1.0  0.13098  0.72297  0.84885  1.0000
  H   H1398     1.0  0.11134  0.72776  0.86939  1.0000
  C   C792      1.0  0.17241  0.88757  0.95481  1.0000
  C   C793      1.0  0.15985  0.85509  0.95636  1.0000
  C   C794      1.0  0.14320  0.84157  0.94610  1.0000
  C   C795      1.0  0.13894  0.86028  0.93407  1.0000
  C   C796      1.0  0.15151  0.89276  0.93252  1.0000
  C   C797      1.0  0.16815  0.90631  0.94279  1.0000
  H   H1399     1.0  0.16268  0.84060  0.96564  1.0000
  H   H1400     1.0  0.13328  0.81707  0.94756  1.0000
  H   H1401     1.0  0.14830  0.90766  0.92331  1.0000
  H   H1402     1.0  0.17757  0.93133  0.94141  1.0000
  C   C798      1.0  0.16489  0.59438  0.95851  1.0000
  C   C799      1.0  0.14731  0.62338  0.95904  1.0000
  C   C800      1.0  0.13985  0.64599  0.94801  1.0000
  C   C801      1.0  0.14945  0.63913  0.93626  1.0000
  C   C802      1.0  0.16713  0.61029  0.93576  1.0000
  C   C803      1.0  0.17494  0.58811  0.94685  1.0000
  H   H1403     1.0  0.13966  0.62860  0.96808  1.0000
  H   H1404     1.0  0.12698  0.66894  0.94863  1.0000
  H   H1405     1.0  0.17479  0.60494  0.92673  1.0000
  H   H1406     1.0  0.18847  0.56582  0.94633  1.0000
  H   H1407     1.0  0.05860  0.71935  0.95445  1.0000
  H   H1408     1.0  0.18106  0.51481  0.77746  1.0000
  H   H1409     1.0  0.13777  0.94305  0.87343  1.0000
  H   H1410     1.0  0.15900  0.76200  0.93206  1.0000
  H   H1411     1.0  0.03292  0.82142  0.88180  1.0000
  H   H1412     1.0  0.09641  0.57696  0.75731  1.0000
  C   C804      1.0  0.24921  0.60861  0.93718  1.0000
  C   C805      1.0  0.15656  0.96617  0.73539  1.0000
  H   H1413     1.0  0.17132  0.93295  0.75253  1.0000
  H   H1414     1.0  0.18258  0.67502  0.83021  1.0000
  H   H1415     1.0  0.26607  0.65716  0.94413  1.0000
  C   C806      1.0  0.16503  0.53004  0.78030  1.0000
  C   C807      1.0  0.16712  0.87514  0.73410  1.0000
  C   C808      1.0  0.26978  0.71664  0.96162  1.0000
  H   H1416     1.0  0.10367  0.60165  0.90501  1.0000
  H   H1417     1.0  0.06270  0.53382  0.95056  1.0000
  H   H1418     1.0  0.18086  0.70752  0.85054  1.0000
  H   H1419     1.0  0.03570  0.60067  0.95712  1.0000
  C   C809      1.0  0.03728  0.85048  0.88308  1.0000
  H   H1420     1.0  0.26721  0.59236  0.93797  1.0000
  C   C810      1.0  0.08298  0.52241  0.75762  1.0000
  H   H1421     1.0  0.10717  0.95153  0.87887  1.0000
  C   C811      1.0  0.07167  0.70145  0.96110  1.0000
  H   H1422     1.0  0.07473  0.63073  0.75263  1.0000
  H   H1423     1.0  0.43901  0.93649  0.73828  1.0000
  C   C812      1.0  0.23005  0.67595  0.97026  1.0000
  C   C813      1.0  0.03864  0.58318  0.78221  1.0000
  H   H1424     1.0  0.03703  0.54941  0.75989  1.0000
  H   H1425     1.0  0.05193  0.62460  0.77009  1.0000
  H   H1426     1.0  0.27418  0.88442  0.96378  1.0000
  H   H1427     1.0  0.18200  0.88670  0.74091  1.0000
  C   C814      1.0  0.06661  0.64957  0.94527  1.0000
  H   H1428     1.0  0.08157  0.53989  0.93746  1.0000
  H   H1429     1.0  0.05410  0.66811  0.93855  1.0000
  H   H1430     1.0  0.27295  0.84317  0.95480  1.0000
  H   H1431     1.0  0.07096  0.61611  0.90272  1.0000
  H   H1432     1.0  0.03320  0.85832  0.89296  1.0000
  H   H1433     1.0  0.35304  0.50862  0.95240  1.0000
  Fe  Fe96      1.0  0.21161  0.53564  0.97531  1.0000
  H   H1434     1.0  0.17169  0.82287  0.74444  1.0000
  H   H1435     1.0  0.07661  0.85690  0.81976  1.0000
  H   H1436     1.0  0.26278  0.50855  0.74634  1.0000
  H   H1437     1.0  0.07890  0.58873  0.96118  1.0000
  C   C815      1.0  0.08298  0.63126  0.82864  1.0000
  C   C816      1.0  0.08074  0.58653  0.95063  1.0000
  H   H1438     1.0  0.46416  0.99304  0.73433  1.0000
  H   H1439     1.0  0.10148  0.58805  0.92826  1.0000
  N   N44       1.0  0.05843  0.57981  0.74713  1.0000
  H   H1440     1.0  0.07443  0.61481  0.82052  1.0000
  C   C817      1.0  0.08513  0.59786  0.90858  1.0000
  C   C818      1.0  0.12523  0.93549  0.88080  1.0000
  H   H1441     1.0  0.07420  0.86542  0.74100  1.0000
  C   C819      1.0  0.08028  0.54535  0.94786  1.0000
  H   H1442     1.0  0.19371  0.55779  0.83213  1.0000
  H   H1443     1.0  0.16576  0.67035  0.85760  1.0000
  H   H1444     1.0  0.19781  0.66450  0.85376  1.0000
  C   C820      1.0  0.18197  0.98742  0.75601  1.0000
  H   H1445     1.0  0.13884  0.96889  0.73993  1.0000
  N   N45       1.0  0.15357  0.60955  0.82404  1.0000
  C   C821      1.0  0.12662  0.62394  0.82155  1.0000
  H   H1446     1.0  0.25746  0.62688  0.95675  1.0000
  C   C822      1.0  0.26488  0.85806  0.96265  1.0000
  C   C823      1.0  0.16711  0.62419  0.83635  1.0000
  C   C824      1.0  0.11026  0.61850  0.83281  1.0000
  H   H1447     1.0  0.44097  0.88905  0.74304  1.0000
  H   H1448     1.0  0.18675  0.61295  0.83804  1.0000
  H   H1449     1.0  0.29839  0.53769  0.73850  1.0000
  H   H1450     1.0  0.04592  0.65874  0.96227  1.0000
  C   C825      1.0  0.04212  0.57789  0.75803  1.0000
  H   H1451     1.0  0.11707  0.61150  0.81265  1.0000
  H   H1452     1.0  0.12549  0.65349  0.81930  1.0000
  S   S193      1.0  0.17361  0.56632  0.97250  1.0000
  H   H1453     1.0  0.02490  0.86733  0.87575  1.0000
  H   H1454     1.0  0.16557  0.76765  0.94938  1.0000
  H   H1455     1.0  0.04497  0.63562  0.74332  1.0000
  H   H1456     1.0  0.15828  0.61484  0.84499  1.0000
  H   H1457     1.0  0.15009  0.72769  0.94311  1.0000
  H   H1458     1.0  0.16461  0.99481  0.76041  1.0000
  H   H1459     1.0  0.11004  0.58958  0.83592  1.0000
  H   H1460     1.0  0.11740  0.63464  0.84132  1.0000
  H   H1461     1.0  0.18807  0.61622  0.81534  1.0000
  H   H1462     1.0  0.07995  0.56920  0.90713  1.0000
  C   C826      1.0  0.06510  0.66170  0.95946  1.0000
  C   C827      1.0  0.16042  0.65418  0.80475  1.0000
  C   C828      1.0  0.21213  0.64698  0.97446  1.0000
  C   C829      1.0  0.17904  0.67759  0.85056  1.0000
  H   H1463     1.0  0.29030  0.83314  0.97805  1.0000
  H   H1464     1.0  0.09353  0.55657  0.74204  1.0000
  C   C830      1.0  0.16466  0.74747  0.94154  1.0000
  C   C831      1.0  0.15301  0.56871  0.82582  1.0000
  C   C832      1.0  0.25135  0.63923  0.94697  1.0000
  H   H1465     1.0  0.07891  0.52560  0.76783  1.0000
  H   H1466     1.0  0.19587  0.72628  0.96254  1.0000
  H   H1467     1.0  0.12062  0.53479  0.95314  1.0000
  C   C833      1.0  0.24293  0.72005  0.95401  1.0000
  C   C834      1.0  0.17835  0.54705  0.82534  1.0000
  C   C835      1.0  0.15645  0.84340  0.74118  1.0000
  C   C836      1.0  0.06108  0.60438  0.92823  1.0000
  C   C837      1.0  0.19846  0.70724  0.95455  1.0000
  H   H1468     1.0  0.20372  0.74875  0.93923  1.0000
  C   C838      1.0  0.00213  0.66905  0.75157  1.0000
  H   H1469     1.0  0.01148  0.62822  0.92970  1.0000
  H   H1470     1.0  0.09989  0.59599  0.94956  1.0000
  H   H1471     1.0  0.03071  0.57349  0.94325  1.0000
  H   H1472     1.0  0.19818  0.66636  0.80048  1.0000
  H   H1473     1.0  0.48412  0.92960  0.74903  1.0000
  H   H1474     1.0  0.17305  0.68698  0.78929  1.0000
  C   C839      1.0  0.08360  0.56025  0.75082  1.0000
  C   C840      1.0  0.26959  0.83596  0.97542  1.0000
  C   C841      1.0  0.04533  0.56178  0.73537  1.0000
  H   H1475     1.0  0.09456  0.67580  0.73912  1.0000
  C   C842      1.0  0.01318  0.62710  0.94049  1.0000
  C   C843      1.0  0.36361  0.55105  0.73638  1.0000
  C   C844      1.0  0.17602  0.50702  0.82902  1.0000
  H   H1476     1.0  0.21109  0.64129  0.94765  1.0000
  N   N46       1.0  0.06098  0.61043  0.94262  1.0000
  H   H1477     1.0  0.04589  0.59737  0.79118  1.0000
  N   N47       1.0  0.22488  0.69054  0.95639  1.0000
  H   H1478     1.0  0.09367  0.63480  0.92402  1.0000
  H   H1479     1.0  0.23530  0.74702  0.95675  1.0000
  H   H1480     1.0  0.99358  0.73821  0.90531  1.0000
  H   H1481     1.0  0.35467  0.56095  0.74487  1.0000
  C   C845      1.0  0.08696  0.60689  0.92300  1.0000
  H   H1482     1.0  0.14161  0.65248  0.79903  1.0000
  H   H1483     1.0  0.09128  0.70555  0.95908  1.0000
  H   H1484     1.0  0.14810  0.85301  0.74991  1.0000
  C   C846      1.0  0.16913  0.66586  0.83687  1.0000
  H   H1485     1.0  0.08299  0.93121  0.74209  1.0000
  N   N48       1.0  0.09849  0.84580  0.86571  1.0000
  C   C847      1.0  0.11340  0.81860  0.87497  1.0000
  C   C848      1.0  0.07118  0.84585  0.86803  1.0000
  C   C849      1.0  0.09994  0.83283  0.85201  1.0000
  C   C850      1.0  0.10849  0.88362  0.86681  1.0000
  C   C851      1.0  0.12055  0.89485  0.88050  1.0000
  C   C852      1.0  0.14071  0.80989  0.87199  1.0000
  C   C853      1.0  0.08298  0.85383  0.84092  1.0000
  C   C854      1.0  0.06499  0.85631  0.88173  1.0000
  C   C855      1.0  0.15002  0.51417  0.78889  1.0000
  H   H1486     1.0  0.21303  0.62263  0.96840  1.0000
  C   C856      1.0  0.15655  0.79000  0.88340  1.0000
  C   C857      1.0  0.08948  0.84236  0.82754  1.0000
  H   H1487     1.0  0.10365  0.79247  0.87498  1.0000
  H   H1488     1.0  0.11427  0.82722  0.88522  1.0000
  H   H1489     1.0  0.05971  0.86542  0.86125  1.0000
  H   H1490     1.0  0.06349  0.81867  0.86584  1.0000
  H   H1491     1.0  0.09502  0.80379  0.85132  1.0000
  H   H1492     1.0  0.11952  0.83404  0.84948  1.0000
  H   H1493     1.0  0.12325  0.88742  0.86020  1.0000
  H   H1494     1.0  0.09330  0.90416  0.86330  1.0000
  H   H1495     1.0  0.13898  0.88025  0.88313  1.0000
  H   H1496     1.0  0.10879  0.88853  0.88830  1.0000
  H   H1497     1.0  0.14043  0.79195  0.86347  1.0000
  H   H1498     1.0  0.15024  0.83502  0.86966  1.0000
  H   H1499     1.0  0.08514  0.88357  0.84166  1.0000
  H   H1500     1.0  0.06293  0.84769  0.84129  1.0000
  H   H1501     1.0  0.07636  0.83993  0.88954  1.0000
  H   H1502     1.0  0.06816  0.88555  0.88327  1.0000
  H   H1503     1.0  0.23404  0.59020  0.93914  1.0000
  H   H1504     1.0  0.05321  0.57768  0.92551  1.0000
  H   H1505     1.0  0.30588  0.74191  0.96234  1.0000
  H   H1506     1.0  0.27939  0.77175  0.95643  1.0000
  H   H1507     1.0  0.02383  0.59293  0.75525  1.0000
  H   H1508     1.0  0.01551  0.65509  0.94403  1.0000
  H   H1509     1.0  0.15667  0.80580  0.89245  1.0000
  H   H1510     1.0  0.14906  0.76278  0.88501  1.0000
  H   H1511     1.0  0.17622  0.78619  0.88116  1.0000
  H   H1512     1.0  0.13922  0.55732  0.81821  1.0000
  H   H1513     1.0  0.10910  0.84904  0.82626  1.0000
  H   H1514     1.0  0.08730  0.81267  0.82637  1.0000
  H   H1515     1.0  0.18835  0.70879  0.93321  1.0000
  H   H1516     1.0  0.24482  0.72271  0.94341  1.0000
  H   H1517     1.0  0.06843  0.50536  0.75260  1.0000
  C   C858      1.0  0.03549  0.60139  0.94634  1.0000
  H   H1518     1.0  0.18066  0.63921  0.78840  1.0000
  C   C859      1.0  0.16736  0.61777  0.81240  1.0000
  H   H1519     1.0  0.26886  0.72277  0.97205  1.0000
  H   H1520     1.0  0.26235  0.80847  0.97373  1.0000
  H   H1521     1.0  0.14640  0.56142  0.83531  1.0000
  H   H1522     1.0  0.08189  0.66029  0.82545  1.0000
  H   H1523     1.0  0.04091  0.55343  0.78415  1.0000
  H   H1524     1.0  0.01796  0.68623  0.75107  1.0000
  C   C860      1.0  0.28731  0.74353  0.95627  1.0000
  H   H1525     1.0  0.07000  0.70948  0.97126  1.0000
  H   H1526     1.0  0.18410  0.54805  0.81537  1.0000
  H   H1527     1.0  0.24440  0.86310  0.95970  1.0000
  H   H1528     1.0  0.15953  0.67776  0.81113  1.0000
  C   C861      1.0  0.12926  0.53451  0.79244  1.0000
  H   H1529     1.0  0.27853  0.68909  0.96125  1.0000
  H   H1530     1.0  0.07184  0.62841  0.83699  1.0000
  H   H1531     1.0  0.13443  0.94240  0.89059  1.0000
  H   H1532     1.0  0.08580  0.65536  0.94301  1.0000
  H   H1533     1.0  0.01832  0.59082  0.77988  1.0000
  H   H1534     1.0  0.07314  0.58625  0.77374  1.0000
  H   H1535     1.0  0.29020  0.73693  0.94611  1.0000
  C   C862      1.0  0.10248  0.52487  0.95581  1.0000
  H   H1536     1.0  0.22185  0.67225  0.93654  1.0000
  H   H1537     1.0  0.11748  0.52254  0.79906  1.0000
  H   H1538     1.0  0.04838  0.62489  0.92245  1.0000
  C   C863      1.0  0.06291  0.61916  0.74425  1.0000
  C   C864      1.0  0.42865  0.91091  0.73783  1.0000
  H   H1539     1.0  0.24506  0.61988  0.92708  1.0000
  C   C865      1.0  0.22605  0.66087  0.94664  1.0000
  H   H1540     1.0  0.14170  0.83015  0.73465  1.0000
  H   H1541     1.0  0.22944  0.69879  0.97711  1.0000
  H   H1542     1.0  0.22036  0.80905  0.97520  1.0000
  H   H1543     1.0  0.10189  0.52849  0.96641  1.0000
  H   H1544     1.0  0.19242  0.65769  0.97371  1.0000
  H   H1545     1.0  0.13303  0.90689  0.73653  1.0000
  C   C866      1.0  0.17735  0.95605  0.74671  1.0000
  C   C867      1.0  0.98775  0.72415  0.92500  1.0000
  H   H1546     1.0  0.04114  0.53334  0.73788  1.0000
  H   H1547     1.0  0.37713  0.52839  0.73983  1.0000
  H   H1548     1.0  0.19685  0.97912  0.76402  1.0000
  C   C868      1.0  0.98877  0.65654  0.74005  1.0000
  H   H1549     1.0  0.00559  0.57810  0.73611  1.0000
  H   H1550     1.0  0.17991  0.78324  0.97711  1.0000
  H   H1551     1.0  0.36903  0.61169  0.97513  1.0000
  H   H1552     1.0  0.19554  0.94887  0.74317  1.0000
  H   H1553     1.0  0.12388  0.51935  0.76157  1.0000
  H   H1554     1.0  0.38457  0.56936  0.98148  1.0000
  H   H1555     1.0  0.98851  0.61420  0.95516  1.0000
  C   C869      1.0  0.98824  0.61434  0.94440  1.0000
  H   H1556     1.0  0.37413  0.57328  0.73239  1.0000
  C   C870      1.0  0.10831  0.50179  0.75801  1.0000
  C   C871      1.0  0.26667  0.50385  0.73618  1.0000
  C   C872      1.0  0.07625  0.62693  0.73203  1.0000
  H   H1557     1.0  0.17197  0.50394  0.83927  1.0000
  H   H1558     1.0  0.33167  0.50345  0.96451  1.0000
  H   H1559     1.0  0.15958  0.99402  0.73170  1.0000
  H   H1560     1.0  0.84110  0.49953  0.99400  1.0000
  H   H1561     1.0  0.67351  0.13496  0.98379  1.0000
  S   S194      1.0  0.73623  0.41117  0.99998  1.0000
  H   H1562     1.0  0.96266  0.17286  0.02998  1.0000
  H   H1563     1.0  0.93237  0.16539  0.99498  1.0000
  S   S195      1.0  0.78193  0.04075  0.01218  1.0000
  Fe  Fe97      1.0  0.93534  0.23131  0.04413  1.0000
  S   S196      1.0  0.92868  0.17556  0.05184  1.0000
  S   S197      1.0  0.97229  0.24847  0.03680  1.0000
  Fe  Fe98      1.0  0.87990  0.25543  0.04533  1.0000
  S   S198      1.0  0.87006  0.20132  0.05360  1.0000
  S   S199      1.0  0.84835  0.29900  0.04277  1.0000
  Fe  Fe99      1.0  0.90707  0.20445  0.06633  1.0000
  S   S200      1.0  0.91575  0.18588  0.08767  1.0000
  Fe  Fe100     1.0  0.89213  0.17730  0.03846  1.0000
  S   S201      1.0  0.88183  0.13155  0.02425  1.0000
  S   S202      1.0  0.91542  0.26030  0.05919  1.0000
  S   S203      1.0  0.90021  0.23139  0.02960  1.0000
  Fe  Fe101     1.0  0.93514  0.28903  0.17995  1.0000
  S   S204      1.0  0.90922  0.27662  0.19487  1.0000
  C   C873      1.0  0.97324  0.44442  0.21279  1.0000
  Fe  Fe102     1.0  0.89588  0.26910  0.15715  1.0000
  S   S205      1.0  0.86771  0.25465  0.17081  1.0000
  S   S206      1.0  0.88188  0.27441  0.13547  1.0000
  Fe  Fe103     1.0  0.87914  0.30625  0.18090  1.0000
  S   S207      1.0  0.84913  0.34785  0.18594  1.0000
  Fe  Fe104     1.0  0.90023  0.22613  0.18331  1.0000
  S   S208      1.0  0.90513  0.16948  0.19352  1.0000
  S   S209      1.0  0.90576  0.32149  0.16685  1.0000
  S   S210      1.0  0.92777  0.23768  0.16890  1.0000
  H   H1564     1.0  0.96996  0.09600  0.07169  1.0000
  C   C874      1.0  0.84503  0.39417  0.18051  1.0000
  C   C875      1.0  0.82439  0.41516  0.18386  1.0000
  C   C876      1.0  0.82054  0.45200  0.17979  1.0000
  H   H1565     1.0  0.67765  0.47361  0.21545  1.0000
  C   C877      1.0  0.85830  0.44760  0.16920  1.0000
  C   C878      1.0  0.86184  0.41059  0.17304  1.0000
  H   H1566     1.0  0.81123  0.40283  0.18963  1.0000
  C   C879      1.0  0.59168  0.47553  0.20638  1.0000
  C   C880      1.0  0.80657  0.33202  0.14603  1.0000
  H   H1567     1.0  0.87760  0.39473  0.17025  1.0000
  C   C881      1.0  0.89032  0.12699  0.19478  1.0000
  C   C882      1.0  0.90371  0.09807  0.20195  1.0000
  C   C883      1.0  0.89304  0.06383  0.20326  1.0000
  C   C884      1.0  0.86871  0.05791  0.19737  1.0000
  C   C885      1.0  0.85527  0.08681  0.19019  1.0000
  C   C886      1.0  0.86592  0.12112  0.18893  1.0000
  H   H1568     1.0  0.92256  0.10219  0.20656  1.0000
  H   H1569     1.0  0.90369  0.04201  0.20879  1.0000
  H   H1570     1.0  0.83644  0.08267  0.18559  1.0000
  H   H1571     1.0  0.85518  0.14309  0.18354  1.0000
  C   C887      1.0  0.90722  0.21207  0.10080  1.0000
  C   C888      1.0  0.88895  0.24033  0.09886  1.0000
  C   C889      1.0  0.88164  0.25926  0.10958  1.0000
  C   C890      1.0  0.89273  0.25059  0.12233  1.0000
  C   C891      1.0  0.91148  0.22293  0.12426  1.0000
  C   C892      1.0  0.91845  0.20349  0.11355  1.0000
  H   H1572     1.0  0.88015  0.24717  0.08911  1.0000
  H   H1573     1.0  0.86721  0.28066  0.10797  1.0000
  H   H1574     1.0  0.92043  0.21636  0.13398  1.0000
  H   H1575     1.0  0.93275  0.18189  0.11511  1.0000
  C   C893      1.0  0.80966  0.06636  0.01509  1.0000
  C   C894      1.0  0.81129  0.09187  0.02510  1.0000
  C   C895      1.0  0.83301  0.11233  0.02795  1.0000
  C   C896      1.0  0.85354  0.10741  0.02087  1.0000
  C   C897      1.0  0.85183  0.08211  0.01081  1.0000
  C   C898      1.0  0.83010  0.06171  0.00793  1.0000
  H   H1576     1.0  0.79570  0.09563  0.03075  1.0000
  H   H1577     1.0  0.83403  0.13142  0.03578  1.0000
  H   H1578     1.0  0.86754  0.07798  0.00525  1.0000
  H   H1579     1.0  0.82924  0.04221  0.00023  1.0000
  C   C899      1.0  0.83528  0.31878  0.02765  1.0000
  C   C900      1.0  0.84780  0.31682  0.01654  1.0000
  C   C901      1.0  0.83780  0.33574  0.00501  1.0000
  C   C902      1.0  0.81502  0.35620  0.00441  1.0000
  C   C903      1.0  0.80200  0.35690  0.01534  1.0000
  C   C904      1.0  0.81224  0.33860  0.02695  1.0000
  H   H1580     1.0  0.86560  0.30175  0.01698  1.0000
  H   H1581     1.0  0.84796  0.33498  0.99656  1.0000
  H   H1582     1.0  0.78433  0.37220  0.01495  1.0000
  H   H1583     1.0  0.80241  0.34011  0.03550  1.0000
  C   C905      1.0  0.81676  0.33936  0.10221  1.0000
  C   C906      1.0  0.86973  0.20807  0.99679  1.0000
  H   H1584     1.0  0.97516  0.14321  0.06862  1.0000
  H   H1585     1.0  0.91942  0.07038  0.15824  1.0000
  H   H1586     1.0  0.81392  0.05971  0.21260  1.0000
  H   H1587     1.0  0.95842  0.31571  0.20924  1.0000
  H   H1588     1.0  0.71623  0.21620  0.99287  1.0000
  H   H1589     1.0  0.84593  0.19156  0.01094  1.0000
  C   C907      1.0  0.87138  0.17884  0.14649  1.0000
  Fe  Fe105     1.0  0.73277  0.47236  0.99862  1.0000
  H   H1590     1.0  0.91084  0.42543  0.18193  1.0000
  C   C908      1.0  0.80865  0.45169  0.13587  1.0000
  H   H1591     1.0  0.87547  0.47209  0.98238  1.0000
  N   N49       1.0  0.79766  0.22278  0.99977  1.0000
  H   H1592     1.0  0.80775  0.43523  0.01113  1.0000
  H   H1593     1.0  0.77945  0.44929  0.04119  1.0000
  H   H1594     1.0  0.87592  0.23313  0.00179  1.0000
  H   H1595     1.0  0.93153  0.46111  0.18047  1.0000
  H   H1596     1.0  0.77253  0.18016  0.00370  1.0000
  H   H1597     1.0  0.94466  0.48587  0.21308  1.0000
  H   H1598     1.0  0.78261  0.21999  0.03832  1.0000
  H   H1599     1.0  0.87945  0.18239  0.13720  1.0000
  H   H1600     1.0  0.66991  0.21870  0.99252  1.0000
  H   H1601     1.0  0.79415  0.28341  0.15519  1.0000
  H   H1602     1.0  0.79751  0.32402  0.13637  1.0000
  H   H1603     1.0  0.79098  0.40214  0.14033  1.0000
  C   C909      1.0  0.79461  0.23769  0.01301  1.0000
  H   H1604     1.0  0.82038  0.30398  0.16436  1.0000
  H   H1605     1.0  0.94796  0.10555  0.16784  1.0000
  H   H1606     1.0  0.80031  0.26089  0.03825  1.0000
  C   C910      1.0  0.71310  0.12196  0.98613  1.0000
  H   H1607     1.0  0.71088  0.00191  0.04021  1.0000
  H   H1608     1.0  0.69752  0.25937  0.00788  1.0000
  C   C911      1.0  0.94876  0.40154  0.16898  1.0000
  H   H1609     1.0  0.86182  0.06756  0.15286  1.0000
  H   H1610     1.0  0.65571  0.49184  0.23038  1.0000
  H   H1611     1.0  0.83529  0.19018  0.15365  1.0000
  C   C912      1.0  0.88621  0.38664  0.03919  1.0000
  C   C913      1.0  0.83752  0.46849  0.17243  1.0000
  H   H1612     1.0  0.80443  0.16610  0.00607  1.0000
  H   H1613     1.0  0.73131  0.13548  0.98788  1.0000
  H   H1614     1.0  0.96519  0.07806  0.01478  1.0000
  C   C914      1.0  0.79066  0.18340  0.99959  1.0000
  H   H1615     1.0  0.91362  0.15126  0.16776  1.0000
  H   H1616     1.0  0.77297  0.43317  0.02491  1.0000
  H   H1617     1.0  0.96348  0.38075  0.16730  1.0000
  H   H1618     1.0  0.77452  0.23660  0.01481  1.0000
  H   H1619     1.0  0.97909  0.42118  0.20714  1.0000
  H   H1620     1.0  0.84791  0.05584  0.22768  1.0000
  H   H1621     1.0  0.84687  0.41805  0.00173  1.0000
  H   H1622     1.0  0.95229  0.11674  0.15116  1.0000
  S   S211      1.0  0.97484  0.30994  0.18344  1.0000
  H   H1623     1.0  0.81456  0.21985  0.04602  1.0000
  C   C915      1.0  0.97801  0.06916  0.02358  1.0000
  H   H1624     1.0  0.84396  0.40162  0.02331  1.0000
  H   H1625     1.0  0.85907  0.12359  0.14605  1.0000
  H   H1626     1.0  0.97172  0.01269  0.01916  1.0000
  H   H1627     1.0  0.84260  0.22092  0.14095  1.0000
  H   H1628     1.0  0.76843  0.02201  0.06805  1.0000
  H   H1629     1.0  0.89063  0.41637  0.02170  1.0000
  H   H1630     1.0  0.86911  0.21245  0.98610  1.0000
  H   H1631     1.0  0.91537  0.13984  0.13375  1.0000
  C   C916      1.0  0.97607  0.32901  0.20931  1.0000
  H   H1632     1.0  0.83928  0.17216  0.99525  1.0000
  C   C917      1.0  0.81194  0.29738  0.15440  1.0000
  C   C918      1.0  0.84404  0.19764  0.00035  1.0000
  C   C919      1.0  0.88075  0.42058  0.03041  1.0000
  C   C920      1.0  0.83180  0.34886  0.11511  1.0000
  H   H1633     1.0  0.96494  0.17885  0.15799  1.0000
  H   H1634     1.0  0.83122  0.25404  0.00039  1.0000
  C   C921      1.0  0.70652  0.26922  0.99939  1.0000
  C   C922      1.0  0.79884  0.06609  0.21888  1.0000
  H   H1635     1.0  0.88447  0.40212  0.20414  1.0000
  H   H1636     1.0  0.90465  0.12265  0.11018  1.0000
  C   C923      1.0  0.67380  0.44601  0.21191  1.0000
  C   C924      1.0  0.78825  0.44031  0.03254  1.0000
  C   C925      1.0  0.80331  0.47105  0.02758  1.0000
  H   H1637     1.0  0.76692  0.01838  0.20435  1.0000
  H   H1638     1.0  0.96881  0.41996  0.18646  1.0000
  C   C926      1.0  0.69120  0.15004  0.98499  1.0000
  H   H1639     1.0  0.89889  0.08940  0.16889  1.0000
  H   H1640     1.0  0.79110  0.47407  0.15214  1.0000
  C   C927      1.0  0.70068  0.01982  0.02029  1.0000
  C   C928      1.0  0.70533  0.24082  0.98878  1.0000
  H   H1641     1.0  0.82147  0.46282  0.98879  1.0000
  H   H1642     1.0  0.84444  0.43286  0.03605  1.0000
  H   H1643     1.0  0.87638  0.38864  0.04804  1.0000
  H   H1644     1.0  0.74966  0.02477  0.04472  1.0000
  H   H1645     1.0  0.90675  0.38329  0.04228  1.0000
  C   C929      1.0  0.90202  0.35569  0.21435  1.0000
  H   H1646     1.0  0.97163  0.13264  0.00499  1.0000
  C   C930      1.0  0.80360  0.10377  0.22492  1.0000
  H   H1647     1.0  0.77625  0.11427  0.99359  1.0000
  H   H1648     1.0  0.98432  0.14357  0.16691  1.0000
  Fe  Fe106     1.0  0.76699  0.00394  0.99542  1.0000
  H   H1649     1.0  0.90231  0.00998  0.16365  1.0000
  H   H1650     1.0  0.88364  0.18566  0.99990  1.0000
  H   H1651     1.0  0.63099  0.48522  0.21017  1.0000
  S   S212      1.0  0.80416  0.38176  0.99004  1.0000
  C   C931      1.0  0.88320  0.02318  0.16279  1.0000
  H   H1652     1.0  0.69452  0.00761  0.01078  1.0000
  H   H1653     1.0  0.68395  0.41047  0.22889  1.0000
  H   H1654     1.0  0.78676  0.11394  0.22924  1.0000
  C   C932      1.0  0.96736  0.14684  0.02535  1.0000
  C   C933      1.0  0.92894  0.43610  0.18629  1.0000
  H   H1655     1.0  0.96880  0.43351  0.22234  1.0000
  C   C934      1.0  0.90590  0.11558  0.13719  1.0000
  H   H1656     1.0  0.93015  0.39121  0.16525  1.0000
  H   H1657     1.0  0.82359  0.23199  0.98550  1.0000
  H   H1658     1.0  0.87714  0.09688  0.10593  1.0000
  H   H1659     1.0  0.89921  0.36606  0.22410  1.0000
  H   H1660     1.0  0.95200  0.42673  0.16343  1.0000
  H   H1661     1.0  0.87304  0.44513  0.00416  1.0000
  C   C935      1.0  0.78036  0.02040  0.05998  1.0000
  H   H1662     1.0  0.87161  0.46009  0.16356  1.0000
  H   H1663     1.0  0.88702  0.45542  0.19648  1.0000
  C   C936      1.0  0.97993  0.10780  0.05232  1.0000
  H   H1664     1.0  0.70189  0.45065  0.19854  1.0000
  H   H1665     1.0  0.76918  0.46326  0.13822  1.0000
  H   H1666     1.0  0.82653  0.46562  0.13842  1.0000
  H   H1667     1.0  0.78139  0.06972  0.21195  1.0000
  C   C937      1.0  0.91908  0.14404  0.15804  1.0000
  N   N50       1.0  0.64733  0.43460  0.23113  1.0000
  C   C938      1.0  0.78770  0.16617  0.98593  1.0000
  H   H1668     1.0  0.80089  0.29286  0.98847  1.0000
  H   H1669     1.0  0.90458  0.37555  0.19486  1.0000
  S   S213      1.0  0.85426  0.01510  0.19846  1.0000
  C   C939      1.0  0.94640  0.12768  0.16029  1.0000
  H   H1670     1.0  0.92593  0.17998  0.01084  1.0000
  H   H1671     1.0  0.96653  0.06769  0.03177  1.0000
  C   C940      1.0  0.85212  0.42760  0.02672  1.0000
  H   H1672     1.0  0.92565  0.13226  0.00706  1.0000
  H   H1673     1.0  0.89480  0.48189  0.01942  1.0000
  H   H1674     1.0  0.79759  0.36979  0.12212  1.0000
  H   H1675     1.0  0.91993  0.09265  0.13694  1.0000
  C   C941      1.0  0.88139  0.05634  0.15352  1.0000
  H   H1676     1.0  0.65956  0.39545  0.21763  1.0000
  H   H1677     1.0  0.79927  0.26684  0.01341  1.0000
  C   C942      1.0  0.96299  0.15444  0.01042  1.0000
  H   H1678     1.0  0.81131  0.18962  0.02478  1.0000
  H   H1679     1.0  0.71166  0.10277  0.99442  1.0000
  H   H1680     1.0  0.79875  0.32717  0.10396  1.0000
  H   H1681     1.0  0.97757  0.34457  0.22938  1.0000
  H   H1682     1.0  0.79324  0.13427  0.20661  1.0000
  H   H1683     1.0  0.75669  0.04843  0.22788  1.0000
  H   H1684     1.0  0.88011  0.36206  0.03385  1.0000
  H   H1685     1.0  0.82659  0.12340  0.21036  1.0000
  H   H1686     1.0  0.77528  0.29797  0.99826  1.0000
  H   H1687     1.0  0.88534  0.04642  0.14390  1.0000
  H   H1688     1.0  0.90499  0.07468  0.11449  1.0000
  C   C943      1.0  0.83112  0.35221  0.14474  1.0000
  H   H1689     1.0  0.87628  0.35636  0.13025  1.0000
  H   H1690     1.0  0.80449  0.46766  0.18240  1.0000
  H   H1691     1.0  0.64913  0.49275  0.04056  1.0000
  H   H1692     1.0  0.64032  0.35834  0.22952  1.0000
  H   H1693     1.0  0.83930  0.35921  0.15475  1.0000
  C   C944      1.0  0.95013  0.40883  0.18355  1.0000
  H   H1694     1.0  0.81280  0.36393  0.09578  1.0000
  Fe  Fe107     1.0  0.76748  0.41572  0.98754  1.0000
  H   H1695     1.0  0.70758  0.47864  0.10360  1.0000
  C   C945      1.0  0.69750  0.43189  0.20646  1.0000
  H   H1696     1.0  0.87150  0.13447  0.12464  1.0000
  H   H1697     1.0  0.80877  0.11520  0.99054  1.0000
  H   H1698     1.0  0.61310  0.49875  0.22278  1.0000
  C   C946      1.0  0.81112  0.21961  0.02488  1.0000
  H   H1699     1.0  0.86957  0.13868  0.16176  1.0000
  N   N51       1.0  0.82841  0.38591  0.13602  1.0000
  C   C947      1.0  0.88370  0.10952  0.12645  1.0000
  C   C948      1.0  0.87417  0.13880  0.15152  1.0000
  C   C949      1.0  0.89331  0.10033  0.11351  1.0000
  H   H1700     1.0  0.81187  0.15854  0.21901  1.0000
  H   H1701     1.0  0.88880  0.44380  0.03591  1.0000
  C   C950      1.0  0.95003  0.46628  0.20571  1.0000
  H   H1702     1.0  0.72642  0.27492  0.00273  1.0000
  C   C951      1.0  0.81042  0.41221  0.14162  1.0000
  H   H1703     1.0  0.85572  0.49509  0.03195  1.0000
  H   H1704     1.0  0.83560  0.32323  0.12092  1.0000
  H   H1705     1.0  0.81687  0.47994  0.03569  1.0000
  C   C952      1.0  0.78128  0.28549  0.98939  1.0000
  H   H1706     1.0  0.81634  0.40282  0.11602  1.0000
  H   H1707     1.0  0.79308  0.34918  0.15080  1.0000
  C   C953      1.0  0.66644  0.42007  0.22271  1.0000
  H   H1708     1.0  0.85663  0.42196  0.14444  1.0000
  H   H1709     1.0  0.66707  0.25807  0.98236  1.0000
  N   N52       1.0  0.89964  0.12046  0.15097  1.0000
  N   N53       1.0  0.84422  0.45762  0.01674  1.0000
  H   H1710     1.0  0.80057  0.41589  0.03535  1.0000
  C   C954      1.0  0.82389  0.22830  0.99625  1.0000
  C   C955      1.0  0.80148  0.23085  0.03761  1.0000
  C   C956      1.0  0.81581  0.46062  0.01521  1.0000
  H   H1711     1.0  0.78997  0.49468  0.02509  1.0000
  H   H1712     1.0  0.95287  0.12818  0.02800  1.0000
  H   H1713     1.0  0.82778  0.31925  0.09711  1.0000
  H   H1714     1.0  0.94233  0.39349  0.20918  1.0000
  H   H1715     1.0  0.88044  0.36599  0.14719  1.0000
  H   H1716     1.0  0.82497  0.27862  0.14993  1.0000
  H   H1717     1.0  0.83305  0.17589  0.13687  1.0000
  C   C957      1.0  0.87747  0.37852  0.13729  1.0000
  H   H1718     1.0  0.84473  0.33197  0.14152  1.0000
  H   H1719     1.0  0.84980  0.35961  0.11269  1.0000
  C   C958      1.0  0.90284  0.38716  0.20455  1.0000
  H   H1720     1.0  0.83073  0.22869  0.02513  1.0000
  H   H1721     1.0  0.80434  0.45226  0.12513  1.0000
  C   C959      1.0  0.90408  0.46893  0.20090  1.0000
  C   C960      1.0  0.69268  0.49753  0.10646  1.0000
  C   C961      1.0  0.81743  0.37786  0.12230  1.0000
  H   H1722     1.0  0.94860  0.38249  0.18870  1.0000
  H   H1723     1.0  0.88144  0.19667  0.15370  1.0000
  H   H1724     1.0  0.81558  0.41419  0.15235  1.0000
  H   H1725     1.0  0.88607  0.33834  0.21108  1.0000
  H   H1726     1.0  0.89933  0.41193  0.12548  1.0000
  C   C962      1.0  0.84382  0.19210  0.14439  1.0000
  C   C963      1.0  0.90083  0.39979  0.13548  1.0000
  C   C964      1.0  0.85345  0.40372  0.13603  1.0000
  H   H1727     1.0  0.85341  0.42160  0.12720  1.0000
  H   H1728     1.0  0.90328  0.42160  0.14272  1.0000
  N   N54       1.0  0.79652  0.03509  0.22839  1.0000
  H   H1729     1.0  0.91772  0.38111  0.13693  1.0000
  N   N55       1.0  0.92750  0.44510  0.20034  1.0000
  H   H1730     1.0  0.91996  0.17026  0.15261  1.0000
  C   C965      1.0  0.93500  0.15820  0.00555  1.0000
  C   C966      1.0  0.96503  0.15614  0.16524  1.0000
  C   C967      1.0  0.67776  0.23162  0.98412  1.0000
  C   C968      1.0  0.92525  0.41158  0.20873  1.0000
  H   H1731     1.0  0.84695  0.00730  0.22710  1.0000
  H   H1732     1.0  0.69208  0.16459  0.99428  1.0000
  H   H1733     1.0  0.69685  0.29511  0.99552  1.0000
  H   H1734     1.0  0.80889  0.48207  0.00782  1.0000
  H   H1735     1.0  0.96020  0.16702  0.17462  1.0000
  C   C969      1.0  0.90080  0.08456  0.15841  1.0000
  C   C970      1.0  0.61581  0.47693  0.21580  1.0000
  C   C971      1.0  0.78793  0.47416  0.14133  1.0000
  H   H1736     1.0  0.71383  0.43068  0.21417  1.0000
  C   C972      1.0  0.84117  0.47019  0.99181  1.0000
  H   H1737     1.0  0.95981  0.11031  0.04840  1.0000
  H   H1738     1.0  0.87169  0.08745  0.12909  1.0000
  H   H1739     1.0  0.61813  0.41781  0.21643  1.0000
  H   H1740     1.0  0.87893  0.03114  0.17261  1.0000
  H   H1741     1.0  0.59397  0.45535  0.19874  1.0000
  H   H1742     1.0  0.92398  0.41962  0.21898  1.0000
  H   H1743     1.0  0.67411  0.48499  0.10449  1.0000
  H   H1744     1.0  0.78644  0.04813  0.05775  1.0000
  C   C973      1.0  0.78928  0.12472  0.98691  1.0000
  H   H1745     1.0  0.90119  0.47371  0.21124  1.0000
  C   C974      1.0  0.77902  0.24359  0.98995  1.0000
  C   C975      1.0  0.62166  0.44021  0.22340  1.0000
  H   H1746     1.0  0.95664  0.48328  0.19784  1.0000
  H   H1747     1.0  0.71620  0.03847  0.01924  1.0000
  H   H1748     1.0  0.60673  0.43881  0.23006  1.0000
  C   C976      1.0  0.85437  0.49371  0.02115  1.0000
  S   S214      1.0  0.76635  0.47677  0.98763  1.0000
  H   H1749     1.0  0.67719  0.49518  0.06107  1.0000
  H   H1750     1.0  0.69472  0.40447  0.20239  1.0000
  C   C977      1.0  0.80912  0.13160  0.21455  1.0000
  H   H1751     1.0  0.65855  0.44774  0.20365  1.0000
  C   C978      1.0  0.85229  0.44638  0.00384  1.0000
  S   S215      1.0  0.72512  0.01206  0.99020  1.0000
  H   H1752     1.0  0.91967  0.33872  0.21516  1.0000
  H   H1753     1.0  0.57560  0.46830  0.21168  1.0000
  H   H1754     1.0  0.75947  0.23799  0.99178  1.0000
  H   H1755     1.0  0.68443  0.03578  0.02326  1.0000
  H   H1756     1.0  0.86935  0.00307  0.15905  1.0000
  H   H1757     1.0  0.97152  0.18046  0.00805  1.0000
  C   C979      1.0  0.98186  0.11502  0.06691  1.0000
  C   C980      1.0  0.76567  0.00540  0.04782  1.0000
  H   H1758     1.0  0.79742  0.00293  0.06311  1.0000
  H   H1759     1.0  0.77803  0.00577  0.03999  1.0000
  H   H1760     1.0  0.98688  0.07938  0.05131  1.0000
  C   C981      1.0  0.98706  0.34519  0.22071  1.0000
  H   H1761     1.0  0.53607  0.02351  0.28342  1.0000
  S   S216      1.0  0.69967  0.46522  0.44328  1.0000
  H   H1762     1.0  0.73321  0.49193  0.41160  1.0000
  Fe  Fe108     1.0  0.72520  0.07284  0.46845  1.0000
  H   H1763     1.0  0.58988  0.15963  0.47380  1.0000
  S   S217      1.0  0.71464  0.12115  0.45440  1.0000
  Fe  Fe109     1.0  0.54660  0.27999  0.41367  1.0000
  S   S218      1.0  0.57054  0.32385  0.40677  1.0000
  S   S219      1.0  0.50463  0.29553  0.41353  1.0000
  Fe  Fe110     1.0  0.59334  0.22934  0.42128  1.0000
  S   S220      1.0  0.62029  0.26916  0.41467  1.0000
  S   S221      1.0  0.60305  0.17480  0.43180  1.0000
  Fe  Fe111     1.0  0.59816  0.31122  0.42454  1.0000
  S   S222      1.0  0.61274  0.35051  0.44028  1.0000
  Fe  Fe112     1.0  0.59067  0.27878  0.39727  1.0000
  S   S223      1.0  0.60117  0.28947  0.37679  1.0000
  S   S224      1.0  0.57277  0.27054  0.43214  1.0000
  S   S225      1.0  0.56522  0.23565  0.40312  1.0000
  Fe  Fe113     1.0  0.52565  0.19779  0.27859  1.0000
  S   S226      1.0  0.55589  0.20747  0.26583  1.0000
  H   H1764     1.0  0.83051  0.13707  0.46099  1.0000
  Fe  Fe114     1.0  0.55829  0.22231  0.30301  1.0000
  S   S227      1.0  0.59128  0.23381  0.29187  1.0000
  S   S228      1.0  0.55324  0.21714  0.32462  1.0000
  Fe  Fe115     1.0  0.56212  0.26017  0.27642  1.0000
  S   S229      1.0  0.56196  0.31000  0.26235  1.0000
  Fe  Fe116     1.0  0.58258  0.18059  0.28205  1.0000
  S   S230      1.0  0.61181  0.13751  0.27715  1.0000
  S   S231      1.0  0.52985  0.25159  0.28828  1.0000
  S   S232      1.0  0.55184  0.16783  0.29401  1.0000
  S   S233      1.0  0.59939  0.47393  0.25970  1.0000
  C   C982      1.0  0.62029  0.09318  0.28389  1.0000
  C   C983      1.0  0.60984  0.07891  0.29460  1.0000
  C   C984      1.0  0.61745  0.04382  0.29969  1.0000
  C   C985      1.0  0.53438  0.14358  0.42634  1.0000
  H   H1765     1.0  0.73130  0.23015  0.46860  1.0000
  C   C986      1.0  0.63814  0.07163  0.27825  1.0000
  H   H1766     1.0  0.59596  0.09497  0.29897  1.0000
  C   C987      1.0  0.54974  0.15133  0.46916  1.0000
  H   H1767     1.0  0.50895  0.05368  0.27848  1.0000
  H   H1768     1.0  0.64635  0.08229  0.26996  1.0000
  C   C988      1.0  0.57153  0.35616  0.26220  1.0000
  C   C989      1.0  0.58682  0.37087  0.27255  1.0000
  C   C990      1.0  0.59484  0.40694  0.27163  1.0000
  C   C991      1.0  0.58729  0.42928  0.26051  1.0000
  C   C992      1.0  0.57168  0.41477  0.25023  1.0000
  C   C993      1.0  0.56409  0.37846  0.25104  1.0000
  H   H1769     1.0  0.59285  0.35427  0.28118  1.0000
  H   H1770     1.0  0.60699  0.41765  0.27963  1.0000
  H   H1771     1.0  0.56570  0.43134  0.24159  1.0000
  H   H1772     1.0  0.55229  0.36752  0.24296  1.0000
  C   C994      1.0  0.58719  0.26976  0.36235  1.0000
  C   C995      1.0  0.59194  0.28403  0.35018  1.0000
  C   C996      1.0  0.58149  0.26869  0.33848  1.0000
  C   C997      1.0  0.56632  0.23871  0.33888  1.0000
  C   C998      1.0  0.56163  0.22442  0.35104  1.0000
  C   C999      1.0  0.57201  0.23981  0.36272  1.0000
  H   H1773     1.0  0.60371  0.30721  0.34981  1.0000
  H   H1774     1.0  0.58510  0.28010  0.32919  1.0000
  H   H1775     1.0  0.55004  0.20108  0.35141  1.0000
  H   H1776     1.0  0.56851  0.22828  0.37201  1.0000
  C   C1000     1.0  0.68335  0.13649  0.44882  1.0000
  C   C1001     1.0  0.66257  0.11649  0.45118  1.0000
  C   C1002     1.0  0.63810  0.12878  0.44602  1.0000
  C   C1003     1.0  0.63411  0.16131  0.43858  1.0000
  C   C1004     1.0  0.65485  0.18178  0.43650  1.0000
  C   C1005     1.0  0.67933  0.16932  0.44155  1.0000
  H   H1777     1.0  0.66538  0.09120  0.45676  1.0000
  H   H1778     1.0  0.62221  0.11275  0.44770  1.0000
  H   H1779     1.0  0.65209  0.20681  0.43079  1.0000
  H   H1780     1.0  0.69527  0.18493  0.43964  1.0000
  C   C1006     1.0  0.67525  0.43374  0.44246  1.0000
  C   C1007     1.0  0.66056  0.42929  0.45266  1.0000
  C   C1008     1.0  0.64129  0.40410  0.45167  1.0000
  C   C1009     1.0  0.63661  0.38282  0.44058  1.0000
  C   C1010     1.0  0.65136  0.38714  0.43039  1.0000
  C   C1011     1.0  0.67047  0.41268  0.43131  1.0000
  H   H1781     1.0  0.66387  0.44552  0.46124  1.0000
  H   H1782     1.0  0.62987  0.40110  0.45956  1.0000
  H   H1783     1.0  0.64799  0.37093  0.42181  1.0000
  H   H1784     1.0  0.68168  0.41600  0.42335  1.0000
  H   H1785     1.0  0.54651  0.31376  0.37519  1.0000
  H   H1786     1.0  0.49214  0.22033  0.40742  1.0000
  H   H1787     1.0  0.57040  0.20062  0.47384  1.0000
  H   H1788     1.0  0.54983  0.22652  0.45141  1.0000
  H   H1789     1.0  0.62290  0.31951  0.24613  1.0000
  H   H1790     1.0  0.49683  0.17415  0.45848  1.0000
  H   H1791     1.0  0.74243  0.22104  0.43881  1.0000
  H   H1792     1.0  0.86529  0.00223  0.25040  1.0000
  H   H1793     1.0  0.63859  0.26141  0.33236  1.0000
  H   H1794     1.0  0.79195  0.17658  0.45722  1.0000
  H   H1795     1.0  0.74254  0.04497  0.25512  1.0000
  H   H1796     1.0  0.50843  0.08216  0.25396  1.0000
  H   H1797     1.0  0.81389  0.19105  0.47066  1.0000
  H   H1798     1.0  0.55211  0.06865  0.29971  1.0000
  C   C1012     1.0  0.56249  0.08035  0.25228  1.0000
  C   C1013     1.0  0.53005  0.14703  0.41150  1.0000
  C   C1014     1.0  0.63201  0.37119  0.23769  1.0000
  H   H1799     1.0  0.77929  0.23322  0.45500  1.0000
  H   H1800     1.0  0.52567  0.26358  0.37223  1.0000
  H   H1801     1.0  0.51408  0.27020  0.38725  1.0000
  H   H1802     1.0  0.50989  0.27122  0.24357  1.0000
  H   H1803     1.0  0.74826  0.40205  0.45420  1.0000
  H   H1804     1.0  0.65050  0.28297  0.44294  1.0000
  H   H1805     1.0  0.50520  0.25089  0.34994  1.0000
  C   C1015     1.0  0.54407  0.07341  0.27263  1.0000
  C   C1016     1.0  0.84510  0.03088  0.23342  1.0000
  H   H1806     1.0  0.53491  0.11823  0.24084  1.0000
  C   C1017     1.0  0.51977  0.05780  0.25159  1.0000
  H   H1807     1.0  0.58070  0.08410  0.25842  1.0000
  C   C1018     1.0  0.58376  0.01428  0.26797  1.0000
  H   H1808     1.0  0.52424  0.09745  0.29493  1.0000
  H   H1809     1.0  0.74189  0.19193  0.46042  1.0000
  C   C1019     1.0  0.52930  0.05224  0.28211  1.0000
  H   H1810     1.0  0.61165  0.37686  0.23463  1.0000
  C   C1020     1.0  0.76703  0.01110  0.24449  1.0000
  H   H1811     1.0  0.50311  0.01468  0.26294  1.0000
  C   C1021     1.0  0.57139  0.14033  0.24148  1.0000
  H   H1812     1.0  0.75221  0.26718  0.43763  1.0000
  H   H1813     1.0  0.68114  0.44875  0.25453  1.0000
  H   H1814     1.0  0.53487  0.10103  0.27158  1.0000
  H   H1815     1.0  0.58861  0.14356  0.24841  1.0000
  H   H1816     1.0  0.76181  0.26948  0.46147  1.0000
  C   C1022     1.0  0.74868  0.21561  0.46621  1.0000
  C   C1023     1.0  0.50792  0.26714  0.37665  1.0000
  C   C1024     1.0  0.68117  0.46769  0.24604  1.0000
  C   C1025     1.0  0.74382  0.24728  0.44391  1.0000
  H   H1817     1.0  0.51077  0.15816  0.40819  1.0000
  H   H1818     1.0  0.56728  0.06653  0.24335  1.0000
  H   H1819     1.0  0.88478  0.02775  0.24071  1.0000
  H   H1820     1.0  0.50078  0.17288  0.37719  1.0000
  H   H1821     1.0  0.55782  0.00835  0.25051  1.0000
  C   C1026     1.0  0.49370  0.23116  0.37529  1.0000
  C   C1027     1.0  0.78856  0.49640  0.43720  1.0000
  H   H1822     1.0  0.54729  0.13473  0.25643  1.0000
  H   H1823     1.0  0.78781  0.47379  0.44439  1.0000
  H   H1824     1.0  0.50344  0.16309  0.24875  1.0000
  C   C1028     1.0  0.50283  0.16412  0.44920  1.0000
  H   H1825     1.0  0.72443  0.38633  0.44197  1.0000
  H   H1826     1.0  0.68152  0.32832  0.44963  1.0000
  H   H1827     1.0  0.68043  0.26051  0.44822  1.0000
  H   H1828     1.0  0.58383  0.02341  0.27811  1.0000
  H   H1829     1.0  0.50920  0.33546  0.38632  1.0000
  H   H1830     1.0  0.79355  0.48476  0.42798  1.0000
  H   H1831     1.0  0.52245  0.19892  0.38754  1.0000
  H   H1832     1.0  0.69531  0.47213  0.39853  1.0000
  H   H1833     1.0  0.66072  0.07052  0.32436  1.0000
  H   H1834     1.0  0.56327  0.07780  0.27760  1.0000
  C   C1029     1.0  0.53395  0.33694  0.37124  1.0000
  C   C1030     1.0  0.51730  0.28351  0.45250  1.0000
  H   H1835     1.0  0.52494  0.19692  0.37026  1.0000
  H   H1836     1.0  0.54597  0.37397  0.38684  1.0000
  H   H1837     1.0  0.66420  0.39837  0.24686  1.0000
  C   C1031     1.0  0.55203  0.11914  0.24797  1.0000
  H   H1838     1.0  0.56754  0.16367  0.45157  1.0000
  H   H1839     1.0  0.56339  0.16782  0.23842  1.0000
  H   H1840     1.0  0.81869  0.05370  0.24575  1.0000
  H   H1841     1.0  0.54960  0.19536  0.43162  1.0000
  H   H1842     1.0  0.66893  0.37090  0.47414  1.0000
  H   H1843     1.0  0.55365  0.13145  0.42903  1.0000
  H   H1844     1.0  0.65617  0.27353  0.31922  1.0000
  H   H1845     1.0  0.65719  0.32753  0.46024  1.0000
  H   H1846     1.0  0.52145  0.06055  0.24097  1.0000
  H   H1847     1.0  0.55247  0.12209  0.47209  1.0000
  C   C1032     1.0  0.49342  0.26042  0.24779  1.0000
  N   N56       1.0  0.70365  0.33849  0.47623  1.0000
  S   S234      1.0  0.72236  0.01213  0.46643  1.0000
  C   C1033     1.0  0.71366  0.36476  0.46686  1.0000
  N   N57       1.0  0.62870  0.16870  0.33412  1.0000
  C   C1034     1.0  0.62286  0.19349  0.32224  1.0000
  C   C1035     1.0  0.60521  0.14965  0.33670  1.0000
  C   C1036     1.0  0.63572  0.19265  0.34557  1.0000
  C   C1037     1.0  0.65002  0.14138  0.33295  1.0000
  C   C1038     1.0  0.65286  0.12773  0.31904  1.0000
  C   C1039     1.0  0.64462  0.21762  0.31888  1.0000
  C   C1040     1.0  0.63948  0.17359  0.35923  1.0000
  C   C1041     1.0  0.59316  0.12519  0.32590  1.0000
  C   C1042     1.0  0.56819  0.11121  0.32936  1.0000
  C   C1043     1.0  0.66949  0.09307  0.31947  1.0000
  H   H1848     1.0  0.53305  0.33847  0.36050  1.0000
  C   C1044     1.0  0.65032  0.19940  0.36965  1.0000
  H   H1849     1.0  0.60596  0.21121  0.32321  1.0000
  H   H1850     1.0  0.61708  0.17811  0.31338  1.0000
  H   H1851     1.0  0.60900  0.13147  0.34548  1.0000
  H   H1852     1.0  0.59058  0.16993  0.33895  1.0000
  H   H1853     1.0  0.62104  0.21471  0.34595  1.0000
  H   H1854     1.0  0.65342  0.20657  0.34445  1.0000
  H   H1855     1.0  0.66847  0.15268  0.33659  1.0000
  H   H1856     1.0  0.64840  0.11729  0.33945  1.0000
  H   H1857     1.0  0.66162  0.14870  0.31337  1.0000
  H   H1858     1.0  0.63463  0.12199  0.31349  1.0000
  H   H1859     1.0  0.66321  0.20786  0.32382  1.0000
  H   H1860     1.0  0.64604  0.21614  0.30824  1.0000
  H   H1861     1.0  0.65242  0.14936  0.35936  1.0000
  H   H1862     1.0  0.62117  0.16515  0.36209  1.0000
  H   H1863     1.0  0.58907  0.13999  0.31642  1.0000
  H   H1864     1.0  0.60569  0.10108  0.32486  1.0000
  H   H1865     1.0  0.56017  0.09306  0.32165  1.0000
  H   H1866     1.0  0.57094  0.09567  0.33877  1.0000
  H   H1867     1.0  0.55446  0.13425  0.33003  1.0000
  C   C1045     1.0  0.67386  0.31242  0.45739  1.0000
  H   H1868     1.0  0.81986  0.10279  0.23262  1.0000
  C   C1046     1.0  0.80024  0.17031  0.46738  1.0000
  H   H1869     1.0  0.72464  0.25754  0.44533  1.0000
  H   H1870     1.0  0.52146  0.05322  0.30222  1.0000
  H   H1871     1.0  0.53573  0.39599  0.37126  1.0000
  H   H1872     1.0  0.65218  0.18550  0.37937  1.0000
  H   H1873     1.0  0.66920  0.20803  0.36769  1.0000
  H   H1874     1.0  0.63764  0.22385  0.36993  1.0000
  H   H1875     1.0  0.56583  0.37179  0.37396  1.0000
  S   S235      1.0  0.75808  0.47626  0.46758  1.0000
  H   H1876     1.0  0.65911  0.02011  0.27868  1.0000
  H   H1877     1.0  0.72230  0.38804  0.47215  1.0000
  H   H1878     1.0  0.70950  0.28825  0.46630  1.0000
  H   H1879     1.0  0.68483  0.28757  0.47622  1.0000
  H   H1880     1.0  0.81855  0.00601  0.24450  1.0000
  H   H1881     1.0  0.63476  0.41861  0.24956  1.0000
  H   H1882     1.0  0.60930  0.03318  0.30800  1.0000
  C   C1047     1.0  0.54601  0.37182  0.37616  1.0000
  H   H1883     1.0  0.64087  0.47853  0.24391  1.0000
  S   S236      1.0  0.76665  0.06869  0.47573  1.0000
  Fe  Fe117     1.0  0.76262  0.00807  0.47552  1.0000
  H   H1884     1.0  0.62272  0.26883  0.31608  1.0000
  C   C1048     1.0  0.81513  0.13420  0.46723  1.0000
  H   H1885     1.0  0.51708  0.19773  0.42701  1.0000
  H   H1886     1.0  0.62683  0.35534  0.25763  1.0000
  H   H1887     1.0  0.49680  0.35908  0.37158  1.0000
  H   H1888     1.0  0.67166  0.08487  0.30936  1.0000
  C   C1049     1.0  0.66468  0.27685  0.45151  1.0000
  H   H1889     1.0  0.76600  0.14758  0.47186  1.0000
  H   H1890     1.0  0.50444  0.13401  0.45052  1.0000
  H   H1891     1.0  0.80276  0.11267  0.46316  1.0000
  H   H1892     1.0  0.68843  0.09757  0.32466  1.0000
  H   H1893     1.0  0.75123  0.34045  0.46504  1.0000
  H   H1894     1.0  0.53193  0.16049  0.47275  1.0000
  N   N58       1.0  0.49305  0.30072  0.37120  1.0000
  C   C1050     1.0  0.51105  0.24631  0.44700  1.0000
  H   H1895     1.0  0.69806  0.37722  0.45998  1.0000
  H   H1896     1.0  0.51013  0.24882  0.43629  1.0000
  C   C1051     1.0  0.74099  0.37780  0.44901  1.0000
  H   H1897     1.0  0.54410  0.16489  0.40790  1.0000
  N   N59       1.0  0.54553  0.05720  0.25945  1.0000
  C   C1052     1.0  0.64020  0.25769  0.32188  1.0000
  H   H1898     1.0  0.49225  0.24000  0.44974  1.0000
  H   H1899     1.0  0.75587  0.36644  0.44347  1.0000
  H   H1900     1.0  0.49899  0.23329  0.25232  1.0000
  C   C1053     1.0  0.53202  0.06902  0.29556  1.0000
  H   H1901     1.0  0.48851  0.27904  0.25550  1.0000
  H   H1902     1.0  0.72690  0.32572  0.45294  1.0000
  C   C1054     1.0  0.63520  0.02216  0.29398  1.0000
  H   H1903     1.0  0.52959  0.21600  0.46324  1.0000
  N   N60       1.0  0.76490  0.20267  0.47857  1.0000
  H   H1904     1.0  0.54751  0.12680  0.45054  1.0000
  C   C1055     1.0  0.57168  0.17115  0.47635  1.0000
  C   C1056     1.0  0.64546  0.03632  0.28320  1.0000
  C   C1057     1.0  0.76029  0.24239  0.45699  1.0000
  H   H1905     1.0  0.82364  0.12584  0.47721  1.0000
  H   H1906     1.0  0.79482  0.24003  0.47644  1.0000
  H   H1907     1.0  0.52575  0.28772  0.35167  1.0000
  Fe  Fe118     1.0  0.71690  0.48931  0.46225  1.0000
  N   N61       1.0  0.52797  0.17926  0.44705  1.0000
  C   C1058     1.0  0.69382  0.30523  0.46938  1.0000
  C   C1059     1.0  0.53078  0.21668  0.45260  1.0000
  C   C1060     1.0  0.54888  0.15503  0.45407  1.0000
  C   C1061     1.0  0.51167  0.19799  0.37772  1.0000
  C   C1062     1.0  0.50364  0.02390  0.25274  1.0000
  C   C1063     1.0  0.50609  0.28075  0.34865  1.0000
  C   C1064     1.0  0.73383  0.34913  0.45868  1.0000
  H   H1908     1.0  0.52085  0.12426  0.42958  1.0000
  H   H1909     1.0  0.53227  0.11985  0.40726  1.0000
  C   C1065     1.0  0.55701  0.01903  0.26047  1.0000
  H   H1910     1.0  0.65406  0.33405  0.25171  1.0000
  H   H1911     1.0  0.57652  0.12621  0.23273  1.0000
  C   C1066     1.0  0.53206  0.18099  0.43285  1.0000
  H   H1912     1.0  0.65562  0.26056  0.45869  1.0000
  H   H1913     1.0  0.53591  0.29187  0.45006  1.0000
  C   C1067     1.0  0.50733  0.33388  0.37547  1.0000
  H   H1914     1.0  0.85699  0.00317  0.42154  1.0000
  C   C1068     1.0  0.50030  0.28967  0.33408  1.0000
  H   H1915     1.0  0.72637  0.02120  0.24161  1.0000
  C   C1069     1.0  0.77341  0.04206  0.23513  1.0000
  H   H1916     1.0  0.51377  0.27436  0.32866  1.0000
  C   C1070     1.0  0.64526  0.40667  0.24187  1.0000
  H   H1917     1.0  0.51734  0.28309  0.46325  1.0000
  C   C1071     1.0  0.63416  0.34340  0.24900  1.0000
  H   H1918     1.0  0.86539  0.05134  0.25116  1.0000
  H   H1919     1.0  0.78174  0.00796  0.25298  1.0000
  C   C1072     1.0  0.74196  0.01924  0.24971  1.0000
  H   H1920     1.0  0.69636  0.45893  0.24025  1.0000
  C   C1073     1.0  0.77914  0.16776  0.47633  1.0000
  H   H1921     1.0  0.59758  0.02976  0.26314  1.0000
  C   C1074     1.0  0.81910  0.03159  0.23860  1.0000
  H   H1922     1.0  0.71389  0.17918  0.47595  1.0000
  C   C1075     1.0  0.65524  0.46936  0.23759  1.0000
  H   H1923     1.0  0.77555  0.06672  0.24112  1.0000
  H   H1924     1.0  0.50225  0.31912  0.33210  1.0000
  H   H1925     1.0  0.74868  0.49719  0.43171  1.0000
  C   C1076     1.0  0.86637  0.02786  0.24466  1.0000
  H   H1926     1.0  0.50291  0.30410  0.44815  1.0000
  H   H1927     1.0  0.71301  0.50048  0.38880  1.0000
  C   C1077     1.0  0.70163  0.50018  0.39712  1.0000
  H   H1928     1.0  0.83425  0.00178  0.43309  1.0000
  Fe  Fe119     1.0  0.92586  0.26251  0.54849  1.0000
  S   S237      1.0  0.90222  0.30782  0.55577  1.0000
  S   S238      1.0  0.96749  0.25165  0.55639  1.0000
  Fe  Fe120     1.0  0.87967  0.22932  0.53355  1.0000
  S   S239      1.0  0.85259  0.27153  0.53970  1.0000
  S   S240      1.0  0.87097  0.18403  0.51932  1.0000
  Fe  Fe121     1.0  0.88124  0.31144  0.53549  1.0000
  S   S241      1.0  0.86987  0.36714  0.52614  1.0000
  Fe  Fe122     1.0  0.87486  0.26544  0.55964  1.0000
  S   S242      1.0  0.85292  0.26828  0.57724  1.0000
  S   S243      1.0  0.90733  0.26975  0.52785  1.0000
  S   S244      1.0  0.89949  0.21947  0.55380  1.0000
  Fe  Fe123     1.0  0.92751  0.19933  0.68097  1.0000
  S   S245      1.0  0.89414  0.20241  0.69218  1.0000
  C   C1078     1.0  0.94576  0.16689  0.52306  1.0000
  Fe  Fe124     1.0  0.89522  0.21551  0.65485  1.0000
  S   S246      1.0  0.85932  0.21923  0.66429  1.0000
  S   S247      1.0  0.90569  0.22461  0.63429  1.0000
  Fe  Fe125     1.0  0.88148  0.25223  0.67966  1.0000
  S   S248      1.0  0.86477  0.30456  0.68775  1.0000
  Fe  Fe126     1.0  0.87469  0.16902  0.67604  1.0000
  S   S249      1.0  0.85148  0.12159  0.68253  1.0000
  S   S250      1.0  0.91607  0.25096  0.66954  1.0000
  S   S251      1.0  0.90913  0.16345  0.66560  1.0000
  S   S252      1.0  0.90337  0.46156  0.70575  1.0000
  H   H1929     1.0  0.77880  0.02883  0.66351  1.0000
  H   H1930     1.0  0.96840  0.24635  0.51020  1.0000
  S   S253      1.0  0.76023  0.41661  0.49914  1.0000
  Fe  Fe127     1.0  0.75406  0.06645  0.49559  1.0000
  S   S254      1.0  0.76673  0.10497  0.51181  1.0000
  H   H1931     1.0  0.95525  0.22059  0.53025  1.0000
  C   C1079     1.0  0.84405  0.07715  0.67690  1.0000
  C   C1080     1.0  0.83068  0.05443  0.68455  1.0000
  C   C1081     1.0  0.82436  0.01905  0.68062  1.0000
  H   H1932     1.0  0.74003  0.31229  0.48228  1.0000
  H   H1933     1.0  0.76743  0.44699  0.52651  1.0000
  C   C1082     1.0  0.85121  0.06367  0.66526  1.0000
  H   H1934     1.0  0.82533  0.06419  0.69366  1.0000
  H   H1935     1.0  0.69303  0.14867  0.49255  1.0000
  H   H1936     1.0  0.86158  0.08053  0.65926  1.0000
  C   C1083     1.0  0.87562  0.34851  0.69232  1.0000
  C   C1084     1.0  0.86026  0.37185  0.69890  1.0000
  C   C1085     1.0  0.86819  0.40651  0.70296  1.0000
  C   C1086     1.0  0.89172  0.41851  0.70050  1.0000
  C   C1087     1.0  0.90702  0.39521  0.69382  1.0000
  C   C1088     1.0  0.89904  0.36061  0.68974  1.0000
  H   H1937     1.0  0.84206  0.36300  0.70097  1.0000
  H   H1938     1.0  0.85612  0.42384  0.70807  1.0000
  H   H1939     1.0  0.92523  0.40406  0.69180  1.0000
  H   H1940     1.0  0.91099  0.34330  0.68457  1.0000
  C   C1089     1.0  0.83973  0.37992  0.51792  1.0000
  C   C1090     1.0  0.82097  0.35475  0.51532  1.0000
  C   C1091     1.0  0.79688  0.36630  0.50935  1.0000
  C   C1092     1.0  0.79137  0.40301  0.50574  1.0000
  C   C1093     1.0  0.81029  0.42802  0.50806  1.0000
  C   C1094     1.0  0.83430  0.41652  0.51416  1.0000
  H   H1941     1.0  0.82504  0.32646  0.51801  1.0000
  H   H1942     1.0  0.78245  0.34673  0.50753  1.0000
  H   H1943     1.0  0.80635  0.45635  0.50536  1.0000
  H   H1944     1.0  0.84872  0.43618  0.51605  1.0000
  C   C1095     1.0  0.89006  0.23636  0.61859  1.0000
  C   C1096     1.0  0.86410  0.24382  0.61624  1.0000
  C   C1097     1.0  0.85291  0.25375  0.60354  1.0000
  C   C1098     1.0  0.86749  0.25565  0.59308  1.0000
  C   C1099     1.0  0.89338  0.24812  0.59546  1.0000
  C   C1100     1.0  0.90458  0.23876  0.60815  1.0000
  H   H1945     1.0  0.85269  0.24171  0.62415  1.0000
  H   H1946     1.0  0.83285  0.25943  0.60177  1.0000
  H   H1947     1.0  0.90484  0.24960  0.58753  1.0000
  H   H1948     1.0  0.92466  0.23304  0.60987  1.0000
  C   C1101     1.0  0.84198  0.16210  0.51749  1.0000
  C   C1102     1.0  0.82272  0.17121  0.52499  1.0000
  C   C1103     1.0  0.79983  0.15331  0.52316  1.0000
  C   C1104     1.0  0.79598  0.12624  0.51383  1.0000
  C   C1105     1.0  0.81528  0.11708  0.50636  1.0000
  C   C1106     1.0  0.83816  0.13500  0.50817  1.0000
  H   H1949     1.0  0.82549  0.19191  0.53222  1.0000
  H   H1950     1.0  0.78504  0.16037  0.52904  1.0000
  H   H1951     1.0  0.81258  0.09609  0.49922  1.0000
  H   H1952     1.0  0.85300  0.12777  0.50235  1.0000
  H   H1953     1.0  0.73517  0.44160  0.52918  1.0000
  H   H1954     1.0  0.87702  0.10486  0.53075  1.0000
  C   C1107     1.0  0.56966  0.18243  0.71878  1.0000
  H   H1955     1.0  0.95200  0.16590  0.71224  1.0000
  H   H1956     1.0  0.90244  0.02657  0.70457  1.0000
  H   H1957     1.0  0.56711  0.10148  0.72539  1.0000
  H   H1958     1.0  0.92427  0.32030  0.62969  1.0000
  H   H1959     1.0  0.86017  0.35300  0.59942  1.0000
  C   C1108     1.0  0.93602  0.06842  0.68268  1.0000
  H   H1960     1.0  0.96535  0.30996  0.64284  1.0000
  H   H1961     1.0  0.73347  0.14181  0.48318  1.0000
  C   C1109     1.0  0.96547  0.09771  0.66825  1.0000
  C   C1110     1.0  0.94306  0.32193  0.73100  1.0000
  H   H1962     1.0  0.75645  0.38214  0.53023  1.0000
  H   H1963     1.0  0.68650  0.03218  0.66059  1.0000
  H   H1964     1.0  0.96563  0.09858  0.52305  1.0000
  N   N62       1.0  0.87946  0.34927  0.64061  1.0000
  H   H1965     1.0  0.74874  0.39340  0.54626  1.0000
  C   C1111     1.0  0.73208  0.06270  0.66676  1.0000
  H   H1966     1.0  0.76530  0.32626  0.58546  1.0000
  H   H1967     1.0  0.97218  0.09041  0.54000  1.0000
  H   H1968     1.0  0.82967  0.25801  0.49281  1.0000
  C   C1112     1.0  0.68228  0.35751  0.48201  1.0000
  N   N63       1.0  0.92862  0.06129  0.69615  1.0000
  H   H1969     1.0  0.52821  0.18091  0.73092  1.0000
  H   H1970     1.0  0.87574  0.39210  0.66360  1.0000
  H   H1971     1.0  0.86836  0.40617  0.63928  1.0000
  C   C1113     1.0  0.55464  0.21564  0.72270  1.0000
  H   H1972     1.0  0.93200  0.35773  0.64038  1.0000
  C   C1114     1.0  0.78213  0.23206  0.48365  1.0000
  N   N64       1.0  0.94321  0.29312  0.72086  1.0000
  H   H1973     1.0  0.97200  0.32325  0.71262  1.0000
  H   H1974     1.0  0.94347  0.18231  0.54813  1.0000
  H   H1975     1.0  0.65331  0.39135  0.49936  1.0000
  H   H1976     1.0  0.72560  0.13685  0.67101  1.0000
  H   H1977     1.0  0.70057  0.31155  0.50178  1.0000
  C   C1115     1.0  0.98433  0.16808  0.70180  1.0000
  C   C1116     1.0  0.71739  0.30113  0.49754  1.0000
  C   C1117     1.0  0.73880  0.29607  0.50866  1.0000
  C   C1118     1.0  0.76162  0.01324  0.66093  1.0000
  C   C1119     1.0  0.95606  0.09743  0.68164  1.0000
  C   C1120     1.0  0.69741  0.00870  0.65723  1.0000
  C   C1121     1.0  0.96133  0.28084  0.69911  1.0000
  H   H1978     1.0  0.73943  0.22077  0.49208  1.0000
  H   H1979     1.0  0.97493  0.27925  0.68021  1.0000
  H   H1980     1.0  0.95676  0.18360  0.57248  1.0000
  H   H1981     1.0  0.67285  0.42977  0.50260  1.0000
  H   H1982     1.0  0.70079  0.19351  0.49784  1.0000
  H   H1983     1.0  0.92592  0.17777  0.52225  1.0000
  C   C1122     1.0  0.78308  0.34038  0.58813  1.0000
  H   H1984     1.0  0.71319  0.27399  0.49359  1.0000
  H   H1985     1.0  0.81448  0.27049  0.64927  1.0000
  H   H1986     1.0  0.49322  0.21974  0.72194  1.0000
  H   H1987     1.0  0.56849  0.23603  0.72616  1.0000
  C   C1123     1.0  0.96290  0.13830  0.55982  1.0000
  H   H1988     1.0  0.69937  0.37464  0.50128  1.0000
  H   H1989     1.0  0.89560  0.07440  0.71552  1.0000
  H   H1990     1.0  0.90593  0.36859  0.61917  1.0000
  H   H1991     1.0  0.75629  0.28563  0.50500  1.0000
  H   H1992     1.0  0.74247  0.32229  0.51351  1.0000
  H   H1993     1.0  0.73349  0.27623  0.51600  1.0000
  H   H1994     1.0  0.84218  0.36148  0.64596  1.0000
  C   C1124     1.0  0.91426  0.10294  0.52411  1.0000
  H   H1995     1.0  0.88941  0.32637  0.60215  1.0000
  S   S255      1.0  0.70731  0.48100  0.48259  1.0000
  C   C1125     1.0  0.70883  0.16641  0.49570  1.0000
  C   C1126     1.0  0.90908  0.09601  0.71444  1.0000
  H   H1996     1.0  0.94399  0.04315  0.67881  1.0000
  H   H1997     1.0  0.97547  0.07158  0.66665  1.0000
  H   H1998     1.0  0.94783  0.12482  0.68295  1.0000
  S   S256      1.0  0.96927  0.19334  0.68816  1.0000
  C   C1127     1.0  0.88537  0.36793  0.61653  1.0000
  Fe  Fe128     1.0  0.74913  0.47054  0.48814  1.0000
  C   C1128     1.0  0.95834  0.16129  0.54695  1.0000
  C   C1129     1.0  0.85727  0.33968  0.64766  1.0000
  C   C1130     1.0  0.98464  0.13887  0.72314  1.0000
  C   C1131     1.0  0.97186  0.01796  0.72624  1.0000
  H   H1999     1.0  0.97732  0.04447  0.73044  1.0000
  C   C1132     1.0  0.87228  0.34427  0.62616  1.0000
  H   H2000     1.0  0.51003  0.25791  0.71815  1.0000
  H   H2001     1.0  0.73237  0.13123  0.65438  1.0000
  H   H2002     1.0  0.83709  0.41304  0.55251  1.0000
  H   H2003     1.0  0.91911  0.07677  0.67574  1.0000
  H   H2004     1.0  0.90071  0.39772  0.63823  1.0000
  H   H2005     1.0  0.51993  0.01806  0.70454  1.0000
  C   C1133     1.0  0.66686  0.40922  0.49528  1.0000
  C   C1134     1.0  0.88491  0.38850  0.64332  1.0000
  H   H2006     1.0  0.90223  0.10729  0.69357  1.0000
  C   C1135     1.0  0.54237  0.05613  0.72284  1.0000
  C   C1136     1.0  0.79923  0.22287  0.49657  1.0000
  H   H2007     1.0  0.87961  0.45524  0.65534  1.0000
  C   C1137     1.0  0.77694  0.00902  0.63871  1.0000
  S   S257      1.0  0.75369  0.00537  0.49628  1.0000
  H   H2008     1.0  0.97412  0.14502  0.58049  1.0000
  C   C1138     1.0  0.75493  0.43901  0.53385  1.0000
  H   H2009     1.0  0.86283  0.33794  0.65840  1.0000
  H   H2010     1.0  0.79379  0.32560  0.59662  1.0000
  H   H2011     1.0  0.95087  0.31331  0.65766  1.0000
  C   C1139     1.0  0.91809  0.09667  0.70075  1.0000
  H   H2012     1.0  0.98188  0.19562  0.52565  1.0000
  C   C1140     1.0  0.74778  0.19493  0.48885  1.0000
  H   H2013     1.0  0.71948  0.15422  0.50472  1.0000
  H   H2014     1.0  0.80015  0.39563  0.53550  1.0000
  H   H2015     1.0  0.94482  0.26505  0.69557  1.0000
  C   C1141     1.0  0.94777  0.02261  0.71673  1.0000
  H   H2016     1.0  0.87516  0.31520  0.62374  1.0000
  C   C1142     1.0  0.92598  0.35627  0.72698  1.0000
  H   H2017     1.0  0.79439  0.41857  0.54980  1.0000
  H   H2018     1.0  0.72238  0.06659  0.65673  1.0000
  H   H2019     1.0  0.93052  0.10017  0.54407  1.0000
  H   H2020     1.0  0.82961  0.29564  0.66253  1.0000
  H   H2021     1.0  0.90861  0.38252  0.66225  1.0000
  C   C1143     1.0  0.84482  0.30323  0.64402  1.0000
  C   C1144     1.0  0.92628  0.32918  0.63995  1.0000
  C   C1145     1.0  0.50145  0.24480  0.72620  1.0000
  H   H2022     1.0  0.90085  0.44439  0.66981  1.0000
  H   H2023     1.0  0.93232  0.11776  0.70115  1.0000
  H   H2024     1.0  0.87361  0.40716  0.56988  1.0000
  H   H2025     1.0  0.76727  0.08699  0.66214  1.0000
  H   H2026     1.0  0.58174  0.19056  0.71127  1.0000
  C   C1146     1.0  0.76106  0.39984  0.53868  1.0000
  H   H2027     1.0  0.97262  0.09270  0.68907  1.0000
  H   H2028     1.0  0.83708  0.30300  0.63359  1.0000
  C   C1147     1.0  0.97099  0.11236  0.53237  1.0000
  N   N65       1.0  0.95114  0.14079  0.53466  1.0000
  C   C1148     1.0  0.78926  0.39422  0.54403  1.0000
  C   C1149     1.0  0.97026  0.29990  0.68732  1.0000
  H   H2029     1.0  0.86781  0.35957  0.57197  1.0000
  H   H2030     1.0  0.89492  0.06271  0.53467  1.0000
  C   C1150     1.0  0.82295  0.29678  0.65193  1.0000
  H   H2031     1.0  0.87886  0.13720  0.70997  1.0000
  H   H2032     1.0  0.77011  0.03720  0.68506  1.0000
  C   C1151     1.0  0.89144  0.39797  0.65786  1.0000
  C   C1152     1.0  0.90132  0.32401  0.64578  1.0000
  H   H2033     1.0  0.94740  0.15241  0.51384  1.0000
  C   C1153     1.0  0.94774  0.30581  0.64728  1.0000
  H   H2034     1.0  0.90500  0.32527  0.65657  1.0000
  H   H2035     1.0  0.89657  0.29540  0.64393  1.0000
  H   H2036     1.0  0.88917  0.37230  0.59587  1.0000
  H   H2037     1.0  0.85852  0.28002  0.64594  1.0000
  C   C1154     1.0  0.83094  0.00584  0.66883  1.0000
  H   H2038     1.0  0.87604  0.37724  0.55656  1.0000
  C   C1155     1.0  0.89036  0.08471  0.52717  1.0000
  C   C1156     1.0  0.97128  0.16193  0.57138  1.0000
  H   H2039     1.0  0.80819  0.31876  0.64992  1.0000
  H   H2040     1.0  0.92682  0.08155  0.52071  1.0000
  C   C1157     1.0  0.92712  0.12175  0.53632  1.0000
  C   C1158     1.0  0.88065  0.35402  0.60266  1.0000
  H   H2041     1.0  0.74674  0.04449  0.64303  1.0000
  C   C1159     1.0  0.84466  0.02836  0.66128  1.0000
  C   C1160     1.0  0.89646  0.43834  0.65932  1.0000
  H   H2042     1.0  0.75857  0.18184  0.49771  1.0000
  H   H2043     1.0  0.77865  0.36853  0.59102  1.0000
  C   C1161     1.0  0.95175  0.04805  0.70504  1.0000
  H   H2044     1.0  0.96239  0.07171  0.70896  1.0000
  H   H2045     1.0  0.93264  0.03280  0.72225  1.0000
  H   H2046     1.0  0.76090  0.09307  0.67872  1.0000
  H   H2047     1.0  0.90632  0.30430  0.71022  1.0000
  H   H2048     1.0  0.91735  0.25905  0.70946  1.0000
  C   C1162     1.0  0.97162  0.15804  0.71231  1.0000
  H   H2049     1.0  0.73954  0.03190  0.68990  1.0000
  C   C1163     1.0  0.89579  0.13194  0.71715  1.0000
  H   H2050     1.0  0.55677  0.16159  0.71463  1.0000
  H   H2051     1.0  0.94172  0.32952  0.70411  1.0000
  C   C1164     1.0  0.75424  0.01681  0.64604  1.0000
  H   H2052     1.0  0.87300  0.24328  0.71349  1.0000
  H   H2053     1.0  0.58200  0.17052  0.72734  1.0000
  C   C1165     1.0  0.90794  0.03433  0.69492  1.0000
  C   C1166     1.0  0.95776  0.22100  0.50974  1.0000
  H   H2054     1.0  0.54610  0.28781  0.72396  1.0000
  H   H2055     1.0  0.97778  0.11687  0.55931  1.0000
  H   H2056     1.0  0.85184  0.35088  0.62345  1.0000
  H   H2057     1.0  0.92552  0.09214  0.72200  1.0000
  H   H2058     1.0  0.91293  0.14143  0.53957  1.0000
  N   N66       1.0  0.79655  0.35986  0.55209  1.0000
  C   C1167     1.0  0.82493  0.35700  0.55423  1.0000
  C   C1168     1.0  0.78697  0.32813  0.54419  1.0000
  C   C1169     1.0  0.78484  0.36192  0.56469  1.0000
  C   C1170     1.0  0.79885  0.34070  0.57675  1.0000
  C   C1171     1.0  0.83782  0.39105  0.56010  1.0000
  C   C1172     1.0  0.79161  0.28988  0.55068  1.0000
  C   C1173     1.0  0.78475  0.26022  0.54089  1.0000
  H   H2059     1.0  0.88089  0.07276  0.51820  1.0000
  C   C1174     1.0  0.86551  0.38306  0.56495  1.0000
  H   H2060     1.0  0.83261  0.35207  0.54484  1.0000
  H   H2061     1.0  0.83181  0.33301  0.56046  1.0000
  H   H2062     1.0  0.76625  0.33074  0.54165  1.0000
  H   H2063     1.0  0.79510  0.32803  0.53478  1.0000
  H   H2064     1.0  0.78302  0.39060  0.56775  1.0000
  H   H2065     1.0  0.76519  0.35259  0.56318  1.0000
  H   H2066     1.0  0.81680  0.35347  0.58017  1.0000
  H   H2067     1.0  0.80355  0.31219  0.57464  1.0000
  H   H2068     1.0  0.82833  0.40156  0.56830  1.0000
  H   H2069     1.0  0.81146  0.28477  0.55475  1.0000
  H   H2070     1.0  0.77953  0.28676  0.55862  1.0000
  H   H2071     1.0  0.79598  0.26207  0.53254  1.0000
  H   H2072     1.0  0.78884  0.23309  0.54573  1.0000
  H   H2073     1.0  0.76443  0.26250  0.53720  1.0000
  H   H2074     1.0  0.94353  0.27655  0.64666  1.0000
  H   H2075     1.0  0.95525  0.31875  0.68246  1.0000
  N   N67       1.0  0.74154  0.02383  0.66937  1.0000
  H   H2076     1.0  0.55135  0.04817  0.71412  1.0000
  H   H2077     1.0  0.94540  0.12552  0.56202  1.0000
  H   H2078     1.0  0.87766  0.39637  0.61642  1.0000
  H   H2079     1.0  0.90879  0.12276  0.51595  1.0000
  H   H2080     1.0  0.57149  0.16764  0.48703  1.0000
  H   H2081     1.0  0.73365  0.35108  0.49118  1.0000
  H   H2082     1.0  0.78793  0.21865  0.50476  1.0000
  C   C1175     1.0  0.72589  0.16941  0.48490  1.0000
  C   C1176     1.0  0.72471  0.32689  0.48663  1.0000
  H   H2083     1.0  0.82843  0.24659  0.50971  1.0000
  H   H2084     1.0  0.79225  0.02777  0.64169  1.0000
  C   C1177     1.0  0.95809  0.26004  0.72673  1.0000
  H   H2085     1.0  0.91273  0.44583  0.65422  1.0000
  C   C1178     1.0  0.75221  0.09209  0.66846  1.0000
  H   H2086     1.0  0.75722  0.45794  0.54208  1.0000
  H   H2087     1.0  0.70294  0.40603  0.48830  1.0000
  C   C1179     1.0  0.95469  0.30852  0.70937  1.0000
  C   C1180     1.0  0.96152  0.20143  0.52304  1.0000
  H   H2088     1.0  0.85012  0.01852  0.65220  1.0000
  C   C1181     1.0  0.75307  0.02078  0.68343  1.0000
  H   H2089     1.0  0.70344  0.01632  0.64771  1.0000
  S   S258      1.0  0.71279  0.07224  0.48839  1.0000
  H   H2090     1.0  0.94955  0.10251  0.66042  1.0000
  H   H2091     1.0  0.54284  0.22633  0.71383  1.0000
  C   C1182     1.0  0.74051  0.12988  0.66478  1.0000
  H   H2092     1.0  0.86451  0.28977  0.71684  1.0000
  C   C1183     1.0  0.91686  0.28209  0.71619  1.0000
  H   H2093     1.0  0.75525  0.15036  0.66622  1.0000
  H   H2094     1.0  0.80585  0.27933  0.50152  1.0000
  H   H2095     1.0  0.71753  0.06952  0.67330  1.0000
  H   H2096     1.0  0.89049  0.04711  0.68951  1.0000
  H   H2097     1.0  0.97878  0.11998  0.66767  1.0000
  H   H2098     1.0  0.93753  0.22833  0.50688  1.0000
  Fe  Fe129     1.0  0.71367  0.01138  0.48724  1.0000
  H   H2099     1.0  0.96512  0.03278  0.69948  1.0000
  H   H2100     1.0  0.77080  0.25720  0.48516  1.0000
  H   H2101     1.0  0.81110  0.19808  0.49559  1.0000
  H   H2102     1.0  0.52552  0.07396  0.71972  1.0000
  H   H2103     1.0  0.90866  0.15476  0.71672  1.0000
  C   C1184     1.0  0.53534  0.02184  0.73039  1.0000
  H   H2104     1.0  0.86258  0.25437  0.72891  1.0000
  H   H2105     1.0  0.97550  0.17683  0.54633  1.0000
  H   H2106     1.0  0.96479  0.20355  0.50222  1.0000
  C   C1185     1.0  0.81678  0.25371  0.50032  1.0000
  H   H2107     1.0  0.88967  0.13069  0.72704  1.0000
  C   C1186     1.0  0.87359  0.26399  0.72114  1.0000
  H   H2108     1.0  0.93246  0.37057  0.71851  1.0000
  C   C1187     1.0  0.68986  0.38704  0.49205  1.0000
  C   C1188     1.0  0.90066  0.27007  0.72691  1.0000
  H   H2109     1.0  0.98148  0.28105  0.53165  1.0000
  H   H2110     1.0  0.95686  0.23731  0.71977  1.0000
  H   H2111     1.0  0.90606  0.34939  0.72436  1.0000
  H   H2112     1.0  0.52147  0.31399  0.72996  1.0000
  H   H2113     1.0  0.67078  0.33772  0.48674  1.0000
  H   H2114     1.0  0.91189  0.00450  0.67711  1.0000
  H   H2115     1.0  0.97671  0.26156  0.70329  1.0000
  H   H2116     1.0  0.78734  0.15485  0.48577  1.0000
  H   H2117     1.0  0.77135  0.01269  0.62807  1.0000
  H   H2118     1.0  0.81477  0.00186  0.68683  1.0000
  H   H2119     1.0  0.97479  0.13143  0.73130  1.0000
  H   H2120     1.0  0.65739  0.42377  0.48642  1.0000
  C   C1189     1.0  0.98620  0.26588  0.73151  1.0000
  C   C1190     1.0  0.48970  0.02493  0.72383  1.0000
  H   H2121     1.0  0.98738  0.31523  0.69030  1.0000
  C   C1191     1.0  0.56143  0.07820  0.73119  1.0000
  C   C1192     1.0  0.53933  0.29820  0.73291  1.0000
  S   S259      1.0  0.74242  0.41370  0.96850  1.0000
  C   C1193     1.0  0.67790  0.23196  0.96048  1.0000
  H   H2122     1.0  0.53791  0.22209  0.76446  1.0000
  S   S260      1.0  0.71769  0.05241  0.95407  1.0000
  H   H2123     1.0  0.66863  0.47622  0.78433  1.0000
  Fe  Fe130     1.0  0.59706  0.26313  0.92407  1.0000
  S   S261      1.0  0.62021  0.21477  0.91870  1.0000
  S   S262      1.0  0.61743  0.31599  0.92752  1.0000
  Fe  Fe131     1.0  0.54691  0.22436  0.91910  1.0000
  S   S263      1.0  0.56753  0.17339  0.91398  1.0000
  S   S264      1.0  0.50447  0.21456  0.91563  1.0000
  Fe  Fe132     1.0  0.59649  0.18287  0.93091  1.0000
  S   S265      1.0  0.61038  0.13643  0.94530  1.0000
  Fe  Fe133     1.0  0.58950  0.20910  0.90211  1.0000
  S   S266      1.0  0.59555  0.18810  0.88212  1.0000
  S   S267      1.0  0.57437  0.23146  0.93721  1.0000
  S   S268      1.0  0.56799  0.25970  0.90640  1.0000
  Fe  Fe134     1.0  0.59155  0.32128  0.78758  1.0000
  S   S269      1.0  0.55695  0.32923  0.79766  1.0000
  S   S270      1.0  0.61968  0.36508  0.78355  1.0000
  Fe  Fe135     1.0  0.58220  0.23795  0.78410  1.0000
  S   S271      1.0  0.54782  0.24164  0.79471  1.0000
  S   S272      1.0  0.59684  0.18825  0.77334  1.0000
  Fe  Fe136     1.0  0.53770  0.29298  0.78268  1.0000
  H   H2124     1.0  0.60458  0.48110  0.80562  1.0000
  Fe  Fe137     1.0  0.56997  0.27743  0.80887  1.0000
  S   S273      1.0  0.56718  0.28583  0.83050  1.0000
  S   S274      1.0  0.57130  0.28841  0.77164  1.0000
  S   S275      1.0  0.60546  0.27052  0.79925  1.0000
  S   S276      1.0  0.57527  0.02027  0.76071  1.0000
  C   C1194     1.0  0.62533  0.41117  0.78797  1.0000
  C   C1195     1.0  0.64624  0.42823  0.78380  1.0000
  C   C1196     1.0  0.65237  0.46384  0.78757  1.0000
  C   C1197     1.0  0.49237  0.22189  0.87701  1.0000
  C   C1198     1.0  0.61636  0.46642  0.79955  1.0000
  C   C1199     1.0  0.61024  0.43080  0.79576  1.0000
  H   H2125     1.0  0.65800  0.41364  0.77768  1.0000
  H   H2126     1.0  0.65321  0.27424  0.81887  1.0000
  H   H2127     1.0  0.64410  0.18115  0.98029  1.0000
  H   H2128     1.0  0.59385  0.41853  0.79887  1.0000
  C   C1200     1.0  0.59065  0.14132  0.77023  1.0000
  C   C1201     1.0  0.60699  0.12087  0.76318  1.0000
  C   C1202     1.0  0.60297  0.08387  0.76039  1.0000
  C   C1203     1.0  0.58225  0.06660  0.76447  1.0000
  C   C1204     1.0  0.56576  0.08715  0.77141  1.0000
  C   C1205     1.0  0.56998  0.12400  0.77435  1.0000
  H   H2129     1.0  0.62309  0.13367  0.75993  1.0000
  H   H2130     1.0  0.61589  0.06879  0.75504  1.0000
  H   H2131     1.0  0.54969  0.07432  0.77467  1.0000
  H   H2132     1.0  0.55733  0.13891  0.77987  1.0000
  C   C1206     1.0  0.58725  0.21523  0.86779  1.0000
  C   C1207     1.0  0.58799  0.19971  0.85553  1.0000
  C   C1208     1.0  0.58171  0.22072  0.84396  1.0000
  C   C1209     1.0  0.57489  0.25757  0.84459  1.0000
  C   C1210     1.0  0.57400  0.27297  0.85686  1.0000
  C   C1211     1.0  0.58014  0.25195  0.86840  1.0000
  H   H2133     1.0  0.59346  0.17130  0.85496  1.0000
  H   H2134     1.0  0.58224  0.20844  0.83458  1.0000
  H   H2135     1.0  0.56883  0.30147  0.85747  1.0000
  H   H2136     1.0  0.57981  0.26432  0.87777  1.0000
  C   C1212     1.0  0.68797  0.07610  0.95216  1.0000
  C   C1213     1.0  0.68354  0.10460  0.94279  1.0000
  C   C1214     1.0  0.65997  0.12336  0.94060  1.0000
  C   C1215     1.0  0.64047  0.11372  0.94770  1.0000
  C   C1216     1.0  0.64498  0.08556  0.95718  1.0000
  C   C1217     1.0  0.66859  0.06687  0.95942  1.0000
  H   H2137     1.0  0.69844  0.11202  0.93715  1.0000
  H   H2138     1.0  0.65691  0.14528  0.93343  1.0000
  H   H2139     1.0  0.63007  0.07794  0.96278  1.0000
  H   H2140     1.0  0.67170  0.04495  0.96664  1.0000
  C   C1218     1.0  0.66391  0.35415  0.96485  1.0000
  C   C1219     1.0  0.64532  0.32844  0.96565  1.0000
  C   C1220     1.0  0.63114  0.31618  0.95432  1.0000
  C   C1221     1.0  0.63544  0.32947  0.94204  1.0000
  C   C1222     1.0  0.65397  0.35526  0.94124  1.0000
  C   C1223     1.0  0.66823  0.36743  0.95257  1.0000
  H   H2141     1.0  0.66738  0.16196  0.91185  1.0000
  H   H2142     1.0  0.61635  0.29738  0.95507  1.0000
  H   H2143     1.0  0.65726  0.36602  0.93180  1.0000
  H   H2144     1.0  0.68238  0.38732  0.95179  1.0000
  H   H2145     1.0  0.49471  0.39144  0.73955  1.0000
  H   H2146     1.0  0.60074  0.20329  0.98088  1.0000
  H   H2147     1.0  0.67457  0.03660  0.90503  1.0000
  H   H2148     1.0  0.52576  0.31573  0.90152  1.0000
  C   C1224     1.0  0.53522  0.26727  0.74284  1.0000
  H   H2149     1.0  0.51534  0.35453  0.75852  1.0000
  H   H2150     1.0  0.61635  0.30775  0.82410  1.0000
  H   H2151     1.0  0.50837  0.28228  0.83400  1.0000
  H   H2152     1.0  0.76963  0.29191  0.96844  1.0000
  H   H2153     1.0  0.93781  0.31043  0.74030  1.0000
  H   H2154     1.0  0.69747  0.24131  0.96135  1.0000
  H   H2155     1.0  0.64143  0.07694  0.86569  1.0000
  H   H2156     1.0  0.65178  0.21925  0.83275  1.0000
  S   S277      1.0  0.70466  0.47336  0.98069  1.0000
  C   C1225     1.0  0.69106  0.37602  0.80370  1.0000
  H   H2157     1.0  0.67997  0.36600  0.79481  1.0000
  H   H2158     1.0  0.70664  0.35604  0.80697  1.0000
  H   H2159     1.0  0.57858  0.06110  0.73454  1.0000
  N   N68       1.0  0.67385  0.20862  0.97218  1.0000
  H   H2160     1.0  0.89974  0.29079  0.73446  1.0000
  C   C1226     1.0  0.64749  0.19505  0.97103  1.0000
  H   H2161     1.0  0.71170  0.18520  0.97292  1.0000
  H   H2162     1.0  0.53167  0.03085  0.74023  1.0000
  H   H2163     1.0  0.52569  0.28063  0.75060  1.0000
  H   H2164     1.0  0.52015  0.17996  0.77966  1.0000
  C   C1227     1.0  0.76441  0.30273  0.97774  1.0000
  C   C1228     1.0  0.66114  0.34659  0.81768  1.0000
  C   C1229     1.0  0.62302  0.06410  0.86585  1.0000
  C   C1230     1.0  0.52080  0.30328  0.88082  1.0000
  H   H2165     1.0  0.55376  0.04930  0.91611  1.0000
  H   H2166     1.0  0.62913  0.24894  0.97345  1.0000
  Fe  Fe138     1.0  0.73226  0.00832  0.96940  1.0000
  C   C1231     1.0  0.65083  0.27764  0.82932  1.0000
  H   H2167     1.0  0.62080  0.23921  0.82810  1.0000
  H   H2168     1.0  0.72653  0.46364  0.91346  1.0000
  H   H2169     1.0  0.66972  0.27940  0.83479  1.0000
  C   C1232     1.0  0.52061  0.21042  0.87983  1.0000
  C   C1233     1.0  0.60061  0.21008  0.97036  1.0000
  H   H2170     1.0  0.65422  0.20374  0.94521  1.0000
  C   C1234     1.0  0.92661  0.38320  0.73802  1.0000
  C   C1235     1.0  0.85570  0.46396  0.98015  1.0000
  H   H2171     1.0  0.78987  0.48167  0.88884  1.0000
  H   H2172     1.0  0.51823  0.26380  0.86048  1.0000
  H   H2173     1.0  0.70108  0.01584  0.92544  1.0000
  H   H2174     1.0  0.53083  0.21441  0.87123  1.0000
  H   H2175     1.0  0.59609  0.18554  0.96465  1.0000
  H   H2176     1.0  0.49334  0.10988  0.93470  1.0000
  H   H2177     1.0  0.94977  0.24955  0.73536  1.0000
  H   H2178     1.0  0.54425  0.16253  0.88574  1.0000
  C   C1236     1.0  0.71874  0.49182  0.91402  1.0000
  H   H2179     1.0  0.55293  0.19724  0.74210  1.0000
  N   N69       1.0  0.64415  0.34863  0.82835  1.0000
  C   C1237     1.0  0.63370  0.31179  0.83089  1.0000
  C   C1238     1.0  0.62221  0.37427  0.82350  1.0000
  C   C1239     1.0  0.65718  0.36350  0.84072  1.0000
  C   C1240     1.0  0.68157  0.34281  0.84673  1.0000
  H   H2180     1.0  0.91453  0.40760  0.73471  1.0000
  C   C1241     1.0  0.60139  0.37884  0.83267  1.0000
  C   C1242     1.0  0.69521  0.36406  0.85778  1.0000
  C   C1243     1.0  0.57904  0.40199  0.82611  1.0000
  H   H2181     1.0  0.62750  0.31032  0.84081  1.0000
  H   H2182     1.0  0.61312  0.36530  0.81388  1.0000
  H   H2183     1.0  0.62863  0.40210  0.82179  1.0000
  H   H2184     1.0  0.66129  0.39260  0.83923  1.0000
  H   H2185     1.0  0.64450  0.36340  0.84850  1.0000
  H   H2186     1.0  0.69490  0.33806  0.83946  1.0000
  H   H2187     1.0  0.67685  0.31639  0.85098  1.0000
  H   H2188     1.0  0.64593  0.18042  0.89822  1.0000
  H   H2189     1.0  0.68627  0.39144  0.82312  1.0000
  H   H2190     1.0  0.60867  0.39276  0.84167  1.0000
  H   H2191     1.0  0.63637  0.24482  0.84442  1.0000
  H   H2192     1.0  0.68282  0.36908  0.86551  1.0000
  H   H2193     1.0  0.71224  0.34819  0.86218  1.0000
  H   H2194     1.0  0.70118  0.39047  0.85403  1.0000
  H   H2195     1.0  0.59422  0.35236  0.83550  1.0000
  H   H2196     1.0  0.58509  0.42938  0.82340  1.0000
  H   H2197     1.0  0.80242  0.17517  0.98000  1.0000
  H   H2198     1.0  0.51548  0.15303  0.87584  1.0000
  C   C1244     1.0  0.50584  0.30628  0.84011  1.0000
  C   C1245     1.0  0.63753  0.48325  0.79554  1.0000
  H   H2199     1.0  0.67427  0.02054  0.93430  1.0000
  H   H2200     1.0  0.91930  0.37086  0.74665  1.0000
  H   H2201     1.0  0.53549  0.28132  0.88160  1.0000
  H   H2202     1.0  0.51506  0.16461  0.89279  1.0000
  H   H2203     1.0  0.64502  0.17377  0.96360  1.0000
  H   H2204     1.0  0.57710  0.31081  0.74153  1.0000
  H   H2205     1.0  0.68723  0.19096  0.94644  1.0000
  H   H2206     1.0  0.65030  0.33749  0.80851  1.0000
  H   H2207     1.0  0.64154  0.31851  0.97512  1.0000
  H   H2208     1.0  0.60990  0.07563  0.85754  1.0000
  H   H2209     1.0  0.51391  0.35353  0.89084  1.0000
  H   H2210     1.0  0.66039  0.40419  0.81102  1.0000
  S   S278      1.0  0.49644  0.29654  0.77405  1.0000
  H   H2211     1.0  0.53393  0.17729  0.75801  1.0000
  H   H2212     1.0  0.76667  0.33256  0.97752  1.0000
  H   H2213     1.0  0.55539  0.08556  0.92760  1.0000
  H   H2214     1.0  0.59346  0.05996  0.87804  1.0000
  H   H2215     1.0  0.54653  0.33864  0.89183  1.0000
  H   H2216     1.0  0.52200  0.31872  0.87161  1.0000
  H   H2217     1.0  0.66266  0.26346  0.93556  1.0000
  C   C1246     1.0  0.63919  0.24320  0.83397  1.0000
  C   C1247     1.0  0.67422  0.38206  0.81447  1.0000
  C   C1248     1.0  0.52387  0.20260  0.76046  1.0000
  C   C1249     1.0  0.67350  0.21390  0.94705  1.0000
  H   H2218     1.0  0.67788  0.16819  0.89607  1.0000
  H   H2219     1.0  0.67523  0.22707  0.92661  1.0000
  H   H2220     1.0  0.55400  0.25781  0.74775  1.0000
  H   H2221     1.0  0.69608  0.25246  0.93760  1.0000
  H   H2222     1.0  0.85543  0.43489  0.97750  1.0000
  H   H2223     1.0  0.56458  0.40514  0.83290  1.0000
  Fe  Fe139     1.0  0.73870  0.47466  0.96976  1.0000
  H   H2224     1.0  0.57038  0.38871  0.81723  1.0000
  C   C1250     1.0  0.55845  0.32482  0.73881  1.0000
  H   H2225     1.0  0.69925  0.40211  0.80113  1.0000
  H   H2226     1.0  0.76278  0.48878  0.90328  1.0000
  H   H2227     1.0  0.66587  0.25729  0.96001  1.0000
  H   H2228     1.0  0.67655  0.32580  0.82001  1.0000
  C   C1251     1.0  0.68022  0.01536  0.92455  1.0000
  C   C1252     1.0  0.52391  0.17016  0.88379  1.0000
  H   H2229     1.0  0.84670  0.48055  0.97165  1.0000
  H   H2230     1.0  0.49785  0.21651  0.77451  1.0000
  H   H2231     1.0  0.52953  0.22586  0.88808  1.0000
  H   H2232     1.0  0.62464  0.23223  0.95718  1.0000
  S   S279      1.0  0.77453  0.00284  0.97446  1.0000
  C   C1253     1.0  0.62601  0.22426  0.96767  1.0000
  H   H2233     1.0  0.62545  0.03437  0.86458  1.0000
  H   H2234     1.0  0.74433  0.29786  0.97853  1.0000
  C   C1254     1.0  0.67711  0.24095  0.93608  1.0000
  C   C1255     1.0  0.69211  0.17628  0.97312  1.0000
  H   H2235     1.0  0.52449  0.31382  0.84492  1.0000
  H   H2236     1.0  0.94606  0.39207  0.74081  1.0000
  H   H2237     1.0  0.55135  0.09621  0.91038  1.0000
  H   H2238     1.0  0.82173  0.48113  0.87341  1.0000
  N   N70       1.0  0.62517  0.07035  0.90355  1.0000
  C   C1256     1.0  0.62954  0.05497  0.89056  1.0000
  C   C1257     1.0  0.63982  0.04741  0.91436  1.0000
  C   C1258     1.0  0.59753  0.06695  0.90493  1.0000
  C   C1259     1.0  0.63170  0.10987  0.90464  1.0000
  C   C1260     1.0  0.65406  0.12228  0.89750  1.0000
  C   C1261     1.0  0.61233  0.07182  0.87862  1.0000
  C   C1262     1.0  0.58927  0.07694  0.91832  1.0000
  H   H2239     1.0  0.49392  0.17202  0.76762  1.0000
  H   H2240     1.0  0.55321  0.08882  0.73980  1.0000
  C   C1263     1.0  0.66170  0.16054  0.90120  1.0000
  H   H2241     1.0  0.58560  0.23128  0.96754  1.0000
  C   C1264     1.0  0.56067  0.07696  0.91802  1.0000
  H   H2242     1.0  0.59169  0.03867  0.90292  1.0000
  H   H2243     1.0  0.64933  0.05762  0.88866  1.0000
  H   H2244     1.0  0.63700  0.05840  0.92405  1.0000
  N   N71       1.0  0.52090  0.23499  0.73764  1.0000
  H   H2245     1.0  0.68837  0.15904  0.96445  1.0000
  H   H2246     1.0  0.58585  0.08486  0.89759  1.0000
  H   H2247     1.0  0.61532  0.12800  0.90074  1.0000
  H   H2248     1.0  0.63550  0.11699  0.91505  1.0000
  H   H2249     1.0  0.64871  0.12286  0.88679  1.0000
  H   H2250     1.0  0.67089  0.10401  0.89962  1.0000
  C   C1265     1.0  0.49593  0.35040  0.75485  1.0000
  H   H2251     1.0  0.60969  0.10169  0.87937  1.0000
  H   H2252     1.0  0.59564  0.10423  0.92107  1.0000
  H   H2253     1.0  0.59715  0.05700  0.92607  1.0000
  C   C1266     1.0  0.49421  0.28819  0.88116  1.0000
  H   H2254     1.0  0.67704  0.07043  0.91750  1.0000
  S   S280      1.0  0.68116  0.36870  0.97944  1.0000
  H   H2255     1.0  0.49311  0.27763  0.89127  1.0000
  H   H2256     1.0  0.70526  0.49848  0.90522  1.0000
  H   H2257     1.0  0.78084  0.23429  0.97992  1.0000
  H   H2258     1.0  0.55205  0.33728  0.74759  1.0000
  H   H2259     1.0  0.78426  0.11323  0.97714  1.0000
  C   C1267     1.0  0.50720  0.21918  0.74832  1.0000
  H   H2260     1.0  0.76903  0.17446  0.98064  1.0000
  C   C1268     1.0  0.52704  0.32936  0.89195  1.0000
  H   H2261     1.0  0.49153  0.28845  0.92393  1.0000
  H   H2262     1.0  0.96238  0.33174  0.73355  1.0000
  H   H2263     1.0  0.49792  0.32938  0.83366  1.0000
  C   C1269     1.0  0.53874  0.20565  0.73373  1.0000
  C   C1270     1.0  0.50787  0.19219  0.77118  1.0000
  H   H2264     1.0  0.49330  0.23989  0.85255  1.0000
  C   C1271     1.0  0.48819  0.29816  0.85029  1.0000
  H   H2265     1.0  0.90839  0.24416  0.73170  1.0000
  Fe  Fe140     1.0  0.71071  0.41223  0.98090  1.0000
  H   H2266     1.0  0.49456  0.19760  0.74440  1.0000
  H   H2267     1.0  0.49478  0.24044  0.75206  1.0000
  C   C1272     1.0  0.49738  0.26386  0.85875  1.0000
  C   C1273     1.0  0.66875  0.04428  0.91455  1.0000
  H   H2268     1.0  0.70840  0.49324  0.92272  1.0000
  H   H2269     1.0  0.71276  0.10601  0.97711  1.0000
  H   H2270     1.0  0.63263  0.01936  0.91426  1.0000
  H   H2271     1.0  0.62673  0.02513  0.89062  1.0000
  H   H2272     1.0  0.50493  0.11660  0.95150  1.0000
  C   C1274     1.0  0.48813  0.10961  0.94480  1.0000
  H   H2273     1.0  0.71476  0.25191  0.98069  1.0000
  H   H2274     1.0  0.55251  0.00370  0.73213  1.0000
  H   H2275     1.0  0.49121  0.04366  0.73220  1.0000
  H   H2276     1.0  0.56062  0.34691  0.73160  1.0000
  H   H2277     1.0  0.90555  0.79707  0.22839  1.0000
  H   H2278     1.0  0.50363  0.68005  0.03098  1.0000
  C   C1275     1.0  0.49567  0.76381  0.04320  1.0000
  Fe  Fe141     1.0  0.61193  0.73006  0.04884  1.0000
  S   S281      1.0  0.64418  0.75457  0.06152  1.0000
  S   S282      1.0  0.57253  0.75720  0.04956  1.0000
  Fe  Fe142     1.0  0.64753  0.67096  0.03967  1.0000
  S   S283      1.0  0.68154  0.69082  0.05182  1.0000
  S   S284      1.0  0.64620  0.62195  0.02652  1.0000
  Fe  Fe143     1.0  0.65674  0.69720  0.06787  1.0000
  S   S285      1.0  0.66248  0.67749  0.08943  1.0000
  Fe  Fe144     1.0  0.66670  0.74692  0.04453  1.0000
  S   S286      1.0  0.69718  0.78366  0.03822  1.0000
  S   S287      1.0  0.62335  0.67329  0.05609  1.0000
  S   S288      1.0  0.63385  0.72637  0.03146  1.0000
  Fe  Fe145     1.0  0.72318  0.95093  0.99035  1.0000
  S   S289      1.0  0.69206  0.92436  0.00029  1.0000
  S   S290      1.0  0.76435  0.94295  0.99688  1.0000
  S   S291      1.0  0.61443  0.57442  0.20389  1.0000
  H   H2279     1.0  0.53362  0.74415  0.07977  1.0000
  S   S292      1.0  0.88667  0.91185  0.20124  1.0000
  H   H2280     1.0  0.75195  0.60945  0.06722  1.0000
  C   C1276     1.0  0.74963  0.58895  0.98920  1.0000
  S   S293      1.0  0.83352  0.92625  0.21256  1.0000
  Fe  Fe146     1.0  0.85538  0.87729  0.20659  1.0000
  S   S294      1.0  0.84190  0.83657  0.19108  1.0000
  Fe  Fe147     1.0  0.86645  0.96010  0.20887  1.0000
  C   C1277     1.0  0.74142  0.63852  0.21045  1.0000
  H   H2281     1.0  0.88226  0.53669  0.20700  1.0000
  Fe  Fe148     1.0  0.75092  0.57376  0.17962  1.0000
  S   S295      1.0  0.79114  0.57547  0.18859  1.0000
  S   S296      1.0  0.72835  0.54761  0.19440  1.0000
  Fe  Fe149     1.0  0.76247  0.60934  0.15406  1.0000
  S   S297      1.0  0.80357  0.61347  0.16185  1.0000
  S   S298      1.0  0.75446  0.63194  0.13293  1.0000
  Fe  Fe150     1.0  0.80136  0.55586  0.16948  1.0000
  C   C1278     1.0  0.88054  0.52981  0.19653  1.0000
  Fe  Fe151     1.0  0.79004  0.63263  0.18042  1.0000
  S   S299      1.0  0.80434  0.67451  0.19543  1.0000
  S   S300      1.0  0.76118  0.55058  0.16074  1.0000
  S   S301      1.0  0.74906  0.63205  0.17237  1.0000
  C   C1279     1.0  0.83234  0.79115  0.19266  1.0000
  C   C1280     1.0  0.82684  0.77635  0.20452  1.0000
  C   C1281     1.0  0.81841  0.74059  0.20517  1.0000
  C   C1282     1.0  0.81536  0.71921  0.19402  1.0000
  C   C1283     1.0  0.82156  0.73366  0.18225  1.0000
  C   C1284     1.0  0.82975  0.76953  0.18155  1.0000
  H   H2282     1.0  0.82854  0.79273  0.21310  1.0000
  H   H2283     1.0  0.81391  0.72955  0.21436  1.0000
  H   H2284     1.0  0.82027  0.71704  0.17374  1.0000
  H   H2285     1.0  0.83421  0.78059  0.17236  1.0000
  C   C1285     1.0  0.64659  0.56991  0.20173  1.0000
  C   C1286     1.0  0.66463  0.55731  0.21184  1.0000
  C   C1287     1.0  0.68978  0.55141  0.20951  1.0000
  C   C1288     1.0  0.69723  0.55923  0.19719  1.0000
  C   C1289     1.0  0.67942  0.57356  0.18727  1.0000
  C   C1290     1.0  0.65412  0.57843  0.18949  1.0000
  H   H2286     1.0  0.71150  0.93600  0.04729  1.0000
  H   H2287     1.0  0.68494  0.57937  0.17773  1.0000
  H   H2288     1.0  0.57506  0.71480  0.07615  1.0000
  C   C1291     1.0  0.68847  0.66431  0.10121  1.0000
  C   C1292     1.0  0.71337  0.67089  0.09937  1.0000
  C   C1293     1.0  0.73321  0.66038  0.10912  1.0000
  C   C1294     1.0  0.72851  0.64333  0.12088  1.0000
  C   C1295     1.0  0.70361  0.63668  0.12272  1.0000
  C   C1296     1.0  0.68378  0.64702  0.11293  1.0000
  H   H2289     1.0  0.71731  0.68455  0.09052  1.0000
  H   H2290     1.0  0.75236  0.66581  0.10757  1.0000
  H   H2291     1.0  0.69960  0.62370  0.13169  1.0000
  H   H2292     1.0  0.66460  0.64189  0.11451  1.0000
  C   C1297     1.0  0.69481  0.82092  0.02675  1.0000
  C   C1298     1.0  0.67222  0.84076  0.02314  1.0000
  C   C1299     1.0  0.67169  0.87192  0.01488  1.0000
  C   C1300     1.0  0.69356  0.88337  0.00992  1.0000
  C   C1301     1.0  0.71605  0.86299  0.01325  1.0000
  C   C1302     1.0  0.71671  0.83234  0.02176  1.0000
  H   H2293     1.0  0.65524  0.83256  0.02692  1.0000
  H   H2294     1.0  0.65417  0.88736  0.01237  1.0000
  H   H2295     1.0  0.73297  0.87111  0.00940  1.0000
  H   H2296     1.0  0.73430  0.81726  0.02447  1.0000
  C   C1303     1.0  0.71013  0.54242  0.01807  1.0000
  C   C1304     1.0  0.68636  0.54174  0.01090  1.0000
  C   C1305     1.0  0.66716  0.56680  0.01343  1.0000
  C   C1306     1.0  0.67159  0.59310  0.02300  1.0000
  C   C1307     1.0  0.69562  0.59455  0.02986  1.0000
  C   C1308     1.0  0.71472  0.56910  0.02750  1.0000
  H   H2297     1.0  0.68489  0.67819  0.00032  1.0000
  H   H2298     1.0  0.64863  0.56547  0.00806  1.0000
  H   H2299     1.0  0.69937  0.61521  0.03700  1.0000
  H   H2300     1.0  0.73312  0.57004  0.03302  1.0000
  H   H2301     1.0  0.57151  0.71953  0.21828  1.0000
  H   H2302     1.0  0.63840  0.63530  0.21873  1.0000
  C   C1309     1.0  0.50981  0.63112  0.20880  1.0000
  H   H2303     1.0  0.78408  0.54421  0.00461  1.0000
  H   H2304     1.0  0.52868  0.61955  0.20886  1.0000
  C   C1310     1.0  0.53512  0.72293  0.22561  1.0000
  C   C1311     1.0  0.52124  0.77149  0.04656  1.0000
  C   C1312     1.0  0.54066  0.74628  0.04445  1.0000
  C   C1313     1.0  0.53403  0.71321  0.03881  1.0000
  C   C1314     1.0  0.50841  0.70561  0.03539  1.0000
  H   H2305     1.0  0.58733  0.50259  0.20153  1.0000
  H   H2306     1.0  0.52605  0.79729  0.05079  1.0000
  H   H2307     1.0  0.54866  0.69356  0.03706  1.0000
  H   H2308     1.0  0.61966  0.62717  0.07981  1.0000
  H   H2309     1.0  0.50037  0.66871  0.06220  1.0000
  H   H2310     1.0  0.89598  0.82883  0.20250  1.0000
  H   H2311     1.0  0.74130  0.97127  0.05723  1.0000
  H   H2312     1.0  0.81638  0.89581  0.03244  1.0000
  H   H2313     1.0  0.75265  0.95741  0.19820  1.0000
  C   C1315     1.0  0.90179  0.73425  0.20403  1.0000
  H   H2314     1.0  0.74532  0.86717  0.04759  1.0000
  H   H2315     1.0  0.93587  0.80779  0.21423  1.0000
  H   H2316     1.0  0.71118  0.54569  0.10194  1.0000
  S   S302      1.0  0.56849  0.53929  0.22825  1.0000
  H   H2317     1.0  0.73836  0.60908  0.21168  1.0000
  N   N72       1.0  0.75143  0.74243  0.14821  1.0000
  C   C1316     1.0  0.73911  0.73351  0.16023  1.0000
  C   C1317     1.0  0.73341  0.73455  0.13632  1.0000
  C   C1318     1.0  0.77416  0.71689  0.14822  1.0000
  C   C1319     1.0  0.75999  0.78107  0.14779  1.0000
  C   C1320     1.0  0.74414  0.81043  0.15411  1.0000
  C   C1321     1.0  0.75671  0.73310  0.17328  1.0000
  C   C1322     1.0  0.78796  0.71816  0.13582  1.0000
  C   C1323     1.0  0.70855  0.75772  0.13417  1.0000
  C   C1324     1.0  0.69071  0.74321  0.12299  1.0000
  C   C1325     1.0  0.75275  0.84854  0.15121  1.0000
  C   C1326     1.0  0.74189  0.73268  0.18503  1.0000
  C   C1327     1.0  0.81326  0.69711  0.13802  1.0000
  H   H2318     1.0  0.73091  0.70613  0.15941  1.0000
  H   H2319     1.0  0.72288  0.75233  0.16117  1.0000
  H   H2320     1.0  0.74225  0.73885  0.12724  1.0000
  H   H2321     1.0  0.72862  0.70536  0.13654  1.0000
  H   H2322     1.0  0.76899  0.68829  0.14986  1.0000
  H   H2323     1.0  0.78849  0.72268  0.15649  1.0000
  H   H2324     1.0  0.77951  0.78283  0.15279  1.0000
  H   H2325     1.0  0.76118  0.78994  0.13751  1.0000
  H   H2326     1.0  0.74633  0.80652  0.16486  1.0000
  H   H2327     1.0  0.72385  0.80964  0.15066  1.0000
  H   H2328     1.0  0.76909  0.70817  0.17406  1.0000
  H   H2329     1.0  0.76890  0.75684  0.17393  1.0000
  H   H2330     1.0  0.79148  0.74650  0.13293  1.0000
  H   H2331     1.0  0.77668  0.70532  0.12757  1.0000
  H   H2332     1.0  0.69845  0.75773  0.14291  1.0000
  H   H2333     1.0  0.71251  0.78603  0.13142  1.0000
  H   H2334     1.0  0.68483  0.71563  0.12554  1.0000
  H   H2335     1.0  0.67358  0.76130  0.12112  1.0000
  H   H2336     1.0  0.69985  0.74197  0.11389  1.0000
  H   H2337     1.0  0.74152  0.86893  0.15607  1.0000
  H   H2338     1.0  0.77291  0.85103  0.15497  1.0000
  H   H2339     1.0  0.75004  0.85466  0.14056  1.0000
  H   H2340     1.0  0.75521  0.73080  0.19413  1.0000
  H   H2341     1.0  0.73004  0.75798  0.18515  1.0000
  H   H2342     1.0  0.72981  0.70876  0.18481  1.0000
  N   N73       1.0  0.49899  0.71885  0.08314  1.0000
  H   H2343     1.0  0.81040  0.66809  0.14034  1.0000
  H   H2344     1.0  0.82266  0.69852  0.12902  1.0000
  H   H2345     1.0  0.92885  0.71337  0.22749  1.0000
  C   C1328     1.0  0.92352  0.83774  0.18952  1.0000
  C   C1329     1.0  0.71670  0.63904  0.00151  1.0000
  C   C1330     1.0  0.88028  0.50386  0.01705  1.0000
  H   H2346     1.0  0.66082  0.71065  0.21531  1.0000
  H   H2347     1.0  0.69714  0.66373  0.01660  1.0000
  H   H2348     1.0  0.66310  0.61333  0.07270  1.0000
  H   H2349     1.0  0.80108  0.57904  0.01350  1.0000
  C   C1331     1.0  0.62048  0.60002  0.08472  1.0000
  H   H2350     1.0  0.67008  0.59940  0.08917  1.0000
  H   H2351     1.0  0.71374  0.59043  0.08840  1.0000
  C   C1332     1.0  0.72551  0.64929  0.98816  1.0000
  H   H2352     1.0  0.72596  0.56273  0.07649  1.0000
  H   H2353     1.0  0.67152  0.57789  0.05559  1.0000
  H   H2354     1.0  0.88233  0.74533  0.20084  1.0000
  H   H2355     1.0  0.87935  0.55544  0.19060  1.0000
  H   H2356     1.0  0.78978  0.60006  0.99095  1.0000
  H   H2357     1.0  0.60924  0.65572  0.19965  1.0000
  C   C1333     1.0  0.78974  0.94238  0.03026  1.0000
  C   C1334     1.0  0.64384  0.65837  0.21274  1.0000
  C   C1335     1.0  0.75600  0.96694  0.05059  1.0000
  N   N74       1.0  0.68542  0.56314  0.07572  1.0000
  H   H2358     1.0  0.91899  0.67969  0.20834  1.0000
  H   H2359     1.0  0.71430  0.69518  0.00785  1.0000
  H   H2360     1.0  0.73391  0.68877  0.21955  1.0000
  H   H2361     1.0  0.54883  0.68787  0.09223  1.0000
  S   S303      1.0  0.83364  0.51471  0.16690  1.0000
  H   H2362     1.0  0.74895  0.89871  0.06079  1.0000
  H   H2363     1.0  0.96250  0.77948  0.22888  1.0000
  H   H2364     1.0  0.49501  0.67753  0.00496  1.0000
  H   H2365     1.0  0.94950  0.72526  0.21612  1.0000
  H   H2366     1.0  0.63040  0.57114  0.06821  1.0000
  H   H2367     1.0  0.91013  0.85469  0.18269  1.0000
  C   C1336     1.0  0.92695  0.78829  0.20720  1.0000
  H   H2368     1.0  0.68334  0.60297  0.98228  1.0000
  H   H2369     1.0  0.67778  0.55177  0.10251  1.0000
  C   C1337     1.0  0.66493  0.58882  0.07927  1.0000
  H   H2370     1.0  0.77483  0.90222  0.04174  1.0000
  H   H2371     1.0  0.53402  0.66023  0.07960  1.0000
  C   C1338     1.0  0.49792  0.62949  0.22012  1.0000
  H   H2372     1.0  0.52000  0.71970  0.06650  1.0000
  H   H2373     1.0  0.76200  0.64259  0.21191  1.0000
  H   H2374     1.0  0.74623  0.63389  0.08167  1.0000
  C   C1339     1.0  0.76672  0.92235  0.03412  1.0000
  H   H2375     1.0  0.75360  0.99524  0.21726  1.0000
  H   H2376     1.0  0.80006  0.95449  0.03895  1.0000
  C   C1340     1.0  0.72632  0.92036  0.04285  1.0000
  H   H2377     1.0  0.89268  0.68931  0.21715  1.0000
  H   H2378     1.0  0.93467  0.85606  0.19616  1.0000
  H   H2379     1.0  0.70935  0.66348  0.98210  1.0000
  H   H2380     1.0  0.89271  0.53346  0.03455  1.0000
  C   C1341     1.0  0.56580  0.68851  0.07453  1.0000
  H   H2381     1.0  0.62700  0.60306  0.09524  1.0000
  C   C1342     1.0  0.90889  0.81192  0.19729  1.0000
  H   H2382     1.0  0.70656  0.61304  0.05938  1.0000
  H   H2383     1.0  0.82407  0.93149  0.02154  1.0000
  C   C1343     1.0  0.61963  0.67608  0.20572  1.0000
  Fe  Fe152     1.0  0.90393  0.90021  0.22193  1.0000
  H   H2384     1.0  0.63801  0.54742  0.08378  1.0000
  H   H2385     1.0  0.91143  0.73438  0.19504  1.0000
  H   H2386     1.0  0.72080  0.84771  0.06462  1.0000
  H   H2387     1.0  0.82575  0.70875  0.14610  1.0000
  H   H2388     1.0  0.90800  0.54516  0.02050  1.0000
  C   C1344     1.0  0.71012  0.58190  0.07812  1.0000
  H   H2389     1.0  0.60739  0.68619  0.21289  1.0000
  H   H2390     1.0  0.70440  0.89139  0.06440  1.0000
  C   C1345     1.0  0.69940  0.65799  0.21781  1.0000
  H   H2391     1.0  0.94236  0.77682  0.20197  1.0000
  H   H2392     1.0  0.50141  0.75607  0.12163  1.0000
  H   H2393     1.0  0.73310  0.63160  0.00878  1.0000
  C   C1346     1.0  0.77444  0.59948  0.99731  1.0000
  C   C1347     1.0  0.73571  0.88897  0.05265  1.0000
  H   H2394     1.0  0.88968  0.67690  0.18765  1.0000
  C   C1348     1.0  0.48902  0.73069  0.03767  1.0000
  C   C1349     1.0  0.50454  0.72308  0.09767  1.0000
  C   C1350     1.0  0.55182  0.71223  0.21522  1.0000
  H   H2395     1.0  0.69487  0.62921  0.21577  1.0000
  H   H2396     1.0  0.50849  0.79296  0.07462  1.0000
  H   H2397     1.0  0.57950  0.66629  0.07819  1.0000
  H   H2398     1.0  0.56075  0.68523  0.06390  1.0000
  H   H2399     1.0  0.69976  0.86238  0.05049  1.0000
  H   H2400     1.0  0.64024  0.58831  0.18164  1.0000
  H   H2401     1.0  0.49987  0.70727  0.12376  1.0000
  H   H2402     1.0  0.70028  0.63914  0.07318  1.0000
  C   C1351     1.0  0.73933  0.62970  0.07127  1.0000
  H   H2403     1.0  0.60123  0.58945  0.08374  1.0000
  C   C1352     1.0  0.71234  0.61698  0.06986  1.0000
  C   C1353     1.0  0.78253  0.57203  0.00843  1.0000
  C   C1354     1.0  0.54243  0.68685  0.08165  1.0000
  H   H2404     1.0  0.50641  0.64820  0.18853  1.0000
  H   H2405     1.0  0.79777  0.97619  0.22760  1.0000
  H   H2406     1.0  0.76863  0.57251  0.01560  1.0000
  H   H2407     1.0  0.69330  0.97053  0.03007  1.0000
  H   H2408     1.0  0.64798  0.51986  0.06207  1.0000
  N   N75       1.0  0.68409  0.67258  0.22814  1.0000
  C   C1355     1.0  0.90004  0.69338  0.20769  1.0000
  H   H2409     1.0  0.50529  0.63514  0.99860  1.0000
  H   H2410     1.0  0.78412  0.96403  0.02280  1.0000
  H   H2411     1.0  0.87875  0.50952  0.00640  1.0000
  H   H2412     1.0  0.77140  0.95090  0.05656  1.0000
  H   H2413     1.0  0.77250  0.62676  0.00151  1.0000
  H   H2414     1.0  0.70350  0.54032  0.21723  1.0000
  C   C1356     1.0  0.88294  0.67405  0.19736  1.0000
  N   N76       1.0  0.74601  0.94550  0.03890  1.0000
  H   H2415     1.0  0.73602  0.64935  0.23021  1.0000
  C   C1357     1.0  0.52350  0.71890  0.07730  1.0000
  C   C1358     1.0  0.48951  0.65572  0.99804  1.0000
  H   H2416     1.0  0.72875  0.95281  0.01899  1.0000
  H   H2417     1.0  0.81044  0.99828  0.21469  1.0000
  H   H2418     1.0  0.69419  0.67313  0.20837  1.0000
  H   H2419     1.0  0.73720  0.57767  0.99602  1.0000
  C   C1359     1.0  0.49141  0.78846  0.07948  1.0000
  H   H2420     1.0  0.77390  0.93679  0.21132  1.0000
  S   S304      1.0  0.87350  0.86402  0.22698  1.0000
  H   H2421     1.0  0.70426  0.61573  0.00090  1.0000
  H   H2422     1.0  0.73412  0.64755  0.20036  1.0000
  H   H2423     1.0  0.79922  0.90156  0.01636  1.0000
  H   H2424     1.0  0.86281  0.51540  0.19403  1.0000
  H   H2425     1.0  0.64724  0.54155  0.03904  1.0000
  H   H2426     1.0  0.54508  0.72694  0.20590  1.0000
  H   H2427     1.0  0.75442  0.56544  0.98320  1.0000
  H   H2428     1.0  0.78605  0.96042  0.19795  1.0000
  C   C1360     1.0  0.80841  0.91610  0.02483  1.0000
  H   H2429     1.0  0.93633  0.82227  0.18376  1.0000
  H   H2430     1.0  0.65909  0.55124  0.22132  1.0000
  H   H2431     1.0  0.88091  0.78981  0.21592  1.0000
  H   H2432     1.0  0.86339  0.68545  0.19680  1.0000
  C   C1361     1.0  0.49716  0.64741  0.19728  1.0000
  H   H2433     1.0  0.65490  0.64753  0.20517  1.0000
  C   C1362     1.0  0.93604  0.73703  0.22249  1.0000
  H   H2434     1.0  0.75889  0.90631  0.02566  1.0000
  H   H2435     1.0  0.74000  0.65589  0.06582  1.0000
  C   C1363     1.0  0.73357  0.96938  0.02775  1.0000
  H   H2436     1.0  0.88272  0.64469  0.19999  1.0000
  C   C1364     1.0  0.68100  0.55429  0.06137  1.0000
  H   H2437     1.0  0.89739  0.79530  0.19022  1.0000
  Fe  Fe153     1.0  0.60097  0.57304  0.22384  1.0000
  C   C1365     1.0  0.63820  0.57392  0.07856  1.0000
  H   H2438     1.0  0.71634  0.90775  0.03412  1.0000
  C   C1366     1.0  0.71378  0.87170  0.05838  1.0000
  C   C1367     1.0  0.70244  0.67105  0.00685  1.0000
  C   C1368     1.0  0.77008  0.99589  0.21171  1.0000
  C   C1369     1.0  0.65870  0.68599  0.22147  1.0000
  C   C1370     1.0  0.48939  0.73237  0.11975  1.0000
  H   H2439     1.0  0.51545  0.71754  0.22166  1.0000
  H   H2440     1.0  0.87611  0.56130  0.02139  1.0000
  H   H2441     1.0  0.51485  0.69838  0.10219  1.0000
  C   C1371     1.0  0.66582  0.52013  0.05767  1.0000
  H   H2442     1.0  0.51755  0.74560  0.09992  1.0000
  H   H2443     1.0  0.62390  0.69890  0.19924  1.0000
  H   H2444     1.0  0.70291  0.56172  0.98473  1.0000
  H   H2445     1.0  0.87022  0.73276  0.22518  1.0000
  C   C1372     1.0  0.77082  0.96041  0.20438  1.0000
  S   S305      1.0  0.94527  0.88201  0.22510  1.0000
  H   H2446     1.0  0.55119  0.68261  0.21349  1.0000
  C   C1373     1.0  0.70887  0.98978  0.03045  1.0000
  H   H2447     1.0  0.69849  0.72646  0.22723  1.0000
  H   H2448     1.0  0.53661  0.75254  0.22696  1.0000
  H   H2449     1.0  0.49565  0.66109  0.08672  1.0000
  N   N77       1.0  0.91506  0.75821  0.21422  1.0000
  H   H2450     1.0  0.69924  0.54971  0.05733  1.0000
  C   C1374     1.0  0.68791  0.52883  0.08412  1.0000
  H   H2451     1.0  0.70356  0.51102  0.08132  1.0000
  C   C1375     1.0  0.72846  0.66006  0.22040  1.0000
  S   S306      1.0  0.88645  0.95116  0.22915  1.0000
  H   H2452     1.0  0.84102  0.51649  0.01741  1.0000
  H   H2453     1.0  0.64603  0.69432  0.22875  1.0000
  H   H2454     1.0  0.74662  0.98943  0.02450  1.0000
  H   H2455     1.0  0.67092  0.51253  0.08240  1.0000
  C   C1376     1.0  0.89650  0.77548  0.22232  1.0000
  C   C1377     1.0  0.79485  0.00040  0.22089  1.0000
  C   C1378     1.0  0.88976  0.53805  0.02382  1.0000
  H   H2456     1.0  0.68253  0.52130  0.00365  1.0000
  S   S307      1.0  0.73427  0.50973  0.01594  1.0000
  H   H2457     1.0  0.49587  0.79333  0.09001  1.0000
  C   C1379     1.0  0.90323  0.50636  0.19361  1.0000
  C   C1380     1.0  0.65942  0.51783  0.04293  1.0000
  H   H2458     1.0  0.73948  0.67072  0.99029  1.0000
  H   H2459     1.0  0.92033  0.52178  0.19642  1.0000
  H   H2460     1.0  0.67684  0.51694  0.03808  1.0000
  S   S308      1.0  0.58528  0.62529  0.23102  1.0000
  C   C1381     1.0  0.69263  0.53392  0.09908  1.0000
  H   H2461     1.0  0.90132  0.50264  0.18291  1.0000
  H   H2462     1.0  0.78800  0.50277  0.13771  1.0000
  H   H2463     1.0  0.69647  0.50189  0.11710  1.0000
  C   C1382     1.0  0.88360  0.74960  0.23121  1.0000
  N   N78       1.0  0.73875  0.56821  0.42002  1.0000
  S   S309      1.0  0.72143  0.54926  0.46456  1.0000
  S   S310      1.0  0.79287  0.56699  0.46322  1.0000
  Fe  Fe154     1.0  0.84643  0.77270  0.40773  1.0000
  S   S311      1.0  0.81618  0.73205  0.40263  1.0000
  S   S312      1.0  0.88731  0.75999  0.40376  1.0000
  Fe  Fe155     1.0  0.80754  0.83124  0.41333  1.0000
  S   S313      1.0  0.77515  0.79526  0.40856  1.0000
  S   S314      1.0  0.80002  0.89095  0.41696  1.0000
  Fe  Fe156     1.0  0.79929  0.75202  0.42027  1.0000
  S   S315      1.0  0.77661  0.72226  0.43440  1.0000
  Fe  Fe157     1.0  0.79402  0.77819  0.39128  1.0000
  S   S316      1.0  0.76995  0.76777  0.37190  1.0000
  S   S317      1.0  0.83087  0.78967  0.42620  1.0000
  S   S318      1.0  0.82502  0.81720  0.39521  1.0000
  H   H2464     1.0  0.55925  0.74974  0.25459  1.0000
  S   S319      1.0  0.79103  0.96375  0.47132  1.0000
  H   H2465     1.0  0.96066  0.71207  0.24670  1.0000
  C   C1383     1.0  0.63149  0.95277  0.36980  1.0000
  S   S320      1.0  0.57486  0.57712  0.25689  1.0000
  H   H2466     1.0  0.68467  0.51845  0.39477  1.0000
  H   H2467     1.0  0.71588  0.69767  0.23912  1.0000
  S   S321      1.0  0.62457  0.55843  0.24267  1.0000
  C   C1384     1.0  0.90968  0.90120  0.43076  1.0000
  Fe  Fe158     1.0  0.60666  0.60856  0.25033  1.0000
  S   S322      1.0  0.63292  0.64337  0.26359  1.0000
  H   H2468     1.0  0.79663  0.89870  0.23332  1.0000
  H   H2469     1.0  0.65940  0.59721  0.43427  1.0000
  Fe  Fe159     1.0  0.70942  0.87522  0.30370  1.0000
  S   S323      1.0  0.66735  0.87781  0.30392  1.0000
  S   S324      1.0  0.73982  0.87066  0.32134  1.0000
  Fe  Fe160     1.0  0.70468  0.89988  0.27500  1.0000
  S   S325      1.0  0.66247  0.90515  0.27357  1.0000
  S   S326      1.0  0.72136  0.90819  0.25596  1.0000
  Fe  Fe161     1.0  0.66770  0.93159  0.29301  1.0000
  S   S327      1.0  0.64373  0.97777  0.30067  1.0000
  Fe  Fe162     1.0  0.66528  0.85104  0.28431  1.0000
  S   S328      1.0  0.63535  0.81301  0.27523  1.0000
  S   S329      1.0  0.70987  0.93034  0.29367  1.0000
  S   S330      1.0  0.70742  0.84464  0.28488  1.0000
  S   S331      1.0  0.83745  0.92535  0.25134  1.0000
  C   C1385     1.0  0.75359  0.91359  0.25478  1.0000
  C   C1386     1.0  0.76346  0.90346  0.24333  1.0000
  C   C1387     1.0  0.78913  0.90713  0.24210  1.0000
  C   C1388     1.0  0.80502  0.92128  0.25229  1.0000
  C   C1389     1.0  0.79503  0.93221  0.26362  1.0000
  C   C1390     1.0  0.76938  0.92848  0.26484  1.0000
  H   H2470     1.0  0.87976  0.79949  0.45855  1.0000
  H   H2471     1.0  0.57459  0.66480  0.25840  1.0000
  H   H2472     1.0  0.80719  0.94362  0.27148  1.0000
  H   H2473     1.0  0.76167  0.93754  0.27348  1.0000
  H   H2474     1.0  0.68650  0.59815  0.44631  1.0000
  C   C1391     1.0  0.63449  0.69100  0.26597  1.0000
  C   C1392     1.0  0.65214  0.70366  0.27585  1.0000
  C   C1393     1.0  0.65350  0.74105  0.27844  1.0000
  C   C1394     1.0  0.63690  0.76624  0.27128  1.0000
  C   C1395     1.0  0.61964  0.75363  0.26119  1.0000
  C   C1396     1.0  0.61876  0.71635  0.25838  1.0000
  H   H2475     1.0  0.66458  0.68435  0.28172  1.0000
  H   H2476     1.0  0.66676  0.75023  0.28629  1.0000
  H   H2477     1.0  0.60683  0.77290  0.25554  1.0000
  H   H2478     1.0  0.60569  0.70717  0.25050  1.0000
  C   C1397     1.0  0.76176  0.79692  0.35795  1.0000
  C   C1398     1.0  0.74456  0.78518  0.34766  1.0000
  C   C1399     1.0  0.73742  0.80734  0.33643  1.0000
  C   C1400     1.0  0.74746  0.84162  0.33534  1.0000
  C   C1401     1.0  0.76473  0.85333  0.34558  1.0000
  C   C1402     1.0  0.77174  0.83127  0.35685  1.0000
  H   H2479     1.0  0.73675  0.75864  0.34839  1.0000
  H   H2480     1.0  0.72436  0.79771  0.32859  1.0000
  H   H2481     1.0  0.77277  0.87968  0.34483  1.0000
  H   H2482     1.0  0.78499  0.84070  0.36465  1.0000
  C   C1403     1.0  0.79422  0.90846  0.43216  1.0000
  C   C1404     1.0  0.78383  0.94392  0.43252  1.0000
  C   C1405     1.0  0.78169  0.96061  0.44448  1.0000
  C   C1406     1.0  0.79060  0.94229  0.45617  1.0000
  C   C1407     1.0  0.80059  0.90656  0.45583  1.0000
  C   C1408     1.0  0.80199  0.88943  0.44388  1.0000
  H   H2483     1.0  0.77790  0.95888  0.42350  1.0000
  H   H2484     1.0  0.77925  0.80113  0.31263  1.0000
  H   H2485     1.0  0.80753  0.89224  0.46485  1.0000
  H   H2486     1.0  0.80997  0.86211  0.44371  1.0000
  C   C1409     1.0  0.78774  0.60942  0.45472  1.0000
  C   C1410     1.0  0.80702  0.62361  0.44823  1.0000
  C   C1411     1.0  0.80380  0.65774  0.44168  1.0000
  C   C1412     1.0  0.78133  0.67823  0.44174  1.0000
  C   C1413     1.0  0.76197  0.66384  0.44813  1.0000
  C   C1414     1.0  0.76507  0.62950  0.45448  1.0000
  H   H2487     1.0  0.82464  0.60824  0.44836  1.0000
  H   H2488     1.0  0.81885  0.66850  0.43681  1.0000
  H   H2489     1.0  0.74450  0.67944  0.44817  1.0000
  H   H2490     1.0  0.75020  0.61887  0.45947  1.0000
  N   N79       1.0  0.80191  0.84021  0.29318  1.0000
  C   C1415     1.0  0.94541  0.85151  0.24983  1.0000
  H   H2491     1.0  0.92599  0.86109  0.24933  1.0000
  H   H2492     1.0  0.72813  0.69904  0.46916  1.0000
  C   C1416     1.0  0.95053  0.77620  0.42931  1.0000
  C   C1417     1.0  0.92510  0.77354  0.42405  1.0000
  C   C1418     1.0  0.91893  0.76574  0.41090  1.0000
  C   C1419     1.0  0.93862  0.76083  0.40312  1.0000
  C   C1420     1.0  0.96406  0.76322  0.40839  1.0000
  H   H2493     1.0  0.95503  0.78180  0.43953  1.0000
  H   H2494     1.0  0.91039  0.77634  0.43027  1.0000
  H   H2495     1.0  0.93417  0.75485  0.39293  1.0000
  C   C1421     1.0  0.69754  0.66305  0.46587  1.0000
  H   H2496     1.0  0.71265  0.58878  0.26274  1.0000
  C   C1422     1.0  0.85573  0.95121  0.43193  1.0000
  C   C1423     1.0  0.72926  0.91477  0.45593  1.0000
  H   H2497     1.0  0.85943  0.75188  0.24664  1.0000
  C   C1424     1.0  0.89300  0.85338  0.39277  1.0000
  H   H2498     1.0  0.55884  0.62767  0.27653  1.0000
  H   H2499     1.0  0.90945  0.83547  0.39659  1.0000
  H   H2500     1.0  0.71151  0.56817  0.40281  1.0000
  H   H2501     1.0  0.70894  0.64030  0.46243  1.0000
  C   C1425     1.0  0.97023  0.77074  0.42156  1.0000
  C   C1426     1.0  0.91990  0.66027  0.41746  1.0000
  H   H2502     1.0  0.87618  0.83670  0.39096  1.0000
  C   C1427     1.0  0.76362  0.54936  0.42519  1.0000
  C   C1428     1.0  0.86849  0.77098  0.24035  1.0000
  H   H2503     1.0  0.89456  0.84322  0.41817  1.0000
  H   H2504     1.0  0.98162  0.96169  0.26838  1.0000
  H   H2505     1.0  0.86981  0.84757  0.27685  1.0000
  H   H2506     1.0  0.73807  0.93843  0.46079  1.0000
  H   H2507     1.0  0.81489  0.86938  0.27693  1.0000
  H   H2508     1.0  0.77311  0.92666  0.31367  1.0000
  H   H2509     1.0  0.82125  0.79304  0.30301  1.0000
  H   H2510     1.0  0.76735  0.77788  0.26307  1.0000
  C   C1429     1.0  0.87023  0.87545  0.43740  1.0000
  H   H2511     1.0  0.51045  0.77072  0.26601  1.0000
  H   H2512     1.0  0.81325  0.89049  0.31368  1.0000
  H   H2513     1.0  0.84100  0.93628  0.43623  1.0000
  C   C1430     1.0  0.87098  0.82616  0.45498  1.0000
  H   H2514     1.0  0.69216  0.97962  0.34321  1.0000
  H   H2515     1.0  0.67583  0.55527  0.43989  1.0000
  C   C1431     1.0  0.54299  0.70108  0.23858  1.0000
  H   H2516     1.0  0.97541  0.65007  0.37834  1.0000
  H   H2517     1.0  0.64610  0.96298  0.37721  1.0000
  H   H2518     1.0  0.77373  0.54001  0.41698  1.0000
  C   C1432     1.0  0.85602  0.83109  0.27091  1.0000
  H   H2519     1.0  0.77499  0.66592  0.41353  1.0000
  C   C1433     1.0  0.88173  0.86734  0.41549  1.0000
  H   H2520     1.0  0.69332  0.97941  0.31902  1.0000
  H   H2521     1.0  0.84540  0.79908  0.28681  1.0000
  C   C1434     1.0  0.69583  0.60378  0.25767  1.0000
  H   H2522     1.0  0.80980  0.69651  0.47125  1.0000
  N   N80       1.0  0.88242  0.89344  0.42663  1.0000
  H   H2523     1.0  0.88069  0.81787  0.43575  1.0000
  N   N81       1.0  0.67941  0.90582  0.34873  1.0000
  C   C1435     1.0  0.66355  0.87434  0.34420  1.0000
  C   C1436     1.0  0.66376  0.93459  0.35472  1.0000
  C   C1437     1.0  0.68855  0.92281  0.33678  1.0000
  C   C1438     1.0  0.70211  0.89352  0.35804  1.0000
  C   C1439     1.0  0.69675  0.87371  0.37071  1.0000
  C   C1440     1.0  0.67771  0.84154  0.33881  1.0000
  C   C1441     1.0  0.70337  0.95813  0.33891  1.0000
  C   C1442     1.0  0.64234  0.92163  0.36239  1.0000
  C   C1443     1.0  0.83595  0.81768  0.27902  1.0000
  C   C1444     1.0  0.72089  0.85667  0.37808  1.0000
  C   C1445     1.0  0.65948  0.81272  0.33372  1.0000
  H   H2524     1.0  0.97024  0.69840  0.38044  1.0000
  H   H2525     1.0  0.64813  0.88406  0.33658  1.0000
  H   H2526     1.0  0.65398  0.86270  0.35217  1.0000
  H   H2527     1.0  0.56550  0.79149  0.27268  1.0000
  H   H2528     1.0  0.95875  0.95442  0.23985  1.0000
  H   H2529     1.0  0.67239  0.92905  0.32912  1.0000
  H   H2530     1.0  0.70119  0.90361  0.33237  1.0000
  H   H2531     1.0  0.71509  0.87597  0.35301  1.0000
  H   H2532     1.0  0.71341  0.91704  0.36130  1.0000
  H   H2533     1.0  0.68342  0.85165  0.36876  1.0000
  H   H2534     1.0  0.68900  0.89352  0.37727  1.0000
  H   H2535     1.0  0.68809  0.84964  0.33064  1.0000
  H   H2536     1.0  0.69126  0.82842  0.34661  1.0000
  H   H2537     1.0  0.72120  0.95276  0.34539  1.0000
  C   C1446     1.0  0.50155  0.71315  0.24561  1.0000
  H   H2538     1.0  0.62676  0.91156  0.35549  1.0000
  H   H2539     1.0  0.64871  0.89945  0.36951  1.0000
  C   C1447     1.0  0.80399  0.90256  0.30435  1.0000
  C   C1448     1.0  0.56429  0.67805  0.26584  1.0000
  C   C1449     1.0  0.67826  0.58438  0.43745  1.0000
  H   H2540     1.0  0.72840  0.83446  0.37240  1.0000
  H   H2541     1.0  0.73544  0.87724  0.38002  1.0000
  H   H2542     1.0  0.71689  0.84485  0.38756  1.0000
  H   H2543     1.0  0.67019  0.78957  0.33002  1.0000
  H   H2544     1.0  0.64910  0.80235  0.34164  1.0000
  H   H2545     1.0  0.64586  0.82408  0.32559  1.0000
  H   H2546     1.0  0.75803  0.60017  0.39742  1.0000
  H   H2547     1.0  0.71654  0.74423  0.25613  1.0000
  H   H2548     1.0  0.70497  0.51019  0.41748  1.0000
  H   H2549     1.0  0.94792  0.93804  0.45658  1.0000
  H   H2550     1.0  0.56032  0.66775  0.28634  1.0000
  C   C1450     1.0  0.88297  0.83926  0.44310  1.0000
  H   H2551     1.0  0.81870  0.91304  0.29870  1.0000
  H   H2552     1.0  0.86905  0.89371  0.44570  1.0000
  H   H2553     1.0  0.94674  0.65731  0.43473  1.0000
  H   H2554     1.0  0.70186  0.91694  0.46963  1.0000
  H   H2555     1.0  0.76746  0.81084  0.29184  1.0000
  H   H2556     1.0  0.90331  0.84214  0.44621  1.0000
  C   C1451     1.0  0.54486  0.79753  0.27101  1.0000
  H   H2557     1.0  0.74992  0.66673  0.40018  1.0000
  H   H2558     1.0  0.58856  0.64819  0.28102  1.0000
  H   H2559     1.0  0.98255  0.67620  0.44526  1.0000
  H   H2560     1.0  0.87887  0.94532  0.41612  1.0000
  C   C1452     1.0  0.71718  0.51189  0.40957  1.0000
  C   C1453     1.0  0.97049  0.73322  0.24166  1.0000
  C   C1454     1.0  0.53839  0.74901  0.25409  1.0000
  H   H2561     1.0  0.82731  0.80449  0.33200  1.0000
  H   H2562     1.0  0.61233  0.97187  0.27375  1.0000
  H   H2563     1.0  0.74525  0.81804  0.47857  1.0000
  H   H2564     1.0  0.65407  0.95352  0.34699  1.0000
  H   H2565     1.0  0.90086  0.70403  0.42686  1.0000
  H   H2566     1.0  0.74532  0.81316  0.25607  1.0000
  H   H2567     1.0  0.78183  0.65574  0.39737  1.0000
  C   C1455     1.0  0.78759  0.93523  0.30751  1.0000
  H   H2568     1.0  0.70493  0.90622  0.43790  1.0000
  H   H2569     1.0  0.54516  0.00009  0.26527  1.0000
  H   H2570     1.0  0.53128  0.77001  0.24655  1.0000
  H   H2571     1.0  0.69914  0.87938  0.45935  1.0000
  H   H2572     1.0  0.68867  0.67922  0.45725  1.0000
  Fe  Fe163     1.0  0.76184  0.53590  0.47133  1.0000
  H   H2573     1.0  0.53875  0.80783  0.28020  1.0000
  C   C1456     1.0  0.76396  0.61232  0.40695  1.0000
  H   H2574     1.0  0.85354  0.78842  0.23470  1.0000
  C   C1457     1.0  0.76781  0.65263  0.40438  1.0000
  H   H2575     1.0  0.79142  0.84106  0.32037  1.0000
  H   H2576     1.0  0.72299  0.95359  0.32169  1.0000
  H   H2577     1.0  0.90018  0.65987  0.43479  1.0000
  H   H2578     1.0  0.74070  0.79161  0.27136  1.0000
  H   H2579     1.0  0.71795  0.54178  0.43420  1.0000
  H   H2580     1.0  0.69661  0.61757  0.42455  1.0000
  H   H2581     1.0  0.79738  0.78802  0.33525  1.0000
  H   H2582     1.0  0.92132  0.87539  0.43178  1.0000
  C   C1458     1.0  0.89918  0.67450  0.42523  1.0000
  C   C1459     1.0  0.78326  0.81575  0.28601  1.0000
  C   C1460     1.0  0.88873  0.88325  0.40238  1.0000
  N   N82       1.0  0.96864  0.65221  0.41844  1.0000
  H   H2583     1.0  0.71559  0.64793  0.25066  1.0000
  H   H2584     1.0  0.87388  0.84582  0.46297  1.0000
  C   C1461     1.0  0.77080  0.83018  0.27246  1.0000
  H   H2585     1.0  0.72649  0.62165  0.41188  1.0000
  C   C1462     1.0  0.56812  0.65390  0.27818  1.0000
  H   H2586     1.0  0.77996  0.88913  0.28727  1.0000
  C   C1463     1.0  0.71326  0.92904  0.44354  1.0000
  C   C1464     1.0  0.71318  0.89527  0.46531  1.0000
  C   C1465     1.0  0.74392  0.60707  0.41649  1.0000
  H   H2587     1.0  0.89740  0.73175  0.23741  1.0000
  H   H2588     1.0  0.94759  0.69785  0.42518  1.0000
  H   H2589     1.0  0.89682  0.86568  0.38334  1.0000
  C   C1466     1.0  0.81011  0.79133  0.32760  1.0000
  H   H2590     1.0  0.81526  0.76394  0.32424  1.0000
  C   C1467     1.0  0.72909  0.82233  0.45827  1.0000
  H   H2591     1.0  0.68736  0.76606  0.25932  1.0000
  H   H2592     1.0  0.86972  0.95876  0.44002  1.0000
  C   C1468     1.0  0.78808  0.87459  0.29635  1.0000
  H   H2593     1.0  0.67619  0.95182  0.36123  1.0000
  C   C1469     1.0  0.96897  0.61142  0.42013  1.0000
  C   C1470     1.0  0.69502  0.58810  0.42655  1.0000
  C   C1471     1.0  0.91567  0.92269  0.44337  1.0000
  H   H2594     1.0  0.95432  0.93289  0.43997  1.0000
  C   C1472     1.0  0.82231  0.84998  0.28497  1.0000
  H   H2595     1.0  0.86631  0.80749  0.26727  1.0000
  H   H2596     1.0  0.90650  0.91172  0.45159  1.0000
  C   C1473     1.0  0.95892  0.85778  0.23928  1.0000
  H   H2597     1.0  0.66384  0.73306  0.24195  1.0000
  H   H2598     1.0  0.73421  0.77564  0.44622  1.0000
  H   H2599     1.0  0.95009  0.92954  0.25381  1.0000
  H   H2600     1.0  0.68167  0.58391  0.25414  1.0000
  H   H2601     1.0  0.83076  0.83467  0.30979  1.0000
  H   H2602     1.0  0.77153  0.86825  0.30142  1.0000
  H   H2603     1.0  0.73045  0.58357  0.43911  1.0000
  C   C1474     1.0  0.67974  0.64298  0.23782  1.0000
  H   H2604     1.0  0.75014  0.62214  0.42546  1.0000
  H   H2605     1.0  0.68147  0.70204  0.25364  1.0000
  H   H2606     1.0  0.84718  0.84780  0.26240  1.0000
  C   C1475     1.0  0.74288  0.78680  0.45552  1.0000
  H   H2607     1.0  0.72968  0.84073  0.44969  1.0000
  H   H2608     1.0  0.83721  0.86486  0.29084  1.0000
  H   H2609     1.0  0.76298  0.79141  0.45455  1.0000
  H   H2610     1.0  0.74165  0.76634  0.46342  1.0000
  H   H2611     1.0  0.78480  0.83865  0.26603  1.0000
  C   C1476     1.0  0.95723  0.83345  0.26119  1.0000
  H   H2612     1.0  0.94675  0.82908  0.26938  1.0000
  H   H2613     1.0  0.67319  0.51477  0.25751  1.0000
  C   C1477     1.0  0.74164  0.83978  0.47086  1.0000
  H   H2614     1.0  0.69759  0.80724  0.47861  1.0000
  C   C1478     1.0  0.69644  0.70477  0.23467  1.0000
  H   H2615     1.0  0.77812  0.94866  0.29843  1.0000
  C   C1479     1.0  0.71042  0.97335  0.32602  1.0000
  H   H2616     1.0  0.85048  0.82280  0.45242  1.0000
  H   H2617     1.0  0.69802  0.94800  0.44599  1.0000
  C   C1480     1.0  0.98379  0.96088  0.25786  1.0000
  H   H2618     1.0  0.58065  0.95768  0.27408  1.0000
  H   H2619     1.0  0.95475  0.68978  0.40256  1.0000
  H   H2620     1.0  0.78248  0.59986  0.41098  1.0000
  H   H2621     1.0  0.88047  0.67034  0.41970  1.0000
  H   H2622     1.0  0.72526  0.94398  0.43734  1.0000
  H   H2623     1.0  0.90616  0.89864  0.40373  1.0000
  H   H2624     1.0  0.68872  0.52488  0.24325  1.0000
  H   H2625     1.0  0.90983  0.95166  0.44153  1.0000
  H   H2626     1.0  0.79203  0.78835  0.28486  1.0000
  C   C1481     1.0  0.70328  0.62675  0.24636  1.0000
  H   H2627     1.0  0.85031  0.86993  0.43382  1.0000
  H   H2628     1.0  0.88105  0.78831  0.24668  1.0000
  C   C1482     1.0  0.98412  0.84509  0.24007  1.0000
  H   H2629     1.0  0.57288  0.70424  0.26837  1.0000
  H   H2630     1.0  0.52590  0.68886  0.26923  1.0000
  H   H2631     1.0  0.75125  0.89232  0.23544  1.0000
  H   H2632     1.0  0.85091  0.92038  0.41473  1.0000
  C   C1483     1.0  0.95156  0.75841  0.23324  1.0000
  H   H2633     1.0  0.91728  0.63085  0.41619  1.0000
  H   H2634     1.0  0.77237  0.66705  0.47740  1.0000
  H   H2635     1.0  0.86259  0.85636  0.41340  1.0000
  C   C1484     1.0  0.86738  0.92758  0.42173  1.0000
  H   H2636     1.0  0.68772  0.62147  0.26481  1.0000
  C   C1485     1.0  0.72133  0.56942  0.43049  1.0000
  H   H2637     1.0  0.59324  0.96374  0.25867  1.0000
  H   H2638     1.0  0.77625  0.56885  0.43057  1.0000
  H   H2639     1.0  0.79946  0.95526  0.31295  1.0000
  Fe  Fe164     1.0  0.59110  0.52774  0.24782  1.0000
  H   H2640     1.0  0.75794  0.85380  0.27363  1.0000
  H   H2641     1.0  0.70916  0.81646  0.45881  1.0000
  H   H2642     1.0  0.87331  0.90181  0.39773  1.0000
  H   H2643     1.0  0.74458  0.89668  0.45312  1.0000
  H   H2644     1.0  0.82267  0.80201  0.27249  1.0000
  C   C1486     1.0  0.81395  0.82041  0.30541  1.0000
  H   H2645     1.0  0.68517  0.57566  0.41781  1.0000
  C   C1487     1.0  0.79672  0.81470  0.31630  1.0000
  H   H2646     1.0  0.91753  0.91705  0.42304  1.0000
  H   H2647     1.0  0.97890  0.75925  0.40225  1.0000
  H   H2648     1.0  0.76065  0.84743  0.46860  1.0000
  H   H2649     1.0  0.68244  0.65161  0.47105  1.0000
  C   C1488     1.0  0.75512  0.80128  0.26535  1.0000
  N   N83       1.0  0.52954  0.71201  0.25004  1.0000
  H   H2650     1.0  0.52938  0.65651  0.25720  1.0000
  H   H2651     1.0  0.80342  0.51485  0.44111  1.0000
  H   H2652     1.0  0.48790  0.72292  0.26475  1.0000
  H   H2653     1.0  0.95102  0.89322  0.45019  1.0000
  C   C1489     1.0  0.94641  0.66779  0.42454  1.0000
  Fe  Fe165     1.0  0.55450  0.59061  0.23686  1.0000
  H   H2654     1.0  0.66581  0.65253  0.24427  1.0000
  H   H2655     1.0  0.95208  0.60032  0.41453  1.0000
  C   C1490     1.0  0.69756  0.75383  0.25162  1.0000
  H   H2656     1.0  0.93930  0.77161  0.23983  1.0000
  C   C1491     1.0  0.53602  0.68336  0.26069  1.0000
  H   H2657     1.0  0.53535  0.74320  0.27524  1.0000
  N   N84       1.0  0.72784  0.87197  0.47598  1.0000
  C   C1492     1.0  0.53082  0.76326  0.26710  1.0000
  C   C1493     1.0  0.79546  0.71253  0.47589  1.0000
  C   C1494     1.0  0.94397  0.92157  0.44775  1.0000
  H   H2658     1.0  0.54085  0.81917  0.26333  1.0000
  H   H2659     1.0  0.91682  0.67400  0.40771  1.0000
  H   H2660     1.0  0.75866  0.52710  0.44446  1.0000
  C   C1495     1.0  0.72710  0.55046  0.40785  1.0000
  C   C1496     1.0  0.95778  0.95529  0.25052  1.0000
  H   H2661     1.0  0.62413  0.97542  0.36298  1.0000
  H   H2662     1.0  0.69940  0.77524  0.24410  1.0000
  H   H2663     1.0  0.96753  0.60349  0.43045  1.0000
  H   H2664     1.0  0.95373  0.64367  0.39830  1.0000
  C   C1497     1.0  0.59291  0.97443  0.26862  1.0000
  C   C1498     1.0  0.98361  0.67478  0.38279  1.0000
  H   H2665     1.0  0.74094  0.54782  0.40069  1.0000
  C   C1499     1.0  0.96541  0.66332  0.40412  1.0000
  C   C1500     1.0  0.71400  0.68722  0.47489  1.0000
  H   H2666     1.0  0.61576  0.94299  0.37488  1.0000
  C   C1501     1.0  0.68295  0.72215  0.24566  1.0000
  C   C1502     1.0  0.76303  0.51686  0.43494  1.0000
  H   H2667     1.0  0.76557  0.98471  0.23959  1.0000
  H   H2668     1.0  0.77403  0.98814  0.44463  1.0000
  H   H2669     1.0  0.78237  0.72618  0.46799  1.0000
  H   H2670     1.0  0.67827  0.84515  0.47114  1.0000
  H   H2671     1.0  0.71415  0.60877  0.24039  1.0000
  C   C1503     1.0  0.84304  0.98607  0.42565  1.0000
  H   H2672     1.0  0.73803  0.99686  0.25647  1.0000
  H   H2673     1.0  0.82798  0.97953  0.41779  1.0000
  H   H2674     1.0  0.54010  0.67203  0.23643  1.0000
  S   S332      1.0  0.51314  0.60950  0.23484  1.0000
  C   C1504     1.0  0.68918  0.83446  0.48027  1.0000
  H   H2675     1.0  0.76068  0.90467  0.47679  1.0000
  H   H2676     1.0  0.56366  0.70319  0.24092  1.0000
  H   H2677     1.0  0.94464  0.97801  0.25241  1.0000
  H   H2678     1.0  0.70154  0.70940  0.47782  1.0000
  H   H2679     1.0  0.72056  0.99888  0.32772  1.0000
  H   H2680     1.0  0.97329  0.53824  0.41417  1.0000
  C   C1505     1.0  0.98258  0.82144  0.26209  1.0000
  H   H2681     1.0  0.98144  0.74917  0.24920  1.0000
  H   H2682     1.0  0.49563  0.73936  0.24038  1.0000
  Fe  Fe166     1.0  0.85422  0.91584  0.23248  1.0000
  H   H2683     1.0  0.98385  0.71998  0.23562  1.0000
  H   H2684     1.0  0.67090  0.61951  0.23275  1.0000
  H   H2685     1.0  0.49704  0.69164  0.23838  1.0000
  H   H2686     1.0  0.51155  0.00103  0.24746  1.0000
  H   H2687     1.0  0.70615  0.50315  0.25747  1.0000
  C   C1506     1.0  0.68762  0.50498  0.25137  1.0000
  H   H2688     1.0  0.94343  0.74117  0.69264  1.0000
  S   S333      1.0  0.90055  0.56681  0.70504  1.0000
  C   C1507     1.0  0.49930  0.97010  0.70213  1.0000
  H   H2689     1.0  0.49036  0.75137  0.57827  1.0000
  S   S334      1.0  0.85213  0.53863  0.71838  1.0000
  H   H2690     1.0  0.77596  0.84403  0.71684  1.0000
  Fe  Fe167     1.0  0.86377  0.59148  0.70967  1.0000
  S   S335      1.0  0.83920  0.62698  0.69437  1.0000
  H   H2691     1.0  0.74657  0.71444  0.52273  1.0000
  C   C1508     1.0  0.98571  0.73467  0.70886  1.0000
  Fe  Fe168     1.0  0.79720  0.91349  0.66614  1.0000
  S   S336      1.0  0.75931  0.91083  0.65411  1.0000
  S   S337      1.0  0.82287  0.96165  0.66309  1.0000
  Fe  Fe169     1.0  0.79272  0.83574  0.67789  1.0000
  S   S338      1.0  0.75458  0.82834  0.66675  1.0000
  S   S339      1.0  0.81177  0.79744  0.69429  1.0000
  Fe  Fe170     1.0  0.77004  0.85356  0.64943  1.0000
  S   S340      1.0  0.76488  0.83276  0.62846  1.0000
  Fe  Fe171     1.0  0.74624  0.88600  0.67211  1.0000
  S   S341      1.0  0.70681  0.90163  0.67642  1.0000
  S   S342      1.0  0.80922  0.85722  0.66027  1.0000
  S   S343      1.0  0.78313  0.89225  0.68449  1.0000
  H   H2692     1.0  0.90228  0.75085  0.68378  1.0000
  Fe  Fe172     1.0  0.67401  0.80743  0.54142  1.0000
  S   S344      1.0  0.69394  0.76856  0.55659  1.0000
  S   S345      1.0  0.70256  0.84350  0.53345  1.0000
  Fe  Fe173     1.0  0.62216  0.77747  0.54545  1.0000
  S   S346      1.0  0.63942  0.73649  0.56064  1.0000
  S   S347      1.0  0.57980  0.79143  0.54056  1.0000
  Fe  Fe174     1.0  0.66325  0.78188  0.56881  1.0000
  S   S348      1.0  0.66572  0.79728  0.59031  1.0000
  Fe  Fe175     1.0  0.66890  0.72680  0.54697  1.0000
  S   S349      1.0  0.68947  0.67277  0.54408  1.0000
  S   S350      1.0  0.64471  0.82350  0.55421  1.0000
  S   S351      1.0  0.65031  0.76501  0.53114  1.0000
  H   H2693     1.0  0.93300  0.98789  0.69098  1.0000
  S   S352      1.0  0.68769  0.58270  0.49195  1.0000
  S   S353      1.0  0.75648  0.52941  0.49260  1.0000
  C   C1509     1.0  0.50623  0.75203  0.58621  1.0000
  H   H2694     1.0  0.53754  0.97832  0.71077  1.0000
  C   C1510     1.0  0.91028  0.70467  0.72726  1.0000
  C   C1511     1.0  0.69601  0.88173  0.52285  1.0000
  C   C1512     1.0  0.67176  0.89077  0.51687  1.0000
  C   C1513     1.0  0.66778  0.92039  0.50792  1.0000
  C   C1514     1.0  0.68792  0.94125  0.50497  1.0000
  C   C1515     1.0  0.71205  0.93263  0.51121  1.0000
  C   C1516     1.0  0.71605  0.90297  0.52009  1.0000
  H   H2695     1.0  0.65617  0.87463  0.51895  1.0000
  H   H2696     1.0  0.64903  0.92690  0.50315  1.0000
  H   H2697     1.0  0.72769  0.94852  0.50909  1.0000
  H   H2698     1.0  0.73483  0.89631  0.52477  1.0000
  C   C1517     1.0  0.68857  0.60701  0.50663  1.0000
  C   C1518     1.0  0.70579  0.59799  0.51755  1.0000
  C   C1519     1.0  0.70582  0.61844  0.52893  1.0000
  C   C1520     1.0  0.68890  0.64834  0.52945  1.0000
  C   C1521     1.0  0.67193  0.65766  0.51846  1.0000
  C   C1522     1.0  0.67169  0.63694  0.50715  1.0000
  H   H2699     1.0  0.71883  0.57500  0.51730  1.0000
  H   H2700     1.0  0.71895  0.61097  0.53741  1.0000
  H   H2701     1.0  0.65874  0.68045  0.51875  1.0000
  H   H2702     1.0  0.65830  0.64413  0.49874  1.0000
  C   C1523     1.0  0.73691  0.82267  0.61818  1.0000
  C   C1524     1.0  0.71280  0.83154  0.62139  1.0000
  C   C1525     1.0  0.69127  0.82361  0.61278  1.0000
  C   C1526     1.0  0.69348  0.80674  0.60085  1.0000
  C   C1527     1.0  0.71755  0.79768  0.59768  1.0000
  C   C1528     1.0  0.73907  0.80575  0.60624  1.0000
  H   H2703     1.0  0.71074  0.84453  0.63051  1.0000
  H   H2704     1.0  0.67280  0.83066  0.61541  1.0000
  H   H2705     1.0  0.71958  0.78389  0.58871  1.0000
  H   H2706     1.0  0.75756  0.79839  0.60370  1.0000
  C   C1529     1.0  0.69852  0.91215  0.69196  1.0000
  C   C1530     1.0  0.71664  0.91869  0.70243  1.0000
  C   C1531     1.0  0.70916  0.92897  0.71446  1.0000
  C   C1532     1.0  0.68357  0.93183  0.71619  1.0000
  C   C1533     1.0  0.66546  0.92446  0.70582  1.0000
  C   C1534     1.0  0.67294  0.91498  0.69371  1.0000
  H   H2707     1.0  0.73638  0.91606  0.70125  1.0000
  H   H2708     1.0  0.72970  0.61219  0.72182  1.0000
  H   H2709     1.0  0.64570  0.92664  0.70708  1.0000
  H   H2710     1.0  0.65881  0.90990  0.68565  1.0000
  H   H2711     1.0  0.74475  0.79362  0.55219  1.0000
  C   C1535     1.0  0.83247  0.67461  0.69445  1.0000
  C   C1536     1.0  0.81961  0.69198  0.68322  1.0000
  C   C1537     1.0  0.81330  0.72954  0.68293  1.0000
  C   C1538     1.0  0.81952  0.75014  0.69396  1.0000
  C   C1539     1.0  0.83222  0.73273  0.70523  1.0000
  C   C1540     1.0  0.83892  0.69530  0.70544  1.0000
  H   H2712     1.0  0.81446  0.67626  0.67466  1.0000
  H   H2713     1.0  0.80347  0.74245  0.67420  1.0000
  H   H2714     1.0  0.83688  0.74838  0.71386  1.0000
  H   H2715     1.0  0.84875  0.68234  0.71416  1.0000
  C   C1541     1.0  0.50593  0.73750  0.54820  1.0000
  C   C1542     1.0  0.52639  0.87818  0.71000  1.0000
  H   H2716     1.0  0.75132  0.88507  0.59922  1.0000
  C   C1543     1.0  0.74872  0.73111  0.69983  1.0000
  C   C1544     1.0  0.50618  0.77444  0.54485  1.0000
  C   C1545     1.0  0.52892  0.79035  0.54256  1.0000
  C   C1546     1.0  0.55177  0.76974  0.54370  1.0000
  C   C1547     1.0  0.55150  0.73279  0.54706  1.0000
  C   C1548     1.0  0.52876  0.71685  0.54930  1.0000
  C   C1549     1.0  0.91521  0.63835  0.68429  1.0000
  H   H2717     1.0  0.52883  0.81893  0.53993  1.0000
  H   H2718     1.0  0.56878  0.71643  0.54777  1.0000
  H   H2719     1.0  0.52886  0.68826  0.55192  1.0000
  H   H2720     1.0  0.89098  0.68034  0.70082  1.0000
  H   H2721     1.0  0.71844  0.65114  0.72989  1.0000
  H   H2722     1.0  0.89889  0.94536  0.68448  1.0000
  H   H2723     1.0  0.66779  0.88021  0.59178  1.0000
  H   H2724     1.0  0.68444  0.85348  0.57218  1.0000
  C   C1550     1.0  0.75697  0.83395  0.71368  1.0000
  H   H2725     1.0  0.52705  0.94730  0.69034  1.0000
  H   H2726     1.0  0.76812  0.59908  0.52377  1.0000
  H   H2727     1.0  0.75222  0.72977  0.48451  1.0000
  C   C1551     1.0  0.75909  0.84180  0.56188  1.0000
  H   H2728     1.0  0.67900  0.89681  0.56379  1.0000
  H   H2729     1.0  0.77148  0.56246  0.70039  1.0000
  C   C1552     1.0  0.76396  0.62198  0.50397  1.0000
  H   H2730     1.0  0.77725  0.92928  0.50283  1.0000
  H   H2731     1.0  0.91980  0.63178  0.67439  1.0000
  H   H2732     1.0  0.71134  0.99479  0.67688  1.0000
  H   H2733     1.0  0.87543  0.97987  0.68694  1.0000
  C   C1553     1.0  0.73644  0.73270  0.51504  1.0000
  H   H2734     1.0  0.52295  0.61372  0.49860  1.0000
  H   H2735     1.0  0.74972  0.75285  0.51207  1.0000
  C   C1554     1.0  0.76517  0.88439  0.59205  1.0000
  H   H2736     1.0  0.77848  0.79473  0.55490  1.0000
  H   H2737     1.0  0.74282  0.91231  0.55377  1.0000
  H   H2738     1.0  0.80514  0.73329  0.48206  1.0000
  C   C1555     1.0  0.72588  0.91198  0.55904  1.0000
  H   H2739     1.0  0.65672  0.80887  0.48674  1.0000
  H   H2740     1.0  0.76992  0.85560  0.59018  1.0000
  C   C1556     1.0  0.51314  0.87057  0.72055  1.0000
  H   H2741     1.0  0.77187  0.67342  0.51310  1.0000
  H   H2742     1.0  0.92263  0.67148  0.70720  1.0000
  C   C1557     1.0  0.78786  0.56184  0.70806  1.0000
  Fe  Fe176     1.0  0.71536  0.54013  0.48555  1.0000
  H   H2743     1.0  0.76108  0.78485  0.56838  1.0000
  C   C1558     1.0  0.77783  0.62593  0.71493  1.0000
  C   C1559     1.0  0.72492  0.71148  0.50307  1.0000
  Fe  Fe177     1.0  0.58124  0.91522  0.72995  1.0000
  H   H2744     1.0  0.76219  0.62621  0.70680  1.0000
  C   C1560     1.0  0.88841  0.79048  0.69651  1.0000
  H   H2745     1.0  0.73613  0.71386  0.69349  1.0000
  C   C1561     1.0  0.73561  0.85137  0.56879  1.0000
  H   H2746     1.0  0.69616  0.95578  0.54038  1.0000
  H   H2747     1.0  0.80413  0.89972  0.59203  1.0000
  H   H2748     1.0  0.75839  0.74934  0.69348  1.0000
  H   H2749     1.0  0.48888  0.79081  0.54407  1.0000
  C   C1562     1.0  0.78446  0.90189  0.50046  1.0000
  C   C1563     1.0  0.75532  0.66052  0.50778  1.0000
  H   H2750     1.0  0.49803  0.73090  0.51502  1.0000
  C   C1564     1.0  0.71022  0.89440  0.58000  1.0000
  H   H2751     1.0  0.79579  0.88539  0.60770  1.0000
  H   H2752     1.0  0.89576  0.62985  0.68516  1.0000
  H   H2753     1.0  0.71158  0.89826  0.55236  1.0000
  H   H2754     1.0  0.73661  0.83421  0.57780  1.0000
  H   H2755     1.0  0.70581  0.85049  0.71355  1.0000
  C   C1565     1.0  0.77016  0.98162  0.70325  1.0000
  H   H2756     1.0  0.79665  0.61700  0.51873  1.0000
  H   H2757     1.0  0.74942  0.70267  0.72578  1.0000
  C   C1566     1.0  0.51608  0.86858  0.69744  1.0000
  H   H2758     1.0  0.76538  0.57458  0.72314  1.0000
  H   H2759     1.0  0.77870  0.69044  0.70203  1.0000
  H   H2760     1.0  0.72047  0.84513  0.49399  1.0000
  H   H2761     1.0  0.75105  0.87504  0.50362  1.0000
  H   H2762     1.0  0.95989  0.69272  0.71106  1.0000
  C   C1567     1.0  0.71299  0.82739  0.72026  1.0000
  H   H2763     1.0  0.70897  0.69611  0.50618  1.0000
  C   C1568     1.0  0.71596  0.75336  0.52130  1.0000
  H   H2764     1.0  0.71252  0.65059  0.49139  1.0000
  H   H2765     1.0  0.71315  0.80315  0.71401  1.0000
  H   H2766     1.0  0.72462  0.76825  0.52981  1.0000
  N   N85       1.0  0.57471  0.78566  0.58770  1.0000
  C   C1569     1.0  0.54995  0.77641  0.59234  1.0000
  C   C1570     1.0  0.59304  0.79508  0.59927  1.0000
  C   C1571     1.0  0.56990  0.81938  0.57902  1.0000
  C   C1572     1.0  0.58575  0.75561  0.58011  1.0000
  C   C1573     1.0  0.57973  0.71596  0.58378  1.0000
  C   C1574     1.0  0.52774  0.77269  0.58141  1.0000
  C   C1575     1.0  0.59338  0.83648  0.57433  1.0000
  C   C1576     1.0  0.60034  0.76466  0.60971  1.0000
  C   C1577     1.0  0.61767  0.77875  0.62118  1.0000
  C   C1578     1.0  0.59661  0.68829  0.57780  1.0000
  H   H2767     1.0  0.79763  0.90476  0.49300  1.0000
  C   C1579     1.0  0.58582  0.86718  0.56429  1.0000
  H   H2768     1.0  0.54398  0.79771  0.59896  1.0000
  H   H2769     1.0  0.55174  0.75112  0.59842  1.0000
  H   H2770     1.0  0.61128  0.80282  0.59608  1.0000
  H   H2771     1.0  0.58567  0.81921  0.60416  1.0000
  H   H2772     1.0  0.55979  0.84093  0.58402  1.0000
  H   H2773     1.0  0.55739  0.81333  0.57000  1.0000
  H   H2774     1.0  0.57942  0.75911  0.56950  1.0000
  H   H2775     1.0  0.60659  0.75751  0.58085  1.0000
  H   H2776     1.0  0.55999  0.71038  0.58009  1.0000
  H   H2777     1.0  0.58211  0.71060  0.59442  1.0000
  H   H2778     1.0  0.74724  0.60571  0.50108  1.0000
  H   H2779     1.0  0.53390  0.75852  0.57293  1.0000
  H   H2780     1.0  0.60478  0.81562  0.56985  1.0000
  H   H2781     1.0  0.60524  0.84857  0.58253  1.0000
  H   H2782     1.0  0.58363  0.75391  0.61363  1.0000
  H   H2783     1.0  0.61098  0.74229  0.60554  1.0000
  H   H2784     1.0  0.63524  0.78866  0.61782  1.0000
  H   H2785     1.0  0.60813  0.80116  0.62596  1.0000
  H   H2786     1.0  0.62287  0.75642  0.62849  1.0000
  H   H2787     1.0  0.61661  0.69128  0.58176  1.0000
  H   H2788     1.0  0.59121  0.66035  0.58021  1.0000
  H   H2789     1.0  0.59459  0.69183  0.56704  1.0000
  H   H2790     1.0  0.54219  0.58290  0.68880  1.0000
  H   H2791     1.0  0.51247  0.72357  0.58899  1.0000
  H   H2792     1.0  0.52539  0.56394  0.67455  1.0000
  H   H2793     1.0  0.60293  0.87874  0.56101  1.0000
  H   H2794     1.0  0.57418  0.85695  0.55563  1.0000
  H   H2795     1.0  0.57504  0.88916  0.56862  1.0000
  H   H2796     1.0  0.75819  0.85652  0.55236  1.0000
  H   H2797     1.0  0.71909  0.84178  0.56241  1.0000
  S   S354      1.0  0.55485  0.90192  0.71177  1.0000
  C   C1580     1.0  0.91714  0.67907  0.68638  1.0000
  C   C1581     1.0  0.50824  0.96146  0.68898  1.0000
  H   H2798     1.0  0.78541  0.57454  0.51260  1.0000
  H   H2799     1.0  0.51615  0.65404  0.51692  1.0000
  H   H2800     1.0  0.93004  0.69448  0.72810  1.0000
  C   C1582     1.0  0.78906  0.90095  0.59854  1.0000
  H   H2801     1.0  0.75923  0.80533  0.71078  1.0000
  H   H2802     1.0  0.79814  0.58183  0.72721  1.0000
  C   C1583     1.0  0.68421  0.88329  0.57345  1.0000
  H   H2803     1.0  0.80451  0.57147  0.70372  1.0000
  C   C1584     1.0  0.67051  0.82935  0.49021  1.0000
  H   H2804     1.0  0.70848  0.92252  0.58360  1.0000
  H   H2805     1.0  0.87624  0.73688  0.69153  1.0000
  H   H2806     1.0  0.79500  0.88928  0.50942  1.0000
  N   N86       1.0  0.77227  0.65309  0.72510  1.0000
  H   H2807     1.0  0.53063  0.65262  0.48899  1.0000
  C   C1585     1.0  0.89462  0.75033  0.69333  1.0000
  Fe  Fe178     1.0  0.91674  0.58570  0.72471  1.0000
  Fe  Fe179     1.0  0.89052  0.51509  0.71504  1.0000
  H   H2808     1.0  0.77666  0.84863  0.56796  1.0000
  H   H2809     1.0  0.77542  0.62254  0.49574  1.0000
  C   C1586     1.0  0.66006  0.81519  0.71134  1.0000
  H   H2810     1.0  0.52430  0.69272  0.50751  1.0000
  H   H2811     1.0  0.52008  0.80007  0.57793  1.0000
  C   C1587     1.0  0.77947  0.60206  0.51551  1.0000
  H   H2812     1.0  0.86853  0.83852  0.68733  1.0000
  H   H2813     1.0  0.90401  0.69300  0.67859  1.0000
  H   H2814     1.0  0.73860  0.67334  0.71305  1.0000
  H   H2815     1.0  0.64536  0.88276  0.57737  1.0000
  S   S355      1.0  0.88051  0.61309  0.72859  1.0000
  C   C1588     1.0  0.71679  0.95216  0.55992  1.0000
  C   C1589     1.0  0.75594  0.68398  0.71843  1.0000
  C   C1590     1.0  0.96000  0.72262  0.71193  1.0000
  C   C1591     1.0  0.76271  0.87816  0.49552  1.0000
  C   C1592     1.0  0.91047  0.68921  0.70008  1.0000
  H   H2816     1.0  0.92867  0.62285  0.69155  1.0000
  H   H2817     1.0  0.74636  0.96256  0.68690  1.0000
  C   C1593     1.0  0.76831  0.70753  0.70847  1.0000
  C   C1594     1.0  0.53059  0.64136  0.49905  1.0000
  H   H2818     1.0  0.66001  0.85534  0.49145  1.0000
  H   H2819     1.0  0.89671  0.96168  0.70065  1.0000
  H   H2820     1.0  0.93667  0.68619  0.68516  1.0000
  H   H2821     1.0  0.80667  0.68141  0.72384  1.0000
  C   C1595     1.0  0.87469  0.81094  0.68457  1.0000
  C   C1596     1.0  0.89501  0.96975  0.69016  1.0000
  H   H2822     1.0  0.66143  0.92289  0.58277  1.0000
  H   H2823     1.0  0.52936  0.94830  0.73050  1.0000
  H   H2824     1.0  0.66071  0.78514  0.71217  1.0000
  H   H2825     1.0  0.77765  0.97163  0.68371  1.0000
  C   C1597     1.0  0.63294  0.82759  0.70656  1.0000
  H   H2826     1.0  0.71409  0.87685  0.58895  1.0000
  H   H2827     1.0  0.67174  0.82341  0.70368  1.0000
  H   H2828     1.0  0.49290  0.79839  0.51784  1.0000
  N   N87       1.0  0.91232  0.72884  0.70342  1.0000
  H   H2829     1.0  0.52617  0.87434  0.68921  1.0000
  H   H2830     1.0  0.77700  0.95379  0.70659  1.0000
  S   S356      1.0  0.95272  0.61765  0.72582  1.0000
  H   H2831     1.0  0.74010  0.99658  0.64287  1.0000
  H   H2832     1.0  0.89829  0.68147  0.72472  1.0000
  H   H2833     1.0  0.73747  0.92114  0.48637  1.0000
  H   H2834     1.0  0.72706  0.97036  0.66549  1.0000
  H   H2835     1.0  0.78526  0.92962  0.60105  1.0000
  H   H2836     1.0  0.94263  0.99529  0.71324  1.0000
  H   H2837     1.0  0.63134  0.85763  0.70527  1.0000
  H   H2838     1.0  0.73729  0.74806  0.70585  1.0000
  H   H2839     1.0  0.78167  0.72614  0.71370  1.0000
  C   C1598     1.0  0.76186  0.70834  0.49124  1.0000
  C   C1599     1.0  0.90400  0.73526  0.71671  1.0000
  H   H2840     1.0  0.73134  0.96794  0.56560  1.0000
  C   C1600     1.0  0.66349  0.89298  0.58190  1.0000
  N   N88       1.0  0.73161  0.89087  0.57178  1.0000
  H   H2841     1.0  0.69919  0.95440  0.56457  1.0000
  N   N89       1.0  0.74277  0.68593  0.49704  1.0000
  H   H2842     1.0  0.74226  0.65545  0.51522  1.0000
  H   H2843     1.0  0.70552  0.77332  0.51429  1.0000
  S   S357      1.0  0.68243  0.97632  0.49290  1.0000
  S   S358      1.0  0.60002  0.96924  0.73010  1.0000
  C   C1601     1.0  0.74687  0.89574  0.48329  1.0000
  C   C1602     1.0  0.52713  0.58852  0.68058  1.0000
  H   H2844     1.0  0.77308  0.72339  0.49895  1.0000
  C   C1603     1.0  0.51508  0.66623  0.50695  1.0000
  C   C1604     1.0  0.50233  0.59783  0.68593  1.0000
  H   H2845     1.0  0.88726  0.81374  0.67683  1.0000
  H   H2846     1.0  0.79459  0.63392  0.71024  1.0000
  H   H2847     1.0  0.88316  0.73879  0.71589  1.0000
  H   H2848     1.0  0.79540  0.67269  0.49129  1.0000
  C   C1605     1.0  0.75476  0.90566  0.57928  1.0000
  H   H2849     1.0  0.50549  0.62184  0.69210  1.0000
  H   H2850     1.0  0.85772  0.79647  0.68061  1.0000
  C   C1606     1.0  0.76089  0.80123  0.55922  1.0000
  H   H2851     1.0  0.93930  0.77130  0.70522  1.0000
  H   H2852     1.0  0.70256  0.73419  0.52483  1.0000
  H   H2853     1.0  0.78420  0.98057  0.64066  1.0000
  H   H2854     1.0  0.71634  0.73247  0.49588  1.0000
  H   H2855     1.0  0.77020  0.90757  0.57301  1.0000
  C   C1607     1.0  0.78225  0.58549  0.71941  1.0000
  H   H2856     1.0  0.75086  0.93404  0.58214  1.0000
  H   H2857     1.0  0.76799  0.98447  0.66290  1.0000
  H   H2858     1.0  0.68034  0.81991  0.49982  1.0000
  H   H2859     1.0  0.53276  0.61156  0.67460  1.0000
  H   H2860     1.0  0.72324  0.93455  0.72248  1.0000
  C   C1608     1.0  0.76162  0.98193  0.68861  1.0000
  H   H2861     1.0  0.87587  0.79174  0.70433  1.0000
  C   C1609     1.0  0.93849  0.74214  0.70278  1.0000
  H   H2862     1.0  0.55034  0.63903  0.50376  1.0000
  H   H2863     1.0  0.90555  0.80528  0.69976  1.0000
  H   H2864     1.0  0.74853  0.85049  0.70505  1.0000
  C   C1610     1.0  0.71012  0.86007  0.48545  1.0000
  H   H2865     1.0  0.62696  0.81542  0.69701  1.0000
  H   H2866     1.0  0.49635  0.95004  0.72791  1.0000
  H   H2867     1.0  0.70101  0.88441  0.48941  1.0000
  C   C1611     1.0  0.71130  0.96997  0.54633  1.0000
  H   H2868     1.0  0.78574  0.00042  0.70551  1.0000
  H   H2869     1.0  0.67246  0.96928  0.66438  1.0000
  H   H2870     1.0  0.49493  0.94328  0.68353  1.0000
  H   H2871     1.0  0.49937  0.76555  0.59469  1.0000
  H   H2872     1.0  0.77077  0.85111  0.49339  1.0000
  H   H2873     1.0  0.95846  0.72984  0.72218  1.0000
  H   H2874     1.0  0.79184  0.53330  0.71159  1.0000
  H   H2875     1.0  0.91146  0.76111  0.72069  1.0000
  H   H2876     1.0  0.49616  0.94394  0.70703  1.0000
  H   H2877     1.0  0.69123  0.76505  0.72680  1.0000
  H   H2878     1.0  0.75421  0.98965  0.70868  1.0000
  C   C1612     1.0  0.66903  0.83227  0.72463  1.0000
  C   C1613     1.0  0.49285  0.85150  0.69541  1.0000
  H   H2879     1.0  0.62001  0.81891  0.71359  1.0000
  H   H2880     1.0  0.74116  0.86516  0.72822  1.0000
  H   H2881     1.0  0.66665  0.86230  0.72321  1.0000
  H   H2882     1.0  0.68935  0.95343  0.65132  1.0000
  H   H2883     1.0  0.98714  0.76452  0.70981  1.0000
  H   H2884     1.0  0.49805  0.57425  0.69201  1.0000
  H   H2885     1.0  0.70500  0.99878  0.54713  1.0000
  H   H2886     1.0  0.50935  0.98674  0.68307  1.0000
  C   C1614     1.0  0.91366  0.99892  0.68780  1.0000
  C   C1615     1.0  0.51876  0.99270  0.71040  1.0000
  H   H2887     1.0  0.52086  0.87762  0.73027  1.0000
  C   C1616     1.0  0.48973  0.85393  0.71850  1.0000
  C   C1617     1.0  0.72722  0.66495  0.48682  1.0000
  C   C1618     1.0  0.74063  0.83674  0.72483  1.0000
  C   C1619     1.0  0.67956  0.97736  0.65510  1.0000
  S   S359      1.0  0.67501  0.94436  0.73147  1.0000
  H   H2888     1.0  0.72844  0.96925  0.54122  1.0000
  H   H2889     1.0  0.73849  0.64310  0.48276  1.0000
  H   H2890     1.0  0.66324  0.98580  0.64790  1.0000
  N   N90       1.0  0.69556  0.82209  0.73062  1.0000
  C   C1620     1.0  0.71996  0.99813  0.66763  1.0000
  C   C1621     1.0  0.78129  0.68710  0.48406  1.0000
  H   H2891     1.0  0.48765  0.68272  0.49056  1.0000
  H   H2892     1.0  0.65523  0.82437  0.73132  1.0000
  C   C1622     1.0  0.79611  0.66927  0.73135  1.0000
  C   C1623     1.0  0.73104  0.62640  0.73122  1.0000
  H   H2893     1.0  0.48742  0.68126  0.52744  1.0000
  N   N91       1.0  0.51341  0.00125  0.72406  1.0000
  H   H2894     1.0  0.72159  0.84260  0.74634  1.0000
  C   C1624     1.0  0.80176  0.50554  0.88834  1.0000
  H   H2895     1.0  0.71261  0.86787  0.76775  1.0000
  Fe  Fe180     1.0  0.86532  0.70012  0.91337  1.0000
  S   S360      1.0  0.83242  0.72620  0.90032  1.0000
  S   S361      1.0  0.90447  0.71307  0.90764  1.0000
  Fe  Fe181     1.0  0.82926  0.65881  0.92909  1.0000
  S   S362      1.0  0.79446  0.68230  0.91719  1.0000
  S   S363      1.0  0.82944  0.61846  0.94615  1.0000
  Fe  Fe182     1.0  0.81488  0.67157  0.89962  1.0000
  S   S364      1.0  0.80041  0.63659  0.88221  1.0000
  Fe  Fe183     1.0  0.81471  0.73523  0.91887  1.0000
  S   S365      1.0  0.79486  0.79020  0.92170  1.0000
  S   S366      1.0  0.84882  0.64486  0.91164  1.0000
  S   S367      1.0  0.84838  0.71228  0.93184  1.0000
  H   H2896     1.0  0.60143  0.60190  0.78877  1.0000
  S   S368      1.0  0.72710  0.94759  0.96886  1.0000
  S   S369      1.0  0.79644  0.89750  0.96981  1.0000
  S   S370      1.0  0.85888  0.56520  0.75722  1.0000
  C   C1625     1.0  0.50370  0.93540  0.75294  1.0000
  S   S371      1.0  0.57343  0.91837  0.75079  1.0000
  H   H2897     1.0  0.76542  0.61248  0.96779  1.0000
  C   C1626     1.0  0.69510  0.58308  0.97754  1.0000
  S   S372      1.0  0.63124  0.94187  0.75807  1.0000
  Fe  Fe184     1.0  0.61135  0.88916  0.75571  1.0000
  S   S373      1.0  0.62113  0.84451  0.77145  1.0000
  Fe  Fe185     1.0  0.59416  0.97121  0.75136  1.0000
  H   H2898     1.0  0.95739  0.83821  0.93808  1.0000
  H   H2899     1.0  0.75198  0.51158  0.92453  1.0000
  Fe  Fe186     1.0  0.71602  0.61844  0.80932  1.0000
  S   S374      1.0  0.67422  0.62423  0.80300  1.0000
  S   S375      1.0  0.73093  0.65123  0.82717  1.0000
  Fe  Fe187     1.0  0.72487  0.57887  0.78450  1.0000
  S   S376      1.0  0.68393  0.58264  0.77675  1.0000
  S   S377      1.0  0.74670  0.54996  0.76998  1.0000
  Fe  Fe188     1.0  0.68439  0.64054  0.78324  1.0000
  S   S378      1.0  0.66610  0.68240  0.76784  1.0000
  Fe  Fe189     1.0  0.67663  0.56567  0.79684  1.0000
  H   H2900     1.0  0.87768  0.88993  0.94279  1.0000
  S   S379      1.0  0.72598  0.63770  0.78964  1.0000
  S   S380      1.0  0.71785  0.55870  0.80456  1.0000
  C   C1627     1.0  0.63550  0.80067  0.77007  1.0000
  C   C1628     1.0  0.63608  0.78402  0.75806  1.0000
  C   C1629     1.0  0.64571  0.74796  0.75757  1.0000
  C   C1630     1.0  0.65538  0.72836  0.76902  1.0000
  C   C1631     1.0  0.65553  0.74540  0.78096  1.0000
  C   C1632     1.0  0.64537  0.78112  0.78149  1.0000
  H   H2901     1.0  0.62826  0.79848  0.74921  1.0000
  H   H2902     1.0  0.64536  0.73499  0.74827  1.0000
  H   H2903     1.0  0.66325  0.73094  0.78981  1.0000
  H   H2904     1.0  0.64507  0.79371  0.79084  1.0000
  C   C1633     1.0  0.82713  0.56309  0.76010  1.0000
  C   C1634     1.0  0.81935  0.57966  0.77115  1.0000
  C   C1635     1.0  0.79436  0.57750  0.77398  1.0000
  C   C1636     1.0  0.77730  0.55748  0.76604  1.0000
  C   C1637     1.0  0.78501  0.54133  0.75490  1.0000
  C   C1638     1.0  0.80975  0.54446  0.75185  1.0000
  H   H2905     1.0  0.83283  0.59371  0.77763  1.0000
  H   H2906     1.0  0.78848  0.59020  0.78248  1.0000
  H   H2907     1.0  0.69055  0.90103  0.75910  1.0000
  C   C1639     1.0  0.78015  0.64120  0.86721  1.0000
  C   C1640     1.0  0.76849  0.67433  0.86264  1.0000
  C   C1641     1.0  0.75320  0.67658  0.85051  1.0000
  C   C1642     1.0  0.74924  0.64582  0.84276  1.0000
  C   C1643     1.0  0.76067  0.61257  0.84740  1.0000
  C   C1644     1.0  0.77603  0.61034  0.85951  1.0000
  H   H2908     1.0  0.77140  0.69831  0.86840  1.0000
  H   H2909     1.0  0.74447  0.70248  0.84708  1.0000
  H   H2910     1.0  0.75791  0.58866  0.84159  1.0000
  H   H2911     1.0  0.78502  0.58458  0.86288  1.0000
  C   C1645     1.0  0.79403  0.81785  0.93565  1.0000
  C   C1646     1.0  0.80933  0.81020  0.94739  1.0000
  C   C1647     1.0  0.80944  0.83450  0.95780  1.0000
  C   C1648     1.0  0.79382  0.86628  0.95677  1.0000
  C   C1649     1.0  0.77790  0.87327  0.94519  1.0000
  C   C1650     1.0  0.77823  0.84942  0.93468  1.0000
  H   H2912     1.0  0.82121  0.78576  0.94843  1.0000
  H   H2913     1.0  0.82177  0.82871  0.96671  1.0000
  H   H2914     1.0  0.76586  0.89760  0.94419  1.0000
  H   H2915     1.0  0.76627  0.85565  0.92567  1.0000
  C   C1651     1.0  0.76374  0.54503  0.95179  1.0000
  C   C1652     1.0  0.78699  0.53953  0.95940  1.0000
  C   C1653     1.0  0.80683  0.56260  0.95772  1.0000
  C   C1654     1.0  0.80368  0.59116  0.94837  1.0000
  C   C1655     1.0  0.78026  0.59717  0.94100  1.0000
  C   C1656     1.0  0.76036  0.57429  0.94275  1.0000
  H   H2916     1.0  0.91727  0.73952  0.74397  1.0000
  H   H2917     1.0  0.82488  0.55787  0.96350  1.0000
  H   H2918     1.0  0.77748  0.61956  0.93399  1.0000
  H   H2919     1.0  0.74228  0.57920  0.93702  1.0000
  H   H2920     1.0  0.56424  0.68502  0.79748  1.0000
  C   C1657     1.0  0.92725  0.82438  0.92316  1.0000
  C   C1658     1.0  0.96050  0.62539  0.75266  1.0000
  H   H2921     1.0  0.77416  0.70163  0.96432  1.0000
  H   H2922     1.0  0.94452  0.60849  0.75319  1.0000
  C   C1659     1.0  0.54733  0.63341  0.81228  1.0000
  H   H2923     1.0  0.57827  0.61395  0.77539  1.0000
  H   H2924     1.0  0.73070  0.68186  0.96490  1.0000
  C   C1660     1.0  0.95448  0.72714  0.90668  1.0000
  C   C1661     1.0  0.93635  0.71698  0.91476  1.0000
  C   C1662     1.0  0.94412  0.71049  0.92805  1.0000
  C   C1663     1.0  0.96959  0.71428  0.93312  1.0000
  H   H2925     1.0  0.82118  0.70498  0.80350  1.0000
  H   H2926     1.0  0.94881  0.73221  0.89639  1.0000
  H   H2927     1.0  0.93059  0.70231  0.93441  1.0000
  C   C1664     1.0  0.82151  0.64692  0.84080  1.0000
  C   C1665     1.0  0.87255  0.82390  0.90344  1.0000
  C   C1666     1.0  0.71774  0.72959  0.74834  1.0000
  H   H2928     1.0  0.68821  0.54378  0.96215  1.0000
  H   H2929     1.0  0.85964  0.87271  0.91926  1.0000
  H   H2930     1.0  0.91230  0.85066  0.93948  1.0000
  H   H2931     1.0  0.88433  0.84805  0.90367  1.0000
  C   C1667     1.0  0.74458  0.66234  0.96147  1.0000
  H   H2932     1.0  0.82402  0.62400  0.73308  1.0000
  H   H2933     1.0  0.96753  0.82628  0.92269  1.0000
  H   H2934     1.0  0.85209  0.69861  0.78652  1.0000
  C   C1668     1.0  0.76544  0.68421  0.95653  1.0000
  H   H2935     1.0  0.84681  0.62909  0.80284  1.0000
  H   H2936     1.0  0.80987  0.66885  0.84457  1.0000
  C   C1669     1.0  0.85142  0.66869  0.78788  1.0000
  H   H2937     1.0  0.72468  0.58318  0.96494  1.0000
  C   C1670     1.0  0.61548  0.66791  0.79541  1.0000
  H   H2938     1.0  0.79131  0.69196  0.73770  1.0000
  H   H2939     1.0  0.96786  0.63083  0.77350  1.0000
  C   C1671     1.0  0.69282  0.87303  0.76341  1.0000
  C   C1672     1.0  0.83991  0.91075  0.93696  1.0000
  H   H2940     1.0  0.92913  0.79513  0.92584  1.0000
  H   H2941     1.0  0.92396  0.82633  0.91237  1.0000
  H   H2942     1.0  0.85312  0.86334  0.94824  1.0000
  H   H2943     1.0  0.55253  0.65148  0.78672  1.0000
  H   H2944     1.0  0.73520  0.64772  0.95306  1.0000
  C   C1673     1.0  0.87577  0.80275  0.91675  1.0000
  C   C1674     1.0  0.95258  0.84092  0.92735  1.0000
  H   H2945     1.0  0.77825  0.71855  0.80043  1.0000
  C   C1675     1.0  0.84433  0.63967  0.85097  1.0000
  C   C1676     1.0  0.90547  0.84457  0.92918  1.0000
  H   H2946     1.0  0.78204  0.68679  0.82851  1.0000
  H   H2947     1.0  0.95217  0.87006  0.92431  1.0000
  N   N92       1.0  0.88066  0.82590  0.92857  1.0000
  H   H2948     1.0  0.75747  0.70206  0.94815  1.0000
  Fe  Fe190     1.0  0.76877  0.94218  0.97538  1.0000
  H   H2949     1.0  0.82336  0.52987  0.87400  1.0000
  H   H2950     1.0  0.80158  0.50390  0.91467  1.0000
  H   H2951     1.0  0.98441  0.58671  0.94077  1.0000
  H   H2952     1.0  0.79943  0.53724  0.80989  1.0000
  H   H2953     1.0  0.84084  0.84099  0.92640  1.0000
  H   H2954     1.0  0.78819  0.53657  0.92423  1.0000
  H   H2955     1.0  0.59749  0.70536  0.80840  1.0000
  H   H2956     1.0  0.83859  0.92628  0.94596  1.0000
  H   H2957     1.0  0.87687  0.73929  0.95535  1.0000
  H   H2958     1.0  0.57820  0.67477  0.76641  1.0000
  H   H2959     1.0  0.78168  0.62667  0.82254  1.0000
  C   C1677     1.0  0.97997  0.73055  0.91172  1.0000
  H   H2960     1.0  0.66518  0.85127  0.74957  1.0000
  H   H2961     1.0  0.84050  0.68299  0.82869  1.0000
  C   C1678     1.0  0.83674  0.66427  0.74661  1.0000
  H   H2962     1.0  0.86774  0.77599  0.89150  1.0000
  H   H2963     1.0  0.73617  0.71801  0.75292  1.0000
  H   H2964     1.0  0.81074  0.62179  0.84012  1.0000
  H   H2965     1.0  0.76704  0.76331  0.81680  1.0000
  H   H2966     1.0  0.72868  0.78458  0.75034  1.0000
  H   H2967     1.0  0.89956  0.79114  0.89399  1.0000
  N   N93       1.0  0.59213  0.65983  0.78648  1.0000
  C   C1679     1.0  0.73985  0.51877  0.91533  1.0000
  H   H2968     1.0  0.80314  0.71839  0.82314  1.0000
  H   H2969     1.0  0.53123  0.97551  0.75135  1.0000
  H   H2970     1.0  0.87006  0.65633  0.78640  1.0000
  H   H2971     1.0  0.70489  0.73164  0.75602  1.0000
  H   H2972     1.0  0.77858  0.63504  0.80561  1.0000
  H   H2973     1.0  0.85559  0.66434  0.85229  1.0000
  H   H2974     1.0  0.74615  0.73110  0.82285  1.0000
  N   N94       1.0  0.77623  0.54338  0.90355  1.0000
  H   H2975     1.0  0.73101  0.54611  0.91623  1.0000
  C   C1680     1.0  0.78686  0.54115  0.89070  1.0000
  C   C1681     1.0  0.79597  0.53324  0.91481  1.0000
  C   C1682     1.0  0.76689  0.58193  0.90513  1.0000
  C   C1683     1.0  0.74449  0.59590  0.89517  1.0000
  H   H2976     1.0  0.82938  0.68334  0.75356  1.0000
  C   C1684     1.0  0.81993  0.55595  0.91589  1.0000
  H   H2977     1.0  0.96881  0.99902  0.73435  1.0000
  H   H2978     1.0  0.55952  0.77367  0.76749  1.0000
  C   C1685     1.0  0.73718  0.63541  0.89762  1.0000
  C   C1686     1.0  0.89603  0.75008  0.95590  1.0000
  H   H2979     1.0  0.79471  0.50947  0.86711  1.0000
  H   H2980     1.0  0.73984  0.74912  0.80643  1.0000
  H   H2981     1.0  0.59125  0.75895  0.76579  1.0000
  H   H2982     1.0  0.77154  0.54460  0.88247  1.0000
  H   H2983     1.0  0.79937  0.56402  0.88943  1.0000
  H   H2984     1.0  0.81565  0.53122  0.74342  1.0000
  C   C1687     1.0  0.78898  0.56303  0.81147  1.0000
  H   H2985     1.0  0.76152  0.58573  0.91506  1.0000
  H   H2986     1.0  0.78230  0.60101  0.90435  1.0000
  H   H2987     1.0  0.72767  0.57963  0.89585  1.0000
  H   H2988     1.0  0.74942  0.59484  0.88506  1.0000
  H   H2989     1.0  0.73187  0.57542  0.74235  1.0000
  H   H2990     1.0  0.78987  0.51709  0.96639  1.0000
  H   H2991     1.0  0.81533  0.58392  0.91888  1.0000
  H   H2992     1.0  0.82819  0.55782  0.90658  1.0000
  C   C1688     1.0  0.84532  0.65896  0.80159  1.0000
  H   H2993     1.0  0.97529  0.70927  0.94340  1.0000
  C   C1689     1.0  0.57187  0.74961  0.76602  1.0000
  Fe  Fe191     1.0  0.87173  0.55926  0.73718  1.0000
  H   H2994     1.0  0.70100  0.59632  0.73828  1.0000
  H   H2995     1.0  0.73195  0.63832  0.90764  1.0000
  H   H2996     1.0  0.75303  0.65323  0.89629  1.0000
  H   H2997     1.0  0.72086  0.64459  0.89053  1.0000
  C   C1690     1.0  0.72112  0.76713  0.74233  1.0000
  H   H2998     1.0  0.75746  0.65671  0.74367  1.0000
  C   C1691     1.0  0.87951  0.80267  0.94068  1.0000
  S   S381      1.0  0.61764  0.88269  0.73484  1.0000
  C   C1692     1.0  0.97380  0.63803  0.76417  1.0000
  Fe  Fe192     1.0  0.63566  0.93658  0.73680  1.0000
  C   C1693     1.0  0.81903  0.67499  0.80389  1.0000
  H   H2999     1.0  0.68043  0.87109  0.77128  1.0000
  N   N95       1.0  0.80862  0.66376  0.81633  1.0000
  H   H3000     1.0  0.82096  0.90080  0.93362  1.0000
  H   H3001     1.0  0.70101  0.87586  0.73801  1.0000
  C   C1694     1.0  0.70194  0.84725  0.74178  1.0000
  H   H3002     1.0  0.75744  0.68686  0.80649  1.0000
  H   H3003     1.0  0.54493  0.66095  0.81623  1.0000
  H   H3004     1.0  0.62086  0.64459  0.80231  1.0000
  C   C1695     1.0  0.77055  0.70864  0.80930  1.0000
  C   C1696     1.0  0.79286  0.63077  0.81426  1.0000
  H   H3005     1.0  0.59952  0.57584  0.76019  1.0000
  H   H3006     1.0  0.66843  0.58483  0.95983  1.0000
  C   C1697     1.0  0.59612  0.62276  0.78088  1.0000
  H   H3007     1.0  0.83788  0.63228  0.86049  1.0000
  H   H3008     1.0  0.54901  0.61330  0.82053  1.0000
  H   H3009     1.0  0.88177  0.81939  0.94952  1.0000
  H   H3010     1.0  0.77192  0.52564  0.74875  1.0000
  C   C1698     1.0  0.61455  0.70297  0.80334  1.0000
  C   C1699     1.0  0.96803  0.63440  0.74054  1.0000
  H   H3011     1.0  0.85259  0.83363  0.90111  1.0000
  H   H3012     1.0  0.86064  0.79075  0.94036  1.0000
  H   H3013     1.0  0.85638  0.61683  0.84806  1.0000
  C   C1700     1.0  0.63716  0.70398  0.81382  1.0000
  H   H3014     1.0  0.78028  0.56020  0.82066  1.0000
  H   H3015     1.0  0.84695  0.51240  0.92310  1.0000
  H   H3016     1.0  0.87612  0.81601  0.88297  1.0000
  H   H3017     1.0  0.84339  0.63646  0.82507  1.0000
  H   H3018     1.0  0.60612  0.69634  0.77245  1.0000
  H   H3019     1.0  0.76880  0.61289  0.74046  1.0000
  C   C1701     1.0  0.57123  0.72192  0.77717  1.0000
  H   H3020     1.0  0.68100  0.77866  0.74158  1.0000
  H   H3021     1.0  0.89852  0.75207  0.93533  1.0000
  H   H3022     1.0  0.90870  0.69408  0.74783  1.0000
  H   H3023     1.0  0.85057  0.64500  0.75223  1.0000
  H   H3024     1.0  0.61527  0.72705  0.79680  1.0000
  H   H3025     1.0  0.70598  0.62403  0.96469  1.0000
  H   H3026     1.0  0.90300  0.87166  0.92410  1.0000
  C   C1702     1.0  0.58777  0.68740  0.77527  1.0000
  C   C1703     1.0  0.87941  0.80025  0.89233  1.0000
  C   C1704     1.0  0.85935  0.85422  0.92788  1.0000
  H   H3027     1.0  0.63271  0.57965  0.75937  1.0000
  C   C1705     1.0  0.80697  0.59440  0.81220  1.0000
  H   H3028     1.0  0.55133  0.71455  0.77729  1.0000
  H   H3029     1.0  0.65508  0.70167  0.80945  1.0000
  H   H3030     1.0  0.80546  0.66900  0.79524  1.0000
  H   H3031     1.0  0.82205  0.58777  0.82027  1.0000
  C   C1706     1.0  0.61775  0.58143  0.76594  1.0000
  H   H3032     1.0  0.77390  0.56754  0.80319  1.0000
  C   C1707     1.0  0.85893  0.87886  0.93985  1.0000
  H   H3033     1.0  0.53042  0.62746  0.80548  1.0000
  H   H3034     1.0  0.63561  0.62342  0.77717  1.0000
  C   C1708     1.0  0.89958  0.77138  0.94342  1.0000
  C   C1709     1.0  0.82961  0.65784  0.82736  1.0000
  H   H3035     1.0  0.90993  0.72682  0.95730  1.0000
  C   C1710     1.0  0.68525  0.84523  0.75306  1.0000
  H   H3036     1.0  0.68713  0.81795  0.75791  1.0000
  C   C1711     1.0  0.57098  0.63073  0.80535  1.0000
  C   C1712     1.0  0.72104  0.60181  0.74135  1.0000
  H   H3037     1.0  0.91867  0.78228  0.94501  1.0000
  H   H3038     1.0  0.63668  0.73011  0.81896  1.0000
  H   H3039     1.0  0.62207  0.56031  0.77380  1.0000
  H   H3040     1.0  0.63675  0.68141  0.82109  1.0000
  H   H3041     1.0  0.89900  0.76771  0.96448  1.0000
  S   S382      1.0  0.64446  0.52829  0.80079  1.0000
  H   H3042     1.0  0.85833  0.78736  0.91723  1.0000
  H   H3043     1.0  0.57733  0.73548  0.78638  1.0000
  H   H3044     1.0  0.97269  0.63320  0.94006  1.0000
  C   C1713     1.0  0.75504  0.74000  0.81419  1.0000
  H   H3045     1.0  0.84575  0.92926  0.92935  1.0000
  H   H3046     1.0  0.89073  0.78141  0.91657  1.0000
  H   H3047     1.0  0.70983  0.71078  0.74081  1.0000
  H   H3048     1.0  0.61398  0.63929  0.76344  1.0000
  H   H3049     1.0  0.78025  0.66595  0.95326  1.0000
  C   C1714     1.0  0.79173  0.69470  0.82001  1.0000
  H   H3050     1.0  0.56525  0.73767  0.75652  1.0000
  H   H3051     1.0  0.51631  0.91193  0.75114  1.0000
  C   C1715     1.0  0.61695  0.61928  0.77169  1.0000
  H   H3052     1.0  0.57283  0.60237  0.80210  1.0000
  H   H3053     1.0  0.63173  0.67061  0.78973  1.0000
  H   H3054     1.0  0.76999  0.64868  0.97875  1.0000
  H   H3055     1.0  0.72239  0.61486  0.75099  1.0000
  H   H3056     1.0  0.83293  0.53641  0.93571  1.0000
  C   C1716     1.0  0.75525  0.63463  0.97245  1.0000
  C   C1717     1.0  0.81538  0.64320  0.73952  1.0000
  C   C1718     1.0  0.84025  0.53940  0.92615  1.0000
  C   C1719     1.0  0.56918  0.65820  0.79365  1.0000
  H   H3057     1.0  0.50457  0.93871  0.76364  1.0000
  H   H3058     1.0  0.58725  0.63607  0.81264  1.0000
  H   H3059     1.0  0.86011  0.67044  0.80861  1.0000
  C   C1720     1.0  0.71600  0.60274  0.97133  1.0000
  H   H3060     1.0  0.85644  0.55755  0.92735  1.0000
  C   C1721     1.0  0.69599  0.78291  0.73518  1.0000
  H   H3061     1.0  0.81507  0.59535  0.80285  1.0000
  H   H3062     1.0  0.83711  0.65818  0.78038  1.0000
  H   H3063     1.0  0.49944  0.99303  0.74883  1.0000
  H   H3064     1.0  0.80671  0.62787  0.74704  1.0000
  S   S383      1.0  0.73864  0.51568  0.95300  1.0000
  C   C1722     1.0  0.81090  0.50667  0.87488  1.0000
  H   H3065     1.0  0.84665  0.67964  0.73953  1.0000
  H   H3066     1.0  0.66273  0.55081  0.97183  1.0000
  C   C1723     1.0  0.75843  0.63712  0.73566  1.0000
  C   C1724     1.0  0.51207  0.97008  0.74663  1.0000
  C   C1725     1.0  0.67759  0.56458  0.96716  1.0000
  H   H3067     1.0  0.73512  0.76385  0.73530  1.0000
  C   C1726     1.0  0.75520  0.51721  0.90350  1.0000
  C   C1727     1.0  0.90489  0.71714  0.74068  1.0000
  H   H3068     1.0  0.74939  0.81884  0.73295  1.0000
  N   N96       1.0  0.73630  0.61897  0.98058  1.0000
  H   H3069     1.0  0.88489  0.72644  0.74045  1.0000
  S   S384      1.0  0.90948  0.53279  0.73457  1.0000
  H   H3070     1.0  0.74181  0.52099  0.89445  1.0000
  H   H3071     1.0  0.81862  0.50151  0.89562  1.0000
  H   H3072     1.0  0.67443  0.98788  0.92152  1.0000
  C   C1728     1.0  0.51257  0.96610  0.73173  1.0000
