data_image0
_chemical_formula_structural       H2SHS2FeS2HFeSFe2S2H2SCSFeSHFeS2FeS2FeS2FeS2FeSFeCS2HC2H2CHC3H2C3H2C6H5C7HC5H2CHNH2NCHC7H4C6H4SCHCH5C2H3CH3NCH5SH7CH4SHC2H2CHNH2C2H2SCH2CHCNC4HC4HC2H8CH11CH2C2H4C3HCHCH2CH7CFeH6CH9C3H5C2H2CNC6HC4H13CH4CHCH2SHCSCH2CSH3SH5C4FeH2CHCSCHCHC2H3C2H3FeHCH3CHNH4C2H3CH6CH3CH2CFeH4CSHNH5CH4C2H2CHFeCH2CHSCFeSFeS2H2FeSHSHCHCFeSCSCFeSC4H2C7H4C6H5CH2C6H4NHCHCH2C4HC2H10C2H3CHCH2C2H2CH2CH7NSHCNHNH3C2H2C3HCH6SH8C2H2CH2NH9FeCSHCH3C2H3C3H4CHCSH7CHCSH2SH2CH4CH3C2H3CHCH2CH7CH2CH3SHCHCHC2H4C2H2CHFeCH2SC2H3CH2CH4CH5C2Fe2CSFeHSCHFeHS2H4S2FeSCHSCH3C6H3C7H5CH2C4H3C6H5SHCH2SH3C2H4C3H4C2SHCH3SCH2SFeCHCH4SCH7CH2CH2C3HCHCH2NH3CH5C2HFeCH2NH11CH3CH2CH3CHCFeCH5SH11C2SHCH2C2SH3NH4SH3C2H2FeCHCH3CHFeSHFeS2FeS2HSHSCHFeSHFeS2FeSFeS3H4C2SCHFeSFeSCFe2SHCHC3H3C6H4C6H4CH3C2FeCFeH2CH2C2HC3H3C6H3C6H4C4H6NFeHCNC9HC2H20NH3CH3NC12H28NC8H11S2H4SCHC2H9CH3CH3CH5SCSCHSH11SHC2HCHCH4SC2HSCH7CH5CH3C2NCHSCH4FeHC2HSHCH2C2H2C2H3CHCHSCH2CHCH2C2H5C3H9CH2CNH2NCHCHCFeHCH3CH2CHC4HC2HC2H10SHCH5CH2CFeSFeS2FeSFeHS2FeS2FeHFeS3H2S2FeSCNSHSHFeSCFe2SFeS2CHCHC4HCH2C6H2FeHC6H4C5HCH2CHC4HCHC4H3C6H4C2HCH2C4H5SC2HSH3NHCSH4C3H6CH2FeSCH2C2SCH3CHCHSC3HNH2CHC3H5CHC2H2CH4SCH2CH6SH3CH5CH2SHCH2C2HCH2CHCHC5HCH4CNH6CNC12H26C2H2CH7CHSH12C3HNH2FeCH4C3H7CH2C3FeH3NH3CH3CH2CHC3H4CHCH9CH4CH4SH5CHC2H3CH5C2HSCFeSFeSHCHFeH3SHSFeS2H3FeSHSC6H4C6H7NC6H4C4H3SH4CHCHC2H11NHCH2CH2C5H4C2SH3CH2CH5CH4C2H2C4SC2HCH2SCH6CH2CHCHCHSH6CHC4H4FeCHNCH2FeCHC3H3CSHC2HC2H8CHNC2H13C2H2CHCH3NC2H5CHCH3CH4FeH2CHCH3CH2CH10CHCH2CH5CH4SCHS4H2SCFeSHFeSFeSHSHC2HC6H4C5H2CH6FeCHC6H3C7H5NC7H2CHCH14CH5CH6CHC2NHCH2C2H5CH2CHCH3FeH6CH3C2H2CH2SHNC2HC3H3C2H2C4H10SC2H3C2FeHCHCH5NH2CH4CHCH4CH6SCH2CH3C2H6CH2CH2C2H5CHCNH3CFeH4C2H2SH12C4FeCHSFeSC2HC2SH2FeS2FeSFeCSFeS2FeSHFeSFeS2FeS2FeS2FeS2H2SHSNC6H4C6H4C6H4CHCHC2HCH4CH2C3H3C7H3CHC3HC7H9SH4CH2CFeHSH7CH3SHCHCH2CH3NH2CH4CH2CH4C3SH5CH3C2HC2H2CHCHCHCH2CHCH6CH3CH2CFeH4C3H4CH9NH3CSH4NCH2C3H2CH2CHCHCHC2H2C3H2C3HCHFeH8C2H4CH6CH2C2H2CHCNH2CH2CH2NC9H2CSCH9CH2CH3NCH2C2HSH7CH2SCH4CH2CNH4SH2CSCHSH2CH6SCH6CH4NS3C2HFeS2FeS2H5SHFeS2FeSHFeS2FeSFeS3C2H2CH5C2H2C7H4C4H4CHCHC6H4CHC5H3C6H2CH2CH2CH3CHFeH3C2HCFeH3FeC2HCHCHC2H5CHNH2CHC2NHCH7FeCHSHNC11FeH19C2H8SCHFeC2HCHCH5CH2CH3CHSC2HNHCH4C3H2NHCHC4H3C2H4CH13C3HC4H4NC2H3SHCH5CH2C2H5SH4CHCHCH3CH4CHFeH2C2HCH2CH3CH2SH3CH3CHCH11C3H2CH3CHC2SCHFeS2C2HFeSHSCFeS2HFe2CHSH6FeS3HCH2FeSC6H4CH3C2HCSC2FeC2H3C6H4C6H4SCH2CH2CHCHC2HCH4CH3C2H2SHNH2SH5CH2FeCNC10HCH10FeH8CH3CH4CSCHCH4SH3FeH4CH3NH5CH8C2H4CH3CHCH2SCHC2H2CH2SHSHC2H3CHSH6C2HCH3CH2CH4SCH3C2H3C2HCHCHNSH3SH2FeS2HSHFeSHFeSFeS2CH2FeH2FeS2FeSHS2H2SH2SHC6HCHC6HCH2CH2C2HCHCH2C6H4NFeC4H3CH3SH2C2H4C2H2CHCH4C2H4C2H5SH2CH4C2SH2CHCHCHC2H3CH2C3H2CHCH2CH7CHC2FeHCH4NFeSCHC2H2C3H2CH2CHSHNH4SHCH5C4H6CHCH2CHSH2CHCSH4C2H4CNH5NSCHFeHCH5CHC2H2CH3CH5CH4SCH2C3H3CH2FeS2HS2CSFeS2FeS2FeNFeS3HCH2SH2FeCHS2HFeHCH2C6H3C6H3C3HC3H4CH2CHFeCHC6H3C6H5C5H3NC4HC2HCH4NH7CH2CH4CH3CHSNCH4C2S2H2SHCH13CH3CHFeNC9H17CH2NC4FeC4HC2H11CH3CH5NH2CH3CHC2HCH3SH2CH3CH4FeH4CHCH14CH3C4H4C2H3CH3C3H4CH2CH7CH2FeC2SH4C3H5CHCHSHCH3C4HCSHCHCHC2HC2NHCHFeSFeSHFeSFeS3FeS2C2HSFeS2FeS2HC2HNHCSH2C8H4C6H4C4H2C6H4C2H4C3H3CH4NC6H6C2HCHC4HFeH4C2H2CSH9CNCHC4HCH2C2H2CH2CHCH4C2H2CH4CH5NC3HC3SC2H17CHCH2CSNFeNHC8HCH5SH5CH9SH2CH3NC6HC4FeH17CH7CH5CSH4CHSHSH3CHCH2CH2CHSH2C3H10FeH5FeH2CH2C3FeH4CSCHCHCHSH4CH12SCSFeS2HSCSHCH2FeS2Fe2SCSH2FeS2CFeH2FeSCSHCH2SHC6H4C6H2CH2C4SH3CHC7H3SCH2CH3C3H8C2HCHCFeHSHSCFeCHSHNCH3NC12H28SH2FeH7CH2CHCHNC12H16FeH3CH7S2H2CH2FeH4C2H8C2NCHSH2C3HSCS2HSFeSHFeCFeSHSHCH2SCHFeSHCSHFeSFeS3H5FeS2C6H6NH2C2HC7H3C3HSH5C6HCH2C3H2FeH2CSCHCHNCH2C3H4CH6SH10NHCH2CHSH3NC10HCH28C2H2C2H2C3HFeH2C2HCHC3H7SHCHCH2FeHCH3C2HCH5CHCHCS2H3CH7CHCHC2H2CHNH2CH2C2H2C2H3SCH2NH4CH2CH4CHCFeSCHCHC3HCH3CHNH2SH4S2C2FeS2FeSFeSFeS3HFeS2FeS4C6H3C7H4C2H2CH2SC6H3CHC4H3FeH3CH2C6H4CHC3H3C2HCH5CH3FeCHCH4CHC3H2CH3CH2CH3SH2C3H7C5H3CH4CH6CH2CH2CHCHC2H3NC4HC3H6CSH11CHSNC5HCHNH10CH2CH2CH3SH4FeCHNH3C2HCH3CHCHCHCHCH3CH3CH2CHCH8NC2HC9H4FeHCH3CH8SC2FeCFeH2CH7CH7CHCH11FeCSH3SHFeHCHC2H2
_chemical_formula_sum              "H3072 S384 Fe192 C1728 N96"
_cell_length_a       56.6361
_cell_length_b       105.608
_cell_length_c       36.6868
_cell_angle_alpha    90.542
_cell_angle_beta     90.0597
_cell_angle_gamma    89.1838

_space_group_name_H-M_alt    "P 1"
_space_group_IT_number       1

loop_
  _space_group_symop_operation_xyz
  'x, y, z'

loop_
  _atom_site_type_symbol
  _atom_site_label
  _atom_site_symmetry_multiplicity
  _atom_site_fract_x
  _atom_site_fract_y
  _atom_site_fract_z
  _atom_site_occupancy
  H   H1        1.0  0.01216  0.12797  0.13166  1.0000
  H   H2        1.0  0.11440  0.12640  0.08586  1.0000
  S   S1        1.0  0.33952  0.20533  0.14756  1.0000
  H   H3        1.0  0.27898  0.20556  0.23139  1.0000
  S   S2        1.0  0.38351  0.19679  0.30785  1.0000
  S   S3        1.0  0.33490  0.21214  0.25658  1.0000
  Fe  Fe1       1.0  0.02370  0.15502  0.02302  1.0000
  S   S4        1.0  0.27230  0.15559  0.02169  1.0000
  S   S5        1.0  0.06295  0.16079  0.02664  1.0000
  H   H4        1.0  0.16066  0.15892  0.13718  1.0000
  Fe  Fe2       1.0  0.24163  0.16736  0.04154  1.0000
  S   S6        1.0  0.24381  0.18270  0.08531  1.0000
  Fe  Fe3       1.0  0.24800  0.13889  0.02591  1.0000
  Fe  Fe4       1.0  0.20586  0.15378  0.99248  1.0000
  S   S7        1.0  0.38396  0.21697  0.21357  1.0000
  S   S8        1.0  0.21815  0.15057  0.04998  1.0000
  H   H5        1.0  0.14699  0.11119  0.01046  1.0000
  H   H6        1.0  0.35745  0.19482  0.02354  1.0000
  S   S9        1.0  0.47954  0.17682  0.38014  1.0000
  C   C1        1.0  0.44458  0.09449  0.46089  1.0000
  S   S10       1.0  0.00256  0.14119  0.98881  1.0000
  Fe  Fe5       1.0  0.28333  0.04427  0.03486  1.0000
  S   S11       1.0  0.32206  0.03912  0.02921  1.0000
  H   H7        1.0  0.32236  0.98218  0.24474  1.0000
  Fe  Fe6       1.0  0.27083  0.01766  0.06256  1.0000
  S   S12       1.0  0.30887  0.01135  0.05894  1.0000
  S   S13       1.0  0.24494  0.00138  0.07182  1.0000
  Fe  Fe7       1.0  0.31777  0.03015  0.08485  1.0000
  S   S14       1.0  0.34808  0.03132  0.12744  1.0000
  S   S15       1.0  0.27941  0.03609  0.09139  1.0000
  Fe  Fe8       1.0  0.42641  0.05080  0.37876  1.0000
  S   S16       1.0  0.39253  0.04079  0.39217  1.0000
  S   S17       1.0  0.43111  0.07227  0.37074  1.0000
  Fe  Fe9       1.0  0.45115  0.02545  0.35629  1.0000
  S   S18       1.0  0.41879  0.01388  0.36722  1.0000
  S   S19       1.0  0.25981  0.12106  0.05666  1.0000
  Fe  Fe10      1.0  0.39819  0.02971  0.33944  1.0000
  S   S20       1.0  0.36614  0.02792  0.30040  1.0000
  Fe  Fe11      1.0  0.41536  0.02571  0.41887  1.0000
  C   C2        1.0  0.31574  0.18545  0.98414  1.0000
  S   S21       1.0  0.43083  0.04030  0.32535  1.0000
  S   S22       1.0  0.44893  0.03659  0.40869  1.0000
  H   H8        1.0  0.46013  0.21838  0.25270  1.0000
  C   C3        1.0  0.31911  0.00013  0.21511  1.0000
  C   C4        1.0  0.13552  0.00124  0.08064  1.0000
  H   H9        1.0  0.36386  0.20671  0.98974  1.0000
  H   H10       1.0  0.46340  0.21791  0.46193  1.0000
  C   C5        1.0  0.00949  0.98745  0.20374  1.0000
  H   H11       1.0  0.34205  0.14819  0.21965  1.0000
  C   C6        1.0  0.00798  0.00600  0.16495  1.0000
  C   C7        1.0  0.03136  0.00329  0.15421  1.0000
  C   C8        1.0  0.04381  0.99278  0.16826  1.0000
  H   H12       1.0  0.03971  0.00926  0.13441  1.0000
  H   H13       1.0  0.06166  0.99072  0.15948  1.0000
  C   C9        1.0  0.22139  0.99813  0.10243  1.0000
  C   C10       1.0  0.19584  0.00348  0.15390  1.0000
  C   C11       1.0  0.21388  0.00675  0.12932  1.0000
  H   H14       1.0  0.19046  0.01018  0.17488  1.0000
  H   H15       1.0  0.22192  0.01593  0.13112  1.0000
  C   C12       1.0  0.35289  0.03116  0.17581  1.0000
  C   C13       1.0  0.37591  0.02902  0.18931  1.0000
  C   C14       1.0  0.38049  0.02842  0.22722  1.0000
  C   C15       1.0  0.36205  0.02989  0.25236  1.0000
  C   C16       1.0  0.33915  0.03239  0.23891  1.0000
  C   C17       1.0  0.33467  0.03321  0.20105  1.0000
  H   H16       1.0  0.39030  0.02761  0.17025  1.0000
  H   H17       1.0  0.39819  0.02642  0.23692  1.0000
  H   H18       1.0  0.32474  0.03368  0.25797  1.0000
  H   H19       1.0  0.31713  0.03541  0.19141  1.0000
  H   H20       1.0  0.14931  0.16614  0.02833  1.0000
  C   C18       1.0  0.45150  0.10719  0.40771  1.0000
  C   C19       1.0  0.44567  0.09669  0.38536  1.0000
  C   C20       1.0  0.43944  0.08498  0.40053  1.0000
  C   C21       1.0  0.09677  0.14937  0.98051  1.0000
  C   C22       1.0  0.31510  0.99026  0.15344  1.0000
  C   C23       1.0  0.33659  0.16397  0.98474  1.0000
  C   C24       1.0  0.39379  0.21387  0.40776  1.0000
  H   H21       1.0  0.01924  0.12269  0.17693  1.0000
  C   C25       1.0  0.21012  0.98635  0.09987  1.0000
  C   C26       1.0  0.26544  0.07860  0.02397  1.0000
  C   C27       1.0  0.26213  0.10482  0.04286  1.0000
  C   C28       1.0  0.27119  0.09586  0.06765  1.0000
  C   C29       1.0  0.27298  0.08286  0.05825  1.0000
  H   H22       1.0  0.27690  0.09900  0.09434  1.0000
  H   H23       1.0  0.27996  0.07613  0.07764  1.0000
  C   C30       1.0  0.09214  0.15761  0.00984  1.0000
  H   H24       1.0  0.27342  0.19039  0.01093  1.0000
  N   N1        1.0  0.42339  0.20334  0.45306  1.0000
  H   H25       1.0  0.25231  0.03297  0.20082  1.0000
  H   H26       1.0  0.43646  0.21399  0.19141  1.0000
  N   N2        1.0  0.46469  0.22709  0.18039  1.0000
  C   C31       1.0  0.13946  0.15319  0.98553  1.0000
  H   H27       1.0  0.25323  0.99403  0.16526  1.0000
  C   C32       1.0  0.12017  0.00344  0.11443  1.0000
  C   C33       1.0  0.41067  0.19136  0.32668  1.0000
  C   C34       1.0  0.43225  0.19707  0.31912  1.0000
  C   C35       1.0  0.45324  0.19243  0.33537  1.0000
  C   C36       1.0  0.45284  0.18212  0.35948  1.0000
  C   C37       1.0  0.43128  0.17641  0.36680  1.0000
  C   C38       1.0  0.41036  0.18100  0.35046  1.0000
  H   H28       1.0  0.43276  0.20503  0.30086  1.0000
  H   H29       1.0  0.46987  0.19688  0.32948  1.0000
  H   H30       1.0  0.43075  0.16840  0.38496  1.0000
  H   H31       1.0  0.39378  0.17648  0.35635  1.0000
  C   C39       1.0  0.31262  0.19934  0.13049  1.0000
  C   C40       1.0  0.29071  0.20343  0.14398  1.0000
  C   C41       1.0  0.26977  0.19828  0.12976  1.0000
  C   C42       1.0  0.27056  0.18898  0.10211  1.0000
  C   C43       1.0  0.29249  0.18486  0.08875  1.0000
  C   C44       1.0  0.31341  0.19008  0.10272  1.0000
  H   H32       1.0  0.28988  0.21062  0.16517  1.0000
  H   H33       1.0  0.25286  0.20152  0.14025  1.0000
  H   H34       1.0  0.29330  0.17755  0.06796  1.0000
  H   H35       1.0  0.33031  0.18681  0.09230  1.0000
  S   S23       1.0  0.45173  0.15737  0.46302  1.0000
  C   C45       1.0  0.18466  0.99167  0.15147  1.0000
  H   H36       1.0  0.40818  0.05598  0.20692  1.0000
  C   C46       1.0  0.00510  0.12317  0.15600  1.0000
  H   H37       1.0  0.32311  0.21695  0.00708  1.0000
  H   H38       1.0  0.24828  0.10734  0.98883  1.0000
  H   H39       1.0  0.00575  0.19707  0.99742  1.0000
  H   H40       1.0  0.33772  0.16402  0.01498  1.0000
  H   H41       1.0  0.35425  0.18161  0.97796  1.0000
  C   C47       1.0  0.44022  0.05018  0.23296  1.0000
  C   C48       1.0  0.29139  0.00901  0.17050  1.0000
  H   H42       1.0  0.38075  0.18651  0.18156  1.0000
  H   H43       1.0  0.12931  0.99275  0.06551  1.0000
  H   H44       1.0  0.32008  0.15922  0.97618  1.0000
  C   C49       1.0  0.33768  0.99679  0.13946  1.0000
  H   H45       1.0  0.01237  0.99205  0.08921  1.0000
  H   H46       1.0  0.25390  0.02561  0.15643  1.0000
  H   H47       1.0  0.33313  0.00618  0.12827  1.0000
  N   N3        1.0  0.31538  0.17098  0.21008  1.0000
  C   C50       1.0  0.28010  0.18490  0.23405  1.0000
  H   H48       1.0  0.36461  0.00026  0.24544  1.0000
  H   H49       1.0  0.44375  0.22081  0.11070  1.0000
  H   H50       1.0  0.09224  0.98670  0.32525  1.0000
  H   H51       1.0  0.42992  0.21908  0.41706  1.0000
  H   H52       1.0  0.30536  0.01564  0.16190  1.0000
  S   S24       1.0  0.48793  0.02025  0.33479  1.0000
  H   H53       1.0  0.42797  0.06872  0.21891  1.0000
  H   H54       1.0  0.34013  0.14486  0.28643  1.0000
  H   H55       1.0  0.10920  0.12208  0.00292  1.0000
  H   H56       1.0  0.23715  0.20260  0.02214  1.0000
  H   H57       1.0  0.32550  0.16560  0.26477  1.0000
  H   H58       1.0  0.28566  0.01963  0.22201  1.0000
  H   H59       1.0  0.33722  0.98759  0.08598  1.0000
  C   C51       1.0  0.41966  0.21017  0.41740  1.0000
  H   H60       1.0  0.28280  0.16239  0.19188  1.0000
  H   H61       1.0  0.25103  0.98504  0.99928  1.0000
  H   H62       1.0  0.43327  0.04084  0.24113  1.0000
  H   H63       1.0  0.27971  0.20542  0.03199  1.0000
  S   S25       1.0  0.01007  0.14723  0.07559  1.0000
  H   H64       1.0  0.28105  0.00722  0.14514  1.0000
  C   C52       1.0  0.32448  0.14820  0.23291  1.0000
  C   C53       1.0  0.30877  0.15802  0.14953  1.0000
  H   H65       1.0  0.14575  0.09662  0.05127  1.0000
  H   H66       1.0  0.14872  0.09351  0.13440  1.0000
  C   C54       1.0  0.15341  0.11337  0.08587  1.0000
  H   H67       1.0  0.38406  0.20536  0.39845  1.0000
  N   N4        1.0  0.30237  0.99688  0.18451  1.0000
  H   H68       1.0  0.38209  0.21178  0.04877  1.0000
  H   H69       1.0  0.47338  0.99396  0.34516  1.0000
  C   C55       1.0  0.16801  0.15364  0.11334  1.0000
  C   C56       1.0  0.46746  0.20906  0.44658  1.0000
  H   H70       1.0  0.18606  0.15021  0.12042  1.0000
  H   H71       1.0  0.11922  0.13689  0.04911  1.0000
  S   S26       1.0  0.16193  0.98814  0.18321  1.0000
  C   C57       1.0  0.32693  0.14052  0.26787  1.0000
  H   H72       1.0  0.16911  0.16028  0.09009  1.0000
  H   H73       1.0  0.31171  0.98174  0.03565  1.0000
  C   C58       1.0  0.48337  0.21697  0.18693  1.0000
  H   H74       1.0  0.38927  0.17033  0.19212  1.0000
  C   C59       1.0  0.43911  0.08393  0.43854  1.0000
  N   N5        1.0  0.38748  0.07202  0.26454  1.0000
  C   C60       1.0  0.39760  0.08482  0.25597  1.0000
  C   C61       1.0  0.36769  0.06875  0.23832  1.0000
  C   C62       1.0  0.37717  0.07290  0.30248  1.0000
  C   C63       1.0  0.40619  0.06172  0.26431  1.0000
  H   H75       1.0  0.06853  0.11689  0.01912  1.0000
  C   C64       1.0  0.41763  0.08954  0.28152  1.0000
  C   C65       1.0  0.36452  0.06094  0.31625  1.0000
  C   C66       1.0  0.36937  0.07393  0.19891  1.0000
  C   C67       1.0  0.35068  0.06810  0.17408  1.0000
  H   H76       1.0  0.07487  0.11864  0.06704  1.0000
  C   C68       1.0  0.42773  0.10200  0.26801  1.0000
  C   C69       1.0  0.35177  0.06362  0.35225  1.0000
  H   H77       1.0  0.38323  0.09214  0.25661  1.0000
  H   H78       1.0  0.40478  0.08504  0.22791  1.0000
  H   H79       1.0  0.36560  0.05827  0.23641  1.0000
  H   H80       1.0  0.35040  0.07243  0.24877  1.0000
  H   H81       1.0  0.36454  0.08107  0.30441  1.0000
  H   H82       1.0  0.39116  0.07474  0.32302  1.0000
  H   H83       1.0  0.41899  0.06327  0.28689  1.0000
  H   H84       1.0  0.39816  0.05240  0.27006  1.0000
  C   C70       1.0  0.34955  0.98901  0.10913  1.0000
  H   H85       1.0  0.27635  0.99185  0.22503  1.0000
  H   H86       1.0  0.41097  0.09138  0.30953  1.0000
  H   H87       1.0  0.43245  0.08259  0.28290  1.0000
  H   H88       1.0  0.37774  0.05333  0.32142  1.0000
  H   H89       1.0  0.35134  0.05735  0.29646  1.0000
  H   H90       1.0  0.36632  0.08435  0.19922  1.0000
  H   H91       1.0  0.38683  0.07199  0.18641  1.0000
  H   H92       1.0  0.35399  0.05777  0.17081  1.0000
  H   H93       1.0  0.33268  0.06971  0.18537  1.0000
  H   H94       1.0  0.35148  0.07244  0.14665  1.0000
  H   H95       1.0  0.42154  0.22125  0.99304  1.0000
  C   C71       1.0  0.10577  0.11925  0.03152  1.0000
  H   H96       1.0  0.40869  0.20314  0.14796  1.0000
  H   H97       1.0  0.15100  0.12727  0.00098  1.0000
  C   C72       1.0  0.15612  0.11974  0.02054  1.0000
  C   C73       1.0  0.32684  0.20660  0.00903  1.0000
  H   H98       1.0  0.36446  0.06697  0.37327  1.0000
  H   H99       1.0  0.33761  0.07087  0.34857  1.0000
  H   H100      1.0  0.34365  0.05477  0.36209  1.0000
  H   H101      1.0  0.45080  0.20591  0.13281  1.0000
  C   C74       1.0  0.44123  0.22123  0.17094  1.0000
  C   C75       1.0  0.13485  0.16140  0.01491  1.0000
  C   C76       1.0  0.29870  0.16688  0.18002  1.0000
  H   H102      1.0  0.36202  0.98570  0.27019  1.0000
  C   C77       1.0  0.15207  0.14253  0.10377  1.0000
  H   H103      1.0  0.10169  0.00510  0.10539  1.0000
  C   C78       1.0  0.43924  0.21445  0.13347  1.0000
  H   H104      1.0  0.30968  0.13999  0.28217  1.0000
  H   H105      1.0  0.18024  0.13271  0.07544  1.0000
  C   C79       1.0  0.16144  0.13519  0.06965  1.0000
  H   H106      1.0  0.43568  0.10070  0.24053  1.0000
  H   H107      1.0  0.45168  0.19112  0.43333  1.0000
  H   H108      1.0  0.08069  0.99170  0.23186  1.0000
  H   H109      1.0  0.12288  0.10094  0.08381  1.0000
  H   H110      1.0  0.33300  0.13073  0.26109  1.0000
  H   H111      1.0  0.34393  0.98380  0.20916  1.0000
  H   H112      1.0  0.04621  0.04785  0.16648  1.0000
  C   C80       1.0  0.14221  0.10028  0.07915  1.0000
  Fe  Fe12      1.0  0.34527  0.21695  0.19956  1.0000
  H   H113      1.0  0.14337  0.08124  0.10100  1.0000
  H   H114      1.0  0.27762  0.16003  0.11463  1.0000
  H   H115      1.0  0.05683  0.04195  0.12315  1.0000
  H   H116      1.0  0.31948  0.15008  0.16030  1.0000
  H   H117      1.0  0.40052  0.16595  0.45626  1.0000
  H   H118      1.0  0.35100  0.99809  0.16127  1.0000
  C   C81       1.0  0.26429  0.02819  0.18091  1.0000
  H   H119      1.0  0.16189  0.14207  0.04689  1.0000
  H   H120      1.0  0.44263  0.23005  0.30526  1.0000
  H   H121      1.0  0.29664  0.14674  0.10345  1.0000
  H   H122      1.0  0.29708  0.16067  0.25187  1.0000
  H   H123      1.0  0.04222  0.03150  0.15451  1.0000
  H   H124      1.0  0.31168  0.14320  0.21517  1.0000
  H   H125      1.0  0.30316  0.98936  0.12943  1.0000
  H   H126      1.0  0.26946  0.98066  0.14710  1.0000
  H   H127      1.0  0.27784  0.14610  0.14290  1.0000
  C   C82       1.0  0.18866  0.11328  0.97644  1.0000
  C   C83       1.0  0.35370  0.20466  0.01474  1.0000
  C   C84       1.0  0.27536  0.01640  0.19803  1.0000
  H   H128      1.0  0.00018  0.11336  0.14821  1.0000
  H   H129      1.0  0.44979  0.04892  0.20674  1.0000
  H   H130      1.0  0.31360  0.18357  0.01372  1.0000
  H   H131      1.0  0.15133  0.13634  0.12794  1.0000
  H   H132      1.0  0.45294  0.05350  0.25394  1.0000
  C   C85       1.0  0.11139  0.16361  0.02685  1.0000
  C   C86       1.0  0.45082  0.10620  0.44574  1.0000
  H   H133      1.0  0.35359  0.18689  0.23440  1.0000
  H   H134      1.0  0.28106  0.98289  0.04835  1.0000
  C   C87       1.0  0.28898  0.15242  0.12630  1.0000
  N   N6        1.0  0.11284  0.01964  0.16732  1.0000
  C   C88       1.0  0.12642  0.02910  0.18988  1.0000
  C   C89       1.0  0.10648  0.00864  0.19130  1.0000
  C   C90       1.0  0.12930  0.01466  0.13787  1.0000
  C   C91       1.0  0.09108  0.02530  0.14946  1.0000
  C   C92       1.0  0.07817  0.03631  0.17013  1.0000
  C   C93       1.0  0.13831  0.03981  0.16807  1.0000
  H   H135      1.0  0.10881  0.10892  0.03315  1.0000
  C   C94       1.0  0.08909  0.01150  0.22294  1.0000
  C   C95       1.0  0.08674  0.00004  0.24772  1.0000
  C   C96       1.0  0.05447  0.03956  0.15233  1.0000
  C   C97       1.0  0.14537  0.05082  0.19290  1.0000
  H   H136      1.0  0.40138  0.21806  0.12657  1.0000
  H   H137      1.0  0.14080  0.02416  0.20528  1.0000
  H   H138      1.0  0.11514  0.03353  0.21125  1.0000
  H   H139      1.0  0.09798  0.00102  0.17518  1.0000
  H   H140      1.0  0.12282  0.00429  0.20300  1.0000
  H   H141      1.0  0.14646  0.01158  0.14997  1.0000
  H   H142      1.0  0.13366  0.02232  0.11848  1.0000
  H   H143      1.0  0.09538  0.02912  0.12208  1.0000
  H   H144      1.0  0.07799  0.01776  0.14396  1.0000
  H   H145      1.0  0.08895  0.04499  0.16972  1.0000
  H   H146      1.0  0.07473  0.03407  0.19899  1.0000
  H   H147      1.0  0.15466  0.03608  0.15479  1.0000
  H   H148      1.0  0.12650  0.04351  0.14638  1.0000
  C   C98       1.0  0.26303  0.98526  0.17260  1.0000
  H   H149      1.0  0.35380  0.21151  0.07107  1.0000
  H   H150      1.0  0.09493  0.01952  0.24024  1.0000
  H   H151      1.0  0.07122  0.01362  0.21185  1.0000
  H   H152      1.0  0.07352  0.00213  0.26937  1.0000
  C   C99       1.0  0.35191  0.99380  0.25858  1.0000
  H   H153      1.0  0.99471  0.09081  0.10440  1.0000
  C   C100      1.0  0.33395  0.98898  0.23073  1.0000
  H   H154      1.0  0.15424  0.99956  0.08860  1.0000
  H   H155      1.0  0.12950  0.05529  0.20566  1.0000
  S   S27       1.0  0.99358  0.01957  0.14679  1.0000
  H   H156      1.0  0.15453  0.05809  0.17666  1.0000
  C   C101      1.0  0.03295  0.98482  0.19321  1.0000
  S   S28       1.0  0.22723  0.17154  0.98541  1.0000
  C   C102      1.0  0.44879  0.19877  0.45401  1.0000
  H   H157      1.0  0.31994  0.98035  0.16081  1.0000
  H   H158      1.0  0.27471  0.17768  0.25397  1.0000
  C   C103      1.0  0.25491  0.10059  0.00840  1.0000
  S   S29       1.0  0.26610  0.06224  0.01097  1.0000
  H   H159      1.0  0.18924  0.10944  0.03375  1.0000
  H   H160      1.0  0.43427  0.07506  0.45074  1.0000
  H   H161      1.0  0.14739  0.11644  0.11341  1.0000
  S   S30       1.0  0.27183  0.02622  0.00669  1.0000
  H   H162      1.0  0.39551  0.18300  0.22389  1.0000
  H   H163      1.0  0.10394  0.99771  0.26083  1.0000
  H   H164      1.0  0.33908  0.17959  0.17201  1.0000
  H   H165      1.0  0.23735  0.98090  0.21479  1.0000
  H   H166      1.0  0.26065  0.01050  0.20771  1.0000
  C   C104      1.0  0.38251  0.17943  0.20367  1.0000
  C   C105      1.0  0.45043  0.22741  0.24778  1.0000
  C   C106      1.0  0.35874  0.17760  0.22243  1.0000
  C   C107      1.0  0.25637  0.08757  0.99920  1.0000
  Fe  Fe13      1.0  0.31015  0.02064  0.00370  1.0000
  H   H167      1.0  0.31090  0.19132  0.20523  1.0000
  H   H168      1.0  0.34292  0.99899  0.28125  1.0000
  C   C108      1.0  0.18300  0.11717  0.01574  1.0000
  H   H169      1.0  0.33141  0.00764  0.20655  1.0000
  C   C109      1.0  0.31529  0.16177  0.24126  1.0000
  S   S31       1.0  0.99502  0.17021  0.02177  1.0000
  C   C110      1.0  0.24861  0.20520  0.99889  1.0000
  H   H170      1.0  0.13412  0.14654  0.09892  1.0000
  C   C111      1.0  0.33990  0.17279  0.19501  1.0000
  H   H171      1.0  0.31643  0.18614  0.25037  1.0000
  C   C112      1.0  0.15207  0.09047  0.10576  1.0000
  C   C113      1.0  0.36284  0.21343  0.04487  1.0000
  H   H172      1.0  0.25508  0.19869  0.25640  1.0000
  H   H173      1.0  0.17139  0.08910  0.10163  1.0000
  H   H174      1.0  0.32030  0.16353  0.13119  1.0000
  C   C114      1.0  0.30684  0.18367  0.22484  1.0000
  C   C115      1.0  0.27429  0.19792  0.25061  1.0000
  H   H175      1.0  0.29195  0.17530  0.16497  1.0000
  H   H176      1.0  0.36150  0.17075  0.24482  1.0000
  H   H177      1.0  0.28407  0.19936  0.27657  1.0000
  Fe  Fe14      1.0  0.37328  0.21346  0.27148  1.0000
  H   H178      1.0  0.36296  0.01324  0.47315  1.0000
  C   C116      1.0  0.42004  0.05980  0.22832  1.0000
  H   H179      1.0  0.34718  0.16393  0.18284  1.0000
  H   H180      1.0  0.26903  0.18386  0.20925  1.0000
  H   H181      1.0  0.41101  0.18609  0.42823  1.0000
  C   C117      1.0  0.27393  0.20075  0.00635  1.0000
  H   H182      1.0  0.19331  0.12580  0.02175  1.0000
  N   N7        1.0  0.14797  0.12352  0.05833  1.0000
  H   H183      1.0  0.41372  0.10945  0.26695  1.0000
  H   H184      1.0  0.38447  0.21813  0.43158  1.0000
  H   H185      1.0  0.98964  0.14000  0.18001  1.0000
  H   H186      1.0  0.31846  0.20379  0.03508  1.0000
  C   C118      1.0  0.41406  0.20993  0.12666  1.0000
  C   C119      1.0  0.39278  0.22339  0.37664  1.0000
  H   H187      1.0  0.10810  0.17004  0.04948  1.0000
  H   H188      1.0  0.24778  0.21565  0.99576  1.0000
  H   H189      1.0  0.45621  0.11609  0.39553  1.0000
  C   C120      1.0  0.28382  0.98812  0.19893  1.0000
  H   H190      1.0  0.12103  0.99459  0.13040  1.0000
  H   H191      1.0  0.07559  0.13223  0.03748  1.0000
  H   H192      1.0  0.41310  0.20506  0.09976  1.0000
  H   H193      1.0  0.27809  0.03499  0.17300  1.0000
  H   H194      1.0  0.17286  0.11196  0.08864  1.0000
  H   H195      1.0  0.42661  0.20431  0.39432  1.0000
  C   C121      1.0  0.07965  0.12193  0.03939  1.0000
  H   H196      1.0  0.99577  0.06025  0.01885  1.0000
  H   H197      1.0  0.15759  0.04746  0.21461  1.0000
  H   H198      1.0  0.35990  0.22351  0.03766  1.0000
  C   C122      1.0  0.12187  0.12688  0.05783  1.0000
  H   H199      1.0  0.44604  0.09765  0.35607  1.0000
  H   H200      1.0  0.44174  0.10521  0.28705  1.0000
  C   C123      1.0  0.99704  0.99799  0.18972  1.0000
  Fe  Fe15      1.0  0.48257  0.16372  0.42946  1.0000
  H   H201      1.0  0.30934  0.00429  0.23869  1.0000
  H   H202      1.0  0.00030  0.99828  0.01577  1.0000
  H   H203      1.0  0.47522  0.20842  0.19894  1.0000
  H   H204      1.0  0.42700  0.22861  0.17228  1.0000
  C   C124      1.0  0.00825  0.98297  0.07500  1.0000
  S   S32       1.0  0.98960  0.11355  0.06280  1.0000
  H   H205      1.0  0.46774  0.21130  0.41703  1.0000
  N   N8        1.0  0.31585  0.19959  0.97736  1.0000
  H   H206      1.0  0.37408  0.22527  0.36899  1.0000
  H   H207      1.0  0.28955  0.99559  0.99337  1.0000
  H   H208      1.0  0.36516  0.99416  0.09894  1.0000
  H   H209      1.0  0.48771  0.21037  0.12952  1.0000
  H   H210      1.0  0.46991  0.99177  0.46061  1.0000
  C   C125      1.0  0.40740  0.19202  0.45286  1.0000
  H   H211      1.0  0.00091  0.98132  0.22297  1.0000
  H   H212      1.0  0.13445  0.00952  0.06227  1.0000
  H   H213      1.0  0.40218  0.21956  0.35226  1.0000
  H   H214      1.0  0.38857  0.19504  0.45089  1.0000
  C   C126      1.0  0.28811  0.98518  0.99029  1.0000
  C   C127      1.0  0.26300  0.98172  0.97698  1.0000
  H   H215      1.0  0.05490  0.98137  0.09574  1.0000
  H   H216      1.0  0.43160  0.22531  0.24237  1.0000
  C   C128      1.0  0.19178  0.98316  0.12405  1.0000
  H   H217      1.0  0.01722  0.98362  0.04826  1.0000
  Fe  Fe16      1.0  0.47274  0.13901  0.46843  1.0000
  C   C129      1.0  0.99840  0.20323  0.97569  1.0000
  H   H218      1.0  0.45274  0.12466  0.63422  1.0000
  H   H219      1.0  0.16229  0.15811  0.84939  1.0000
  C   C130      1.0  0.45178  0.14362  0.59431  1.0000
  H   H220      1.0  0.99654  0.19758  0.95015  1.0000
  S   S33       1.0  0.28204  0.16173  0.91817  1.0000
  C   C131      1.0  0.20462  0.16023  0.88825  1.0000
  Fe  Fe17      1.0  0.47232  0.16459  0.51135  1.0000
  S   S34       1.0  0.46035  0.17888  0.55608  1.0000
  Fe  Fe18      1.0  0.33497  0.21282  0.77674  1.0000
  S   S35       1.0  0.37047  0.20308  0.77470  1.0000
  S   S36       1.0  0.30286  0.20806  0.81220  1.0000
  H   H221      1.0  0.42537  0.99199  0.76577  1.0000
  H   H222      1.0  0.44889  0.21336  0.51884  1.0000
  Fe  Fe19      1.0  0.37025  0.20640  0.71369  1.0000
  S   S37       1.0  0.37573  0.19154  0.66770  1.0000
  H   H223      1.0  0.33195  0.18106  0.52939  1.0000
  S   S38       1.0  0.33324  0.21468  0.71554  1.0000
  H   H224      1.0  0.33822  0.21201  0.87351  1.0000
  C   C132      1.0  0.31109  0.22132  0.55643  1.0000
  H   H225      1.0  0.24911  0.98512  0.86390  1.0000
  C   C133      1.0  0.48670  0.14569  0.63272  1.0000
  Fe  Fe20      1.0  0.33914  0.98803  0.73367  1.0000
  S   S39       1.0  0.32617  0.00094  0.78159  1.0000
  C   C134      1.0  0.45564  0.11810  0.70716  1.0000
  S   S40       1.0  0.33989  0.99681  0.59337  1.0000
  C   C135      1.0  0.32794  0.20231  0.94163  1.0000
  Fe  Fe21      1.0  0.34537  0.98685  0.64817  1.0000
  S   S41       1.0  0.36939  0.99173  0.69489  1.0000
  C   C136      1.0  0.36923  0.01043  0.49977  1.0000
  C   C137      1.0  0.35322  0.00589  0.52605  1.0000
  C   C138      1.0  0.36099  0.00214  0.56089  1.0000
  C   C139      1.0  0.38502  0.00305  0.56918  1.0000
  H   H226      1.0  0.34334  0.17735  0.57428  1.0000
  H   H227      1.0  0.33467  0.00533  0.51933  1.0000
  C   C140      1.0  0.41955  0.13937  0.54782  1.0000
  C   C141      1.0  0.32668  0.00275  0.83049  1.0000
  C   C142      1.0  0.33917  0.99446  0.85337  1.0000
  C   C143      1.0  0.33897  0.99633  0.89173  1.0000
  C   C144      1.0  0.32631  0.00650  0.90811  1.0000
  C   C145      1.0  0.31369  0.01473  0.88526  1.0000
  C   C146      1.0  0.31393  0.01286  0.84691  1.0000
  H   H228      1.0  0.46215  0.13606  0.57978  1.0000
  H   H229      1.0  0.17758  0.00153  0.61370  1.0000
  H   H230      1.0  0.30403  0.02266  0.89705  1.0000
  H   H231      1.0  0.30423  0.01940  0.82976  1.0000
  C   C147      1.0  0.43614  0.18250  0.58580  1.0000
  C   C148      1.0  0.43845  0.19238  0.61156  1.0000
  C   C149      1.0  0.42014  0.19541  0.63647  1.0000
  C   C150      1.0  0.39926  0.18848  0.63624  1.0000
  C   C151      1.0  0.39690  0.17864  0.61031  1.0000
  C   C152      1.0  0.41509  0.17573  0.58510  1.0000
  H   H232      1.0  0.45464  0.19770  0.61248  1.0000
  H   H233      1.0  0.42234  0.20298  0.65620  1.0000
  H   H234      1.0  0.38093  0.17315  0.60994  1.0000
  H   H235      1.0  0.41293  0.16818  0.56540  1.0000
  H   H236      1.0  0.24883  0.17643  0.77770  1.0000
  C   C153      1.0  0.29147  0.21434  0.61156  1.0000
  H   H237      1.0  0.21840  0.16055  0.90991  1.0000
  H   H238      1.0  0.27316  0.17368  0.80870  1.0000
  C   C154      1.0  0.28828  0.17514  0.89093  1.0000
  C   C155      1.0  0.30877  0.17497  0.86923  1.0000
  C   C156      1.0  0.31387  0.18509  0.84571  1.0000
  C   C157      1.0  0.29826  0.19542  0.84310  1.0000
  C   C158      1.0  0.27785  0.19564  0.86507  1.0000
  C   C159      1.0  0.27293  0.18561  0.88896  1.0000
  H   H239      1.0  0.32071  0.16689  0.87030  1.0000
  H   H240      1.0  0.32959  0.18474  0.82896  1.0000
  H   H241      1.0  0.26562  0.20358  0.86321  1.0000
  H   H242      1.0  0.25699  0.18585  0.90520  1.0000
  N   N9        1.0  0.31464  0.21388  0.59104  1.0000
  H   H243      1.0  0.20196  0.14429  0.80623  1.0000
  C   C160      1.0  0.31994  0.20021  0.58118  1.0000
  H   H244      1.0  0.42033  0.13157  0.60134  1.0000
  C   C161      1.0  0.45948  0.98450  0.55211  1.0000
  H   H245      1.0  0.17066  0.18734  0.91059  1.0000
  H   H246      1.0  0.26759  0.99561  0.59909  1.0000
  C   C162      1.0  0.28940  0.20523  0.64428  1.0000
  C   C163      1.0  0.34347  0.19746  0.56101  1.0000
  C   C164      1.0  0.34551  0.18349  0.55010  1.0000
  C   C165      1.0  0.37580  0.22725  0.62192  1.0000
  H   H247      1.0  0.28102  0.98202  0.81771  1.0000
  C   C166      1.0  0.44290  0.99375  0.66443  1.0000
  C   C167      1.0  0.42523  0.14062  0.58843  1.0000
  H   H248      1.0  0.41805  0.98422  0.62971  1.0000
  H   H249      1.0  0.32114  0.19432  0.60611  1.0000
  H   H250      1.0  0.30520  0.19627  0.56460  1.0000
  H   H251      1.0  0.31017  0.21963  0.92210  1.0000
  H   H252      1.0  0.45204  0.10986  0.68901  1.0000
  H   H253      1.0  0.19454  0.16058  0.80674  1.0000
  H   H254      1.0  0.29873  0.98974  0.55004  1.0000
  H   H255      1.0  0.17015  0.14211  0.85920  1.0000
  H   H256      1.0  0.37497  0.17409  0.47508  1.0000
  H   H257      1.0  0.39787  0.21211  0.48958  1.0000
  C   C168      1.0  0.19475  0.17396  0.88418  1.0000
  C   C169      1.0  0.17664  0.17735  0.91369  1.0000
  H   H258      1.0  0.28497  0.19558  0.63423  1.0000
  H   H259      1.0  0.34503  0.20311  0.53585  1.0000
  H   H260      1.0  0.35860  0.19947  0.57938  1.0000
  C   C170      1.0  0.22728  0.14208  0.86350  1.0000
  H   H261      1.0  0.42431  0.14811  0.53308  1.0000
  C   C171      1.0  0.45255  0.13298  0.65323  1.0000
  H   H262      1.0  0.24581  0.16569  0.86143  1.0000
  H   H263      1.0  0.13692  0.14343  0.81611  1.0000
  C   C172      1.0  0.17067  0.14941  0.83781  1.0000
  C   C173      1.0  0.45521  0.15970  0.68965  1.0000
  H   H264      1.0  0.39470  0.16531  0.50442  1.0000
  H   H265      1.0  0.32653  0.22635  0.63491  1.0000
  C   C174      1.0  0.40861  0.98689  0.81778  1.0000
  H   H266      1.0  0.25271  0.21023  0.65657  1.0000
  H   H267      1.0  0.33659  0.17680  0.93984  1.0000
  C   C175      1.0  0.19124  0.00709  0.59953  1.0000
  H   H268      1.0  0.28246  0.20020  0.94879  1.0000
  H   H269      1.0  0.26146  0.02528  0.91372  1.0000
  H   H270      1.0  0.43390  0.13407  0.66260  1.0000
  H   H271      1.0  0.12346  0.14089  0.94557  1.0000
  H   H272      1.0  0.42680  0.18011  0.49242  1.0000
  H   H273      1.0  0.42952  0.21685  0.57694  1.0000
  H   H274      1.0  0.18288  0.98931  0.92699  1.0000
  N   N10       1.0  0.46007  0.14478  0.63342  1.0000
  S   S42       1.0  0.31426  0.98507  0.68621  1.0000
  H   H275      1.0  0.44981  0.17475  0.72974  1.0000
  C   C176      1.0  0.39711  0.00510  0.77636  1.0000
  N   N11       1.0  0.24173  0.98280  0.62140  1.0000
  H   H276      1.0  0.39629  0.98572  0.89043  1.0000
  N   N12       1.0  0.25524  0.98719  0.94080  1.0000
  H   H277      1.0  0.32757  0.22179  0.54033  1.0000
  H   H278      1.0  0.39109  0.98925  0.82993  1.0000
  H   H279      1.0  0.34653  0.19889  0.94166  1.0000
  C   C177      1.0  0.39374  0.17146  0.48008  1.0000
  C   C178      1.0  0.25932  0.98634  0.59231  1.0000
  H   H280      1.0  0.44391  0.09357  0.49020  1.0000
  H   H281      1.0  0.41931  0.00881  0.55020  1.0000
  C   C179      1.0  0.44864  0.15649  0.64978  1.0000
  C   C180      1.0  0.23852  0.00886  0.91751  1.0000
  C   C181      1.0  0.40745  0.99166  0.77794  1.0000
  H   H282      1.0  0.34877  0.98654  0.84149  1.0000
  C   C182      1.0  0.46104  0.98194  0.51036  1.0000
  H   H283      1.0  0.44703  0.15278  0.70820  1.0000
  H   H284      1.0  0.42163  0.99287  0.83262  1.0000
  H   H285      1.0  0.47459  0.15967  0.69386  1.0000
  H   H286      1.0  0.18445  0.17625  0.94124  1.0000
  H   H287      1.0  0.44572  0.98615  0.68470  1.0000
  H   H288      1.0  0.27291  0.99624  0.86828  1.0000
  S   S43       1.0  0.41246  0.22552  0.82548  1.0000
  H   H289      1.0  0.45412  0.18025  0.68394  1.0000
  H   H290      1.0  0.42945  0.13122  0.53567  1.0000
  H   H291      1.0  0.18355  0.01074  0.57375  1.0000
  H   H292      1.0  0.37853  0.00528  0.78607  1.0000
  H   H293      1.0  0.40765  0.01169  0.79338  1.0000
  H   H294      1.0  0.39731  0.00850  0.74781  1.0000
  H   H295      1.0  0.28793  0.22410  0.62215  1.0000
  H   H296      1.0  0.23785  0.02692  0.94681  1.0000
  C   C183      1.0  0.22499  0.99395  0.62634  1.0000
  C   C184      1.0  0.21189  0.13140  0.87901  1.0000
  H   H297      1.0  0.27214  0.16535  0.76575  1.0000
  H   H298      1.0  0.33497  0.22258  0.95186  1.0000
  C   C185      1.0  0.24773  0.15839  0.80634  1.0000
  H   H299      1.0  0.39632  0.98540  0.76091  1.0000
  H   H300      1.0  0.30620  0.20451  0.65951  1.0000
  N   N13       1.0  0.21469  0.15432  0.85391  1.0000
  H   H301      1.0  0.34311  0.22813  0.88748  1.0000
  H   H302      1.0  0.48497  0.12463  0.67599  1.0000
  H   H303      1.0  0.36325  0.18152  0.53846  1.0000
  H   H304      1.0  0.19909  0.12817  0.85815  1.0000
  H   H305      1.0  0.43875  0.12167  0.71905  1.0000
  H   H306      1.0  0.25023  0.98763  0.56568  1.0000
  H   H307      1.0  0.23455  0.00215  0.63845  1.0000
  H   H308      1.0  0.22469  0.17237  0.83123  1.0000
  H   H309      1.0  0.26164  0.98787  0.73003  1.0000
  Fe  Fe22      1.0  0.38522  0.22286  0.77991  1.0000
  C   C186      1.0  0.43602  0.98824  0.62728  1.0000
  S   S44       1.0  0.16877  0.14976  0.96958  1.0000
  H   H310      1.0  0.27431  0.21884  0.68312  1.0000
  C   C187      1.0  0.23305  0.16324  0.83949  1.0000
  H   H311      1.0  0.21097  0.99189  0.64635  1.0000
  H   H312      1.0  0.20737  0.99083  0.57312  1.0000
  H   H313      1.0  0.20951  0.18076  0.88646  1.0000
  C   C188      1.0  0.26122  0.16915  0.78861  1.0000
  C   C189      1.0  0.26775  0.98623  0.87214  1.0000
  H   H314      1.0  0.41663  0.22780  0.54497  1.0000
  H   H315      1.0  0.36119  0.22040  0.57201  1.0000
  H   H316      1.0  0.23632  0.15402  0.78525  1.0000
  C   C190      1.0  0.24269  0.02312  0.91948  1.0000
  C   C191      1.0  0.27000  0.20951  0.67079  1.0000
  C   C192      1.0  0.41721  0.21230  0.48414  1.0000
  H   H317      1.0  0.15446  0.15223  0.78445  1.0000
  H   H318      1.0  0.40117  0.18831  0.51066  1.0000
  H   H319      1.0  0.22546  0.00464  0.57538  1.0000
  H   H320      1.0  0.45938  0.99926  0.66210  1.0000
  C   C193      1.0  0.21290  0.99879  0.59100  1.0000
  H   H321      1.0  0.45251  0.16486  0.63279  1.0000
  C   C194      1.0  0.41857  0.21762  0.55191  1.0000
  S   S45       1.0  0.38785  0.22531  0.71891  1.0000
  H   H322      1.0  0.40039  0.13772  0.54401  1.0000
  H   H323      1.0  0.42078  0.22229  0.47661  1.0000
  H   H324      1.0  0.47208  0.98091  0.62091  1.0000
  H   H325      1.0  0.43088  0.20014  0.52870  1.0000
  H   H326      1.0  0.45491  0.15252  0.57929  1.0000
  H   H327      1.0  0.39116  0.00050  0.59604  1.0000
  H   H328      1.0  0.44686  0.99254  0.55504  1.0000
  C   C195      1.0  0.32822  0.21638  0.92980  1.0000
  H   H329      1.0  0.21570  0.11238  0.90053  1.0000
  C   C196      1.0  0.39327  0.01139  0.50812  1.0000
  S   S46       1.0  0.41466  0.01688  0.47630  1.0000
  H   H330      1.0  0.31933  0.19687  0.91923  1.0000
  H   H331      1.0  0.24068  0.12230  0.90939  1.0000
  S   S47       1.0  0.32687  0.00832  0.95700  1.0000
  H   H332      1.0  0.20228  0.13452  0.90390  1.0000
  H   H333      1.0  0.16098  0.17116  0.91139  1.0000
  C   C197      1.0  0.35482  0.22571  0.59620  1.0000
  H   H334      1.0  0.29844  0.21637  0.53806  1.0000
  H   H335      1.0  0.27361  0.00501  0.93955  1.0000
  H   H336      1.0  0.36275  0.21575  0.90312  1.0000
  H   H337      1.0  0.40196  0.22232  0.95433  1.0000
  C   C198      1.0  0.46783  0.12856  0.68605  1.0000
  H   H338      1.0  0.34117  0.21155  0.63312  1.0000
  H   H339      1.0  0.23151  0.02801  0.89894  1.0000
  H   H340      1.0  0.41369  0.14823  0.59978  1.0000
  C   C199      1.0  0.22705  0.11981  0.88887  1.0000
  C   C200      1.0  0.40096  0.00772  0.54306  1.0000
  H   H341      1.0  0.23596  0.11584  0.86426  1.0000
  H   H342      1.0  0.17968  0.10433  0.96907  1.0000
  H   H343      1.0  0.46724  0.11485  0.72975  1.0000
  C   C201      1.0  0.25533  0.00148  0.94357  1.0000
  H   H344      1.0  0.19060  0.15429  0.89992  1.0000
  C   C202      1.0  0.43034  0.21019  0.52084  1.0000
  H   H345      1.0  0.22384  0.98599  0.90692  1.0000
  H   H346      1.0  0.42909  0.15577  0.64940  1.0000
  C   C203      1.0  0.19621  0.15217  0.82475  1.0000
  H   H347      1.0  0.29051  0.98598  0.91781  1.0000
  H   H348      1.0  0.26109  0.15127  0.81534  1.0000
  H   H349      1.0  0.34870  0.98984  0.90893  1.0000
  H   H350      1.0  0.38278  0.21786  0.63053  1.0000
  H   H351      1.0  0.18623  0.17539  0.85727  1.0000
  H   H352      1.0  0.23593  0.13782  0.83905  1.0000
  H   H353      1.0  0.19625  0.01530  0.61694  1.0000
  C   C204      1.0  0.15518  0.14497  0.80618  1.0000
  H   H354      1.0  0.16210  0.13590  0.79459  1.0000
  H   H355      1.0  0.24179  0.14400  0.88336  1.0000
  C   C205      1.0  0.46985  0.99361  0.49047  1.0000
  H   H356      1.0  0.27644  0.21222  0.59289  1.0000
  H   H357      1.0  0.47691  0.98813  0.56135  1.0000
  H   H358      1.0  0.24067  0.00587  0.88881  1.0000
  S   S48       1.0  0.45654  0.11931  0.47565  1.0000
  H   H359      1.0  0.43496  0.99629  0.60832  1.0000
  C   C206      1.0  0.40853  0.18330  0.48643  1.0000
  H   H360      1.0  0.42858  0.00017  0.67451  1.0000
  C   C207      1.0  0.44574  0.17282  0.70061  1.0000
  H   H361      1.0  0.21982  0.00736  0.92508  1.0000
  C   C208      1.0  0.33383  0.21916  0.61537  1.0000
  C   C209      1.0  0.34406  0.21813  0.89652  1.0000
  H   H362      1.0  0.42626  0.17341  0.69691  1.0000
  H   H363      1.0  0.26856  0.20254  0.69315  1.0000
  H   H364      1.0  0.45328  0.19417  0.48022  1.0000
  H   H365      1.0  0.26535  0.98960  0.66315  1.0000
  C   C210      1.0  0.25531  0.98088  0.65641  1.0000
  C   C211      1.0  0.27249  0.98241  0.91221  1.0000
  H   H366      1.0  0.45798  0.00189  0.49583  1.0000
  H   H367      1.0  0.40099  0.21362  0.55781  1.0000
  C   C212      1.0  0.23107  0.98204  0.93252  1.0000
  H   H368      1.0  0.43192  0.22804  0.95134  1.0000
  Fe  Fe23      1.0  0.25668  0.15871  0.96585  1.0000
  C   C213      1.0  0.18723  0.98226  0.94835  1.0000
  H   H369      1.0  0.47165  0.13635  0.70541  1.0000
  H   H370      1.0  0.22526  0.98350  0.69471  1.0000
  S   S49       1.0  0.23460  0.14109  0.96874  1.0000
  C   C214      1.0  0.33716  0.17747  0.97009  1.0000
  C   C215      1.0  0.21223  0.98424  0.96281  1.0000
  H   H371      1.0  0.01110  0.21093  0.97068  1.0000
  H   H372      1.0  0.30017  0.18104  0.97070  1.0000
  H   H373      1.0  0.28949  0.21458  0.97149  1.0000
  C   C216      1.0  0.12023  0.14724  0.96837  1.0000
  H   H374      1.0  0.17435  0.98348  0.97099  1.0000
  H   H375      1.0  0.30201  0.98165  0.97139  1.0000
  C   C217      1.0  0.41633  0.22716  0.96940  1.0000
  H   H376      1.0  0.08225  0.14470  0.96702  1.0000
  H   H377      1.0  0.18307  0.12085  0.95733  1.0000
  H   H378      1.0  0.35179  0.15840  0.97368  1.0000
  H   H379      1.0  0.25031  0.00461  0.97162  1.0000
  C   C218      1.0  0.29049  0.20410  0.97413  1.0000
  H   H380      1.0  0.25056  0.08442  0.97257  1.0000
  H   H381      1.0  0.21319  0.99394  0.97460  1.0000
  H   H382      1.0  0.24166  0.20059  0.97382  1.0000
  H   H383      1.0  0.48799  0.99599  0.49940  1.0000
  H   H384      1.0  0.20799  0.11175  0.97346  1.0000
  C   C219      1.0  0.43972  0.39436  0.03958  1.0000
  C   C220      1.0  0.35165  0.24958  0.99202  1.0000
  Fe  Fe24      1.0  0.48001  0.30292  0.98850  1.0000
  Fe  Fe25      1.0  0.34401  0.45511  0.24095  1.0000
  C   C221      1.0  0.41835  0.35059  0.04316  1.0000
  S   S50       1.0  0.34707  0.44451  0.29614  1.0000
  Fe  Fe26      1.0  0.36245  0.45252  0.16046  1.0000
  H   H385      1.0  0.42058  0.46957  0.28857  1.0000
  S   S51       1.0  0.38849  0.44128  0.12417  1.0000
  C   C222      1.0  0.44092  0.46609  0.16402  1.0000
  H   H386      1.0  0.42042  0.42391  0.00906  1.0000
  Fe  Fe27      1.0  0.31604  0.46690  0.17702  1.0000
  H   H387      1.0  0.40320  0.47172  0.04033  1.0000
  S   S52       1.0  0.37870  0.45939  0.21310  1.0000
  S   S53       1.0  0.32887  0.44686  0.18885  1.0000
  H   H388      1.0  0.46786  0.38735  0.00368  1.0000
  H   H389      1.0  0.24162  0.24904  0.24669  1.0000
  H   H390      1.0  0.33660  0.47088  0.31789  1.0000
  H   H391      1.0  0.43789  0.36739  0.03290  1.0000
  S   S54       1.0  0.40375  0.25285  0.20788  1.0000
  S   S55       1.0  0.33964  0.23790  0.20916  1.0000
  Fe  Fe28      1.0  0.46832  0.27634  0.01838  1.0000
  S   S56       1.0  0.44577  0.26179  0.04859  1.0000
  C   C223      1.0  0.19504  0.26498  0.40270  1.0000
  H   H392      1.0  0.37317  0.39552  0.99452  1.0000
  S   S57       1.0  0.28465  0.28049  0.42863  1.0000
  C   C224      1.0  0.15706  0.29252  0.33112  1.0000
  H   H393      1.0  0.37478  0.46416  0.32951  1.0000
  H   H394      1.0  0.46170  0.40421  0.00061  1.0000
  H   H395      1.0  0.20390  0.42752  0.46754  1.0000
  C   C225      1.0  0.29770  0.24960  0.34026  1.0000
  C   C226      1.0  0.31185  0.26034  0.34239  1.0000
  C   C227      1.0  0.30780  0.26958  0.36987  1.0000
  C   C228      1.0  0.28984  0.26814  0.39595  1.0000
  C   C229      1.0  0.27621  0.25720  0.39460  1.0000
  C   C230      1.0  0.27987  0.24811  0.36658  1.0000
  H   H396      1.0  0.32553  0.26169  0.32229  1.0000
  H   H397      1.0  0.31855  0.27796  0.37068  1.0000
  H   H398      1.0  0.26273  0.25582  0.41496  1.0000
  C   C231      1.0  0.19273  0.25273  0.42422  1.0000
  C   C232      1.0  0.41344  0.25601  0.16271  1.0000
  C   C233      1.0  0.40658  0.24858  0.13285  1.0000
  C   C234      1.0  0.41641  0.25064  0.09811  1.0000
  C   C235      1.0  0.43284  0.26033  0.09253  1.0000
  C   C236      1.0  0.43910  0.26804  0.12209  1.0000
  C   C237      1.0  0.42958  0.26582  0.15700  1.0000
  H   H399      1.0  0.39402  0.24109  0.13672  1.0000
  H   H400      1.0  0.41141  0.24461  0.07548  1.0000
  H   H401      1.0  0.45169  0.27552  0.11828  1.0000
  H   H402      1.0  0.43498  0.27166  0.17984  1.0000
  H   H403      1.0  0.45593  0.24244  0.14414  1.0000
  C   C238      1.0  0.44109  0.46475  0.12194  1.0000
  H   H404      1.0  0.15966  0.29563  0.30257  1.0000
  H   H405      1.0  0.18013  0.32150  0.40365  1.0000
  C   C239      1.0  0.36263  0.43143  0.02380  1.0000
  C   C240      1.0  0.36411  0.43616  0.05980  1.0000
  C   C241      1.0  0.38580  0.43618  0.07801  1.0000
  C   C242      1.0  0.40605  0.43168  0.05940  1.0000
  H   H406      1.0  0.24280  0.27954  0.38907  1.0000
  H   H407      1.0  0.34837  0.43953  0.07376  1.0000
  H   H408      1.0  0.42293  0.43165  0.07323  1.0000
  C   C243      1.0  0.31247  0.43648  0.40909  1.0000
  C   C244      1.0  0.33344  0.43037  0.39808  1.0000
  C   C245      1.0  0.34364  0.43299  0.36370  1.0000
  C   C246      1.0  0.33304  0.44164  0.33935  1.0000
  C   C247      1.0  0.31205  0.44776  0.35034  1.0000
  C   C248      1.0  0.30200  0.44527  0.38493  1.0000
  H   H409      1.0  0.34185  0.42361  0.41606  1.0000
  H   H410      1.0  0.35982  0.42815  0.35577  1.0000
  H   H411      1.0  0.30344  0.45434  0.33207  1.0000
  H   H412      1.0  0.28578  0.45006  0.39282  1.0000
  H   H413      1.0  0.43197  0.34446  0.02981  1.0000
  S   S58       1.0  0.22832  0.29835  0.47054  1.0000
  H   H414      1.0  0.23915  0.27862  0.30060  1.0000
  C   C249      1.0  0.19563  0.27984  0.32871  1.0000
  H   H415      1.0  0.47695  0.35174  0.99844  1.0000
  H   H416      1.0  0.39023  0.27605  0.06626  1.0000
  S   S59       1.0  0.45143  0.28888  0.97572  1.0000
  H   H417      1.0  0.48590  0.25282  0.17877  1.0000
  H   H418      1.0  0.16686  0.33433  0.45616  1.0000
  H   H419      1.0  0.37787  0.47041  0.28510  1.0000
  C   C250      1.0  0.24577  0.30645  0.37873  1.0000
  C   C251      1.0  0.16554  0.32390  0.45799  1.0000
  H   H420      1.0  0.26883  0.23984  0.36528  1.0000
  H   H421      1.0  0.24448  0.26600  0.24432  1.0000
  H   H422      1.0  0.44227  0.38687  0.06027  1.0000
  H   H423      1.0  0.21411  0.47212  0.40998  1.0000
  C   C252      1.0  0.23542  0.27063  0.31924  1.0000
  C   C253      1.0  0.36612  0.39261  0.07972  1.0000
  C   C254      1.0  0.40469  0.42729  0.02300  1.0000
  H   H424      1.0  0.34523  0.39953  0.12562  1.0000
  H   H425      1.0  0.40764  0.37390  0.07609  1.0000
  H   H426      1.0  0.23004  0.25026  0.31056  1.0000
  H   H427      1.0  0.21065  0.26025  0.28374  1.0000
  C   C255      1.0  0.41095  0.45106  0.30588  1.0000
  C   C256      1.0  0.18083  0.29007  0.34968  1.0000
  S   S60       1.0  0.47521  0.32448  0.99644  1.0000
  H   H428      1.0  0.42167  0.35058  0.07300  1.0000
  C   C257      1.0  0.41953  0.46587  0.04305  1.0000
  H   H429      1.0  0.44981  0.24311  0.21028  1.0000
  H   H430      1.0  0.46948  0.23746  0.29070  1.0000
  H   H431      1.0  0.14722  0.30009  0.34618  1.0000
  S   S61       1.0  0.34860  0.47181  0.14546  1.0000
  C   C258      1.0  0.24074  0.29546  0.35266  1.0000
  H   H432      1.0  0.42942  0.44746  0.30399  1.0000
  H   H433      1.0  0.25794  0.29226  0.34092  1.0000
  S   S62       1.0  0.30022  0.23838  0.30375  1.0000
  Fe  Fe29      1.0  0.25621  0.28286  0.47271  1.0000
  C   C259      1.0  0.44632  0.45342  0.18220  1.0000
  H   H434      1.0  0.18490  0.24517  0.40698  1.0000
  C   C260      1.0  0.43966  0.47367  0.06074  1.0000
  H   H435      1.0  0.23396  0.43033  0.45384  1.0000
  H   H436      1.0  0.42059  0.46744  0.33728  1.0000
  H   H437      1.0  0.25766  0.30329  0.40106  1.0000
  H   H438      1.0  0.20190  0.27224  0.42172  1.0000
  S   S63       1.0  0.29871  0.43376  0.45258  1.0000
  C   C261      1.0  0.46303  0.39605  0.01940  1.0000
  H   H439      1.0  0.36511  0.38264  0.08879  1.0000
  H   H440      1.0  0.45813  0.46018  0.11374  1.0000
  H   H441      1.0  0.40162  0.44854  0.28025  1.0000
  H   H442      1.0  0.14626  0.28382  0.33123  1.0000
  H   H443      1.0  0.25465  0.31413  0.36378  1.0000
  H   H444      1.0  0.41521  0.45754  0.05960  1.0000
  H   H445      1.0  0.40214  0.44630  0.32898  1.0000
  C   C262      1.0  0.21148  0.26302  0.36944  1.0000
  H   H446      1.0  0.47733  0.39797  0.03935  1.0000
  H   H447      1.0  0.38893  0.40495  0.04992  1.0000
  C   C263      1.0  0.24588  0.25771  0.26262  1.0000
  H   H448      1.0  0.20180  0.32114  0.43962  1.0000
  H   H449      1.0  0.42326  0.24462  0.99723  1.0000
  C   C264      1.0  0.41920  0.39113  0.01308  1.0000
  C   C265      1.0  0.39320  0.28331  0.04509  1.0000
  C   C266      1.0  0.38327  0.27899  0.00831  1.0000
  H   H450      1.0  0.41466  0.39998  0.99811  1.0000
  C   C267      1.0  0.41966  0.36403  0.02821  1.0000
  H   H451      1.0  0.38431  0.29226  0.05390  1.0000
  C   C268      1.0  0.46125  0.23465  0.21529  1.0000
  H   H452      1.0  0.36332  0.41139  0.10500  1.0000
  H   H453      1.0  0.47837  0.23848  0.22503  1.0000
  N   N14       1.0  0.21738  0.27463  0.34769  1.0000
  H   H454      1.0  0.42747  0.45765  0.11523  1.0000
  H   H455      1.0  0.22909  0.31031  0.39050  1.0000
  H   H456      1.0  0.40078  0.34648  0.03742  1.0000
  C   C269      1.0  0.40142  0.37301  0.04735  1.0000
  H   H457      1.0  0.39412  0.23884  0.00328  1.0000
  H   H458      1.0  0.44576  0.45465  0.21229  1.0000
  H   H459      1.0  0.20041  0.28426  0.30231  1.0000
  H   H460      1.0  0.19039  0.29917  0.35047  1.0000
  H   H461      1.0  0.42620  0.38456  0.99179  1.0000
  C   C270      1.0  0.39003  0.39516  0.06074  1.0000
  C   C271      1.0  0.37759  0.38567  0.00323  1.0000
  H   H462      1.0  0.17702  0.26769  0.39362  1.0000
  Fe  Fe30      1.0  0.33243  0.23310  0.26832  1.0000
  C   C272      1.0  0.18375  0.31816  0.43174  1.0000
  H   H463      1.0  0.34563  0.43118  0.01036  1.0000
  H   H464      1.0  0.46417  0.44986  0.17434  1.0000
  N   N15       1.0  0.39738  0.38595  0.03085  1.0000
  H   H465      1.0  0.45637  0.46822  0.05617  1.0000
  H   H466      1.0  0.25285  0.47823  0.23787  1.0000
  H   H467      1.0  0.18100  0.25446  0.44808  1.0000
  H   H468      1.0  0.43570  0.40341  0.05418  1.0000
  H   H469      1.0  0.20259  0.25585  0.35198  1.0000
  H   H470      1.0  0.22803  0.25839  0.37927  1.0000
  H   H471      1.0  0.17725  0.28743  0.37822  1.0000
  H   H472      1.0  0.40356  0.39538  0.08275  1.0000
  H   H473      1.0  0.35819  0.25261  0.01917  1.0000
  H   H474      1.0  0.18365  0.27197  0.32103  1.0000
  H   H475      1.0  0.25267  0.26825  0.33241  1.0000
  C   C273      1.0  0.36270  0.40127  0.11303  1.0000
  H   H476      1.0  0.34314  0.47510  0.36424  1.0000
  H   H477      1.0  0.21635  0.28821  0.39276  1.0000
  H   H478      1.0  0.31900  0.24288  0.01544  1.0000
  C   C274      1.0  0.42637  0.46104  0.00506  1.0000
  H   H479      1.0  0.37662  0.39942  0.13375  1.0000
  H   H480      1.0  0.22949  0.29905  0.33013  1.0000
  C   C275      1.0  0.22891  0.28425  0.37238  1.0000
  H   H481      1.0  0.42326  0.46924  0.17372  1.0000
  H   H482      1.0  0.38437  0.36792  0.04920  1.0000
  H   H483      1.0  0.14786  0.32105  0.44802  1.0000
  C   C276      1.0  0.41082  0.46542  0.31172  1.0000
  H   H484      1.0  0.36126  0.38190  0.01558  1.0000
  C   C277      1.0  0.38283  0.42692  0.00523  1.0000
  Fe  Fe31      1.0  0.37794  0.23765  0.22583  1.0000
  C   C278      1.0  0.22883  0.25917  0.29472  1.0000
  H   H485      1.0  0.40085  0.23249  0.38505  1.0000
  H   H486      1.0  0.26437  0.25677  0.27254  1.0000
  H   H487      1.0  0.35119  0.39465  0.06092  1.0000
  H   H488      1.0  0.21024  0.24946  0.43440  1.0000
  H   H489      1.0  0.31762  0.25908  0.00059  1.0000
  S   S64       1.0  0.37044  0.23423  0.28581  1.0000
  H   H490      1.0  0.45430  0.47291  0.17356  1.0000
  H   H491      1.0  0.18286  0.30766  0.43170  1.0000
  H   H492      1.0  0.41246  0.28506  0.04294  1.0000
  H   H493      1.0  0.43294  0.44630  0.17427  1.0000
  H   H494      1.0  0.47547  0.23124  0.12487  1.0000
  H   H495      1.0  0.12110  0.29018  0.43614  1.0000
  H   H496      1.0  0.41706  0.36345  0.99841  1.0000
  H   H497      1.0  0.24736  0.45943  0.43523  1.0000
  H   H498      1.0  0.26392  0.47375  0.44264  1.0000
  H   H499      1.0  0.39431  0.25982  0.01819  1.0000
  H   H500      1.0  0.24129  0.47468  0.38587  1.0000
  C   C279      1.0  0.39548  0.26652  0.99520  1.0000
  C   C280      1.0  0.47131  0.23623  0.15083  1.0000
  S   S65       1.0  0.16604  0.28428  0.46926  1.0000
  H   H501      1.0  0.38629  0.28677  0.98883  1.0000
  C   C281      1.0  0.45100  0.23535  0.28280  1.0000
  H   H502      1.0  0.07970  0.29077  0.45893  1.0000
  H   H503      1.0  0.44098  0.24438  0.27905  1.0000
  C   C282      1.0  0.38525  0.47091  0.31320  1.0000
  C   C283      1.0  0.40813  0.24022  0.98287  1.0000
  S   S66       1.0  0.27878  0.47028  0.15436  1.0000
  H   H504      1.0  0.39889  0.47407  0.10416  1.0000
  H   H505      1.0  0.48486  0.47560  0.12996  1.0000
  H   H506      1.0  0.41467  0.26845  0.99233  1.0000
  N   N16       1.0  0.43672  0.47676  0.10080  1.0000
  H   H507      1.0  0.42987  0.46908  0.98662  1.0000
  H   H508      1.0  0.21092  0.45018  0.46835  1.0000
  H   H509      1.0  0.36401  0.27771  0.01178  1.0000
  H   H510      1.0  0.48721  0.25681  0.11160  1.0000
  S   S67       1.0  0.32917  0.47475  0.23068  1.0000
  H   H511      1.0  0.38610  0.47461  0.38063  1.0000
  H   H512      1.0  0.35752  0.23970  0.98626  1.0000
  H   H513      1.0  0.44228  0.45479  0.00644  1.0000
  C   C284      1.0  0.32469  0.24947  0.99383  1.0000
  C   C285      1.0  0.24603  0.46961  0.44261  1.0000
  H   H514      1.0  0.23646  0.47567  0.11367  1.0000
  H   H515      1.0  0.38285  0.36739  0.97529  1.0000
  Fe  Fe32      1.0  0.36283  0.47827  0.19960  1.0000
  C   C286      1.0  0.11761  0.28799  0.46434  1.0000
  H   H516      1.0  0.41170  0.45540  0.99358  1.0000
  C   C287      1.0  0.33822  0.47897  0.33722  1.0000
  H   H517      1.0  0.28712  0.46121  0.47265  1.0000
  H   H518      1.0  0.15430  0.47747  0.13307  1.0000
  H   H519      1.0  0.30083  0.47830  0.34948  1.0000
  C   C288      1.0  0.23206  0.47616  0.41231  1.0000
  H   H520      1.0  0.48523  0.47907  0.08201  1.0000
  Fe  Fe33      1.0  0.29222  0.39443  0.53971  1.0000
  S   S68       1.0  0.32410  0.40655  0.52886  1.0000
  H   H521      1.0  0.16667  0.45607  0.61776  1.0000
  Fe  Fe34      1.0  0.26363  0.41762  0.56708  1.0000
  S   S69       1.0  0.29400  0.43078  0.55948  1.0000
  S   S70       1.0  0.22559  0.42420  0.57852  1.0000
  Fe  Fe35      1.0  0.31638  0.41514  0.58443  1.0000
  S   S71       1.0  0.34848  0.41818  0.62231  1.0000
  S   S72       1.0  0.28545  0.40257  0.59578  1.0000
  H   H522      1.0  0.05773  0.43260  0.74763  1.0000
  S   S73       1.0  0.18639  0.46847  0.68218  1.0000
  H   H523      1.0  0.39634  0.38137  0.61278  1.0000
  S   S74       1.0  0.07631  0.44998  0.68445  1.0000
  C   C289      1.0  0.05655  0.44025  0.80288  1.0000
  H   H524      1.0  0.40952  0.27347  0.93118  1.0000
  Fe  Fe36      1.0  0.40625  0.41336  0.91822  1.0000
  S   S75       1.0  0.44163  0.40403  0.92637  1.0000
  H   H525      1.0  0.20218  0.36187  0.53166  1.0000
  Fe  Fe37      1.0  0.40699  0.40861  0.83397  1.0000
  S   S76       1.0  0.44313  0.39911  0.83694  1.0000
  S   S77       1.0  0.37774  0.40862  0.78963  1.0000
  Fe  Fe38      1.0  0.43011  0.38893  0.88693  1.0000
  S   S78       1.0  0.43086  0.36723  0.89208  1.0000
  Fe  Fe39      1.0  0.45251  0.41500  0.87635  1.0000
  S   S79       1.0  0.23650  0.32321  0.55346  1.0000
  S   S80       1.0  0.39384  0.39760  0.88185  1.0000
  S   S81       1.0  0.41725  0.42513  0.87040  1.0000
  H   H526      1.0  0.00038  0.24210  0.53238  1.0000
  H   H527      1.0  0.34515  0.37979  0.67516  1.0000
  H   H528      1.0  0.31713  0.24626  0.96741  1.0000
  H   H529      1.0  0.04757  0.45578  0.61376  1.0000
  C   C290      1.0  0.41484  0.38889  0.67442  1.0000
  C   C291      1.0  0.33998  0.38099  0.64617  1.0000
  S   S82       1.0  0.34224  0.25059  0.68688  1.0000
  C   C292      1.0  0.22744  0.46635  0.54393  1.0000
  H   H530      1.0  0.37971  0.27898  0.93454  1.0000
  Fe  Fe40      1.0  0.01867  0.28778  0.52681  1.0000
  S   S83       1.0  0.05946  0.28553  0.53144  1.0000
  Fe  Fe41      1.0  0.20334  0.28427  0.49502  1.0000
  S   S84       1.0  0.21278  0.28990  0.55221  1.0000
  C   C293      1.0  0.39077  0.27031  0.93030  1.0000
  Fe  Fe42      1.0  0.23895  0.30330  0.52783  1.0000
  Fe  Fe43      1.0  0.24195  0.27517  0.54883  1.0000
  S   S85       1.0  0.24811  0.26148  0.59577  1.0000
  H   H531      1.0  0.01156  0.23150  0.56665  1.0000
  C   C294      1.0  0.11050  0.32700  0.54705  1.0000
  H   H532      1.0  0.36631  0.45047  0.95885  1.0000
  C   C295      1.0  0.08897  0.28537  0.51350  1.0000
  C   C296      1.0  0.10802  0.28222  0.53666  1.0000
  C   C297      1.0  0.13159  0.28183  0.52378  1.0000
  H   H533      1.0  0.06540  0.45535  0.76547  1.0000
  H   H534      1.0  0.00705  0.30399  0.69392  1.0000
  H   H535      1.0  0.14322  0.45633  0.82119  1.0000
  C   C298      1.0  0.31626  0.25298  0.66058  1.0000
  C   C299      1.0  0.31650  0.26172  0.63185  1.0000
  C   C300      1.0  0.29590  0.26434  0.61140  1.0000
  C   C301      1.0  0.27476  0.25832  0.61980  1.0000
  C   C302      1.0  0.27463  0.24946  0.64819  1.0000
  C   C303      1.0  0.29527  0.24676  0.66838  1.0000
  H   H536      1.0  0.33272  0.26651  0.62548  1.0000
  H   H537      1.0  0.29638  0.27098  0.58921  1.0000
  H   H538      1.0  0.25838  0.24474  0.65487  1.0000
  H   H539      1.0  0.46023  0.36864  0.95861  1.0000
  C   C304      1.0  0.45128  0.26126  0.86492  1.0000
  C   C305      1.0  0.45147  0.25021  0.88561  1.0000
  C   C306      1.0  0.43969  0.23936  0.87281  1.0000
  C   C307      1.0  0.42713  0.23948  0.83970  1.0000
  C   C308      1.0  0.42697  0.25053  0.81896  1.0000
  C   C309      1.0  0.43932  0.26128  0.83126  1.0000
  H   H540      1.0  0.46105  0.24995  0.91113  1.0000
  H   H541      1.0  0.09495  0.45088  0.84541  1.0000
  H   H542      1.0  0.41763  0.25073  0.79322  1.0000
  H   H543      1.0  0.43942  0.26971  0.81472  1.0000
  C   C310      1.0  0.44435  0.35561  0.92085  1.0000
  H   H544      1.0  0.03848  0.47214  0.62073  1.0000
  H   H545      1.0  0.30077  0.34784  0.49801  1.0000
  H   H546      1.0  0.41702  0.25124  0.93695  1.0000
  C   C311      1.0  0.45093  0.33307  0.93474  1.0000
  C   C312      1.0  0.44118  0.34269  0.91252  1.0000
  Fe  Fe44      1.0  0.09642  0.46846  0.69051  1.0000
  C   C313      1.0  0.00562  0.45287  0.70506  1.0000
  Fe  Fe45      1.0  0.35070  0.23340  0.72257  1.0000
  H   H547      1.0  0.43108  0.34008  0.88864  1.0000
  H   H548      1.0  0.99885  0.24655  0.58021  1.0000
  C   C314      1.0  0.39003  0.38353  0.67037  1.0000
  H   H549      1.0  0.09313  0.41834  0.75556  1.0000
  H   H550      1.0  0.34690  0.38983  0.58067  1.0000
  C   C315      1.0  0.04555  0.44715  0.68631  1.0000
  C   C316      1.0  0.03720  0.43529  0.67473  1.0000
  H   H551      1.0  0.17313  0.39367  0.61027  1.0000
  C   C317      1.0  0.16369  0.30239  0.60868  1.0000
  C   C318      1.0  0.14227  0.41171  0.64126  1.0000
  C   C319      1.0  0.02956  0.45604  0.70084  1.0000
  H   H552      1.0  0.08016  0.32495  0.51064  1.0000
  H   H553      1.0  0.12632  0.40748  0.62859  1.0000
  H   H554      1.0  0.03572  0.46521  0.70975  1.0000
  C   C320      1.0  0.21595  0.43725  0.60569  1.0000
  C   C321      1.0  0.19320  0.44237  0.59990  1.0000
  C   C322      1.0  0.18407  0.45209  0.62266  1.0000
  C   C323      1.0  0.19749  0.45666  0.65179  1.0000
  C   C324      1.0  0.22051  0.45181  0.65691  1.0000
  C   C325      1.0  0.22975  0.44218  0.63392  1.0000
  H   H555      1.0  0.18255  0.43876  0.57774  1.0000
  H   H556      1.0  0.23115  0.45541  0.67910  1.0000
  H   H557      1.0  0.24729  0.43834  0.63866  1.0000
  C   C326      1.0  0.35598  0.41560  0.66918  1.0000
  C   C327      1.0  0.37915  0.41810  0.68104  1.0000
  C   C328      1.0  0.38627  0.41590  0.71746  1.0000
  C   C329      1.0  0.37022  0.41120  0.74280  1.0000
  C   C330      1.0  0.34700  0.40874  0.73098  1.0000
  C   C331      1.0  0.33990  0.41094  0.69456  1.0000
  H   H558      1.0  0.39179  0.42174  0.66182  1.0000
  H   H559      1.0  0.40413  0.41791  0.72594  1.0000
  H   H560      1.0  0.33435  0.40517  0.75026  1.0000
  H   H561      1.0  0.32197  0.40907  0.68618  1.0000
  C   C332      1.0  0.25313  0.33708  0.54468  1.0000
  C   C333      1.0  0.27931  0.35955  0.53367  1.0000
  C   C334      1.0  0.25977  0.35968  0.55703  1.0000
  C   C335      1.0  0.24690  0.34850  0.56265  1.0000
  H   H562      1.0  0.25469  0.36838  0.57092  1.0000
  H   H563      1.0  0.23199  0.34871  0.58105  1.0000
  H   H564      1.0  0.23308  0.46021  0.56707  1.0000
  H   H565      1.0  0.15417  0.30801  0.62994  1.0000
  H   H566      1.0  0.15987  0.29220  0.61272  1.0000
  H   H567      1.0  0.15004  0.39732  0.57752  1.0000
  N   N17       1.0  0.35963  0.37663  0.62103  1.0000
  Fe  Fe46      1.0  0.29936  0.42115  0.50448  1.0000
  H   H568      1.0  0.24902  0.44451  0.52722  1.0000
  C   C336      1.0  0.27262  0.33695  0.52132  1.0000
  N   N18       1.0  0.33734  0.43701  0.86064  1.0000
  C   C337      1.0  0.35358  0.43883  0.89287  1.0000
  C   C338      1.0  0.33121  0.42316  0.85618  1.0000
  C   C339      1.0  0.35066  0.44095  0.82697  1.0000
  C   C340      1.0  0.31531  0.44516  0.86358  1.0000
  C   C341      1.0  0.30033  0.44367  0.89849  1.0000
  C   C342      1.0  0.36088  0.37903  0.94209  1.0000
  C   C343      1.0  0.33831  0.43840  0.78982  1.0000
  C   C344      1.0  0.32911  0.41513  0.89124  1.0000
  C   C345      1.0  0.31909  0.40207  0.88269  1.0000
  H   H569      1.0  0.14842  0.34388  0.50258  1.0000
  C   C346      1.0  0.38168  0.37756  0.96839  1.0000
  C   C347      1.0  0.35355  0.44285  0.75817  1.0000
  H   H570      1.0  0.36949  0.43261  0.88957  1.0000
  H   H571      1.0  0.34532  0.43567  0.91853  1.0000
  H   H572      1.0  0.31465  0.42215  0.84006  1.0000
  H   H573      1.0  0.34509  0.41810  0.84001  1.0000
  H   H574      1.0  0.36827  0.43606  0.82599  1.0000
  H   H575      1.0  0.35425  0.45128  0.82771  1.0000
  H   H576      1.0  0.31973  0.45534  0.86074  1.0000
  H   H577      1.0  0.30316  0.44313  0.84052  1.0000
  H   H578      1.0  0.31099  0.44480  0.92362  1.0000
  H   H579      1.0  0.29185  0.43427  0.89836  1.0000
  H   H580      1.0  0.05158  0.47800  0.94006  1.0000
  H   H581      1.0  0.34717  0.45923  0.90315  1.0000
  H   H582      1.0  0.32116  0.44353  0.78798  1.0000
  H   H583      1.0  0.33510  0.42815  0.78565  1.0000
  H   H584      1.0  0.34691  0.41358  0.90320  1.0000
  H   H585      1.0  0.31787  0.41972  0.91226  1.0000
  H   H586      1.0  0.33071  0.39687  0.86304  1.0000
  H   H587      1.0  0.31811  0.39649  0.90813  1.0000
  H   H588      1.0  0.30104  0.40297  0.87106  1.0000
  H   H589      1.0  0.10445  0.27985  0.56474  1.0000
  N   N19       1.0  0.24340  0.46402  0.51143  1.0000
  H   H590      1.0  0.02818  0.43568  0.76475  1.0000
  H   H591      1.0  0.07455  0.43650  0.80858  1.0000
  H   H592      1.0  0.32717  0.46268  0.49779  1.0000
  C   C348      1.0  0.37697  0.45322  0.93486  1.0000
  H   H593      1.0  0.34520  0.44015  0.73184  1.0000
  H   H594      1.0  0.35542  0.45330  0.75909  1.0000
  H   H595      1.0  0.44820  0.32321  0.92791  1.0000
  N   N20       1.0  0.29659  0.30451  0.63679  1.0000
  C   C349      1.0  0.27225  0.29996  0.62674  1.0000
  C   C350      1.0  0.31221  0.30364  0.60346  1.0000
  C   C351      1.0  0.30648  0.29548  0.66491  1.0000
  C   C352      1.0  0.29642  0.31778  0.65271  1.0000
  C   C353      1.0  0.27729  0.32719  0.63815  1.0000
  C   C354      1.0  0.25523  0.29806  0.65933  1.0000
  C   C355      1.0  0.33288  0.29701  0.67514  1.0000
  C   C356      1.0  0.30582  0.31249  0.57139  1.0000
  C   C357      1.0  0.32141  0.30964  0.53822  1.0000
  C   C358      1.0  0.28290  0.34085  0.64866  1.0000
  C   C359      1.0  0.22974  0.29673  0.64655  1.0000
  C   C360      1.0  0.33929  0.28924  0.70880  1.0000
  H   H596      1.0  0.27351  0.29065  0.61218  1.0000
  H   H597      1.0  0.26348  0.30634  0.60693  1.0000
  H   H598      1.0  0.33068  0.30610  0.61041  1.0000
  H   H599      1.0  0.31282  0.29368  0.59299  1.0000
  H   H600      1.0  0.30420  0.28550  0.65574  1.0000
  H   H601      1.0  0.29636  0.29637  0.69084  1.0000
  H   H602      1.0  0.29383  0.31760  0.68281  1.0000
  H   H603      1.0  0.31405  0.32212  0.64896  1.0000
  H   H604      1.0  0.25973  0.32496  0.64964  1.0000
  H   H605      1.0  0.27552  0.32681  0.60824  1.0000
  H   H606      1.0  0.26006  0.28921  0.67393  1.0000
  H   H607      1.0  0.25607  0.30605  0.67908  1.0000
  H   H608      1.0  0.33706  0.30706  0.68087  1.0000
  H   H609      1.0  0.34435  0.29343  0.65263  1.0000
  H   H610      1.0  0.28722  0.31150  0.56276  1.0000
  H   H611      1.0  0.30888  0.32250  0.57926  1.0000
  H   H612      1.0  0.31655  0.31614  0.51572  1.0000
  H   H613      1.0  0.34032  0.31103  0.54500  1.0000
  H   H614      1.0  0.31893  0.29976  0.52843  1.0000
  H   H615      1.0  0.26842  0.34723  0.63925  1.0000
  H   H616      1.0  0.28466  0.34189  0.67870  1.0000
  H   H617      1.0  0.29948  0.34378  0.63526  1.0000
  H   H618      1.0  0.22804  0.28813  0.62914  1.0000
  H   H619      1.0  0.21794  0.29573  0.67047  1.0000
  H   H620      1.0  0.22403  0.30522  0.63100  1.0000
  H   H621      1.0  0.33542  0.27906  0.70404  1.0000
  H   H622      1.0  0.35845  0.29008  0.71469  1.0000
  H   H623      1.0  0.32924  0.29269  0.73300  1.0000
  N   N21       1.0  0.13575  0.42348  0.66286  1.0000
  C   C361      1.0  0.15705  0.42754  0.68455  1.0000
  C   C362      1.0  0.11525  0.42049  0.68744  1.0000
  C   C363      1.0  0.12058  0.41118  0.71894  1.0000
  C   C364      1.0  0.15308  0.43887  0.71116  1.0000
  C   C365      1.0  0.16108  0.41339  0.61095  1.0000
  C   C366      1.0  0.16624  0.40089  0.59101  1.0000
  C   C367      1.0  0.09863  0.40926  0.74235  1.0000
  C   C368      1.0  0.17456  0.44077  0.73574  1.0000
  H   H624      1.0  0.17146  0.43049  0.66605  1.0000
  H   H625      1.0  0.16471  0.41942  0.69992  1.0000
  H   H626      1.0  0.10747  0.42931  0.69944  1.0000
  H   H627      1.0  0.10061  0.41627  0.67137  1.0000
  H   H628      1.0  0.13461  0.41479  0.73723  1.0000
  H   H629      1.0  0.12624  0.40178  0.70806  1.0000
  H   H630      1.0  0.15028  0.44770  0.69546  1.0000
  H   H631      1.0  0.13763  0.43758  0.72915  1.0000
  H   H632      1.0  0.15507  0.42030  0.59024  1.0000
  H   H633      1.0  0.17804  0.41665  0.62260  1.0000
  H   H634      1.0  0.17989  0.40240  0.56979  1.0000
  S   S86       1.0  0.12539  0.46971  0.73257  1.0000
  S   S87       1.0  0.37937  0.42028  0.96086  1.0000
  H   H635      1.0  0.99428  0.29377  0.65991  1.0000
  H   H636      1.0  0.19078  0.44196  0.71918  1.0000
  H   H637      1.0  0.17193  0.44946  0.75266  1.0000
  H   H638      1.0  0.17707  0.43256  0.75408  1.0000
  S   S88       1.0  0.29685  0.37320  0.52628  1.0000
  C   C369      1.0  0.38119  0.38432  0.63032  1.0000
  H   H639      1.0  0.29084  0.45157  0.51197  1.0000
  C   C370      1.0  0.31612  0.37416  0.64233  1.0000
  C   C371      1.0  0.29790  0.37963  0.66913  1.0000
  H   H640      1.0  0.33653  0.39131  0.64245  1.0000
  H   H641      1.0  0.37791  0.39453  0.62428  1.0000
  H   H642      1.0  0.30875  0.37508  0.61443  1.0000
  H   H643      1.0  0.29544  0.38997  0.66515  1.0000
  H   H644      1.0  0.28065  0.37498  0.66471  1.0000
  H   H645      1.0  0.30364  0.37797  0.69768  1.0000
  H   H646      1.0  0.42787  0.38294  0.65916  1.0000
  H   H647      1.0  0.16661  0.30885  0.49674  1.0000
  H   H648      1.0  0.09605  0.45086  0.60479  1.0000
  C   C372      1.0  0.39038  0.27640  0.86356  1.0000
  H   H649      1.0  0.04945  0.42833  0.66353  1.0000
  H   H650      1.0  0.29480  0.24010  0.69058  1.0000
  H   H651      1.0  0.12664  0.31198  0.51363  1.0000
  C   C373      1.0  0.35552  0.33956  0.61506  1.0000
  H   H652      1.0  0.18866  0.32007  0.50451  1.0000
  H   H653      1.0  0.39270  0.44684  0.93275  1.0000
  H   H654      1.0  0.40873  0.27987  0.86632  1.0000
  C   C374      1.0  0.15702  0.33955  0.52683  1.0000
  H   H655      1.0  0.31576  0.46796  0.54126  1.0000
  H   H656      1.0  0.10934  0.33750  0.54736  1.0000
  H   H657      1.0  0.27763  0.32829  0.50719  1.0000
  H   H658      1.0  0.05760  0.45296  0.86771  1.0000
  H   H659      1.0  0.39782  0.38037  0.95361  1.0000
  S   S89       1.0  0.46697  0.27492  0.87880  1.0000
  C   C375      1.0  0.01319  0.43220  0.67838  1.0000
  S   S90       1.0  0.99417  0.29854  0.48859  1.0000
  C   C376      1.0  0.99745  0.23856  0.56039  1.0000
  H   H660      1.0  0.02752  0.47404  0.91009  1.0000
  S   S91       1.0  0.99463  0.27076  0.52848  1.0000
  H   H661      1.0  0.34775  0.33856  0.64266  1.0000
  H   H662      1.0  0.26878  0.45283  0.87596  1.0000
  H   H663      1.0  0.99668  0.46335  0.51335  1.0000
  H   H664      1.0  0.29630  0.25254  0.53240  1.0000
  H   H665      1.0  0.28788  0.46332  0.90150  1.0000
  H   H666      1.0  0.44036  0.23076  0.88851  1.0000
  H   H667      1.0  0.03608  0.46356  0.85071  1.0000
  H   H668      1.0  0.39029  0.24297  0.93060  1.0000
  H   H669      1.0  0.99345  0.45967  0.71727  1.0000
  H   H670      1.0  0.19325  0.34120  0.50487  1.0000
  H   H671      1.0  0.07295  0.32573  0.55847  1.0000
  S   S92       1.0  0.00227  0.29685  0.57700  1.0000
  H   H672      1.0  0.34448  0.37535  0.95442  1.0000
  C   C377      1.0  0.45753  0.35879  0.95184  1.0000
  C   C378      1.0  0.24300  0.44998  0.50297  1.0000
  H   H673      1.0  0.37370  0.45570  0.87746  1.0000
  C   C379      1.0  0.37255  0.37775  0.55349  1.0000
  H   H674      1.0  0.00707  0.42295  0.67005  1.0000
  C   C380      1.0  0.09402  0.28833  0.47719  1.0000
  H   H675      1.0  0.04536  0.43878  0.82726  1.0000
  H   H676      1.0  0.37139  0.43835  0.75927  1.0000
  H   H677      1.0  0.02487  0.45462  0.55693  1.0000
  H   H678      1.0  0.37827  0.38921  0.68860  1.0000
  S   S93       1.0  0.12017  0.47305  0.64322  1.0000
  C   C381      1.0  0.35274  0.37973  0.58237  1.0000
  C   C382      1.0  0.28571  0.34808  0.51613  1.0000
  H   H679      1.0  0.17516  0.36288  0.50583  1.0000
  S   S94       1.0  0.26869  0.28887  0.52873  1.0000
  C   C383      1.0  0.02015  0.46230  0.57645  1.0000
  H   H680      1.0  0.25580  0.44737  0.48124  1.0000
  H   H681      1.0  0.36466  0.37359  0.91661  1.0000
  H   H682      1.0  0.12249  0.44254  0.65463  1.0000
  H   H683      1.0  0.35185  0.36690  0.51421  1.0000
  H   H684      1.0  0.33707  0.37434  0.57363  1.0000
  H   H685      1.0  0.18124  0.32105  0.56644  1.0000
  H   H686      1.0  0.18297  0.30374  0.61184  1.0000
  C   C384      1.0  0.12839  0.43418  0.63819  1.0000
  H   H687      1.0  0.11512  0.32381  0.57487  1.0000
  H   H688      1.0  0.14941  0.40429  0.65972  1.0000
  H   H689      1.0  0.14370  0.43754  0.62235  1.0000
  H   H690      1.0  0.00427  0.45175  0.62055  1.0000
  H   H691      1.0  0.31833  0.36403  0.64916  1.0000
  C   C385      1.0  0.38584  0.26578  0.89063  1.0000
  H   H692      1.0  0.41538  0.39874  0.66414  1.0000
  H   H693      1.0  0.36233  0.36010  0.65524  1.0000
  H   H694      1.0  0.38418  0.36955  0.56006  1.0000
  C   C386      1.0  0.28048  0.45363  0.90018  1.0000
  C   C387      1.0  0.04621  0.43225  0.77203  1.0000
  N   N22       1.0  0.06875  0.46317  0.81999  1.0000
  C   C388      1.0  0.15559  0.30634  0.57069  1.0000
  H   H695      1.0  0.12319  0.32674  0.49214  1.0000
  S   S95       1.0  0.48781  0.42485  0.88671  1.0000
  C   C389      1.0  0.09402  0.45851  0.82468  1.0000
  H   H696      1.0  0.09168  0.42888  0.62572  1.0000
  H   H697      1.0  0.41994  0.38902  0.70368  1.0000
  H   H698      1.0  0.04574  0.46162  0.92982  1.0000
  H   H699      1.0  0.38796  0.27277  0.83529  1.0000
  Fe  Fe47      1.0  0.47778  0.28008  0.93698  1.0000
  H   H700      1.0  0.15414  0.32625  0.58562  1.0000
  C   C390      1.0  0.10809  0.43130  0.61103  1.0000
  C   C391      1.0  0.08593  0.32199  0.53826  1.0000
  H   H701      1.0  0.39050  0.37363  0.68017  1.0000
  S   S96       1.0  0.23073  0.26837  0.49289  1.0000
  H   H702      1.0  0.35440  0.25374  0.93552  1.0000
  C   C392      1.0  0.12880  0.32236  0.51824  1.0000
  H   H703      1.0  0.37785  0.28443  0.86819  1.0000
  H   H704      1.0  0.38377  0.38631  0.55285  1.0000
  C   C393      1.0  0.13651  0.46214  0.84448  1.0000
  C   C394      1.0  0.16174  0.32034  0.56313  1.0000
  H   H705      1.0  0.11824  0.44577  0.57207  1.0000
  H   H706      1.0  0.14579  0.27906  0.54187  1.0000
  C   C395      1.0  0.36225  0.45251  0.89999  1.0000
  C   C396      1.0  0.36535  0.36272  0.62628  1.0000
  H   H707      1.0  0.33289  0.35509  0.59984  1.0000
  H   H708      1.0  0.10260  0.40228  0.76404  1.0000
  H   H709      1.0  0.13631  0.30474  0.56931  1.0000
  C   C397      1.0  0.16959  0.31919  0.49753  1.0000
  H   H710      1.0  0.31017  0.23980  0.58501  1.0000
  C   C398      1.0  0.04200  0.46463  0.59993  1.0000
  H   H711      1.0  0.37715  0.37465  0.49529  1.0000
  S   S97       1.0  0.26813  0.40840  0.51174  1.0000
  C   C399      1.0  0.10240  0.44282  0.58751  1.0000
  H   H712      1.0  0.11289  0.42335  0.59242  1.0000
  H   H713      1.0  0.08821  0.44046  0.56777  1.0000
  C   C400      1.0  0.21879  0.44461  0.49084  1.0000
  H   H714      1.0  0.35900  0.35338  0.57325  1.0000
  C   C401      1.0  0.35209  0.35310  0.60150  1.0000
  H   H715      1.0  0.38451  0.36077  0.62160  1.0000
  H   H716      1.0  0.13457  0.45607  0.86883  1.0000
  C   C402      1.0  0.46381  0.33623  0.96602  1.0000
  C   C403      1.0  0.30440  0.24301  0.52781  1.0000
  H   H717      1.0  0.37460  0.33699  0.61606  1.0000
  H   H718      1.0  0.27119  0.46629  0.55181  1.0000
  H   H719      1.0  0.35011  0.26741  0.96286  1.0000
  H   H720      1.0  0.34661  0.33288  0.59616  1.0000
  H   H721      1.0  0.16438  0.29998  0.55061  1.0000
  C   C404      1.0  0.99735  0.44090  0.69420  1.0000
  C   C405      1.0  0.18282  0.34431  0.52902  1.0000
  C   C406      1.0  0.31246  0.46795  0.51140  1.0000
  H   H722      1.0  0.26968  0.45220  0.92503  1.0000
  H   H723      1.0  0.04502  0.42223  0.78065  1.0000
  H   H724      1.0  0.36725  0.26291  0.88698  1.0000
  H   H725      1.0  0.10064  0.45405  0.79887  1.0000
  H   H726      1.0  0.19180  0.34072  0.55380  1.0000
  H   H727      1.0  0.39743  0.25764  0.88304  1.0000
  H   H728      1.0  0.38312  0.46306  0.93924  1.0000
  H   H729      1.0  0.35115  0.38379  0.50709  1.0000
  H   H730      1.0  0.08380  0.40565  0.72554  1.0000
  C   C407      1.0  0.26804  0.46807  0.52223  1.0000
  H   H731      1.0  0.35806  0.38914  0.93499  1.0000
  H   H732      1.0  0.03804  0.45735  0.78872  1.0000
  C   C408      1.0  0.05542  0.46251  0.85553  1.0000
  N   N23       1.0  0.38642  0.26080  0.96007  1.0000
  H   H733      1.0  0.05682  0.46768  0.58243  1.0000
  H   H734      1.0  0.14749  0.34380  0.55059  1.0000
  N   N24       1.0  0.15424  0.32536  0.52643  1.0000
  C   C409      1.0  0.13662  0.28475  0.48746  1.0000
  H   H735      1.0  0.07848  0.47645  0.77836  1.0000
  C   C410      1.0  0.23419  0.47189  0.48020  1.0000
  H   H736      1.0  0.08590  0.31148  0.53961  1.0000
  C   C411      1.0  0.05686  0.45451  0.79275  1.0000
  Fe  Fe48      1.0  0.14824  0.47569  0.68566  1.0000
  H   H737      1.0  0.17428  0.36244  0.55524  1.0000
  C   C412      1.0  0.28917  0.46147  0.50258  1.0000
  H   H738      1.0  0.32343  0.24421  0.52166  1.0000
  H   H739      1.0  0.99461  0.46773  0.61622  1.0000
  H   H740      1.0  0.00074  0.31013  0.64930  1.0000
  C   C413      1.0  0.99445  0.30364  0.67074  1.0000
  H   H741      1.0  0.01641  0.47115  0.56124  1.0000
  H   H742      1.0  0.37046  0.23282  0.64635  1.0000
  C   C414      1.0  0.11294  0.46848  0.83475  1.0000
  H   H743      1.0  0.20897  0.46364  0.53765  1.0000
  C   C415      1.0  0.06258  0.47199  0.88588  1.0000
  C   C416      1.0  0.30130  0.23501  0.56192  1.0000
  C   C417      1.0  0.36027  0.25832  0.96133  1.0000
  C   C418      1.0  0.40021  0.24882  0.95075  1.0000
  H   H744      1.0  0.31222  0.47784  0.50133  1.0000
  C   C419      1.0  0.18352  0.35877  0.53054  1.0000
  C   C420      1.0  0.04577  0.47132  0.91837  1.0000
  H   H745      1.0  0.03548  0.47746  0.77219  1.0000
  C   C421      1.0  0.99856  0.45897  0.60022  1.0000
  C   C422      1.0  0.36251  0.37565  0.51525  1.0000
  H   H746      1.0  0.99571  0.44309  0.53968  1.0000
  H   H747      1.0  0.34941  0.23530  0.58703  1.0000
  H   H748      1.0  0.26995  0.47847  0.51879  1.0000
  H   H749      1.0  0.22145  0.47616  0.61570  1.0000
  H   H750      1.0  0.22757  0.42474  0.49917  1.0000
  H   H751      1.0  0.10758  0.47467  0.85784  1.0000
  H   H752      1.0  0.20625  0.44456  0.51406  1.0000
  H   H753      1.0  0.14973  0.46952  0.85085  1.0000
  H   H754      1.0  0.08046  0.46957  0.89620  1.0000
  H   H755      1.0  0.11618  0.47466  0.81105  1.0000
  S   S98       1.0  0.34963  0.23245  0.78398  1.0000
  H   H756      1.0  0.19405  0.47728  0.59023  1.0000
  C   C423      1.0  0.06828  0.47635  0.80433  1.0000
  H   H757      1.0  0.28209  0.23481  0.56807  1.0000
  H   H758      1.0  0.29552  0.23854  0.50404  1.0000
  H   H759      1.0  0.39012  0.23240  0.60804  1.0000
  H   H760      1.0  0.99144  0.43541  0.58155  1.0000
  H   H761      1.0  0.21478  0.47071  0.47714  1.0000
  C   C424      1.0  0.22131  0.43098  0.47697  1.0000
  H   H762      1.0  0.48607  0.43446  0.81151  1.0000
  H   H763      1.0  0.48760  0.24829  0.82871  1.0000
  C   C425      1.0  0.46704  0.34916  0.97434  1.0000
  Fe  Fe49      1.0  0.00987  0.52688  0.35530  1.0000
  S   S99       1.0  0.04360  0.51547  0.35041  1.0000
  Fe  Fe50      1.0  0.03359  0.54822  0.39954  1.0000
  S   S100      1.0  0.06901  0.53807  0.39718  1.0000
  S   S101      1.0  0.03177  0.56615  0.43575  1.0000
  Fe  Fe51      1.0  0.06099  0.53397  0.33760  1.0000
  S   S102      1.0  0.08729  0.53883  0.29159  1.0000
  Fe  Fe52      1.0  0.04892  0.52043  0.41014  1.0000
  H   H764      1.0  0.40279  0.51502  0.26473  1.0000
  S   S103      1.0  0.02687  0.54528  0.33966  1.0000
  S   S104      1.0  0.01385  0.53068  0.41536  1.0000
  Fe  Fe53      1.0  0.14461  0.52598  0.08775  1.0000
  S   S105      1.0  0.17359  0.53971  0.09909  1.0000
  S   S106      1.0  0.11987  0.51866  0.13285  1.0000
  Fe  Fe54      1.0  0.16606  0.54784  0.04372  1.0000
  H   H765      1.0  0.40788  0.49675  0.42966  1.0000
  Fe  Fe55      1.0  0.19727  0.52559  0.06989  1.0000
  S   S107      1.0  0.23369  0.52207  0.09528  1.0000
  S   S108      1.0  0.13492  0.53497  0.03366  1.0000
  S   S109      1.0  0.16868  0.51147  0.06021  1.0000
  H   H766      1.0  0.31421  0.49328  0.36016  1.0000
  H   H767      1.0  0.22934  0.49590  0.26830  1.0000
  S   S110      1.0  0.09159  0.70838  0.21751  1.0000
  S   S111      1.0  0.16051  0.71225  0.18580  1.0000
  Fe  Fe56      1.0  0.09105  0.70884  0.27917  1.0000
  S   S112      1.0  0.08144  0.69214  0.31562  1.0000
  C   C426      1.0  0.18539  0.50387  0.24034  1.0000
  N   N25       1.0  0.14180  0.68550  0.01086  1.0000
  S   S113      1.0  0.46721  0.64869  0.09545  1.0000
  H   H768      1.0  0.37979  0.50088  0.44985  1.0000
  S   S114      1.0  0.46493  0.66999  0.02956  1.0000
  H   H769      1.0  0.04435  0.60634  0.27063  1.0000
  Fe  Fe57      1.0  0.44834  0.65117  0.04144  1.0000
  S   S115      1.0  0.41113  0.64398  0.02636  1.0000
  C   C427      1.0  0.45334  0.58484  0.01599  1.0000
  Fe  Fe58      1.0  0.22885  0.63588  0.00091  1.0000
  Fe  Fe59      1.0  0.21378  0.65767  0.05205  1.0000
  S   S116      1.0  0.18801  0.66127  0.09920  1.0000
  Fe  Fe60      1.0  0.26451  0.65682  0.01912  1.0000
  S   S117      1.0  0.30267  0.66355  0.03050  1.0000
  S   S118      1.0  0.24377  0.64335  0.05381  1.0000
  C   C428      1.0  0.05532  0.70307  0.44120  1.0000
  H   H770      1.0  0.08672  0.64295  0.33052  1.0000
  C   C429      1.0  0.38106  0.64955  0.02895  1.0000
  H   H771      1.0  0.08187  0.71845  0.39692  1.0000
  C   C430      1.0  0.33873  0.64525  0.01990  1.0000
  C   C431      1.0  0.33262  0.65772  0.02989  1.0000
  C   C432      1.0  0.35100  0.66602  0.03937  1.0000
  C   C433      1.0  0.37497  0.66200  0.03896  1.0000
  H   H772      1.0  0.30935  0.61590  0.03716  1.0000
  C   C434      1.0  0.99864  0.64909  0.32907  1.0000
  H   H773      1.0  0.04486  0.69791  0.42032  1.0000
  H   H774      1.0  0.38870  0.66856  0.04638  1.0000
  C   C435      1.0  0.05433  0.68945  0.33834  1.0000
  C   C436      1.0  0.05291  0.67926  0.36265  1.0000
  C   C437      1.0  0.03175  0.67673  0.38129  1.0000
  C   C438      1.0  0.01189  0.68457  0.37645  1.0000
  C   C439      1.0  0.01329  0.69473  0.35210  1.0000
  C   C440      1.0  0.03433  0.69713  0.33296  1.0000
  H   H775      1.0  0.06834  0.67331  0.36710  1.0000
  H   H776      1.0  0.03090  0.66886  0.39976  1.0000
  Fe  Fe61      1.0  0.48598  0.66681  0.08136  1.0000
  H   H777      1.0  0.03511  0.70496  0.31422  1.0000
  C   C441      1.0  0.16818  0.69789  0.16264  1.0000
  C   C442      1.0  0.15523  0.68682  0.16687  1.0000
  C   C443      1.0  0.16161  0.67573  0.14727  1.0000
  C   C444      1.0  0.18097  0.67554  0.12323  1.0000
  C   C445      1.0  0.19397  0.68660  0.11908  1.0000
  C   C446      1.0  0.18757  0.69770  0.13865  1.0000
  H   H778      1.0  0.14026  0.68681  0.18517  1.0000
  H   H779      1.0  0.15148  0.66722  0.15081  1.0000
  H   H780      1.0  0.20905  0.68657  0.10101  1.0000
  H   H781      1.0  0.19774  0.70620  0.13516  1.0000
  C   C447      1.0  0.37746  0.49389  0.39413  1.0000
  C   C448      1.0  0.37799  0.49643  0.09238  1.0000
  C   C449      1.0  0.40443  0.49377  0.08819  1.0000
  C   C450      1.0  0.18093  0.58164  0.02310  1.0000
  C   C451      1.0  0.20301  0.57918  0.00725  1.0000
  H   H782      1.0  0.06004  0.63728  0.45520  1.0000
  C   C452      1.0  0.21026  0.60201  0.00213  1.0000
  H   H783      1.0  0.05961  0.66106  0.44451  1.0000
  H   H784      1.0  0.45276  0.72899  0.34841  1.0000
  C   C453      1.0  0.41190  0.49947  0.20243  1.0000
  H   H785      1.0  0.12186  0.72328  0.43344  1.0000
  C   C454      1.0  0.45096  0.49347  0.22430  1.0000
  C   C455      1.0  0.46052  0.50465  0.21042  1.0000
  C   C456      1.0  0.44575  0.51312  0.19181  1.0000
  C   C457      1.0  0.42147  0.51060  0.18825  1.0000
  H   H786      1.0  0.46230  0.48688  0.23874  1.0000
  C   C458      1.0  0.41285  0.60491  0.99580  1.0000
  H   H787      1.0  0.45288  0.52179  0.18122  1.0000
  C   C459      1.0  0.23520  0.49583  0.10411  1.0000
  C   C460      1.0  0.24647  0.50741  0.10947  1.0000
  C   C461      1.0  0.26846  0.50748  0.12738  1.0000
  C   C462      1.0  0.27896  0.49616  0.14020  1.0000
  H   H788      1.0  0.21844  0.49558  0.08997  1.0000
  H   H789      1.0  0.27744  0.51635  0.13147  1.0000
  H   H790      1.0  0.29579  0.49640  0.15414  1.0000
  C   C463      1.0  0.09643  0.53292  0.24776  1.0000
  C   C464      1.0  0.09174  0.52059  0.23573  1.0000
  C   C465      1.0  0.09932  0.51638  0.20085  1.0000
  C   C466      1.0  0.11183  0.52438  0.17737  1.0000
  C   C467      1.0  0.11709  0.53660  0.18977  1.0000
  C   C468      1.0  0.10945  0.54081  0.22464  1.0000
  H   H791      1.0  0.08271  0.51421  0.25361  1.0000
  H   H792      1.0  0.09552  0.50682  0.19204  1.0000
  H   H793      1.0  0.12678  0.54288  0.17232  1.0000
  H   H794      1.0  0.11351  0.55031  0.23368  1.0000
  C   C469      1.0  0.01758  0.58125  0.43120  1.0000
  C   C470      1.0  0.02804  0.51174  0.15683  1.0000
  H   H795      1.0  0.06933  0.71993  0.05739  1.0000
  C   C471      1.0  0.21127  0.51802  0.20449  1.0000
  H   H796      1.0  0.19801  0.54836  0.17175  1.0000
  H   H797      1.0  0.17220  0.50885  0.16804  1.0000
  C   C472      1.0  0.07417  0.64281  0.30730  1.0000
  C   C473      1.0  0.12185  0.68791  0.98433  1.0000
  C   C474      1.0  0.43396  0.57690  0.03462  1.0000
  C   C475      1.0  0.19731  0.52826  0.18298  1.0000
  H   H798      1.0  0.17857  0.52904  0.19124  1.0000
  H   H799      1.0  0.45237  0.58304  0.98605  1.0000
  H   H800      1.0  0.03523  0.56773  0.23726  1.0000
  H   H801      1.0  0.02552  0.63039  0.41925  1.0000
  H   H802      1.0  0.01159  0.53613  0.26299  1.0000
  S   S119      1.0  0.19747  0.64927  0.00128  1.0000
  C   C476      1.0  0.19307  0.72377  0.28699  1.0000
  C   C477      1.0  0.48655  0.65906  0.19232  1.0000
  H   H803      1.0  0.41026  0.48411  0.13827  1.0000
  S   S120      1.0  0.47700  0.64036  0.01123  1.0000
  H   H804      1.0  0.01564  0.60814  0.24996  1.0000
  H   H805      1.0  0.42993  0.56311  0.99039  1.0000
  H   H806      1.0  0.08317  0.55776  0.46004  1.0000
  N   N26       1.0  0.20055  0.50498  0.20677  1.0000
  H   H807      1.0  0.07522  0.63341  0.29358  1.0000
  C   C478      1.0  0.04778  0.51054  0.12854  1.0000
  S   S121      1.0  0.22982  0.61435  0.98973  1.0000
  H   H808      1.0  0.34662  0.67568  0.04719  1.0000
  H   H809      1.0  0.00678  0.65854  0.32578  1.0000
  H   H810      1.0  0.01812  0.60184  0.29532  1.0000
  H   H811      1.0  0.11790  0.69824  0.98271  1.0000
  C   C479      1.0  0.41225  0.51472  0.29123  1.0000
  C   C480      1.0  0.04326  0.62717  0.41026  1.0000
  C   C481      1.0  0.05947  0.62756  0.44356  1.0000
  H   H812      1.0  0.14097  0.49942  0.27318  1.0000
  H   H813      1.0  0.15145  0.51092  0.21765  1.0000
  H   H814      1.0  0.28989  0.60539  0.01302  1.0000
  H   H815      1.0  0.16027  0.67034  0.98198  1.0000
  H   H816      1.0  0.19449  0.72542  0.22885  1.0000
  H   H817      1.0  0.22879  0.51747  0.19053  1.0000
  C   C482      1.0  0.17362  0.59434  0.02821  1.0000
  H   H818      1.0  0.19010  0.48114  0.16903  1.0000
  H   H819      1.0  0.18426  0.70577  0.26094  1.0000
  Fe  Fe62      1.0  0.16132  0.52159  0.00686  1.0000
  S   S122      1.0  0.19198  0.53488  0.01527  1.0000
  C   C483      1.0  0.02659  0.49487  0.27179  1.0000
  H   H820      1.0  0.35860  0.49155  0.39806  1.0000
  H   H821      1.0  0.18028  0.49385  0.24446  1.0000
  C   C484      1.0  0.26742  0.48462  0.13565  1.0000
  C   C485      1.0  0.01013  0.60259  0.45643  1.0000
  S   S123      1.0  0.38097  0.49734  0.20093  1.0000
  C   C486      1.0  0.99456  0.60535  0.42788  1.0000
  H   H822      1.0  0.42624  0.59827  0.06543  1.0000
  H   H823      1.0  0.17431  0.72661  0.28968  1.0000
  H   H824      1.0  0.02728  0.50263  0.17148  1.0000
  C   C487      1.0  0.36272  0.64124  0.01935  1.0000
  H   H825      1.0  0.43444  0.62180  0.05418  1.0000
  C   C488      1.0  0.13236  0.66141  0.01295  1.0000
  H   H826      1.0  0.48420  0.72945  0.34084  1.0000
  S   S124      1.0  0.12900  0.71507  0.28340  1.0000
  C   C489      1.0  0.18697  0.50200  0.17232  1.0000
  C   C490      1.0  0.13291  0.68784  0.04907  1.0000
  C   C491      1.0  0.18194  0.69517  0.03000  1.0000
  H   H827      1.0  0.04908  0.51935  0.11238  1.0000
  N   N27       1.0  0.03745  0.63645  0.34536  1.0000
  H   H828      1.0  0.45532  0.59640  0.08233  1.0000
  H   H829      1.0  0.19567  0.50645  0.26507  1.0000
  C   C492      1.0  0.12342  0.70145  0.05711  1.0000
  H   H830      1.0  0.01119  0.51316  0.14187  1.0000
  C   C493      1.0  0.31388  0.48532  0.34015  1.0000
  C   C494      1.0  0.03297  0.50674  0.25063  1.0000
  C   C495      1.0  0.08259  0.65272  0.28028  1.0000
  H   H831      1.0  0.23052  0.48651  0.41776  1.0000
  H   H832      1.0  0.41387  0.52458  0.30157  1.0000
  H   H833      1.0  0.11823  0.68132  0.05528  1.0000
  H   H834      1.0  0.14683  0.68544  0.06946  1.0000
  H   H835      1.0  0.48044  0.61338  0.02850  1.0000
  C   C496      1.0  0.02161  0.59064  0.45795  1.0000
  H   H836      1.0  0.43736  0.57643  0.06445  1.0000
  C   C497      1.0  0.23819  0.49749  0.24180  1.0000
  C   C498      1.0  0.42684  0.49081  0.21994  1.0000
  H   H837      1.0  0.35342  0.48950  0.29321  1.0000
  H   H838      1.0  0.05569  0.64524  0.39067  1.0000
  C   C499      1.0  0.16199  0.48708  0.13434  1.0000
  H   H839      1.0  0.18940  0.68572  0.03654  1.0000
  H   H840      1.0  0.17550  0.69967  0.05563  1.0000
  H   H841      1.0  0.13697  0.70865  0.05147  1.0000
  H   H842      1.0  0.10761  0.70356  0.04024  1.0000
  S   S125      1.0  0.05760  0.50465  0.45108  1.0000
  C   C500      1.0  0.41210  0.48163  0.10893  1.0000
  H   H843      1.0  0.18613  0.70533  0.30991  1.0000
  H   H844      1.0  0.08222  0.66232  0.29302  1.0000
  C   C501      1.0  0.05273  0.63558  0.37912  1.0000
  H   H845      1.0  0.15654  0.59638  0.04027  1.0000
  H   H846      1.0  0.03795  0.64724  0.29512  1.0000
  H   H847      1.0  0.37812  0.50362  0.38336  1.0000
  H   H848      1.0  0.07127  0.65280  0.25553  1.0000
  H   H849      1.0  0.11391  0.66490  0.01146  1.0000
  H   H850      1.0  0.15505  0.70405  0.99674  1.0000
  S   S126      1.0  0.16145  0.56932  0.03595  1.0000
  H   H851      1.0  0.46204  0.61953  0.07745  1.0000
  H   H852      1.0  0.07046  0.63159  0.37235  1.0000
  H   H853      1.0  0.20843  0.54427  0.21657  1.0000
  C   C502      1.0  0.45411  0.48686  0.11134  1.0000
  H   H854      1.0  0.07762  0.62433  0.43625  1.0000
  H   H855      1.0  0.03380  0.53155  0.16613  1.0000
  H   H856      1.0  0.00111  0.50596  0.21778  1.0000
  H   H857      1.0  0.00207  0.63301  0.36542  1.0000
  H   H858      1.0  0.06504  0.50866  0.14200  1.0000
  C   C503      1.0  0.22063  0.49544  0.20972  1.0000
  H   H859      1.0  0.05395  0.71637  0.37435  1.0000
  H   H860      1.0  0.16511  0.67041  0.02892  1.0000
  S   S127      1.0  0.07616  0.72867  0.28260  1.0000
  H   H861      1.0  0.13289  0.51591  0.27769  1.0000
  C   C504      1.0  0.06286  0.72113  0.39756  1.0000
  H   H862      1.0  0.05259  0.62118  0.46485  1.0000
  H   H863      1.0  0.42044  0.55777  0.03447  1.0000
  C   C505      1.0  0.44001  0.60625  0.99544  1.0000
  C   C506      1.0  0.11610  0.70292  0.09700  1.0000
  H   H864      1.0  0.20899  0.56950  0.00327  1.0000
  C   C507      1.0  0.44449  0.60172  0.06204  1.0000
  H   H865      1.0  0.01431  0.64736  0.38143  1.0000
  H   H866      1.0  0.21485  0.52186  0.23230  1.0000
  C   C508      1.0  0.02322  0.62226  0.29161  1.0000
  H   H867      1.0  0.19781  0.52579  0.15356  1.0000
  C   C509      1.0  0.03254  0.52298  0.18336  1.0000
  H   H868      1.0  0.15867  0.51002  0.30079  1.0000
  C   C510      1.0  0.48059  0.48290  0.10934  1.0000
  C   C511      1.0  0.13532  0.65417  0.04864  1.0000
  C   C512      1.0  0.01310  0.64111  0.35689  1.0000
  C   C513      1.0  0.02321  0.53525  0.23858  1.0000
  C   C514      1.0  0.21741  0.58930  0.99643  1.0000
  H   H869      1.0  0.05044  0.52174  0.19531  1.0000
  C   C515      1.0  0.44394  0.61584  0.07418  1.0000
  H   H870      1.0  0.24553  0.50717  0.24194  1.0000
  H   H871      1.0  0.41256  0.61479  0.10836  1.0000
  H   H872      1.0  0.21282  0.70590  0.28320  1.0000
  H   H873      1.0  0.44011  0.61176  0.13213  1.0000
  C   C516      1.0  0.07097  0.66349  0.46811  1.0000
  N   N28       1.0  0.45358  0.59897  0.02404  1.0000
  H   H874      1.0  0.03040  0.62877  0.27103  1.0000
  H   H875      1.0  0.04085  0.53260  0.24975  1.0000
  H   H876      1.0  0.41680  0.48950  0.30793  1.0000
  H   H877      1.0  0.41389  0.50209  0.09943  1.0000
  H   H878      1.0  0.45152  0.55866  0.02466  1.0000
  H   H879      1.0  0.30912  0.59933  0.04863  1.0000
  C   C517      1.0  0.02553  0.60881  0.27605  1.0000
  N   N29       1.0  0.24417  0.59995  0.10316  1.0000
  C   C518      1.0  0.22731  0.58908  0.09908  1.0000
  C   C519      1.0  0.23071  0.61231  0.09870  1.0000
  C   C520      1.0  0.26180  0.59899  0.07226  1.0000
  C   C521      1.0  0.25752  0.59978  0.13892  1.0000
  C   C522      1.0  0.24469  0.59419  0.17242  1.0000
  C   C523      1.0  0.23899  0.57575  0.09482  1.0000
  C   C524      1.0  0.27868  0.61035  0.06819  1.0000
  C   C525      1.0  0.20920  0.61473  0.12392  1.0000
  C   C526      1.0  0.19640  0.62705  0.11377  1.0000
  C   C527      1.0  0.25842  0.59670  0.20758  1.0000
  C   C528      1.0  0.22129  0.56522  0.10140  1.0000
  C   C529      1.0  0.29794  0.60749  0.04002  1.0000
  H   H880      1.0  0.21590  0.59055  0.07480  1.0000
  H   H881      1.0  0.21470  0.58877  0.12212  1.0000
  H   H882      1.0  0.24252  0.62049  0.10335  1.0000
  H   H883      1.0  0.22432  0.61316  0.07008  1.0000
  H   H884      1.0  0.25248  0.59783  0.04573  1.0000
  H   H885      1.0  0.27321  0.59039  0.07518  1.0000
  H   H886      1.0  0.27426  0.59417  0.13622  1.0000
  H   H887      1.0  0.26328  0.60952  0.14631  1.0000
  H   H888      1.0  0.24311  0.58377  0.16931  1.0000
  H   H889      1.0  0.22667  0.59815  0.17598  1.0000
  H   H890      1.0  0.24585  0.57450  0.06660  1.0000
  H   H891      1.0  0.25398  0.57450  0.11400  1.0000
  H   H892      1.0  0.28730  0.61273  0.09450  1.0000
  H   H893      1.0  0.26880  0.61879  0.05838  1.0000
  H   H894      1.0  0.19613  0.60705  0.12176  1.0000
  H   H895      1.0  0.21510  0.61584  0.15254  1.0000
  H   H896      1.0  0.18998  0.62666  0.08515  1.0000
  H   H897      1.0  0.18095  0.62865  0.13195  1.0000
  H   H898      1.0  0.20836  0.63524  0.11698  1.0000
  H   H899      1.0  0.25965  0.60705  0.21290  1.0000
  H   H900      1.0  0.24916  0.59235  0.23091  1.0000
  H   H901      1.0  0.27650  0.59251  0.20578  1.0000
  H   H902      1.0  0.23000  0.55582  0.09709  1.0000
  H   H903      1.0  0.21449  0.56570  0.12975  1.0000
  H   H904      1.0  0.20622  0.56601  0.08213  1.0000
  H   H905      1.0  0.40521  0.60781  0.02247  1.0000
  C   C530      1.0  0.07350  0.67783  0.47143  1.0000
  C   C531      1.0  0.39806  0.49273  0.30679  1.0000
  H   H906      1.0  0.04189  0.51323  0.26990  1.0000
  H   H907      1.0  0.20255  0.72676  0.31202  1.0000
  C   C532      1.0  0.47899  0.60310  0.02278  1.0000
  H   H908      1.0  0.26993  0.49010  0.21506  1.0000
  H   H909      1.0  0.43183  0.62767  0.11931  1.0000
  H   H910      1.0  0.02694  0.61684  0.34708  1.0000
  H   H911      1.0  0.04568  0.50387  0.22902  1.0000
  H   H912      1.0  0.07396  0.70069  0.43470  1.0000
  H   H913      1.0  0.41000  0.51741  0.17496  1.0000
  H   H914      1.0  0.04105  0.54830  0.20160  1.0000
  C   C533      1.0  0.00210  0.58404  0.40253  1.0000
  H   H915      1.0  0.16760  0.52238  0.24449  1.0000
  S   S128      1.0  0.23534  0.67172  0.02181  1.0000
  H   H916      1.0  0.22242  0.72607  0.24996  1.0000
  H   H917      1.0  0.40826  0.49306  0.05865  1.0000
  H   H918      1.0  0.12118  0.64705  0.05110  1.0000
  H   H919      1.0  0.19865  0.50318  0.14825  1.0000
  H   H920      1.0  0.44410  0.61653  0.99722  1.0000
  H   H921      1.0  0.01832  0.48777  0.25347  1.0000
  H   H922      1.0  0.27045  0.48918  0.26391  1.0000
  H   H923      1.0  0.03613  0.68053  0.45972  1.0000
  H   H924      1.0  0.13454  0.65446  0.99019  1.0000
  H   H925      1.0  0.37312  0.50530  0.07801  1.0000
  H   H926      1.0  0.44171  0.48243  0.04447  1.0000
  H   H927      1.0  0.19582  0.71296  0.00985  1.0000
  C   C534      1.0  0.03219  0.55848  0.25046  1.0000
  C   C535      1.0  0.35703  0.48825  0.32289  1.0000
  C   C536      1.0  0.39854  0.50684  0.31858  1.0000
  H   H928      1.0  0.10103  0.65049  0.27184  1.0000
  N   N30       1.0  0.38242  0.48417  0.32864  1.0000
  H   H929      1.0  0.10897  0.71260  0.10226  1.0000
  H   H930      1.0  0.03229  0.71960  0.43106  1.0000
  Fe  Fe63      1.0  0.12824  0.71617  0.22205  1.0000
  C   C537      1.0  0.38909  0.49396  0.43175  1.0000
  H   H931      1.0  0.47832  0.59157  0.15742  1.0000
  H   H932      1.0  0.04887  0.65534  0.33362  1.0000
  H   H933      1.0  0.38058  0.51106  0.32057  1.0000
  H   H934      1.0  0.41606  0.58096  0.03052  1.0000
  C   C538      1.0  0.03626  0.62338  0.32851  1.0000
  C   C539      1.0  0.43135  0.61755  0.11077  1.0000
  C   C540      1.0  0.18825  0.60446  0.01818  1.0000
  H   H935      1.0  0.18241  0.61415  0.02263  1.0000
  H   H936      1.0  0.04222  0.61712  0.40145  1.0000
  H   H937      1.0  0.37327  0.49763  0.12158  1.0000
  H   H938      1.0  0.40908  0.48520  0.37079  1.0000
  H   H939      1.0  0.04849  0.55573  0.26546  1.0000
  H   H940      1.0  0.36705  0.63160  0.01146  1.0000
  H   H941      1.0  0.21625  0.70372  0.03688  1.0000
  C   C541      1.0  0.04863  0.64587  0.32015  1.0000
  H   H942      1.0  0.40798  0.59502  0.98940  1.0000
  H   H943      1.0  0.47026  0.58025  0.02484  1.0000
  C   C542      1.0  0.19421  0.70931  0.28502  1.0000
  C   C543      1.0  0.24553  0.48453  0.11742  1.0000
  C   C544      1.0  0.02628  0.54853  0.22150  1.0000
  Fe  Fe64      1.0  0.07893  0.72880  0.22086  1.0000
  H   H944      1.0  0.08147  0.68107  0.44566  1.0000
  H   H945      1.0  0.05875  0.72332  0.45585  1.0000
  H   H946      1.0  0.45169  0.69506  0.00037  1.0000
  N   N31       1.0  0.01443  0.52506  0.21301  1.0000
  H   H947      1.0  0.17362  0.48823  0.11026  1.0000
  H   H948      1.0  0.14734  0.49417  0.13317  1.0000
  H   H949      1.0  0.45189  0.49522  0.09337  1.0000
  C   C545      1.0  0.17614  0.48861  0.16956  1.0000
  H   H950      1.0  0.35340  0.49772  0.33504  1.0000
  H   H951      1.0  0.45042  0.49055  0.13933  1.0000
  H   H952      1.0  0.11833  0.55695  0.99383  1.0000
  C   C546      1.0  0.20214  0.70320  0.01588  1.0000
  H   H953      1.0  0.05431  0.61922  0.32528  1.0000
  H   H954      1.0  0.30817  0.48892  0.31313  1.0000
  C   C547      1.0  0.01058  0.51315  0.23444  1.0000
  H   H955      1.0  0.03232  0.72491  0.98010  1.0000
  C   C548      1.0  0.20841  0.54129  0.18747  1.0000
  C   C549      1.0  0.14802  0.50916  0.27547  1.0000
  C   C550      1.0  0.16280  0.51227  0.24195  1.0000
  H   H956      1.0  0.22679  0.54110  0.17685  1.0000
  H   H957      1.0  0.04412  0.50255  0.10959  1.0000
  H   H958      1.0  0.20989  0.69886  0.99080  1.0000
  H   H959      1.0  0.32495  0.63873  0.01239  1.0000
  C   C551      1.0  0.15097  0.67203  0.00840  1.0000
  H   H960      1.0  0.42596  0.67732  0.97868  1.0000
  C   C552      1.0  0.20391  0.72967  0.25245  1.0000
  H   H961      1.0  0.47007  0.65911  0.17587  1.0000
  H   H962      1.0  0.16401  0.48692  0.19265  1.0000
  H   H963      1.0  0.01006  0.55184  0.20741  1.0000
  H   H964      1.0  0.01172  0.69941  0.46292  1.0000
  H   H965      1.0  0.15261  0.64907  0.04908  1.0000
  H   H966      1.0  0.99801  0.70083  0.34802  1.0000
  H   H967      1.0  0.21386  0.48570  0.21314  1.0000
  H   H968      1.0  0.23105  0.49526  0.18398  1.0000
  H   H969      1.0  0.48413  0.61266  0.12951  1.0000
  C   C553      1.0  0.43404  0.56329  0.02001  1.0000
  H   H970      1.0  0.10508  0.68377  0.99408  1.0000
  H   H971      1.0  0.04282  0.49060  0.28381  1.0000
  H   H972      1.0  0.99389  0.53632  0.17486  1.0000
  H   H973      1.0  0.41969  0.48224  0.23106  1.0000
  C   C554      1.0  0.38961  0.48403  0.36837  1.0000
  H   H974      1.0  0.01735  0.55965  0.27003  1.0000
  H   H975      1.0  0.08861  0.65899  0.46388  1.0000
  H   H976      1.0  0.38813  0.48444  0.44430  1.0000
  H   H977      1.0  0.13159  0.70151  0.11498  1.0000
  S   S129      1.0  0.00773  0.65341  0.45958  1.0000
  H   H978      1.0  0.99780  0.64451  0.30190  1.0000
  H   H979      1.0  0.01418  0.49730  0.29436  1.0000
  H   H980      1.0  0.06948  0.72680  0.99347  1.0000
  H   H981      1.0  0.40767  0.50776  0.34524  1.0000
  H   H982      1.0  0.99876  0.57694  0.38180  1.0000
  C   C555      1.0  0.99125  0.52887  0.19566  1.0000
  H   H983      1.0  0.48297  0.65438  0.21868  1.0000
  C   C556      1.0  0.99070  0.59601  0.40093  1.0000
  C   C557      1.0  0.05145  0.71738  0.43360  1.0000
  H   H984      1.0  0.13433  0.66068  0.07254  1.0000
  H   H985      1.0  0.43031  0.51073  0.28686  1.0000
  H   H986      1.0  0.10233  0.69598  0.10417  1.0000
  C   C558      1.0  0.16175  0.69425  0.00153  1.0000
  H   H987      1.0  0.23439  0.58727  0.98405  1.0000
  H   H988      1.0  0.99873  0.51516  0.25790  1.0000
  H   H989      1.0  0.39287  0.49228  0.27751  1.0000
  H   H990      1.0  0.36762  0.48855  0.08044  1.0000
  H   H991      1.0  0.00410  0.62421  0.29551  1.0000
  C   C559      1.0  0.25905  0.48816  0.23945  1.0000
  C   C560      1.0  0.07414  0.72973  0.06545  1.0000
  H   H992      1.0  0.17003  0.69125  0.97524  1.0000
  S   S130      1.0  0.13985  0.49645  0.69437  1.0000
  C   C561      1.0  0.01225  0.69830  0.52195  1.0000
  Fe  Fe65      1.0  0.10976  0.49333  0.65472  1.0000
  S   S131      1.0  0.10306  0.50837  0.61085  1.0000
  Fe  Fe66      1.0  0.11530  0.49036  0.73909  1.0000
  S   S132      1.0  0.10954  0.50117  0.79415  1.0000
  H   H993      1.0  0.25803  0.72054  0.65014  1.0000
  C   C562      1.0  0.12616  0.68329  0.94465  1.0000
  H   H994      1.0  0.99830  0.70234  0.76956  1.0000
  Fe  Fe67      1.0  0.12641  0.71988  0.70934  1.0000
  H   H995      1.0  0.02327  0.50785  0.52717  1.0000
  H   H996      1.0  0.99502  0.57560  0.50565  1.0000
  H   H997      1.0  0.07659  0.48831  0.57334  1.0000
  S   S133      1.0  0.20819  0.67821  0.93019  1.0000
  H   H998      1.0  0.14503  0.54563  0.80918  1.0000
  S   S134      1.0  0.02750  0.66172  0.55533  1.0000
  Fe  Fe68      1.0  0.11471  0.70224  0.77318  1.0000
  S   S135      1.0  0.07694  0.70948  0.77589  1.0000
  S   S136      1.0  0.12672  0.68595  0.81032  1.0000
  H   H999      1.0  0.41601  0.68257  0.88276  1.0000
  H   H1000     1.0  0.05185  0.56000  0.58548  1.0000
  H   H1001     1.0  0.07133  0.54049  0.52128  1.0000
  Fe  Fe69      1.0  0.07716  0.70843  0.71417  1.0000
  S   S137      1.0  0.04408  0.70314  0.68146  1.0000
  H   H1002     1.0  0.10350  0.55321  0.49592  1.0000
  S   S138      1.0  0.11353  0.69977  0.71188  1.0000
  C   C563      1.0  0.03181  0.67363  0.58941  1.0000
  C   C564      1.0  0.01338  0.68145  0.60211  1.0000
  C   C565      1.0  0.01754  0.69048  0.62998  1.0000
  C   C566      1.0  0.04013  0.69183  0.64558  1.0000
  C   C567      1.0  0.05865  0.68416  0.63240  1.0000
  C   C568      1.0  0.05448  0.67512  0.60458  1.0000
  H   H1003     1.0  0.18743  0.68970  0.77811  1.0000
  H   H1004     1.0  0.00300  0.69626  0.64000  1.0000
  H   H1005     1.0  0.07610  0.68503  0.64411  1.0000
  H   H1006     1.0  0.06886  0.66909  0.59515  1.0000
  C   C569      1.0  0.18560  0.68001  0.89660  1.0000
  C   C570      1.0  0.17028  0.67024  0.88712  1.0000
  C   C571      1.0  0.15257  0.67224  0.86052  1.0000
  C   C572      1.0  0.14981  0.68401  0.84309  1.0000
  C   C573      1.0  0.16507  0.69380  0.85267  1.0000
  C   C574      1.0  0.18285  0.69179  0.87916  1.0000
  H   H1007     1.0  0.17212  0.66113  0.90015  1.0000
  H   H1008     1.0  0.14087  0.66459  0.85338  1.0000
  H   H1009     1.0  0.16318  0.70291  0.83969  1.0000
  H   H1010     1.0  0.19457  0.69943  0.88629  1.0000
  H   H1011     1.0  0.43810  0.70543  0.96724  1.0000
  H   H1012     1.0  0.06218  0.48192  0.87634  1.0000
  H   H1013     1.0  0.37829  0.67894  0.95736  1.0000
  N   N32       1.0  0.21140  0.72436  0.73841  1.0000
  C   C575      1.0  0.12399  0.50379  0.83738  1.0000
  C   C576      1.0  0.14608  0.49847  0.84607  1.0000
  C   C577      1.0  0.15655  0.50078  0.88064  1.0000
  C   C578      1.0  0.14531  0.50849  0.90728  1.0000
  C   C579      1.0  0.12324  0.51384  0.89853  1.0000
  C   C580      1.0  0.11272  0.51149  0.86403  1.0000
  H   H1014     1.0  0.21663  0.69733  0.73290  1.0000
  H   H1015     1.0  0.17361  0.49658  0.88675  1.0000
  H   H1016     1.0  0.11419  0.51976  0.91843  1.0000
  H   H1017     1.0  0.09568  0.51570  0.85790  1.0000
  C   C581      1.0  0.09456  0.51658  0.54085  1.0000
  C   C582      1.0  0.09163  0.50666  0.56575  1.0000
  C   C583      1.0  0.07894  0.49603  0.55459  1.0000
  C   C584      1.0  0.06893  0.49548  0.51930  1.0000
  H   H1018     1.0  0.10476  0.52473  0.54885  1.0000
  H   H1019     1.0  0.48707  0.71770  0.71699  1.0000
  H   H1020     1.0  0.12552  0.57074  0.96797  1.0000
  S   S139      1.0  0.08427  0.48862  0.69981  1.0000
  H   H1021     1.0  0.15407  0.53904  0.93705  1.0000
  H   H1022     1.0  0.08730  0.52361  0.48650  1.0000
  H   H1023     1.0  0.19022  0.53194  0.93258  1.0000
  H   H1024     1.0  0.23888  0.70497  0.77654  1.0000
  C   C585      1.0  0.16614  0.57024  0.92353  1.0000
  H   H1025     1.0  0.05682  0.49783  0.76418  1.0000
  C   C586      1.0  0.22707  0.53603  0.92979  1.0000
  H   H1026     1.0  0.46009  0.66223  0.92609  1.0000
  C   C587      1.0  0.00969  0.51446  0.51616  1.0000
  C   C588      1.0  0.02001  0.52759  0.51059  1.0000
  H   H1027     1.0  0.00352  0.51062  0.48955  1.0000
  H   H1028     1.0  0.18962  0.59928  0.89721  1.0000
  H   H1029     1.0  0.00938  0.68794  0.52123  1.0000
  H   H1030     1.0  0.02954  0.72123  0.73817  1.0000
  H   H1031     1.0  0.17458  0.59556  0.93886  1.0000
  H   H1032     1.0  0.05211  0.50157  0.81175  1.0000
  H   H1033     1.0  0.14187  0.68791  0.93304  1.0000
  H   H1034     1.0  0.44583  0.60327  0.96768  1.0000
  H   H1035     1.0  0.26238  0.71754  0.82055  1.0000
  H   H1036     1.0  0.40533  0.62340  0.97197  1.0000
  H   H1037     1.0  0.16755  0.57207  0.95341  1.0000
  N   N33       1.0  0.42362  0.66888  0.92489  1.0000
  H   H1038     1.0  0.00310  0.71882  0.66007  1.0000
  C   C589      1.0  0.04507  0.49627  0.78787  1.0000
  H   H1039     1.0  0.99142  0.72345  0.95839  1.0000
  H   H1040     1.0  0.23949  0.54182  0.91378  1.0000
  C   C590      1.0  0.24838  0.71334  0.76636  1.0000
  H   H1041     1.0  0.39584  0.65522  0.91633  1.0000
  H   H1042     1.0  0.08885  0.68182  0.93042  1.0000
  C   C591      1.0  0.15382  0.54062  0.86521  1.0000
  C   C592      1.0  0.99827  0.72302  0.77194  1.0000
  C   C593      1.0  0.08459  0.51602  0.50556  1.0000
  C   C594      1.0  0.19432  0.71403  0.74856  1.0000
  C   C595      1.0  0.08149  0.72796  0.92659  1.0000
  H   H1043     1.0  0.19324  0.70103  0.70159  1.0000
  H   H1044     1.0  0.38187  0.61218  0.96757  1.0000
  H   H1045     1.0  0.20087  0.53632  0.88809  1.0000
  H   H1046     1.0  0.22973  0.71334  0.69648  1.0000
  C   C596      1.0  0.42740  0.68021  0.94959  1.0000
  C   C597      1.0  0.00685  0.72858  0.65143  1.0000
  S   S140      1.0  0.15974  0.51115  0.95051  1.0000
  H   H1047     1.0  0.99384  0.70908  0.81445  1.0000
  H   H1048     1.0  0.47502  0.71442  0.79770  1.0000
  H   H1049     1.0  0.99582  0.68036  0.59101  1.0000
  C   C598      1.0  0.18247  0.69091  0.74902  1.0000
  H   H1050     1.0  0.02285  0.70903  0.79438  1.0000
  H   H1051     1.0  0.03383  0.52670  0.48929  1.0000
  C   C599      1.0  0.08986  0.56028  0.48762  1.0000
  H   H1052     1.0  0.24368  0.48418  0.56356  1.0000
  H   H1053     1.0  0.09257  0.54133  0.64381  1.0000
  H   H1054     1.0  0.12170  0.55733  0.90981  1.0000
  H   H1055     1.0  0.13500  0.54014  0.87332  1.0000
  H   H1056     1.0  0.09651  0.71596  0.88367  1.0000
  C   C600      1.0  0.16405  0.55379  0.87547  1.0000
  H   H1057     1.0  0.12889  0.67287  0.94330  1.0000
  H   H1058     1.0  0.43179  0.67424  0.81029  1.0000
  H   H1059     1.0  0.37882  0.67854  0.90815  1.0000
  H   H1060     1.0  0.45788  0.62914  0.89565  1.0000
  C   C601      1.0  0.04715  0.54986  0.58350  1.0000
  C   C602      1.0  0.02332  0.70276  0.48563  1.0000
  H   H1061     1.0  0.01493  0.55509  0.50577  1.0000
  H   H1062     1.0  0.48438  0.60675  0.96435  1.0000
  C   C603      1.0  0.06903  0.54225  0.59728  1.0000
  C   C604      1.0  0.99396  0.57536  0.53587  1.0000
  C   C605      1.0  0.23149  0.72496  0.76534  1.0000
  C   C606      1.0  0.01514  0.56815  0.55176  1.0000
  S   S141      1.0  0.25092  0.64887  0.96595  1.0000
  C   C607      1.0  0.17617  0.59305  0.90945  1.0000
  C   C608      1.0  0.35512  0.66547  0.93298  1.0000
  H   H1063     1.0  0.10192  0.69690  0.91966  1.0000
  C   C609      1.0  0.06958  0.56078  0.51511  1.0000
  H   H1064     1.0  0.09719  0.56350  0.96251  1.0000
  H   H1065     1.0  0.01824  0.53130  0.56896  1.0000
  S   S142      1.0  0.13023  0.72165  0.77041  1.0000
  C   C610      1.0  0.39994  0.66338  0.93456  1.0000
  H   H1066     1.0  0.17356  0.53784  0.81467  1.0000
  H   H1067     1.0  0.06667  0.72153  0.93207  1.0000
  H   H1068     1.0  0.46273  0.67794  0.81328  1.0000
  H   H1069     1.0  0.45174  0.69154  0.91727  1.0000
  H   H1070     1.0  0.99378  0.58526  0.54632  1.0000
  H   H1071     1.0  0.46195  0.67642  0.87981  1.0000
  C   C611      1.0  0.15249  0.54945  0.94058  1.0000
  H   H1072     1.0  0.01269  0.56789  0.58179  1.0000
  H   H1073     1.0  0.05692  0.56810  0.50555  1.0000
  C   C612      1.0  0.20159  0.53855  0.91767  1.0000
  H   H1074     1.0  0.21002  0.49135  0.60206  1.0000
  C   C613      1.0  0.10489  0.70860  0.53398  1.0000
  H   H1075     1.0  0.46634  0.68104  0.94921  1.0000
  C   C614      1.0  0.19421  0.55252  0.92479  1.0000
  H   H1076     1.0  0.06500  0.53207  0.60054  1.0000
  S   S143      1.0  0.15487  0.72338  0.66657  1.0000
  H   H1077     1.0  0.02371  0.70056  0.54560  1.0000
  H   H1078     1.0  0.07744  0.48311  0.82254  1.0000
  H   H1079     1.0  0.19368  0.71286  0.77870  1.0000
  H   H1080     1.0  0.42639  0.64010  0.93097  1.0000
  H   H1081     1.0  0.20155  0.57827  0.91739  1.0000
  H   H1082     1.0  0.04636  0.52643  0.55194  1.0000
  C   C615      1.0  0.00368  0.71006  0.78848  1.0000
  H   H1083     1.0  0.07427  0.72690  0.86834  1.0000
  C   C616      1.0  0.15493  0.53816  0.82413  1.0000
  C   C617      1.0  0.26896  0.71564  0.79247  1.0000
  C   C618      1.0  0.10500  0.68651  0.92039  1.0000
  C   C619      1.0  0.12576  0.55291  0.93641  1.0000
  H   H1084     1.0  0.01323  0.60962  0.47746  1.0000
  H   H1085     1.0  0.99446  0.51499  0.53518  1.0000
  H   H1086     1.0  0.15897  0.59488  0.89576  1.0000
  H   H1087     1.0  0.16357  0.69382  0.74743  1.0000
  Fe  Fe70      1.0  0.99618  0.65799  0.51723  1.0000
  C   C620      1.0  0.44727  0.67210  0.86440  1.0000
  H   H1088     1.0  0.00256  0.71732  0.71693  1.0000
  N   N34       1.0  0.03838  0.54652  0.54576  1.0000
  C   C621      1.0  0.03102  0.53281  0.54637  1.0000
  H   H1089     1.0  0.16318  0.53271  0.87879  1.0000
  H   H1090     1.0  0.42995  0.64692  0.88682  1.0000
  Fe  Fe71      1.0  0.09246  0.72877  0.76976  1.0000
  C   C622      1.0  0.37840  0.67262  0.93294  1.0000
  H   H1091     1.0  0.22933  0.53825  0.95922  1.0000
  C   C623      1.0  0.46148  0.63844  0.90872  1.0000
  C   C624      1.0  0.45259  0.69843  0.97184  1.0000
  C   C625      1.0  0.43835  0.64586  0.91396  1.0000
  H   H1092     1.0  0.05675  0.71338  0.51852  1.0000
  H   H1093     1.0  0.07709  0.56371  0.54171  1.0000
  H   H1094     1.0  0.18036  0.55520  0.85912  1.0000
  C   C626      1.0  0.44549  0.67873  0.82763  1.0000
  S   S144      1.0  0.08995  0.72846  0.70837  1.0000
  H   H1095     1.0  0.02725  0.50013  0.78128  1.0000
  C   C627      1.0  0.04351  0.48216  0.79630  1.0000
  C   C628      1.0  0.22595  0.48026  0.55813  1.0000
  H   H1096     1.0  0.10845  0.68311  0.89212  1.0000
  C   C629      1.0  0.07136  0.50556  0.49475  1.0000
  C   C630      1.0  0.42333  0.67277  0.88527  1.0000
  H   H1097     1.0  0.09865  0.69862  0.48388  1.0000
  H   H1098     1.0  0.09182  0.71510  0.48241  1.0000
  H   H1099     1.0  0.18522  0.57704  0.87514  1.0000
  H   H1100     1.0  0.41099  0.66678  0.86917  1.0000
  H   H1101     1.0  0.11547  0.54402  0.93723  1.0000
  H   H1102     1.0  0.47023  0.63673  0.93526  1.0000
  H   H1103     1.0  0.35326  0.65973  0.90764  1.0000
  H   H1104     1.0  0.03146  0.48124  0.81986  1.0000
  C   C631      1.0  0.18379  0.57919  0.90473  1.0000
  H   H1105     1.0  0.15520  0.49261  0.82610  1.0000
  N   N35       1.0  0.16907  0.55624  0.91543  1.0000
  C   C632      1.0  0.19812  0.70072  0.73095  1.0000
  C   C633      1.0  0.45085  0.68736  0.94481  1.0000
  H   H1106     1.0  0.18462  0.68162  0.73492  1.0000
  H   H1107     1.0  0.00564  0.53381  0.50015  1.0000
  H   H1108     1.0  0.06283  0.54622  0.65499  1.0000
  H   H1109     1.0  0.19787  0.55483  0.95396  1.0000
  H   H1110     1.0  0.09818  0.56972  0.48611  1.0000
  H   H1111     1.0  0.45247  0.66211  0.85885  1.0000
  H   H1112     1.0  0.25602  0.71117  0.73918  1.0000
  H   H1113     1.0  0.44304  0.65710  0.96282  1.0000
  H   H1114     1.0  0.08414  0.54311  0.57831  1.0000
  H   H1115     1.0  0.14686  0.52886  0.81769  1.0000
  H   H1116     1.0  0.06351  0.69784  0.53306  1.0000
  H   H1117     1.0  0.40771  0.61054  0.93914  1.0000
  H   H1118     1.0  0.03269  0.54859  0.60369  1.0000
  C   C634      1.0  0.01083  0.72448  0.73489  1.0000
  C   C635      1.0  0.47764  0.72553  0.84696  1.0000
  H   H1119     1.0  0.15779  0.55101  0.96953  1.0000
  H   H1120     1.0  0.21679  0.48637  0.53794  1.0000
  C   C636      1.0  0.05737  0.54780  0.51730  1.0000
  H   H1121     1.0  0.14816  0.57357  0.91558  1.0000
  C   C637      1.0  0.44220  0.65890  0.93295  1.0000
  H   H1122     1.0  0.12357  0.71038  0.52674  1.0000
  H   H1123     1.0  0.15120  0.56090  0.86463  1.0000
  H   H1124     1.0  0.20690  0.55804  0.90852  1.0000
  N   N36       1.0  0.04865  0.69867  0.47882  1.0000
  C   C638      1.0  0.40134  0.61327  0.96678  1.0000
  C   C639      1.0  0.09032  0.70651  0.49935  1.0000
  H   H1125     1.0  0.34004  0.67229  0.93470  1.0000
  H   H1126     1.0  0.41331  0.68748  0.94537  1.0000
  H   H1127     1.0  0.45276  0.71024  0.85528  1.0000
  H   H1128     1.0  0.08576  0.67958  0.49449  1.0000
  H   H1129     1.0  0.28062  0.70709  0.79316  1.0000
  C   C640      1.0  0.21198  0.48126  0.59363  1.0000
  H   H1130     1.0  0.10450  0.70005  0.55143  1.0000
  C   C641      1.0  0.06401  0.70410  0.50871  1.0000
  H   H1131     1.0  0.03116  0.57365  0.54610  1.0000
  H   H1132     1.0  0.47376  0.64372  0.89103  1.0000
  H   H1133     1.0  0.17602  0.71676  0.74037  1.0000
  C   C642      1.0  0.11628  0.56156  0.96697  1.0000
  H   H1134     1.0  0.04420  0.68082  0.50649  1.0000
  H   H1135     1.0  0.44105  0.68892  0.83149  1.0000
  H   H1136     1.0  0.09789  0.71684  0.54982  1.0000
  H   H1137     1.0  0.23630  0.48215  0.48627  1.0000
  Fe  Fe72      1.0  0.22033  0.66287  0.97073  1.0000
  H   H1138     1.0  0.09655  0.72516  0.94439  1.0000
  H   H1139     1.0  0.05897  0.48727  0.51110  1.0000
  C   C643      1.0  0.07716  0.54709  0.63455  1.0000
  H   H1140     1.0  0.40045  0.65944  0.96264  1.0000
  C   C644      1.0  0.08942  0.72575  0.88718  1.0000
  H   H1141     1.0  0.48110  0.70794  0.87743  1.0000
  H   H1142     1.0  0.23162  0.52587  0.92534  1.0000
  H   H1143     1.0  0.05014  0.54588  0.48958  1.0000
  C   C645      1.0  0.01681  0.55447  0.53598  1.0000
  H   H1144     1.0  0.00036  0.54984  0.54546  1.0000
  H   H1145     1.0  0.02991  0.72901  0.93238  1.0000
  C   C646      1.0  0.46722  0.71504  0.87019  1.0000
  H   H1146     1.0  0.46972  0.70325  0.96812  1.0000
  H   H1147     1.0  0.08259  0.55714  0.63294  1.0000
  H   H1148     1.0  0.35425  0.65912  0.95684  1.0000
  H   H1149     1.0  0.16977  0.72738  0.49608  1.0000
  H   H1150     1.0  0.03763  0.72247  0.61979  1.0000
  H   H1151     1.0  0.27959  0.72378  0.78332  1.0000
  H   H1152     1.0  0.45992  0.71916  0.89584  1.0000
  H   H1153     1.0  0.21166  0.72362  0.51089  1.0000
  H   H1154     1.0  0.01007  0.72192  0.59548  1.0000
  H   H1155     1.0  0.06318  0.65958  0.49336  1.0000
  C   C647      1.0  0.02047  0.72748  0.61552  1.0000
  H   H1156     1.0  0.20452  0.72163  0.68106  1.0000
  C   C648      1.0  0.21995  0.72244  0.69970  1.0000
  H   H1157     1.0  0.02173  0.71326  0.48609  1.0000
  H   H1158     1.0  0.03356  0.58862  0.48024  1.0000
  C   C649      1.0  0.04938  0.68436  0.47929  1.0000
  H   H1159     1.0  0.23197  0.72672  0.62744  1.0000
  H   H1160     1.0  0.22448  0.72604  0.79355  1.0000
  H   H1161     1.0  0.18901  0.72915  0.61187  1.0000
  H   H1162     1.0  0.48551  0.50141  0.71014  1.0000
  H   H1163     1.0  0.46666  0.73011  0.75621  1.0000
  C   C650      1.0  0.24624  0.72896  0.64716  1.0000
  H   H1164     1.0  0.48720  0.49891  0.75865  1.0000
  H   H1165     1.0  0.98996  0.71505  0.53139  1.0000
  H   H1166     1.0  0.01867  0.87951  0.01557  1.0000
  H   H1167     1.0  0.10190  0.73671  0.42705  1.0000
  S   S145      1.0  0.12632  0.75104  0.32178  1.0000
  C   C651      1.0  0.24432  0.75200  0.33261  1.0000
  H   H1168     1.0  0.41567  0.75167  0.44573  1.0000
  S   S146      1.0  0.11568  0.73655  0.22220  1.0000
  S   S147      1.0  0.02909  0.77553  0.05803  1.0000
  S   S148      1.0  0.11561  0.96883  0.23599  1.0000
  S   S149      1.0  0.21359  0.75847  0.43149  1.0000
  H   H1169     1.0  0.29236  0.96877  0.02558  1.0000
  H   H1170     1.0  0.23089  0.97435  0.17053  1.0000
  S   S150      1.0  0.14799  0.95030  0.18343  1.0000
  C   C652      1.0  0.04691  0.89323  0.02364  1.0000
  Fe  Fe73      1.0  0.08548  0.96506  0.19753  1.0000
  S   S151      1.0  0.09256  0.94401  0.19632  1.0000
  H   H1171     1.0  0.11532  0.88997  0.10882  1.0000
  Fe  Fe74      1.0  0.12405  0.94798  0.23239  1.0000
  S   S152      1.0  0.13153  0.93418  0.28023  1.0000
  Fe  Fe75      1.0  0.11547  0.94794  0.14796  1.0000
  S   S153      1.0  0.11764  0.93525  0.09696  1.0000
  H   H1172     1.0  0.46566  0.77716  0.36199  1.0000
  S   S154      1.0  0.10644  0.96879  0.14683  1.0000
  H   H1173     1.0  0.01629  0.94747  0.23274  1.0000
  C   C653      1.0  0.21218  0.75003  0.28472  1.0000
  C   C654      1.0  0.46673  0.77393  0.39075  1.0000
  H   H1174     1.0  0.43740  0.74021  0.43022  1.0000
  C   C655      1.0  0.13607  0.93317  0.32866  1.0000
  C   C656      1.0  0.13874  0.92114  0.34469  1.0000
  C   C657      1.0  0.14162  0.91975  0.38284  1.0000
  C   C658      1.0  0.14175  0.93042  0.40582  1.0000
  C   C659      1.0  0.13938  0.94246  0.38977  1.0000
  C   C660      1.0  0.13681  0.94385  0.35159  1.0000
  H   H1175     1.0  0.13834  0.91277  0.32745  1.0000
  H   H1176     1.0  0.14337  0.91041  0.39448  1.0000
  H   H1177     1.0  0.13959  0.95082  0.40706  1.0000
  H   H1178     1.0  0.13528  0.95319  0.33996  1.0000
  C   C661      1.0  0.08686  0.92444  0.00104  1.0000
  C   C662      1.0  0.10306  0.92638  0.02980  1.0000
  C   C663      1.0  0.09662  0.93340  0.06117  1.0000
  C   C664      1.0  0.07370  0.93846  0.06346  1.0000
  C   C665      1.0  0.05750  0.93652  0.03471  1.0000
  H   H1179     1.0  0.12076  0.92246  0.02769  1.0000
  H   H1180     1.0  0.06843  0.94376  0.08750  1.0000
  C   C666      1.0  0.17321  0.76251  0.23990  1.0000
  H   H1181     1.0  0.02314  0.93348  0.28649  1.0000
  H   H1182     1.0  0.18468  0.76635  0.21839  1.0000
  H   H1183     1.0  0.12591  0.73391  0.39604  1.0000
  H   H1184     1.0  0.21121  0.93727  0.29253  1.0000
  H   H1185     1.0  0.06872  0.74886  0.04896  1.0000
  H   H1186     1.0  0.00307  0.77999  0.12850  1.0000
  Fe  Fe76      1.0  0.99903  0.78014  0.01778  1.0000
  C   C667      1.0  0.06394  0.92949  0.00335  1.0000
  H   H1187     1.0  0.04090  0.89432  0.05231  1.0000
  C   C668      1.0  0.15042  0.75280  0.35284  1.0000
  C   C669      1.0  0.15359  0.76453  0.37065  1.0000
  C   C670      1.0  0.17246  0.76641  0.39534  1.0000
  C   C671      1.0  0.18864  0.75658  0.40224  1.0000
  C   C672      1.0  0.18531  0.74480  0.38474  1.0000
  C   C673      1.0  0.16624  0.74288  0.36055  1.0000
  H   H1188     1.0  0.14142  0.77227  0.36517  1.0000
  H   H1189     1.0  0.17474  0.77553  0.40844  1.0000
  H   H1190     1.0  0.10012  0.97597  0.36135  1.0000
  C   C674      1.0  0.20825  0.74444  0.18021  1.0000
  C   C675      1.0  0.04339  0.74580  0.14793  1.0000
  C   C676      1.0  0.02301  0.74504  0.12592  1.0000
  C   C677      1.0  0.01855  0.75387  0.09791  1.0000
  C   C678      1.0  0.03419  0.76377  0.09196  1.0000
  C   C679      1.0  0.05463  0.76449  0.11377  1.0000
  C   C680      1.0  0.05929  0.75555  0.14140  1.0000
  H   H1191     1.0  0.13528  0.76215  0.25006  1.0000
  H   H1192     1.0  0.44864  0.76723  0.45743  1.0000
  H   H1193     1.0  0.06692  0.77207  0.10941  1.0000
  H   H1194     1.0  0.07504  0.75628  0.15795  1.0000
  H   H1195     1.0  0.03982  0.94047  0.03684  1.0000
  N   N37       1.0  0.05878  0.94559  0.32248  1.0000
  C   C681      1.0  0.05471  0.94555  0.28185  1.0000
  C   C682      1.0  0.07850  0.95461  0.33120  1.0000
  C   C683      1.0  0.06726  0.93245  0.33281  1.0000
  C   C684      1.0  0.03676  0.94894  0.34404  1.0000
  C   C685      1.0  0.01854  0.95809  0.32588  1.0000
  C   C686      1.0  0.03785  0.93518  0.26729  1.0000
  C   C687      1.0  0.07435  0.93061  0.37336  1.0000
  H   H1196     1.0  0.00303  0.75302  0.08095  1.0000
  H   H1197     1.0  0.00799  0.80002  0.09371  1.0000
  C   C688      1.0  0.07395  0.96878  0.32292  1.0000
  H   H1198     1.0  0.18606  0.94193  0.42496  1.0000
  C   C689      1.0  0.07786  0.91659  0.38221  1.0000
  H   H1199     1.0  0.07182  0.94417  0.26732  1.0000
  H   H1200     1.0  0.04809  0.95487  0.27250  1.0000
  H   H1201     1.0  0.06112  0.73152  0.39374  1.0000
  H   H1202     1.0  0.09476  0.95160  0.31617  1.0000
  H   H1203     1.0  0.08278  0.92953  0.31578  1.0000
  H   H1204     1.0  0.05335  0.92538  0.32697  1.0000
  H   H1205     1.0  0.02673  0.94025  0.35062  1.0000
  H   H1206     1.0  0.04172  0.95304  0.37104  1.0000
  H   H1207     1.0  0.01587  0.93091  0.22032  1.0000
  H   H1208     1.0  0.21977  0.90503  0.37690  1.0000
  H   H1209     1.0  0.04786  0.92611  0.26379  1.0000
  H   H1210     1.0  0.47532  0.78253  0.44328  1.0000
  H   H1211     1.0  0.06074  0.93457  0.39213  1.0000
  H   H1212     1.0  0.09133  0.93529  0.37926  1.0000
  C   C690      1.0  0.46764  0.73524  0.34131  1.0000
  H   H1213     1.0  0.16677  0.74558  0.26970  1.0000
  H   H1214     1.0  0.00657  0.80900  0.13603  1.0000
  H   H1215     1.0  0.23194  0.84838  0.47182  1.0000
  H   H1216     1.0  0.16362  0.73369  0.34819  1.0000
  H   H1217     1.0  0.01348  0.96278  0.08976  1.0000
  C   C691      1.0  0.99990  0.96267  0.35324  1.0000
  H   H1218     1.0  0.06109  0.76215  0.00525  1.0000
  H   H1219     1.0  0.00957  0.90714  0.99360  1.0000
  H   H1220     1.0  0.08302  0.95434  0.36065  1.0000
  H   H1221     1.0  0.28575  0.93429  0.37178  1.0000
  H   H1222     1.0  0.03053  0.79786  0.12771  1.0000
  H   H1223     1.0  0.06091  0.91148  0.37977  1.0000
  C   C692      1.0  0.30493  0.80654  0.43482  1.0000
  H   H1224     1.0  0.21257  0.95053  0.41994  1.0000
  C   C693      1.0  0.06369  0.73935  0.03886  1.0000
  C   C694      1.0  0.46834  0.78561  0.41648  1.0000
  N   N38       1.0  0.44717  0.76485  0.39899  1.0000
  H   H1225     1.0  0.21299  0.89211  0.43307  1.0000
  C   C695      1.0  0.20726  0.91817  0.42077  1.0000
  H   H1226     1.0  0.21924  0.91499  0.44312  1.0000
  H   H1227     1.0  0.14347  0.76077  0.20243  1.0000
  C   C696      1.0  0.07312  0.73687  0.99972  1.0000
  C   C697      1.0  0.99727  0.78909  0.14096  1.0000
  H   H1228     1.0  0.09275  0.73751  0.00080  1.0000
  H   H1229     1.0  0.14517  0.77581  0.22583  1.0000
  H   H1230     1.0  0.21241  0.76050  0.28191  1.0000
  H   H1231     1.0  0.26184  0.97119  0.97626  1.0000
  H   H1232     1.0  0.32403  0.80644  0.42794  1.0000
  C   C698      1.0  0.13639  0.74163  0.44869  1.0000
  H   H1233     1.0  0.05071  0.90298  0.01392  1.0000
  H   H1234     1.0  0.28951  0.92434  0.41140  1.0000
  C   C699      1.0  0.28250  0.92476  0.38311  1.0000
  H   H1235     1.0  0.30519  0.82544  0.45595  1.0000
  C   C700      1.0  0.42327  0.77139  0.39829  1.0000
  H   H1236     1.0  0.05945  0.97258  0.34027  1.0000
  H   H1237     1.0  0.04419  0.73856  0.03990  1.0000
  H   H1238     1.0  0.07250  0.88642  0.09776  1.0000
  Fe  Fe77      1.0  0.11428  0.73488  0.28360  1.0000
  H   H1239     1.0  0.19597  0.88681  0.39444  1.0000
  H   H1240     1.0  0.06884  0.90289  0.08547  1.0000
  H   H1241     1.0  0.15485  0.73826  0.44471  1.0000
  H   H1242     1.0  0.22102  0.75830  0.21956  1.0000
  H   H1243     1.0  0.09737  0.90102  0.13484  1.0000
  H   H1244     1.0  0.20677  0.95417  0.29594  1.0000
  C   C701      1.0  0.07778  0.88487  0.98257  1.0000
  H   H1245     1.0  0.09329  0.90038  0.03169  1.0000
  H   H1246     1.0  0.10400  0.88531  0.04546  1.0000
  H   H1247     1.0  0.42053  0.77732  0.42323  1.0000
  C   C702      1.0  0.22551  0.74828  0.15042  1.0000
  C   C703      1.0  0.43448  0.74870  0.44776  1.0000
  H   H1248     1.0  0.00884  0.96220  0.02784  1.0000
  H   H1249     1.0  0.11196  0.90624  0.09426  1.0000
  C   C704      1.0  0.10281  0.89813  0.10686  1.0000
  H   H1250     1.0  0.18888  0.90882  0.37527  1.0000
  H   H1251     1.0  0.13485  0.75145  0.43850  1.0000
  S   S155      1.0  0.04782  0.97139  0.21128  1.0000
  H   H1252     1.0  0.37104  0.78431  0.45988  1.0000
  N   N39       1.0  0.21557  0.93058  0.40524  1.0000
  C   C705      1.0  0.20606  0.93229  0.36707  1.0000
  C   C706      1.0  0.12052  0.73334  0.42503  1.0000
  H   H1253     1.0  0.23579  0.74352  0.22064  1.0000
  C   C707      1.0  0.24212  0.93137  0.40673  1.0000
  C   C708      1.0  0.25613  0.92186  0.38250  1.0000
  C   C709      1.0  0.21192  0.94492  0.34809  1.0000
  H   H1254     1.0  0.43046  0.78788  0.36363  1.0000
  H   H1255     1.0  0.21812  0.74576  0.12328  1.0000
  H   H1256     1.0  0.19752  0.73707  0.39011  1.0000
  C   C710      1.0  0.19836  0.89471  0.41425  1.0000
  C   C711      1.0  0.20273  0.94499  0.30887  1.0000
  H   H1257     1.0  0.24268  0.74319  0.15368  1.0000
  H   H1258     1.0  0.21223  0.92458  0.34857  1.0000
  C   C712      1.0  0.21786  0.74793  0.21864  1.0000
  C   C713      1.0  0.00453  0.89795  0.00562  1.0000
  C   C714      1.0  0.20556  0.94125  0.42859  1.0000
  C   C715      1.0  0.29352  0.97925  0.02727  1.0000
  H   H1259     1.0  0.24792  0.94111  0.40019  1.0000
  H   H1260     1.0  0.18334  0.97406  0.12169  1.0000
  H   H1261     1.0  0.25028  0.92215  0.35370  1.0000
  H   H1262     1.0  0.18648  0.93154  0.36738  1.0000
  H   H1263     1.0  0.20335  0.95307  0.36241  1.0000
  H   H1264     1.0  0.00915  0.95319  0.30339  1.0000
  H   H1265     1.0  0.37975  0.77792  0.36711  1.0000
  H   H1266     1.0  0.26281  0.74935  0.33964  1.0000
  H   H1267     1.0  0.18961  0.91946  0.43370  1.0000
  H   H1268     1.0  0.01753  0.97379  0.12652  1.0000
  S   S156      1.0  0.04789  0.73437  0.18300  1.0000
  C   C716      1.0  0.14771  0.76543  0.22886  1.0000
  C   C717      1.0  0.02057  0.97222  0.09692  1.0000
  H   H1269     1.0  0.11644  0.88561  0.98489  1.0000
  H   H1270     1.0  0.16914  0.74277  0.22246  1.0000
  H   H1271     1.0  0.23945  0.73561  0.29880  1.0000
  C   C718      1.0  0.04718  0.84998  0.02723  1.0000
  C   C719      1.0  0.08106  0.89456  0.08449  1.0000
  Fe  Fe78      1.0  0.13757  0.97096  0.18483  1.0000
  H   H1272     1.0  0.09216  0.91911  0.97702  1.0000
  C   C720      1.0  0.20396  0.90686  0.39388  1.0000
  H   H1273     1.0  0.19121  0.74938  0.17473  1.0000
  C   C721      1.0  0.09576  0.97661  0.33188  1.0000
  H   H1274     1.0  0.43182  0.74833  0.37327  1.0000
  H   H1275     1.0  0.39102  0.79143  0.39205  1.0000
  H   H1276     1.0  0.10510  0.87020  0.99407  1.0000
  H   H1277     1.0  0.11122  0.97324  0.31574  1.0000
  H   H1278     1.0  0.21566  0.97960  0.07911  1.0000
  N   N40       1.0  0.06900  0.88507  0.02143  1.0000
  H   H1279     1.0  0.18176  0.89591  0.43012  1.0000
  H   H1280     1.0  0.01066  0.73750  0.13047  1.0000
  C   C722      1.0  0.45104  0.75959  0.43662  1.0000
  H   H1281     1.0  0.25399  0.96729  0.19766  1.0000
  H   H1282     1.0  0.17665  0.76774  0.26573  1.0000
  H   H1283     1.0  0.06111  0.84575  0.04484  1.0000
  H   H1284     1.0  0.99931  0.89956  0.03449  1.0000
  C   C723      1.0  0.44747  0.75449  0.37037  1.0000
  H   H1285     1.0  0.22845  0.75865  0.15135  1.0000
  C   C724      1.0  0.06459  0.87196  0.03608  1.0000
  H   H1286     1.0  0.29972  0.79686  0.44280  1.0000
  H   H1287     1.0  0.05131  0.96883  0.06223  1.0000
  H   H1288     1.0  0.02683  0.96653  0.31406  1.0000
  H   H1289     1.0  0.41949  0.77432  0.33908  1.0000
  C   C725      1.0  0.04723  0.97190  0.09061  1.0000
  H   H1290     1.0  0.06714  0.73159  0.09326  1.0000
  H   H1291     1.0  0.29470  0.80924  0.41018  1.0000
  H   H1292     1.0  0.45102  0.79036  0.42100  1.0000
  H   H1293     1.0  0.08085  0.86794  0.04890  1.0000
  H   H1294     1.0  0.00192  0.78895  0.17039  1.0000
  H   H1295     1.0  0.18327  0.94376  0.30832  1.0000
  S   S157      1.0  0.14484  0.92939  0.45445  1.0000
  C   C726      1.0  0.05631  0.86173  0.00815  1.0000
  H   H1296     1.0  0.40897  0.76430  0.39927  1.0000
  H   H1297     1.0  0.06963  0.97029  0.29377  1.0000
  C   C727      1.0  0.41806  0.77986  0.36483  1.0000
  H   H1298     1.0  0.05565  0.96507  0.10964  1.0000
  H   H1299     1.0  0.24850  0.92971  0.43501  1.0000
  H   H1300     1.0  0.38976  0.79162  0.34294  1.0000
  C   C728      1.0  0.39310  0.78553  0.36696  1.0000
  C   C729      1.0  0.46998  0.74592  0.36940  1.0000
  H   H1301     1.0  0.44580  0.75863  0.34272  1.0000
  H   H1302     1.0  0.20008  0.74835  0.30799  1.0000
  H   H1303     1.0  0.25420  0.91214  0.39318  1.0000
  H   H1304     1.0  0.99043  0.95452  0.36497  1.0000
  H   H1305     1.0  0.24288  0.76249  0.33150  1.0000
  H   H1306     1.0  0.47788  0.79955  0.37577  1.0000
  C   C730      1.0  0.08777  0.89137  0.04442  1.0000
  H   H1307     1.0  0.20547  0.73410  0.17744  1.0000
  H   H1308     1.0  0.99760  0.97438  0.99898  1.0000
  C   C731      1.0  0.23760  0.74602  0.29600  1.0000
  H   H1309     1.0  0.23125  0.94640  0.34713  1.0000
  H   H1310     1.0  0.09106  0.91214  0.36354  1.0000
  C   C732      1.0  0.17742  0.74808  0.24543  1.0000
  C   C733      1.0  0.02497  0.88836  0.00303  1.0000
  H   H1311     1.0  0.23265  0.74857  0.35461  1.0000
  H   H1312     1.0  0.47344  0.74148  0.39617  1.0000
  H   H1313     1.0  0.25055  0.74919  0.27546  1.0000
  H   H1314     1.0  0.04138  0.94021  0.21000  1.0000
  H   H1315     1.0  0.29226  0.91763  0.36623  1.0000
  C   C734      1.0  0.02724  0.93868  0.23034  1.0000
  H   H1316     1.0  0.05145  0.87251  0.05864  1.0000
  C   C735      1.0  0.01135  0.79969  0.12355  1.0000
  N   N41       1.0  0.20285  0.74394  0.25037  1.0000
  H   H1317     1.0  0.03140  0.85240  0.04398  1.0000
  H   H1318     1.0  0.08447  0.91563  0.41061  1.0000
  H   H1319     1.0  0.00821  0.96821  0.37560  1.0000
  C   C736      1.0  0.24532  0.97640  0.19014  1.0000
  Fe  Fe79      1.0  0.22416  0.77338  0.47460  1.0000
  H   H1320     1.0  0.29195  0.97881  0.20603  1.0000
  H   H1321     1.0  0.04211  0.86523  0.99008  1.0000
  H   H1322     1.0  0.28037  0.81625  0.47004  1.0000
  H   H1323     1.0  0.08981  0.75912  0.98714  1.0000
  C   C737      1.0  0.07063  0.75883  0.98035  1.0000
  C   C738      1.0  0.48515  0.79542  0.40122  1.0000
  H   H1324     1.0  0.98905  0.89430  0.99045  1.0000
  H   H1325     1.0  0.21514  0.97739  0.98526  1.0000
  S   S158      1.0  0.25345  0.78774  0.47083  1.0000
  H   H1326     1.0  0.99389  0.73579  0.99245  1.0000
  H   H1327     1.0  0.35556  0.97966  0.11949  1.0000
  H   H1328     1.0  0.48568  0.75144  0.36160  1.0000
  H   H1329     1.0  0.02895  0.74941  0.99317  1.0000
  H   H1330     1.0  0.48425  0.76910  0.39290  1.0000
  H   H1331     1.0  0.48753  0.80316  0.42155  1.0000
  H   H1332     1.0  0.46961  0.75628  0.44014  1.0000
  H   H1333     1.0  0.06431  0.78483  0.99009  1.0000
  H   H1334     1.0  0.09367  0.73052  0.06648  1.0000
  H   H1335     1.0  0.04195  0.84281  0.00646  1.0000
  H   H1336     1.0  0.07116  0.85866  0.99030  1.0000
  H   H1337     1.0  0.46477  0.73915  0.31362  1.0000
  C   C739      1.0  0.21057  0.94046  0.47020  1.0000
  C   C740      1.0  0.29974  0.81602  0.46563  1.0000
  C   C741      1.0  0.99242  0.96637  0.01625  1.0000
  C   C742      1.0  0.10263  0.87872  0.97698  1.0000
  Fe  Fe80      1.0  0.15589  0.91672  0.50341  1.0000
  C   C743      1.0  0.02591  0.73215  0.96069  1.0000
  H   H1338     1.0  0.04680  0.96381  0.80619  1.0000
  S   S159      1.0  0.08431  0.74664  0.80324  1.0000
  Fe  Fe81      1.0  0.45068  0.78342  0.53000  1.0000
  S   S160      1.0  0.47524  0.79825  0.50823  1.0000
  C   C744      1.0  0.20493  0.73343  0.50694  1.0000
  C   C745      1.0  0.12905  0.74087  0.48931  1.0000
  H   H1339     1.0  0.23863  0.82248  0.57078  1.0000
  C   C746      1.0  0.02441  0.85590  0.81017  1.0000
  C   C747      1.0  0.19627  0.83416  0.53288  1.0000
  S   S161      1.0  0.46046  0.78759  0.58844  1.0000
  H   H1340     1.0  0.13063  0.73082  0.49778  1.0000
  H   H1341     1.0  0.37886  0.80534  0.59332  1.0000
  Fe  Fe82      1.0  0.26649  0.78054  0.52495  1.0000
  S   S162      1.0  0.24337  0.79411  0.55736  1.0000
  S   S163      1.0  0.30474  0.77812  0.54669  1.0000
  Fe  Fe83      1.0  0.21515  0.77928  0.55483  1.0000
  S   S164      1.0  0.19127  0.77582  0.60396  1.0000
  Fe  Fe84      1.0  0.22920  0.80079  0.50355  1.0000
  C   C748      1.0  0.18937  0.89576  0.69095  1.0000
  S   S165      1.0  0.23900  0.76516  0.52678  1.0000
  Fe  Fe85      1.0  0.06012  0.90873  0.83739  1.0000
  S   S166      1.0  0.03153  0.89444  0.82882  1.0000
  S   S167      1.0  0.09058  0.91310  0.79795  1.0000
  Fe  Fe86      1.0  0.04277  0.91532  0.91565  1.0000
  S   S168      1.0  0.01282  0.90156  0.91149  1.0000
  H   H1342     1.0  0.11388  0.75237  0.62123  1.0000
  Fe  Fe87      1.0  0.03892  0.88797  0.88621  1.0000
  S   S169      1.0  0.04446  0.86690  0.89916  1.0000
  Fe  Fe88      1.0  0.00735  0.90907  0.85506  1.0000
  S   S170      1.0  0.06945  0.90130  0.89343  1.0000
  S   S171      1.0  0.03537  0.92381  0.86033  1.0000
  Fe  Fe89      1.0  0.19510  0.91799  0.56133  1.0000
  S   S172      1.0  0.16049  0.92848  0.55471  1.0000
  S   S173      1.0  0.22955  0.92912  0.56285  1.0000
  Fe  Fe90      1.0  0.17234  0.89222  0.54444  1.0000
  S   S174      1.0  0.13678  0.90163  0.53468  1.0000
  S   S175      1.0  0.17304  0.87053  0.55077  1.0000
  Fe  Fe91      1.0  0.14405  0.91261  0.58653  1.0000
  S   S176      1.0  0.11198  0.91314  0.62571  1.0000
  S   S177      1.0  0.17917  0.90299  0.59679  1.0000
  H   H1343     1.0  0.17082  0.84405  0.56695  1.0000
  H   H1344     1.0  0.17688  0.73247  0.78919  1.0000
  S   S178      1.0  0.29476  0.94985  0.69204  1.0000
  H   H1345     1.0  0.11177  0.73557  0.61175  1.0000
  S   S179      1.0  0.41585  0.96585  0.70363  1.0000
  N   N42       1.0  0.01012  0.73748  0.71794  1.0000
  C   C749      1.0  0.45794  0.92921  0.67751  1.0000
  C   C750      1.0  0.46950  0.94051  0.68563  1.0000
  C   C751      1.0  0.45629  0.95166  0.69306  1.0000
  C   C752      1.0  0.43145  0.95166  0.69228  1.0000
  C   C753      1.0  0.41989  0.94044  0.68348  1.0000
  C   C754      1.0  0.43310  0.92926  0.67639  1.0000
  H   H1346     1.0  0.08927  0.87005  0.58331  1.0000
  H   H1347     1.0  0.46540  0.96033  0.69946  1.0000
  H   H1348     1.0  0.40080  0.94029  0.68278  1.0000
  H   H1349     1.0  0.42399  0.92056  0.67023  1.0000
  C   C755      1.0  0.24792  0.93415  0.59945  1.0000
  C   C756      1.0  0.26861  0.94077  0.59132  1.0000
  C   C757      1.0  0.28324  0.94552  0.61930  1.0000
  C   C758      1.0  0.27726  0.94376  0.65582  1.0000
  C   C759      1.0  0.25679  0.93693  0.66400  1.0000
  C   C760      1.0  0.24223  0.93211  0.63601  1.0000
  H   H1350     1.0  0.27335  0.94228  0.56316  1.0000
  H   H1351     1.0  0.29918  0.95053  0.61262  1.0000
  H   H1352     1.0  0.25214  0.93539  0.69219  1.0000
  H   H1353     1.0  0.22650  0.92693  0.64273  1.0000
  C   C761      1.0  0.09618  0.91275  0.74994  1.0000
  C   C762      1.0  0.11880  0.91592  0.73721  1.0000
  C   C763      1.0  0.12410  0.91595  0.69953  1.0000
  C   C764      1.0  0.10676  0.91288  0.67385  1.0000
  C   C765      1.0  0.08419  0.90959  0.68660  1.0000
  C   C766      1.0  0.07896  0.90945  0.72430  1.0000
  H   H1354     1.0  0.13233  0.91847  0.75668  1.0000
  H   H1355     1.0  0.14150  0.91856  0.69038  1.0000
  H   H1356     1.0  0.07062  0.90715  0.66710  1.0000
  H   H1357     1.0  0.06157  0.90689  0.73352  1.0000
  C   C767      1.0  0.10307  0.87722  0.57868  1.0000
  H   H1358     1.0  0.09398  0.86775  0.92821  1.0000
  C   C768      1.0  0.47483  0.95322  0.59922  1.0000
  H   H1359     1.0  0.43445  0.75271  0.50613  1.0000
  C   C769      1.0  0.18925  0.85721  0.53297  1.0000
  C   C770      1.0  0.06580  0.76909  0.95112  1.0000
  H   H1360     1.0  0.48859  0.94060  0.68668  1.0000
  C   C771      1.0  0.13553  0.76295  0.50714  1.0000
  H   H1361     1.0  0.14747  0.83857  0.63925  1.0000
  H   H1362     1.0  0.37769  0.97028  0.80794  1.0000
  H   H1363     1.0  0.15486  0.83715  0.68711  1.0000
  H   H1364     1.0  0.04220  0.73223  0.82095  1.0000
  C   C772      1.0  0.38399  0.78109  0.51436  1.0000
  H   H1365     1.0  0.41406  0.97213  0.93890  1.0000
  H   H1366     1.0  0.45155  0.97678  0.81532  1.0000
  C   C773      1.0  0.33508  0.77909  0.53285  1.0000
  C   C774      1.0  0.35298  0.77753  0.55926  1.0000
  C   C775      1.0  0.37717  0.77861  0.55024  1.0000
  H   H1367     1.0  0.26869  0.97313  0.65324  1.0000
  H   H1368     1.0  0.34808  0.77554  0.58709  1.0000
  H   H1369     1.0  0.39056  0.77743  0.57104  1.0000
  C   C776      1.0  0.16460  0.73808  0.64944  1.0000
  C   C777      1.0  0.18207  0.73807  0.62222  1.0000
  C   C778      1.0  0.19070  0.74951  0.60831  1.0000
  C   C779      1.0  0.18175  0.76111  0.62131  1.0000
  C   C780      1.0  0.16439  0.76111  0.64873  1.0000
  C   C781      1.0  0.15588  0.74966  0.66280  1.0000
  C   C782      1.0  0.00045  0.90190  0.73936  1.0000
  H   H1370     1.0  0.20429  0.74938  0.58761  1.0000
  H   H1371     1.0  0.15744  0.77003  0.65909  1.0000
  H   H1372     1.0  0.14254  0.74982  0.68390  1.0000
  C   C783      1.0  0.18422  0.84506  0.54625  1.0000
  H   H1373     1.0  0.46977  0.74228  0.78897  1.0000
  C   C784      1.0  0.02629  0.85517  0.91907  1.0000
  C   C785      1.0  0.03295  0.84232  0.91555  1.0000
  C   C786      1.0  0.01868  0.83263  0.92955  1.0000
  H   H1374     1.0  0.04913  0.83980  0.90143  1.0000
  C   C787      1.0  0.32256  0.84356  0.55476  1.0000
  C   C788      1.0  0.01786  0.75687  0.87025  1.0000
  C   C789      1.0  0.03634  0.76543  0.86714  1.0000
  C   C790      1.0  0.05671  0.76208  0.84698  1.0000
  C   C791      1.0  0.05883  0.75015  0.82977  1.0000
  C   C792      1.0  0.04061  0.74149  0.83364  1.0000
  C   C793      1.0  0.02019  0.74487  0.85362  1.0000
  H   H1375     1.0  0.03464  0.77476  0.87938  1.0000
  H   H1376     1.0  0.07072  0.76886  0.84413  1.0000
  H   H1377     1.0  0.02578  0.92201  0.75467  1.0000
  H   H1378     1.0  0.38103  0.94311  0.77002  1.0000
  H   H1379     1.0  0.02372  0.73700  0.60411  1.0000
  H   H1380     1.0  0.27637  0.96822  0.84530  1.0000
  H   H1381     1.0  0.46330  0.95694  0.54375  1.0000
  H   H1382     1.0  0.24755  0.83881  0.56751  1.0000
  H   H1383     1.0  0.20450  0.93143  0.48177  1.0000
  S   S180      1.0  0.34777  0.96727  0.73808  1.0000
  H   H1384     1.0  0.02367  0.74556  0.66800  1.0000
  H   H1385     1.0  0.18150  0.90516  0.68426  1.0000
  H   H1386     1.0  0.20196  0.95042  0.52041  1.0000
  H   H1387     1.0  0.27428  0.81402  0.53267  1.0000
  C   C794      1.0  0.07471  0.74209  0.93378  1.0000
  H   H1388     1.0  0.33113  0.83968  0.57949  1.0000
  H   H1389     1.0  0.07533  0.76698  0.92533  1.0000
  C   C795      1.0  0.00704  0.92519  0.75470  1.0000
  Fe  Fe92      1.0  0.37660  0.97062  0.69693  1.0000
  H   H1390     1.0  0.05089  0.93290  0.71676  1.0000
  S   S181      1.0  0.47359  0.91472  0.66996  1.0000
  H   H1391     1.0  0.25077  0.73508  0.70251  1.0000
  H   H1392     1.0  0.47902  0.94579  0.79004  1.0000
  H   H1393     1.0  0.24514  0.83144  0.61143  1.0000
  H   H1394     1.0  0.46323  0.73237  0.84053  1.0000
  H   H1395     1.0  0.21473  0.73982  0.52556  1.0000
  H   H1396     1.0  0.09161  0.74722  0.93018  1.0000
  H   H1397     1.0  0.12497  0.87064  0.93449  1.0000
  C   C796      1.0  0.27971  0.97672  0.58498  1.0000
  H   H1398     1.0  0.19977  0.89216  0.66727  1.0000
  H   H1399     1.0  0.32886  0.85944  0.51851  1.0000
  H   H1400     1.0  0.17799  0.75366  0.53155  1.0000
  S   S182      1.0  0.19097  0.90648  0.50951  1.0000
  H   H1401     1.0  0.11953  0.85030  0.70331  1.0000
  C   C797      1.0  0.37408  0.94413  0.79826  1.0000
  H   H1402     1.0  0.33733  0.86209  0.56529  1.0000
  C   C798      1.0  0.16857  0.74779  0.51100  1.0000
  H   H1403     1.0  0.06961  0.78931  0.94357  1.0000
  H   H1404     1.0  0.14634  0.75127  0.57381  1.0000
  C   C799      1.0  0.99752  0.83569  0.94746  1.0000
  H   H1405     1.0  0.05494  0.76595  0.76504  1.0000
  H   H1406     1.0  0.13987  0.73579  0.55907  1.0000
  H   H1407     1.0  0.33204  0.81119  0.49338  1.0000
  N   N43       1.0  0.45224  0.97346  0.57543  1.0000
  H   H1408     1.0  0.04671  0.76985  0.94495  1.0000
  H   H1409     1.0  0.17841  0.75996  0.76224  1.0000
  C   C800      1.0  0.10701  0.87488  0.93729  1.0000
  H   H1410     1.0  0.20467  0.94866  0.63223  1.0000
  H   H1411     1.0  0.19211  0.82491  0.54336  1.0000
  H   H1412     1.0  0.01377  0.76330  0.71080  1.0000
  H   H1413     1.0  0.35067  0.79923  0.60686  1.0000
  C   C801      1.0  0.02112  0.73615  0.68046  1.0000
  H   H1414     1.0  0.02872  0.84904  0.83208  1.0000
  H   H1415     1.0  0.13498  0.77139  0.56270  1.0000
  C   C802      1.0  0.99768  0.85775  0.80679  1.0000
  H   H1416     1.0  0.17606  0.73068  0.54325  1.0000
  H   H1417     1.0  0.11001  0.87592  0.55055  1.0000
  H   H1418     1.0  0.48704  0.96622  0.55996  1.0000
  H   H1419     1.0  0.23999  0.96233  0.61867  1.0000
  C   C803      1.0  0.20665  0.85831  0.50615  1.0000
  C   C804      1.0  0.10908  0.74768  0.56380  1.0000
  C   C805      1.0  0.00541  0.85825  0.93769  1.0000
  S   S183      1.0  0.35383  0.96595  0.64843  1.0000
  H   H1420     1.0  0.38233  0.97331  0.94183  1.0000
  H   H1421     1.0  0.00021  0.86808  0.94115  1.0000
  H   H1422     1.0  0.21074  0.86755  0.49561  1.0000
  H   H1423     1.0  0.16144  0.89012  0.72603  1.0000
  H   H1424     1.0  0.17585  0.95507  0.62241  1.0000
  C   C806      1.0  0.46513  0.75088  0.71696  1.0000
  H   H1425     1.0  0.03616  0.93850  0.63772  1.0000
  H   H1426     1.0  0.04683  0.93554  0.78527  1.0000
  H   H1427     1.0  0.35541  0.85200  0.53653  1.0000
  C   C807      1.0  0.02981  0.75944  0.72428  1.0000
  C   C808      1.0  0.39728  0.96955  0.92517  1.0000
  H   H1428     1.0  0.14436  0.78855  0.49713  1.0000
  C   C809      1.0  0.13555  0.74591  0.55378  1.0000
  C   C810      1.0  0.28258  0.97815  0.84570  1.0000
  H   H1429     1.0  0.99337  0.85709  0.86551  1.0000
  H   H1430     1.0  0.99465  0.95323  0.97043  1.0000
  C   C811      1.0  0.02553  0.74612  0.74048  1.0000
  H   H1431     1.0  0.15457  0.74898  0.75488  1.0000
  C   C812      1.0  0.32223  0.81487  0.56537  1.0000
  H   H1432     1.0  0.03975  0.77840  0.74109  1.0000
  C   C813      1.0  0.07374  0.78210  0.96456  1.0000
  H   H1433     1.0  0.09852  0.86864  0.77454  1.0000
  C   C814      1.0  0.25569  0.97802  0.72514  1.0000
  H   H1434     1.0  0.47113  0.86819  0.72032  1.0000
  H   H1435     1.0  0.08376  0.88106  0.70226  1.0000
  C   C815      1.0  0.27613  0.82553  0.58048  1.0000
  H   H1436     1.0  0.20160  0.89700  0.71436  1.0000
  C   C816      1.0  0.04195  0.94550  0.77929  1.0000
  H   H1437     1.0  0.14280  0.79330  0.54433  1.0000
  H   H1438     1.0  0.45700  0.74286  0.70194  1.0000
  H   H1439     1.0  0.31397  0.80554  0.57083  1.0000
  H   H1440     1.0  0.31964  0.82044  0.59080  1.0000
  H   H1441     1.0  0.12791  0.83051  0.66968  1.0000
  H   H1442     1.0  0.98985  0.89531  0.72244  1.0000
  C   C817      1.0  0.28389  0.82276  0.54053  1.0000
  H   H1443     1.0  0.10262  0.75743  0.55818  1.0000
  H   H1444     1.0  0.47069  0.75798  0.69660  1.0000
  H   H1445     1.0  0.15646  0.86110  0.69632  1.0000
  C   C818      1.0  0.19489  0.95568  0.61551  1.0000
  H   H1446     1.0  0.30461  0.84717  0.56165  1.0000
  H   H1447     1.0  0.42086  0.96065  0.86892  1.0000
  C   C819      1.0  0.01526  0.94133  0.70621  1.0000
  Fe  Fe93      1.0  0.48650  0.80173  0.56626  1.0000
  H   H1448     1.0  0.04001  0.95103  0.83679  1.0000
  H   H1449     1.0  0.27805  0.81675  0.59679  1.0000
  H   H1450     1.0  0.28681  0.83294  0.59373  1.0000
  H   H1451     1.0  0.05212  0.94873  0.75537  1.0000
  C   C820      1.0  0.34190  0.78154  0.49691  1.0000
  C   C821      1.0  0.46937  0.96258  0.56774  1.0000
  C   C822      1.0  0.04888  0.93839  0.66079  1.0000
  H   H1452     1.0  0.09926  0.87095  0.64875  1.0000
  H   H1453     1.0  0.20840  0.73615  0.47829  1.0000
  H   H1454     1.0  0.11236  0.85175  0.65534  1.0000
  H   H1455     1.0  0.16247  0.88229  0.64455  1.0000
  C   C823      1.0  0.35990  0.80781  0.59745  1.0000
  H   H1456     1.0  0.98970  0.73336  0.64560  1.0000
  H   H1457     1.0  0.02441  0.76973  0.77570  1.0000
  H   H1458     1.0  0.03220  0.92332  0.68915  1.0000
  H   H1459     1.0  0.14433  0.89443  0.66379  1.0000
  H   H1460     1.0  0.45762  0.74182  0.49118  1.0000
  H   H1461     1.0  0.37899  0.97267  0.87452  1.0000
  H   H1462     1.0  0.17895  0.87728  0.70736  1.0000
  H   H1463     1.0  0.10660  0.88708  0.64793  1.0000
  H   H1464     1.0  0.38000  0.96615  0.57847  1.0000
  N   N44       1.0  0.14218  0.74937  0.51536  1.0000
  H   H1465     1.0  0.13116  0.86606  0.60158  1.0000
  H   H1466     1.0  0.15466  0.86127  0.64839  1.0000
  H   H1467     1.0  0.40748  0.94625  0.82458  1.0000
  C   C824      1.0  0.24080  0.97721  0.69041  1.0000
  S   S184      1.0  0.19915  0.78696  0.50295  1.0000
  H   H1468     1.0  0.13661  0.88285  0.59936  1.0000
  H   H1469     1.0  0.09513  0.88688  0.58104  1.0000
  H   H1470     1.0  0.09167  0.86474  0.70830  1.0000
  H   H1471     1.0  0.44745  0.95265  0.83299  1.0000
  N   N45       1.0  0.00445  0.93883  0.74312  1.0000
  C   C825      1.0  0.39502  0.96519  0.80588  1.0000
  H   H1472     1.0  0.10981  0.74313  0.49026  1.0000
  H   H1473     1.0  0.06422  0.93229  0.65295  1.0000
  C   C826      1.0  0.13631  0.78633  0.52389  1.0000
  C   C827      1.0  0.48669  0.74631  0.73849  1.0000
  C   C828      1.0  0.47307  0.95585  0.79162  1.0000
  H   H1474     1.0  0.39814  0.96401  0.77610  1.0000
  H   H1475     1.0  0.22857  0.96990  0.57967  1.0000
  C   C829      1.0  0.41608  0.95926  0.58711  1.0000
  H   H1476     1.0  0.01279  0.95738  0.76519  1.0000
  H   H1477     1.0  0.99018  0.84844  0.79937  1.0000
  C   C830      1.0  0.36611  0.78249  0.48779  1.0000
  H   H1478     1.0  0.37214  0.93451  0.80977  1.0000
  C   C831      1.0  0.39055  0.95727  0.57507  1.0000
  H   H1479     1.0  0.99441  0.86441  0.78406  1.0000
  C   C832      1.0  0.39094  0.95182  0.82197  1.0000
  H   H1480     1.0  0.09141  0.88525  0.76858  1.0000
  C   C833      1.0  0.08828  0.87553  0.75791  1.0000
  C   C834      1.0  0.14328  0.77296  0.53578  1.0000
  H   H1481     1.0  0.02391  0.82280  0.92615  1.0000
  H   H1482     1.0  0.47602  0.84710  0.61736  1.0000
  C   C835      1.0  0.39610  0.97525  0.88708  1.0000
  C   C836      1.0  0.04981  0.95359  0.81177  1.0000
  C   C837      1.0  0.17849  0.73408  0.51503  1.0000
  H   H1483     1.0  0.41601  0.96141  0.61675  1.0000
  H   H1484     1.0  0.42563  0.95018  0.58205  1.0000
  C   C838      1.0  0.41730  0.97078  0.86310  1.0000
  C   C839      1.0  0.16935  0.75157  0.77334  1.0000
  C   C840      1.0  0.01515  0.94721  0.77216  1.0000
  H   H1485     1.0  0.43662  0.97248  0.77448  1.0000
  C   C841      1.0  0.03731  0.93323  0.69513  1.0000
  H   H1486     1.0  0.43692  0.95051  0.78670  1.0000
  Fe  Fe94      1.0  0.32415  0.96446  0.68892  1.0000
  H   H1487     1.0  0.22536  0.74176  0.67943  1.0000
  H   H1488     1.0  0.04329  0.74167  0.74485  1.0000
  H   H1489     1.0  0.06516  0.88013  0.96401  1.0000
  H   H1490     1.0  0.38985  0.95423  0.54602  1.0000
  H   H1491     1.0  0.38251  0.94977  0.59188  1.0000
  H   H1492     1.0  0.20349  0.96051  0.48115  1.0000
  H   H1493     1.0  0.06309  0.74533  0.91108  1.0000
  H   H1494     1.0  0.05538  0.94813  0.66578  1.0000
  C   C842      1.0  0.23584  0.73294  0.68403  1.0000
  C   C843      1.0  0.25029  0.82982  0.58255  1.0000
  H   H1495     1.0  0.06919  0.87350  0.76089  1.0000
  H   H1496     1.0  0.08575  0.74560  0.61030  1.0000
  H   H1497     1.0  0.27284  0.96702  0.58207  1.0000
  H   H1498     1.0  0.00214  0.93981  0.68400  1.0000
  C   C844      1.0  0.14018  0.83858  0.66739  1.0000
  H   H1499     1.0  0.01827  0.74741  0.76831  1.0000
  H   H1500     1.0  0.27622  0.83028  0.52277  1.0000
  H   H1501     1.0  0.13241  0.87357  0.73409  1.0000
  H   H1502     1.0  0.01999  0.95150  0.70414  1.0000
  H   H1503     1.0  0.35314  0.80523  0.54051  1.0000
  H   H1504     1.0  0.16264  0.77265  0.53942  1.0000
  C   C845      1.0  0.10494  0.74513  0.60422  1.0000
  H   H1505     1.0  0.20206  0.97066  0.65335  1.0000
  H   H1506     1.0  0.99756  0.89960  0.76846  1.0000
  C   C846      1.0  0.47978  0.73671  0.76814  1.0000
  C   C847      1.0  0.03766  0.76892  0.75343  1.0000
  H   H1507     1.0  0.12181  0.88847  0.71831  1.0000
  H   H1508     1.0  0.00602  0.73817  0.85613  1.0000
  C   C848      1.0  0.20370  0.96901  0.62365  1.0000
  H   H1509     1.0  0.47324  0.97393  0.50379  1.0000
  C   C849      1.0  0.18668  0.74043  0.77732  1.0000
  N   N46       1.0  0.31011  0.82109  0.53331  1.0000
  H   H1510     1.0  0.04410  0.75880  0.70356  1.0000
  H   H1511     1.0  0.38299  0.95262  0.84953  1.0000
  C   C850      1.0  0.33694  0.85494  0.54288  1.0000
  H   H1512     1.0  0.42665  0.96680  0.53613  1.0000
  H   H1513     1.0  0.16177  0.75414  0.80039  1.0000
  C   C851      1.0  0.32102  0.83358  0.52373  1.0000
  H   H1514     1.0  0.35636  0.94875  0.79751  1.0000
  H   H1515     1.0  0.07872  0.89472  0.97204  1.0000
  N   N47       1.0  0.13257  0.87543  0.67524  1.0000
  C   C852      1.0  0.11439  0.87737  0.64560  1.0000
  C   C853      1.0  0.12163  0.87810  0.71225  1.0000
  C   C854      1.0  0.15201  0.88488  0.66928  1.0000
  C   C855      1.0  0.14375  0.86238  0.67353  1.0000
  C   C856      1.0  0.12691  0.85101  0.67543  1.0000
  C   C857      1.0  0.12329  0.87564  0.60594  1.0000
  C   C858      1.0  0.17011  0.88642  0.70091  1.0000
  C   C859      1.0  0.09539  0.87447  0.71778  1.0000
  C   C860      1.0  0.21353  0.83524  0.50587  1.0000
  H   H1516     1.0  0.06895  0.95196  0.81681  1.0000
  H   H1517     1.0  0.00570  0.94592  0.79847  1.0000
  C   C861      1.0  0.19778  0.95113  0.49093  1.0000
  S   S185      1.0  0.41435  0.78226  0.50084  1.0000
  C   C862      1.0  0.21865  0.84740  0.49270  1.0000
  H   H1518     1.0  0.24212  0.73359  0.76092  1.0000
  H   H1519     1.0  0.30867  0.97349  0.54717  1.0000
  H   H1520     1.0  0.27387  0.97187  0.91333  1.0000
  H   H1521     1.0  0.45861  0.94962  0.61200  1.0000
  H   H1522     1.0  0.18405  0.73702  0.71896  1.0000
  H   H1523     1.0  0.19715  0.95320  0.58623  1.0000
  H   H1524     1.0  0.17835  0.95031  0.48755  1.0000
  H   H1525     1.0  0.20993  0.74488  0.73361  1.0000
  H   H1526     1.0  0.09813  0.74094  0.54801  1.0000
  C   C863      1.0  0.22942  0.97075  0.60995  1.0000
  H   H1527     1.0  0.24505  0.97504  0.74890  1.0000
  H   H1528     1.0  0.03054  0.75138  0.94570  1.0000
  C   C864      1.0  0.44756  0.95659  0.80516  1.0000
  H   H1529     1.0  0.10580  0.88327  0.91936  1.0000
  H   H1530     1.0  0.22971  0.94133  0.47601  1.0000
  H   H1531     1.0  0.45067  0.96977  0.63367  1.0000
  N   N48       1.0  0.41448  0.97298  0.82272  1.0000
  C   C865      1.0  0.34926  0.81253  0.56166  1.0000
  H   H1532     1.0  0.01939  0.90046  0.73247  1.0000
  H   H1533     1.0  0.33899  0.83204  0.51209  1.0000
  C   C866      1.0  0.43784  0.97036  0.80404  1.0000
  C   C867      1.0  0.99904  0.73288  0.96434  1.0000
  H   H1534     1.0  0.03173  0.85215  0.78409  1.0000
  S   S186      1.0  0.22936  0.82183  0.48781  1.0000
  H   H1535     1.0  0.30149  0.97820  0.85361  1.0000
  H   H1536     1.0  0.30713  0.80256  0.50827  1.0000
  H   H1537     1.0  0.19152  0.97573  0.60982  1.0000
  H   H1538     1.0  0.45184  0.75539  0.73536  1.0000
  H   H1539     1.0  0.42746  0.73666  0.49401  1.0000
  H   H1540     1.0  0.43318  0.97578  0.87356  1.0000
  H   H1541     1.0  0.17444  0.75151  0.48422  1.0000
  C   C868      1.0  0.99259  0.91553  0.73196  1.0000
  H   H1542     1.0  0.48533  0.95804  0.62075  1.0000
  H   H1543     1.0  0.47937  0.93626  0.56525  1.0000
  S   S187      1.0  0.47851  0.76792  0.52441  1.0000
  C   C869      1.0  0.45380  0.97772  0.61482  1.0000
  H   H1544     1.0  0.03304  0.86504  0.81653  1.0000
  H   H1545     1.0  0.35856  0.81528  0.61890  1.0000
  H   H1546     1.0  0.00138  0.92420  0.78360  1.0000
  H   H1547     1.0  0.18546  0.97255  0.93684  1.0000
  C   C870      1.0  0.42738  0.96999  0.56505  1.0000
  H   H1548     1.0  0.27141  0.97167  0.72318  1.0000
  H   H1549     1.0  0.35859  0.82131  0.55445  1.0000
  C   C871      1.0  0.19815  0.73688  0.74009  1.0000
  N   N49       1.0  0.06363  0.74548  0.97031  1.0000
  H   H1550     1.0  0.14343  0.76583  0.48073  1.0000
  H   H1551     1.0  0.20049  0.74331  0.79713  1.0000
  H   H1552     1.0  0.48494  0.96100  0.81058  1.0000
  H   H1553     1.0  0.47454  0.95998  0.76404  1.0000
  S   S188      1.0  0.99101  0.76091  0.89258  1.0000
  H   H1554     1.0  0.31078  0.83827  0.50167  1.0000
  H   H1555     1.0  0.23486  0.96726  0.68749  1.0000
  C   C872      1.0  0.31310  0.81223  0.50098  1.0000
  S   S189      1.0  0.01062  0.78861  0.96440  1.0000
  C   C873      1.0  0.03702  0.74521  0.96805  1.0000
  H   H1556     1.0  0.25673  0.73683  0.63594  1.0000
  S   S190      1.0  0.04259  0.92726  0.96827  1.0000
  H   H1557     1.0  0.11681  0.78734  0.52184  1.0000
  H   H1558     1.0  0.29282  0.97696  0.60753  1.0000
  C   C874      1.0  0.99112  0.84857  0.95164  1.0000
  H   H1559     1.0  0.10345  0.73246  0.87946  1.0000
  H   H1560     1.0  0.23226  0.97162  0.92743  1.0000
  H   H1561     1.0  0.39595  0.95908  0.92362  1.0000
  H   H1562     1.0  0.03909  0.73176  0.68263  1.0000
  H   H1563     1.0  0.99528  0.87243  0.84743  1.0000
  H   H1564     1.0  0.09307  0.78206  0.96970  1.0000
  S   S191      1.0  0.48471  0.82171  0.59217  1.0000
  C   C875      1.0  0.43888  0.74475  0.48717  1.0000
  H   H1565     1.0  0.11612  0.76405  0.50324  1.0000
  H   H1566     1.0  0.99143  0.73977  0.94473  1.0000
  H   H1567     1.0  0.99421  0.91732  0.70234  1.0000
  H   H1568     1.0  0.02879  0.88660  0.97382  1.0000
  H   H1569     1.0  0.41549  0.97849  0.56665  1.0000
  H   H1570     1.0  0.00387  0.73025  0.79189  1.0000
  C   C876      1.0  0.29282  0.97975  0.54979  1.0000
  H   H1571     1.0  0.28127  0.97818  0.52574  1.0000
  H   H1572     1.0  0.32853  0.78261  0.47608  1.0000
  H   H1573     1.0  0.48833  0.85307  0.47984  1.0000
  H   H1574     1.0  0.44338  0.97980  0.49892  1.0000
  N   N50       1.0  0.66277  0.11428  0.46299  1.0000
  S   S192      1.0  0.95689  0.14790  0.04244  1.0000
  S   S193      1.0  0.97205  0.17345  0.12281  1.0000
  S   S194      1.0  0.80707  0.00745  0.46699  1.0000
  C   C877      1.0  0.97196  0.99393  0.05511  1.0000
  C   C878      1.0  0.67620  0.11832  0.42951  1.0000
  H   H1575     1.0  0.72253  0.01484  0.39444  1.0000
  Fe  Fe95      1.0  0.83624  0.21567  0.30186  1.0000
  S   S195      1.0  0.87237  0.20660  0.30124  1.0000
  S   S196      1.0  0.80543  0.21152  0.34006  1.0000
  Fe  Fe96      1.0  0.87073  0.20841  0.23988  1.0000
  S   S197      1.0  0.87598  0.19314  0.19587  1.0000
  S   S198      1.0  0.83326  0.21595  0.24062  1.0000
  H   H1576     1.0  0.79163  0.99792  0.38160  1.0000
  H   H1577     1.0  0.91112  0.12208  0.17895  1.0000
  H   H1578     1.0  0.92517  0.22316  0.10549  1.0000
  H   H1579     1.0  0.92231  0.16844  0.10638  1.0000
  H   H1580     1.0  0.88526  0.17636  0.13560  1.0000
  S   S199      1.0  0.77966  0.15888  0.41365  1.0000
  H   H1581     1.0  0.93655  0.98973  0.10477  1.0000
  Fe  Fe97      1.0  0.81881  0.02268  0.42824  1.0000
  S   S200      1.0  0.84925  0.01994  0.38655  1.0000
  S   S201      1.0  0.78175  0.02961  0.41736  1.0000
  Fe  Fe98      1.0  0.95431  0.02505  0.14595  1.0000
  S   S202      1.0  0.92298  0.01230  0.15101  1.0000
  H   H1582     1.0  0.68871  0.07677  0.45259  1.0000
  Fe  Fe99      1.0  0.92445  0.04730  0.11632  1.0000
  S   S203      1.0  0.89117  0.03575  0.11865  1.0000
  S   S204      1.0  0.92025  0.06705  0.09079  1.0000
  Fe  Fe100     1.0  0.90369  0.02949  0.17452  1.0000
  S   S205      1.0  0.87350  0.02958  0.21731  1.0000
  Fe  Fe101     1.0  0.91248  0.01950  0.09543  1.0000
  S   S206      1.0  0.90597  0.00467  0.05053  1.0000
  S   S207      1.0  0.93600  0.04197  0.17307  1.0000
  S   S208      1.0  0.94471  0.03135  0.08938  1.0000
  C   C879      1.0  0.88941  0.00523  0.00935  1.0000
  C   C880      1.0  0.87268  0.01477  0.00231  1.0000
  H   H1583     1.0  0.97767  0.12544  0.19594  1.0000
  H   H1584     1.0  0.92907  0.02923  0.98685  1.0000
  C   C881      1.0  0.85247  0.20664  0.43256  1.0000
  H   H1585     1.0  0.51066  0.99306  0.43798  1.0000
  H   H1586     1.0  0.86938  0.02212  0.02250  1.0000
  H   H1587     1.0  0.93030  0.16729  0.22114  1.0000
  H   H1588     1.0  0.62370  0.16722  0.43583  1.0000
  H   H1589     1.0  0.76154  0.00331  0.37706  1.0000
  C   C882      1.0  0.71595  0.99887  0.42875  1.0000
  C   C883      1.0  0.70095  0.98860  0.43485  1.0000
  H   H1590     1.0  0.90726  0.09888  0.17301  1.0000
  H   H1591     1.0  0.90440  0.21626  0.99192  1.0000
  C   C884      1.0  0.92258  0.21357  0.98310  1.0000
  C   C885      1.0  0.85540  0.02237  0.33914  1.0000
  C   C886      1.0  0.87899  0.02161  0.32690  1.0000
  C   C887      1.0  0.88490  0.02366  0.28992  1.0000
  C   C888      1.0  0.86727  0.02657  0.26441  1.0000
  C   C889      1.0  0.84366  0.02729  0.27664  1.0000
  C   C890      1.0  0.83774  0.02512  0.31354  1.0000
  H   H1592     1.0  0.89286  0.01944  0.34625  1.0000
  H   H1593     1.0  0.90312  0.02304  0.28122  1.0000
  H   H1594     1.0  0.82979  0.02945  0.25727  1.0000
  H   H1595     1.0  0.81952  0.02550  0.32211  1.0000
  C   C891      1.0  0.50322  0.00550  0.33262  1.0000
  C   C892      1.0  0.52740  0.00537  0.32381  1.0000
  C   C893      1.0  0.54021  0.99388  0.32050  1.0000
  C   C894      1.0  0.98079  0.99782  0.01700  1.0000
  H   H1596     1.0  0.71618  0.98449  0.28073  1.0000
  H   H1597     1.0  0.53622  0.01424  0.31919  1.0000
  H   H1598     1.0  0.55872  0.99394  0.31326  1.0000
  H   H1599     1.0  0.73196  0.20666  0.36070  1.0000
  C   C895      1.0  0.92645  0.22035  0.46117  1.0000
  H   H1600     1.0  0.86420  0.05047  0.04836  1.0000
  C   C896      1.0  0.91895  0.12683  0.09761  1.0000
  H   H1601     1.0  0.91140  0.11813  0.10918  1.0000
  C   C897      1.0  0.79892  0.19682  0.36061  1.0000
  C   C898      1.0  0.77953  0.19618  0.38443  1.0000
  C   C899      1.0  0.77331  0.18465  0.40069  1.0000
  C   C900      1.0  0.78669  0.17365  0.39381  1.0000
  C   C901      1.0  0.80616  0.17431  0.37013  1.0000
  C   C902      1.0  0.81227  0.18583  0.35361  1.0000
  H   H1602     1.0  0.76924  0.20464  0.39030  1.0000
  H   H1603     1.0  0.75798  0.18421  0.41816  1.0000
  H   H1604     1.0  0.81656  0.16585  0.36446  1.0000
  H   H1605     1.0  0.82723  0.18617  0.33535  1.0000
  C   C903      1.0  0.96973  0.10085  0.07052  1.0000
  H   H1606     1.0  0.71528  0.22756  0.24420  1.0000
  C   C904      1.0  0.96237  0.08033  0.09928  1.0000
  C   C905      1.0  0.93975  0.07995  0.08396  1.0000
  C   C906      1.0  0.93222  0.09013  0.06202  1.0000
  C   C907      1.0  0.94711  0.10047  0.05518  1.0000
  C   C908      1.0  0.52821  0.01057  0.44870  1.0000
  H   H1607     1.0  0.96846  0.07261  0.11622  1.0000
  H   H1608     1.0  0.91481  0.08995  0.04991  1.0000
  H   H1609     1.0  0.94119  0.10805  0.03762  1.0000
  C   C909      1.0  0.94502  0.17921  0.14147  1.0000
  C   C910      1.0  0.94573  0.18784  0.17088  1.0000
  C   C911      1.0  0.92477  0.19238  0.18747  1.0000
  C   C912      1.0  0.90286  0.18823  0.17496  1.0000
  C   C913      1.0  0.90214  0.17965  0.14538  1.0000
  C   C914      1.0  0.92310  0.17516  0.12872  1.0000
  H   H1610     1.0  0.96262  0.19098  0.18111  1.0000
  H   H1611     1.0  0.92560  0.19893  0.21028  1.0000
  C   C915      1.0  0.71133  0.00682  0.39922  1.0000
  H   H1612     1.0  0.94460  0.21608  0.04627  1.0000
  H   H1613     1.0  0.94805  0.15326  0.16979  1.0000
  C   C916      1.0  0.97723  0.09069  0.09251  1.0000
  H   H1614     1.0  0.74885  0.98499  0.31382  1.0000
  H   H1615     1.0  0.88388  0.13329  0.08053  1.0000
  C   C917      1.0  0.90155  0.13134  0.06844  1.0000
  H   H1616     1.0  0.67223  0.11187  0.40610  1.0000
  H   H1617     1.0  0.61598  0.98443  0.15850  1.0000
  H   H1618     1.0  0.85069  0.06490  0.03229  1.0000
  C   C918      1.0  0.96365  0.13187  0.14261  1.0000
  H   H1619     1.0  0.77282  0.08962  0.42915  1.0000
  Fe  Fe102     1.0  0.88578  0.22671  0.30142  1.0000
  H   H1620     1.0  0.70431  0.13325  0.38539  1.0000
  H   H1621     1.0  0.93961  0.10783  0.13587  1.0000
  H   H1622     1.0  0.90794  0.14004  0.05520  1.0000
  C   C919      1.0  0.84075  0.22427  0.98212  1.0000
  C   C920      1.0  0.67156  0.13208  0.41647  1.0000
  H   H1623     1.0  0.90530  0.15447  0.17848  1.0000
  C   C921      1.0  0.74450  0.98161  0.34160  1.0000
  Fe  Fe103     1.0  0.98030  0.16141  0.07225  1.0000
  H   H1624     1.0  0.95250  0.99338  0.05209  1.0000
  H   H1625     1.0  0.70421  0.98249  0.45789  1.0000
  H   H1626     1.0  0.93591  0.12459  0.08388  1.0000
  Fe  Fe104     1.0  0.78691  0.04294  0.46541  1.0000
  C   C922      1.0  0.67791  0.99368  0.38083  1.0000
  C   C923      1.0  0.97100  0.01089  0.00687  1.0000
  H   H1627     1.0  0.87205  0.20703  0.43174  1.0000
  C   C924      1.0  0.73044  0.22200  0.23262  1.0000
  H   H1628     1.0  0.90210  0.16311  0.23969  1.0000
  C   C925      1.0  0.82031  0.98277  0.00608  1.0000
  H   H1629     1.0  0.63638  0.98619  0.21861  1.0000
  C   C926      1.0  0.84139  0.21889  0.09859  1.0000
  C   C927      1.0  0.68503  0.13475  0.38135  1.0000
  H   H1630     1.0  0.62773  0.00137  0.20051  1.0000
  H   H1631     1.0  0.92843  0.15474  0.25421  1.0000
  H   H1632     1.0  0.68906  0.01034  0.35245  1.0000
  H   H1633     1.0  0.84652  0.21754  0.00351  1.0000
  H   H1634     1.0  0.57330  0.99001  0.37875  1.0000
  C   C928      1.0  0.69234  0.00424  0.37547  1.0000
  H   H1635     1.0  0.94459  0.20027  0.06124  1.0000
  N   N51       1.0  0.93200  0.20277  0.00574  1.0000
  H   H1636     1.0  0.75706  0.21918  0.31655  1.0000
  H   H1637     1.0  0.63266  0.12725  0.46417  1.0000
  C   C929      1.0  0.57619  0.99786  0.39841  1.0000
  H   H1638     1.0  0.87760  0.06537  0.97994  1.0000
  C   C930      1.0  0.60156  0.00231  0.39378  1.0000
  C   C931      1.0  0.93599  0.05331  0.00525  1.0000
  N   N52       1.0  0.98188  0.98175  0.07049  1.0000
  H   H1639     1.0  0.52864  0.99772  0.40186  1.0000
  C   C932      1.0  0.89284  0.99552  0.98329  1.0000
  H   H1640     1.0  0.60495  0.01069  0.41143  1.0000
  H   H1641     1.0  0.56435  0.00590  0.39111  1.0000
  H   H1642     1.0  0.52461  0.19822  0.13890  1.0000
  H   H1643     1.0  0.80510  0.98951  0.00941  1.0000
  H   H1644     1.0  0.89360  0.06493  0.02254  1.0000
  H   H1645     1.0  0.93118  0.06308  0.01396  1.0000
  H   H1646     1.0  0.61435  0.99463  0.40076  1.0000
  Fe  Fe105     1.0  0.97296  0.15604  0.99125  1.0000
  C   C933      1.0  0.68217  0.98593  0.41087  1.0000
  H   H1647     1.0  0.69558  0.11756  0.43417  1.0000
  S   S209      1.0  0.78002  0.06401  0.45261  1.0000
  H   H1648     1.0  0.90573  0.14163  0.21058  1.0000
  N   N53       1.0  0.83103  0.06399  0.35322  1.0000
  C   C934      1.0  0.84810  0.05874  0.32520  1.0000
  C   C935      1.0  0.81119  0.05471  0.35741  1.0000
  C   C936      1.0  0.82198  0.07671  0.34058  1.0000
  C   C937      1.0  0.84280  0.06578  0.38982  1.0000
  C   C938      1.0  0.85694  0.05422  0.40442  1.0000
  C   C939      1.0  0.87081  0.06647  0.31912  1.0000
  C   C940      1.0  0.80205  0.08284  0.36414  1.0000
  C   C941      1.0  0.79475  0.05313  0.32374  1.0000
  C   C942      1.0  0.77444  0.04422  0.33178  1.0000
  C   C943      1.0  0.86810  0.05724  0.44139  1.0000
  C   C944      1.0  0.88774  0.05941  0.29332  1.0000
  Fe  Fe106     1.0  0.77021  0.01546  0.45908  1.0000
  H   H1649     1.0  0.83943  0.05797  0.29807  1.0000
  H   H1650     1.0  0.85342  0.04888  0.33201  1.0000
  H   H1651     1.0  0.81839  0.04512  0.36370  1.0000
  H   H1652     1.0  0.80003  0.05725  0.38141  1.0000
  H   H1653     1.0  0.81588  0.07616  0.31176  1.0000
  H   H1654     1.0  0.83658  0.08365  0.34036  1.0000
  H   H1655     1.0  0.85478  0.07404  0.38951  1.0000
  H   H1656     1.0  0.82933  0.06814  0.41103  1.0000
  H   H1657     1.0  0.87143  0.05129  0.38575  1.0000
  H   H1658     1.0  0.84511  0.04609  0.40801  1.0000
  H   H1659     1.0  0.86639  0.07573  0.30659  1.0000
  H   H1660     1.0  0.88040  0.06821  0.34499  1.0000
  H   H1661     1.0  0.80847  0.08479  0.39219  1.0000
  H   H1662     1.0  0.78646  0.07664  0.36601  1.0000
  H   H1663     1.0  0.78670  0.06228  0.31549  1.0000
  H   H1664     1.0  0.80466  0.04908  0.30020  1.0000
  H   H1665     1.0  0.76380  0.04784  0.35520  1.0000
  H   H1666     1.0  0.76272  0.04353  0.30758  1.0000
  H   H1667     1.0  0.78128  0.03458  0.33796  1.0000
  C   C945      1.0  0.49854  0.21264  0.15370  1.0000
  C   C946      1.0  0.71650  0.22383  0.16671  1.0000
  H   H1668     1.0  0.97121  0.07122  0.02183  1.0000
  H   H1669     1.0  0.90342  0.06530  0.28797  1.0000
  H   H1670     1.0  0.89387  0.05038  0.30573  1.0000
  H   H1671     1.0  0.87899  0.05726  0.26687  1.0000
  H   H1672     1.0  0.49250  0.01487  0.42897  1.0000
  H   H1673     1.0  0.84163  0.22655  0.11962  1.0000
  H   H1674     1.0  0.96826  0.14005  0.12511  1.0000
  H   H1675     1.0  0.90926  0.21552  0.46391  1.0000
  S   S210      1.0  0.72644  0.14131  0.46163  1.0000
  C   C947      1.0  0.76731  0.98325  0.36479  1.0000
  H   H1676     1.0  0.75284  0.22411  0.18378  1.0000
  Fe  Fe107     1.0  0.75547  0.15573  0.46258  1.0000
  C   C948      1.0  0.76466  0.20102  0.22670  1.0000
  C   C949      1.0  0.89558  0.04723  0.98956  1.0000
  H   H1677     1.0  0.52315  0.98169  0.11707  1.0000
  C   C950      1.0  0.73234  0.20530  0.30123  1.0000
  H   H1678     1.0  0.71625  0.21340  0.16264  1.0000
  C   C951      1.0  0.78626  0.19227  0.22254  1.0000
  H   H1679     1.0  0.89940  0.20153  0.06627  1.0000
  H   H1680     1.0  0.67767  0.13889  0.43724  1.0000
  H   H1681     1.0  0.85406  0.99393  0.05287  1.0000
  H   H1682     1.0  0.78305  0.21856  0.22789  1.0000
  H   H1683     1.0  0.61089  0.99461  0.23692  1.0000
  C   C952      1.0  0.98373  0.13044  0.17128  1.0000
  H   H1684     1.0  0.97746  0.01822  0.02625  1.0000
  H   H1685     1.0  0.78637  0.09396  0.32028  1.0000
  C   C953      1.0  0.57171  0.99345  0.43797  1.0000
  H   H1686     1.0  0.78233  0.21101  0.27068  1.0000
  H   H1687     1.0  0.75792  0.20304  0.19892  1.0000
  H   H1688     1.0  0.75091  0.19569  0.24102  1.0000
  C   C954      1.0  0.92226  0.13699  0.12773  1.0000
  H   H1689     1.0  0.71927  0.20284  0.27997  1.0000
  S   S211      1.0  0.65540  0.99032  0.34858  1.0000
  C   C955      1.0  0.95608  0.19840  0.99286  1.0000
  C   C956      1.0  0.59466  0.15904  0.46526  1.0000
  H   H1690     1.0  0.74705  0.19821  0.30081  1.0000
  N   N54       1.0  0.54759  0.98815  0.44529  1.0000
  H   H1691     1.0  0.58564  0.98621  0.44415  1.0000
  C   C957      1.0  0.62101  0.99237  0.21166  1.0000
  H   H1692     1.0  0.79373  0.18986  0.24968  1.0000
  H   H1693     1.0  0.78112  0.18334  0.20861  1.0000
  H   H1694     1.0  0.80006  0.19685  0.20592  1.0000
  H   H1695     1.0  0.77957  0.09964  0.36558  1.0000
  C   C958      1.0  0.93419  0.20723  0.04482  1.0000
  C   C959      1.0  0.51034  0.01913  0.42929  1.0000
  C   C960      1.0  0.81427  0.22787  0.98720  1.0000
  H   H1696     1.0  0.68195  0.14477  0.37346  1.0000
  H   H1697     1.0  0.93322  0.22223  0.98769  1.0000
  N   N55       1.0  0.93918  0.13371  0.15819  1.0000
  H   H1698     1.0  0.66066  0.09512  0.44231  1.0000
  C   C961      1.0  0.97654  0.06110  0.02437  1.0000
  H   H1699     1.0  0.90631  0.16219  0.04109  1.0000
  C   C962      1.0  0.76784  0.08936  0.45751  1.0000
  C   C963      1.0  0.49231  0.20456  0.45678  1.0000
  C   C964      1.0  0.92593  0.09832  0.18223  1.0000
  C   C965      1.0  0.60523  0.98590  0.18342  1.0000
  H   H1700     1.0  0.97523  0.00194  0.07451  1.0000
  H   H1701     1.0  0.90556  0.98802  0.98856  1.0000
  H   H1702     1.0  0.80847  0.10221  0.34686  1.0000
  C   C966      1.0  0.93079  0.12228  0.17889  1.0000
  C   C967      1.0  0.91531  0.19182  0.00226  1.0000
  H   H1703     1.0  0.96390  0.19162  0.01261  1.0000
  H   H1704     1.0  0.51611  0.02076  0.40084  1.0000
  H   H1705     1.0  0.93574  0.12300  0.20823  1.0000
  H   H1706     1.0  0.92786  0.14589  0.11436  1.0000
  C   C968      1.0  0.88269  0.05936  0.00342  1.0000
  H   H1707     1.0  0.90051  0.21775  0.05184  1.0000
  H   H1708     1.0  0.58132  0.16256  0.44666  1.0000
  H   H1709     1.0  0.49631  0.22017  0.20790  1.0000
  H   H1710     1.0  0.78128  0.22288  0.03712  1.0000
  H   H1711     1.0  0.65259  0.13406  0.41111  1.0000
  H   H1712     1.0  0.88118  0.06492  0.43875  1.0000
  H   H1713     1.0  0.77927  0.00018  0.33681  1.0000
  H   H1714     1.0  0.95170  0.14298  0.20741  1.0000
  H   H1715     1.0  0.73101  0.98840  0.35259  1.0000
  H   H1716     1.0  0.90024  0.16692  0.99498  1.0000
  H   H1717     1.0  0.80483  0.21869  0.98813  1.0000
  H   H1718     1.0  0.71431  0.19417  0.34187  1.0000
  H   H1719     1.0  0.89976  0.12387  0.04714  1.0000
  C   C969      1.0  0.94014  0.10904  0.16579  1.0000
  C   C970      1.0  0.94000  0.14502  0.18374  1.0000
  C   C971      1.0  0.77113  0.21352  0.24680  1.0000
  H   H1720     1.0  0.84161  0.98826  0.09458  1.0000
  C   C972      1.0  0.52885  0.98237  0.32550  1.0000
  C   C973      1.0  0.91598  0.14964  0.19975  1.0000
  C   C974      1.0  0.50471  0.98248  0.33459  1.0000
  C   C975      1.0  0.91531  0.21415  0.10462  1.0000
  H   H1721     1.0  0.97320  0.05795  0.05269  1.0000
  H   H1722     1.0  0.95139  0.01089  0.00741  1.0000
  H   H1723     1.0  0.93317  0.04757  0.03008  1.0000
  H   H1724     1.0  0.76448  0.98056  0.39362  1.0000
  N   N56       1.0  0.75102  0.22214  0.25881  1.0000
  C   C976      1.0  0.52828  0.99699  0.43211  1.0000
  C   C977      1.0  0.79368  0.09543  0.34808  1.0000
  H   H1725     1.0  0.84658  0.19997  0.41084  1.0000
  H   H1726     1.0  0.84806  0.05053  0.00567  1.0000
  H   H1727     1.0  0.96447  0.12361  0.12386  1.0000
  S   S212      1.0  0.74070  0.00088  0.45787  1.0000
  H   H1728     1.0  0.72362  0.21230  0.22876  1.0000
  C   C978      1.0  0.86001  0.05606  0.02359  1.0000
  H   H1729     1.0  0.90424  0.13887  0.13862  1.0000
  H   H1730     1.0  0.96978  0.04308  0.99977  1.0000
  H   H1731     1.0  0.83471  0.98852  0.99411  1.0000
  H   H1732     1.0  0.85436  0.06019  0.46147  1.0000
  H   H1733     1.0  0.58863  0.11531  0.44302  1.0000
  C   C979      1.0  0.82124  0.22114  0.07153  1.0000
  H   H1734     1.0  0.88437  0.17432  0.03266  1.0000
  H   H1735     1.0  0.74003  0.22060  0.01755  1.0000
  C   C980      1.0  0.74243  0.21873  0.29640  1.0000
  C   C981      1.0  0.91951  0.15926  0.23060  1.0000
  H   H1736     1.0  0.92661  0.09875  0.21248  1.0000
  H   H1737     1.0  0.72887  0.22580  0.30576  1.0000
  H   H1738     1.0  0.93345  0.08905  0.17300  1.0000
  H   H1739     1.0  0.67883  0.12852  0.35885  1.0000
  H   H1740     1.0  0.59037  0.99255  0.17769  1.0000
  S   S213      1.0  0.50251  0.14489  0.43164  1.0000
  H   H1741     1.0  0.60458  0.00499  0.36496  1.0000
  H   H1742     1.0  0.52532  0.20288  0.18629  1.0000
  H   H1743     1.0  0.83895  0.20973  0.11262  1.0000
  H   H1744     1.0  0.92798  0.22374  0.43272  1.0000
  C   C982      1.0  0.83750  0.99081  0.06595  1.0000
  H   H1745     1.0  0.87731  0.04865  0.45184  1.0000
  C   C983      1.0  0.71991  0.20411  0.33801  1.0000
  H   H1746     1.0  0.97907  0.99998  0.19827  1.0000
  C   C984      1.0  0.92087  0.18033  0.02696  1.0000
  H   H1747     1.0  0.93793  0.17580  0.01912  1.0000
  H   H1748     1.0  0.50911  0.02846  0.44342  1.0000
  H   H1749     1.0  0.82115  0.21324  0.05138  1.0000
  C   C985      1.0  0.49199  0.99399  0.33852  1.0000
  H   H1750     1.0  0.72032  0.22831  0.14009  1.0000
  H   H1751     1.0  0.69884  0.22721  0.17610  1.0000
  H   H1752     1.0  0.63237  0.11630  0.42717  1.0000
  H   H1753     1.0  0.84522  0.21624  0.42663  1.0000
  C   C986      1.0  0.77534  0.99701  0.36491  1.0000
  H   H1754     1.0  0.75882  0.10937  0.45993  1.0000
  Fe  Fe108     1.0  0.98758  0.13410  0.04202  1.0000
  H   H1755     1.0  0.95881  0.10763  0.17421  1.0000
  H   H1756     1.0  0.94287  0.98322  0.16915  1.0000
  C   C987      1.0  0.90169  0.17037  0.02361  1.0000
  C   C988      1.0  0.61880  0.16166  0.45916  1.0000
  H   H1757     1.0  0.54570  0.01505  0.44642  1.0000
  C   C989      1.0  0.66697  0.10020  0.46718  1.0000
  H   H1758     1.0  0.89832  0.21556  0.11932  1.0000
  H   H1759     1.0  0.49760  0.19630  0.43952  1.0000
  C   C990      1.0  0.63679  0.11719  0.45671  1.0000
  H   H1760     1.0  0.89677  0.19502  0.00720  1.0000
  H   H1761     1.0  0.92198  0.18315  0.05598  1.0000
  H   H1762     1.0  0.94107  0.21345  0.46621  1.0000
  C   C991      1.0  0.91065  0.21003  0.06523  1.0000
  H   H1763     1.0  0.92569  0.20674  0.11911  1.0000
  H   H1764     1.0  0.50506  0.21226  0.45202  1.0000
  S   S214      1.0  0.88681  0.22775  0.23973  1.0000
  H   H1765     1.0  0.89594  0.04027  0.01228  1.0000
  H   H1766     1.0  0.82452  0.99880  0.06616  1.0000
  H   H1767     1.0  0.50201  0.19281  0.16935  1.0000
  C   C992      1.0  0.51350  0.20092  0.16276  1.0000
  H   H1768     1.0  0.97747  0.98809  0.12641  1.0000
  H   H1769     1.0  0.70400  0.21037  0.33917  1.0000
  H   H1770     1.0  0.57551  0.00151  0.45673  1.0000
  C   C993      1.0  0.73550  0.22748  0.19430  1.0000
  H   H1771     1.0  0.85863  0.21854  0.08425  1.0000
  C   C994      1.0  0.97457  0.20891  0.98732  1.0000
  H   H1772     1.0  0.97430  0.99107  0.99607  1.0000
  H   H1773     1.0  0.61866  0.09911  0.46292  1.0000
  H   H1774     1.0  0.81083  0.19656  0.44715  1.0000
  H   H1775     1.0  0.82049  0.17647  0.45729  1.0000
  H   H1776     1.0  0.70480  0.09862  0.45188  1.0000
  H   H1777     1.0  0.97682  0.01336  0.97896  1.0000
  H   H1778     1.0  0.73604  0.19827  0.46567  1.0000
  H   H1779     1.0  0.51084  0.22023  0.14582  1.0000
  H   H1780     1.0  0.97736  0.21437  0.01289  1.0000
  H   H1781     1.0  0.82497  0.15372  0.47206  1.0000
  H   H1782     1.0  0.80450  0.22091  0.08731  1.0000
  C   C995      1.0  0.96289  0.05294  0.99723  1.0000
  C   C996      1.0  0.97140  0.98030  0.10810  1.0000
  C   C997      1.0  0.84436  0.20219  0.47006  1.0000
  H   H1783     1.0  0.81079  0.21165  0.46795  1.0000
  H   H1784     1.0  0.77164  0.21155  0.46603  1.0000
  C   C998      1.0  0.81712  0.20174  0.47182  1.0000
  H   H1785     1.0  0.53655  0.99467  0.14184  1.0000
  H   H1786     1.0  0.57647  0.98627  0.12477  1.0000
  H   H1787     1.0  0.54026  0.99325  0.09319  1.0000
  C   C999      1.0  0.59348  0.11414  0.47217  1.0000
  H   H1788     1.0  0.85257  0.19274  0.47455  1.0000
  C   C1000     1.0  0.94403  0.98018  0.11027  1.0000
  C   C1001     1.0  0.53890  0.98782  0.11888  1.0000
  S   S215      1.0  0.66680  0.16108  0.47396  1.0000
  C   C1002     1.0  0.69291  0.09591  0.47440  1.0000
  H   H1789     1.0  0.75226  0.17840  0.87707  1.0000
  Fe  Fe109     1.0  0.85415  0.20290  0.73550  1.0000
  S   S216      1.0  0.89121  0.21045  0.73312  1.0000
  S   S217      1.0  0.84389  0.18699  0.69517  1.0000
  C   C1003     1.0  0.52380  0.15684  0.61207  1.0000
  C   C1004     1.0  0.79390  0.03549  0.66286  1.0000
  H   H1790     1.0  0.80345  0.02678  0.65341  1.0000
  Fe  Fe110     1.0  0.89153  0.20937  0.79481  1.0000
  S   S218      1.0  0.92455  0.20322  0.82727  1.0000
  H   H1791     1.0  0.91241  0.22073  0.89129  1.0000
  S   S219      1.0  0.85593  0.20035  0.79671  1.0000
  C   C1005     1.0  0.76985  0.05390  0.64414  1.0000
  Fe  Fe111     1.0  0.74747  0.16270  0.54281  1.0000
  S   S220      1.0  0.77145  0.14845  0.51497  1.0000
  S   S221      1.0  0.75750  0.17788  0.58553  1.0000
  H   H1792     1.0  0.94476  0.01832  0.90899  1.0000
  Fe  Fe112     1.0  0.87425  0.22969  0.74035  1.0000
  Fe  Fe113     1.0  0.74066  0.13509  0.51591  1.0000
  C   C1006     1.0  0.67197  0.12169  0.49527  1.0000
  H   H1793     1.0  0.87996  0.21861  0.64817  1.0000
  S   S222      1.0  0.71745  0.14890  0.54803  1.0000
  H   H1794     1.0  0.91137  0.07551  0.97104  1.0000
  H   H1795     1.0  0.49432  0.14542  0.66052  1.0000
  H   H1796     1.0  0.93185  0.07650  0.89348  1.0000
  H   H1797     1.0  0.76519  0.03938  0.58149  1.0000
  H   H1798     1.0  0.89693  0.02694  0.94017  1.0000
  H   H1799     1.0  0.92836  0.01021  0.94393  1.0000
  Fe  Fe114     1.0  0.80980  0.02164  0.51302  1.0000
  S   S223      1.0  0.83004  0.01799  0.56721  1.0000
  S   S224      1.0  0.77248  0.02923  0.50656  1.0000
  S   S225      1.0  0.86962  0.99111  0.80435  1.0000
  H   H1800     1.0  0.86351  0.21450  0.94291  1.0000
  C   C1007     1.0  0.92354  0.07182  0.94981  1.0000
  H   H1801     1.0  0.52903  0.14879  0.59390  1.0000
  H   H1802     1.0  0.62222  0.10750  0.50522  1.0000
  Fe  Fe115     1.0  0.84884  0.99026  0.85666  1.0000
  S   S226      1.0  0.84859  0.00598  0.90037  1.0000
  C   C1008     1.0  0.82679  0.00948  0.60924  1.0000
  C   C1009     1.0  0.84509  0.00992  0.63538  1.0000
  C   C1010     1.0  0.84311  0.00384  0.66956  1.0000
  C   C1011     1.0  0.82258  0.99730  0.67859  1.0000
  C   C1012     1.0  0.80420  0.99695  0.65254  1.0000
  C   C1013     1.0  0.80632  0.00287  0.61815  1.0000
  H   H1803     1.0  0.86102  0.01499  0.62913  1.0000
  H   H1804     1.0  0.90700  0.20394  0.93547  1.0000
  H   H1805     1.0  0.96673  0.05627  0.96929  1.0000
  H   H1806     1.0  0.79203  0.00237  0.59864  1.0000
  C   C1014     1.0  0.75306  0.10047  0.51157  1.0000
  H   H1807     1.0  0.76859  0.21422  0.51441  1.0000
  H   H1808     1.0  0.52681  0.98328  0.49248  1.0000
  H   H1809     1.0  0.76013  0.05108  0.66910  1.0000
  C   C1015     1.0  0.86392  0.00520  0.94263  1.0000
  C   C1016     1.0  0.76256  0.07766  0.51302  1.0000
  H   H1810     1.0  0.72496  0.01374  0.60558  1.0000
  C   C1017     1.0  0.63659  0.15724  0.48300  1.0000
  S   S227      1.0  0.55764  0.14820  0.50485  1.0000
  C   C1018     1.0  0.81423  0.03430  0.72445  1.0000
  C   C1019     1.0  0.82830  0.16111  0.49315  1.0000
  Fe  Fe116     1.0  0.52024  0.15274  0.48221  1.0000
  C   C1020     1.0  0.83376  0.21377  0.59086  1.0000
  C   C1021     1.0  0.81653  0.18327  0.51431  1.0000
  H   H1811     1.0  0.73198  0.07035  0.65850  1.0000
  H   H1812     1.0  0.79539  0.17033  0.48113  1.0000
  H   H1813     1.0  0.77409  0.98659  0.89160  1.0000
  C   C1022     1.0  0.82090  0.18523  0.66225  1.0000
  C   C1023     1.0  0.80337  0.19450  0.65681  1.0000
  C   C1024     1.0  0.78441  0.19216  0.63270  1.0000
  C   C1025     1.0  0.78288  0.18065  0.61319  1.0000
  C   C1026     1.0  0.80090  0.17158  0.61753  1.0000
  C   C1027     1.0  0.81965  0.17383  0.64209  1.0000
  H   H1814     1.0  0.80414  0.20336  0.67179  1.0000
  H   H1815     1.0  0.77064  0.19927  0.62954  1.0000
  H   H1816     1.0  0.80002  0.16267  0.60281  1.0000
  H   H1817     1.0  0.83311  0.16659  0.64594  1.0000
  C   C1028     1.0  0.93917  0.17286  0.91537  1.0000
  C   C1029     1.0  0.95727  0.18045  0.90220  1.0000
  C   C1030     1.0  0.95245  0.18960  0.87521  1.0000
  C   C1031     1.0  0.92953  0.19133  0.86090  1.0000
  C   C1032     1.0  0.91141  0.18375  0.87414  1.0000
  C   C1033     1.0  0.91625  0.17457  0.90106  1.0000
  H   H1818     1.0  0.97504  0.17919  0.91253  1.0000
  H   H1819     1.0  0.96664  0.19537  0.86516  1.0000
  H   H1820     1.0  0.89372  0.18492  0.86346  1.0000
  H   H1821     1.0  0.90211  0.16872  0.91080  1.0000
  S   S228      1.0  0.81550  0.98414  0.82773  1.0000
  C   C1034     1.0  0.80342  0.05544  0.57581  1.0000
  H   H1822     1.0  0.78636  0.21491  0.72887  1.0000
  H   H1823     1.0  0.91539  0.18804  0.97382  1.0000
  C   C1035     1.0  0.49693  0.15778  0.61532  1.0000
  H   H1824     1.0  0.75757  0.06052  0.58978  1.0000
  H   H1825     1.0  0.78083  0.06205  0.65299  1.0000
  C   C1036     1.0  0.66139  0.11835  0.53280  1.0000
  H   H1826     1.0  0.80289  0.05161  0.69877  1.0000
  C   C1037     1.0  0.92460  0.22722  0.52754  1.0000
  H   H1827     1.0  0.58054  0.98216  0.50666  1.0000
  C   C1038     1.0  0.75340  0.02616  0.62195  1.0000
  C   C1039     1.0  0.67478  0.12471  0.56396  1.0000
  H   H1828     1.0  0.96892  0.21556  0.96567  1.0000
  C   C1040     1.0  0.83142  0.20306  0.56285  1.0000
  H   H1829     1.0  0.49319  0.20190  0.48600  1.0000
  H   H1830     1.0  0.49438  0.13726  0.61819  1.0000
  H   H1831     1.0  0.82667  0.03913  0.74319  1.0000
  H   H1832     1.0  0.59200  0.12349  0.48619  1.0000
  C   C1041     1.0  0.73986  0.07148  0.63102  1.0000
  H   H1833     1.0  0.82367  0.06329  0.53145  1.0000
  H   H1834     1.0  0.92236  0.08975  0.92142  1.0000
  H   H1835     1.0  0.89036  0.22165  0.58222  1.0000
  C   C1042     1.0  0.78134  0.99387  0.91039  1.0000
  C   C1043     1.0  0.54499  0.98638  0.48580  1.0000
  H   H1836     1.0  0.93493  0.05468  0.92313  1.0000
  H   H1837     1.0  0.88364  0.04325  0.96850  1.0000
  S   S229      1.0  0.94398  0.16110  0.94945  1.0000
  H   H1838     1.0  0.84826  0.21142  0.61013  1.0000
  N   N57       1.0  0.80647  0.19623  0.50578  1.0000
  H   H1839     1.0  0.82189  0.02486  0.71709  1.0000
  H   H1840     1.0  0.64283  0.12181  0.53436  1.0000
  S   S230      1.0  0.74221  0.11434  0.53468  1.0000
  H   H1841     1.0  0.83557  0.18372  0.52113  1.0000
  H   H1842     1.0  0.69359  0.12159  0.56403  1.0000
  H   H1843     1.0  0.67376  0.13516  0.56146  1.0000
  H   H1844     1.0  0.66679  0.12210  0.59043  1.0000
  H   H1845     1.0  0.88370  0.98822  0.92983  1.0000
  C   C1044     1.0  0.92895  0.03573  0.96305  1.0000
  H   H1846     1.0  0.85743  0.00428  0.68902  1.0000
  H   H1847     1.0  0.53208  0.15558  0.63927  1.0000
  Fe  Fe117     1.0  0.84143  0.22035  0.80120  1.0000
  C   C1045     1.0  0.92036  0.05743  0.94216  1.0000
  N   N58       1.0  0.77748  0.17606  0.75359  1.0000
  C   C1046     1.0  0.78461  0.18980  0.75315  1.0000
  C   C1047     1.0  0.79912  0.16753  0.75680  1.0000
  C   C1048     1.0  0.76579  0.17313  0.71743  1.0000
  C   C1049     1.0  0.75993  0.17345  0.78339  1.0000
  C   C1050     1.0  0.76720  0.17719  0.82268  1.0000
  C   C1051     1.0  0.91507  0.02920  0.93169  1.0000
  C   C1052     1.0  0.75893  0.15909  0.71075  1.0000
  C   C1053     1.0  0.82001  0.17240  0.78021  1.0000
  C   C1054     1.0  0.83908  0.16217  0.78498  1.0000
  C   C1055     1.0  0.74643  0.17598  0.84895  1.0000
  H   H1848     1.0  0.54696  0.99556  0.50051  1.0000
  C   C1056     1.0  0.74893  0.15718  0.67238  1.0000
  H   H1849     1.0  0.79751  0.19130  0.73086  1.0000
  H   H1850     1.0  0.84797  0.20249  0.54692  1.0000
  H   H1851     1.0  0.79415  0.15806  0.76724  1.0000
  H   H1852     1.0  0.80705  0.16573  0.72931  1.0000
  H   H1853     1.0  0.77751  0.17593  0.69463  1.0000
  H   H1854     1.0  0.74919  0.17873  0.71411  1.0000
  H   H1855     1.0  0.74265  0.17812  0.77720  1.0000
  H   H1856     1.0  0.75607  0.16317  0.78436  1.0000
  H   H1857     1.0  0.78714  0.00202  0.89386  1.0000
  H   H1858     1.0  0.78134  0.17069  0.83244  1.0000
  Fe  Fe118     1.0  0.83732  0.98347  0.77570  1.0000
  H   H1859     1.0  0.77327  0.18710  0.82465  1.0000
  H   H1860     1.0  0.74510  0.15620  0.73024  1.0000
  H   H1861     1.0  0.77437  0.15259  0.71353  1.0000
  H   H1862     1.0  0.82836  0.18042  0.76622  1.0000
  H   H1863     1.0  0.81448  0.17577  0.80752  1.0000
  H   H1864     1.0  0.85404  0.16611  0.80087  1.0000
  H   H1865     1.0  0.83199  0.15395  0.79986  1.0000
  H   H1866     1.0  0.84593  0.15898  0.75799  1.0000
  C   C1057     1.0  0.77364  0.21318  0.75121  1.0000
  H   H1867     1.0  0.91605  0.01197  0.89900  1.0000
  H   H1868     1.0  0.94746  0.03612  0.95316  1.0000
  H   H1869     1.0  0.93781  0.20723  0.93019  1.0000
  C   C1058     1.0  0.80243  0.98853  0.93153  1.0000
  H   H1870     1.0  0.93524  0.22189  0.59506  1.0000
  H   H1871     1.0  0.73366  0.16366  0.66746  1.0000
  H   H1872     1.0  0.76269  0.15892  0.65159  1.0000
  H   H1873     1.0  0.74294  0.14727  0.66892  1.0000
  C   C1059     1.0  0.92690  0.01668  0.92031  1.0000
  S   S231      1.0  0.83704  0.22212  0.74028  1.0000
  C   C1060     1.0  0.76612  0.20722  0.49205  1.0000
  H   H1874     1.0  0.78598  0.02751  0.59217  1.0000
  C   C1061     1.0  0.84488  0.21781  0.94513  1.0000
  H   H1875     1.0  0.90097  0.07849  0.90553  1.0000
  H   H1876     1.0  0.75878  0.22009  0.74870  1.0000
  H   H1877     1.0  0.82002  0.04028  0.60650  1.0000
  H   H1878     1.0  0.73978  0.16613  0.84881  1.0000
  S   S232      1.0  0.49133  0.14594  0.51917  1.0000
  H   H1879     1.0  0.72575  0.07463  0.61194  1.0000
  H   H1880     1.0  0.73612  0.05205  0.61492  1.0000
  H   H1881     1.0  0.90669  0.21031  0.63484  1.0000
  Fe  Fe119     1.0  0.70453  0.15569  0.49336  1.0000
  H   H1882     1.0  0.97212  0.22838  0.59100  1.0000
  H   H1883     1.0  0.92925  0.22997  0.92324  1.0000
  H   H1884     1.0  0.74162  0.03200  0.63965  1.0000
  H   H1885     1.0  0.60073  0.14202  0.54271  1.0000
  C   C1062     1.0  0.80938  0.20508  0.53825  1.0000
  H   H1886     1.0  0.83650  0.04913  0.55068  1.0000
  H   H1887     1.0  0.75580  0.19876  0.72149  1.0000
  H   H1888     1.0  0.49001  0.15937  0.58762  1.0000
  N   N59       1.0  0.78558  0.04317  0.63055  1.0000
  H   H1889     1.0  0.80785  0.17952  0.53920  1.0000
  H   H1890     1.0  0.72933  0.02689  0.57543  1.0000
  H   H1891     1.0  0.85109  0.20902  0.49056  1.0000
  H   H1892     1.0  0.82971  0.19409  0.57826  1.0000
  H   H1893     1.0  0.79428  0.19249  0.77829  1.0000
  C   C1063     1.0  0.82696  0.05814  0.55730  1.0000
  H   H1894     1.0  0.64299  0.14689  0.53219  1.0000
  H   H1895     1.0  0.75350  0.07893  0.63215  1.0000
  H   H1896     1.0  0.90380  0.05623  0.92611  1.0000
  H   H1897     1.0  0.89810  0.22741  0.93100  1.0000
  H   H1898     1.0  0.95475  0.19288  0.96703  1.0000
  H   H1899     1.0  0.49257  0.16627  0.63224  1.0000
  H   H1900     1.0  0.93619  0.21881  0.53221  1.0000
  H   H1901     1.0  0.66208  0.10803  0.53789  1.0000
  C   C1064     1.0  0.60567  0.14747  0.51918  1.0000
  C   C1065     1.0  0.62977  0.15012  0.51312  1.0000
  H   H1902     1.0  0.78248  0.21483  0.77787  1.0000
  H   H1903     1.0  0.77203  0.18993  0.52247  1.0000
  H   H1904     1.0  0.76142  0.01852  0.63879  1.0000
  H   H1905     1.0  0.72989  0.21373  0.48481  1.0000
  C   C1066     1.0  0.58785  0.15193  0.49543  1.0000
  H   H1906     1.0  0.77616  0.22869  0.89692  1.0000
  H   H1907     1.0  0.53060  0.16566  0.59988  1.0000
  H   H1908     1.0  0.73308  0.20033  0.51456  1.0000
  C   C1067     1.0  0.77307  0.03426  0.60480  1.0000
  H   H1909     1.0  0.74977  0.01355  0.57488  1.0000
  C   C1068     1.0  0.76433  0.19969  0.74860  1.0000
  H   H1910     1.0  0.82293  0.15738  0.52008  1.0000
  H   H1911     1.0  0.79475  0.06474  0.58143  1.0000
  S   S233      1.0  0.81854  0.98972  0.72198  1.0000
  C   C1069     1.0  0.73848  0.01973  0.59258  1.0000
  H   H1912     1.0  0.83823  0.06407  0.57520  1.0000
  C   C1070     1.0  0.75064  0.05895  0.61745  1.0000
  C   C1071     1.0  0.81411  0.17308  0.48396  1.0000
  H   H1913     1.0  0.73186  0.18260  0.84133  1.0000
  H   H1914     1.0  0.76345  0.06887  0.52780  1.0000
  C   C1072     1.0  0.80727  0.04820  0.61192  1.0000
  H   H1915     1.0  0.91398  0.03530  0.90726  1.0000
  H   H1916     1.0  0.80905  0.21514  0.52932  1.0000
  S   S234      1.0  0.87719  0.22937  0.80193  1.0000
  H   H1917     1.0  0.77856  0.03212  0.67886  1.0000
  S   S235      1.0  0.50235  0.17182  0.47751  1.0000
  H   H1918     1.0  0.82805  0.04369  0.67797  1.0000
  C   C1073     1.0  0.81039  0.04228  0.69031  1.0000
  C   C1074     1.0  0.78032  0.19478  0.49906  1.0000
  H   H1919     1.0  0.80938  0.99629  0.94885  1.0000
  H   H1920     1.0  0.74902  0.08865  0.55868  1.0000
  H   H1921     1.0  0.81613  0.98574  0.91131  1.0000
  C   C1075     1.0  0.88033  0.99555  0.95004  1.0000
  H   H1922     1.0  0.79412  0.20422  0.55731  1.0000
  S   S236      1.0  0.81209  0.22302  0.84377  1.0000
  H   H1923     1.0  0.79276  0.05003  0.55594  1.0000
  H   H1924     1.0  0.81723  0.21497  0.60687  1.0000
  H   H1925     1.0  0.81670  0.05493  0.63008  1.0000
  H   H1926     1.0  0.90806  0.22486  0.66110  1.0000
  H   H1927     1.0  0.79729  0.03294  0.73905  1.0000
  H   H1928     1.0  0.83332  0.20946  0.94178  1.0000
  C   C1076     1.0  0.89846  0.21983  0.63900  1.0000
  C   C1077     1.0  0.91476  0.22304  0.92069  1.0000
  H   H1929     1.0  0.75080  0.19867  0.77015  1.0000
  C   C1078     1.0  0.75436  0.08890  0.53041  1.0000
  H   H1930     1.0  0.69958  0.10011  0.50020  1.0000
  H   H1931     1.0  0.69157  0.12084  0.49698  1.0000
  H   H1932     1.0  0.76727  0.99721  0.92937  1.0000
  C   C1079     1.0  0.92094  0.21095  0.94145  1.0000
  H   H1933     1.0  0.52313  0.01036  0.47789  1.0000
  H   H1934     1.0  0.84750  0.16310  0.49359  1.0000
  C   C1080     1.0  0.91941  0.07956  0.91535  1.0000
  H   H1935     1.0  0.65644  0.09633  0.48982  1.0000
  H   H1936     1.0  0.78822  0.99195  0.65892  1.0000
  H   H1937     1.0  0.71358  0.07873  0.48258  1.0000
  H   H1938     1.0  0.90637  0.22351  0.52884  1.0000
  S   S237      1.0  0.73290  0.17051  0.49013  1.0000
  C   C1081     1.0  0.73969  0.20468  0.48912  1.0000
  H   H1939     1.0  0.84710  0.02216  0.96389  1.0000
  H   H1940     1.0  0.94180  0.07370  0.95926  1.0000
  H   H1941     1.0  0.83786  0.22282  0.57720  1.0000
  C   C1082     1.0  0.61851  0.10868  0.47586  1.0000
  C   C1083     1.0  0.85992  0.01471  0.96920  1.0000
  H   H1942     1.0  0.58064  0.10768  0.48489  1.0000
  H   H1943     1.0  0.84120  0.22453  0.92258  1.0000
  H   H1944     1.0  0.68426  0.07825  0.50143  1.0000
  C   C1084     1.0  0.69485  0.08153  0.47795  1.0000
  C   C1085     1.0  0.89892  0.22742  0.60371  1.0000
  H   H1945     1.0  0.97284  0.22456  0.54287  1.0000
  C   C1086     1.0  0.76943  0.07782  0.47639  1.0000
  H   H1946     1.0  0.66850  0.13200  0.49169  1.0000
  C   C1087     1.0  0.75983  0.10060  0.47492  1.0000
  H   H1947     1.0  0.55255  0.98128  0.55953  1.0000
  N   N60       1.0  0.92024  0.04876  0.97473  1.0000
  S   S238      1.0  0.82436  0.03638  0.47494  1.0000
  H   H1948     1.0  0.77710  0.18858  0.47508  1.0000
  H   H1949     1.0  0.85370  0.40789  0.35229  1.0000
  H   H1950     1.0  0.91200  0.41919  0.45770  1.0000
  S   S239      1.0  0.49327  0.26691  0.97832  1.0000
  H   H1951     1.0  0.95388  0.25682  0.23175  1.0000
  H   H1952     1.0  0.63651  0.32002  0.04662  1.0000
  Fe  Fe120     1.0  0.79940  0.41172  0.03099  1.0000
  S   S240      1.0  0.80198  0.41678  0.09300  1.0000
  S   S241      1.0  0.76161  0.40804  0.01411  1.0000
  H   H1953     1.0  0.60456  0.33642  0.04263  1.0000
  S   S242      1.0  0.87477  0.44957  0.33061  1.0000
  H   H1954     1.0  0.87873  0.25698  0.27409  1.0000
  Fe  Fe121     1.0  0.81554  0.46781  0.34801  1.0000
  S   S243      1.0  0.81755  0.44723  0.33087  1.0000
  H   H1955     1.0  0.91699  0.43240  0.36777  1.0000
  Fe  Fe122     1.0  0.84685  0.44551  0.37242  1.0000
  S   S244      1.0  0.84733  0.42973  0.41493  1.0000
  Fe  Fe123     1.0  0.84497  0.45309  0.29015  1.0000
  S   S245      1.0  0.84865  0.44715  0.22896  1.0000
  S   S246      1.0  0.84323  0.46555  0.39129  1.0000
  C   C1088     1.0  0.74895  0.43690  0.06770  1.0000
  H   H1956     1.0  0.93631  0.27546  0.22262  1.0000
  H   H1957     1.0  0.79205  0.46340  0.42639  1.0000
  Fe  Fe124     1.0  0.70530  0.28526  0.00278  1.0000
  H   H1958     1.0  0.93193  0.29047  0.29513  1.0000
  H   H1959     1.0  0.50681  0.23996  0.17337  1.0000
  Fe  Fe125     1.0  0.74464  0.27288  0.05025  1.0000
  S   S247      1.0  0.77344  0.28347  0.02275  1.0000
  S   S248      1.0  0.75316  0.25738  0.09210  1.0000
  Fe  Fe126     1.0  0.74916  0.30053  0.02518  1.0000
  S   S249      1.0  0.76440  0.31972  0.04181  1.0000
  H   H1960     1.0  0.90538  0.40937  0.32684  1.0000
  S   S250      1.0  0.72137  0.29033  0.05740  1.0000
  S   S251      1.0  0.72669  0.26701  0.99739  1.0000
  H   H1961     1.0  0.77731  0.43919  0.46662  1.0000
  H   H1962     1.0  0.81220  0.45224  0.44444  1.0000
  S   S252      1.0  0.83809  0.25192  0.20728  1.0000
  H   H1963     1.0  0.87172  0.39471  0.33584  1.0000
  H   H1964     1.0  0.77321  0.23754  0.31719  1.0000
  S   S253      1.0  0.84966  0.23568  0.30476  1.0000
  H   H1965     1.0  0.67104  0.35932  0.06428  1.0000
  C   C1089     1.0  0.92349  0.24318  0.37120  1.0000
  C   C1090     1.0  0.94612  0.24380  0.38709  1.0000
  C   C1091     1.0  0.95180  0.25342  0.41256  1.0000
  C   C1092     1.0  0.93495  0.26268  0.42217  1.0000
  C   C1093     1.0  0.91220  0.26193  0.40672  1.0000
  C   C1094     1.0  0.90646  0.25224  0.38154  1.0000
  H   H1966     1.0  0.95947  0.23687  0.37931  1.0000
  C   C1095     1.0  0.82350  0.23412  0.05243  1.0000
  H   H1967     1.0  0.97576  0.47472  0.46441  1.0000
  C   C1096     1.0  0.77770  0.25588  0.12249  1.0000
  C   C1097     1.0  0.78133  0.24439  0.14102  1.0000
  C   C1098     1.0  0.79983  0.24291  0.16662  1.0000
  C   C1099     1.0  0.81501  0.25297  0.17410  1.0000
  C   C1100     1.0  0.81170  0.26436  0.15494  1.0000
  C   C1101     1.0  0.79327  0.26580  0.12922  1.0000
  H   H1968     1.0  0.76965  0.23659  0.13555  1.0000
  C   C1102     1.0  0.80233  0.47133  0.16677  1.0000
  H   H1969     1.0  0.82330  0.27221  0.16037  1.0000
  H   H1970     1.0  0.79078  0.27471  0.11527  1.0000
  C   C1103     1.0  0.50152  0.25145  0.12567  1.0000
  H   H1971     1.0  0.70295  0.37336  0.08474  1.0000
  H   H1972     1.0  0.93237  0.43695  0.44772  1.0000
  C   C1104     1.0  0.60581  0.27231  0.01363  1.0000
  C   C1105     1.0  0.70823  0.31796  0.11771  1.0000
  H   H1973     1.0  0.75757  0.45069  0.44641  1.0000
  C   C1106     1.0  0.86180  0.42995  0.45812  1.0000
  H   H1974     1.0  0.89523  0.39878  0.45409  1.0000
  C   C1107     1.0  0.87436  0.44046  0.47048  1.0000
  H   H1975     1.0  0.84339  0.31235  0.01724  1.0000
  H   H1976     1.0  0.93103  0.45413  0.38048  1.0000
  C   C1108     1.0  0.81570  0.42495  0.13079  1.0000
  C   C1109     1.0  0.80439  0.42525  0.16508  1.0000
  C   C1110     1.0  0.81406  0.43191  0.19531  1.0000
  C   C1111     1.0  0.83537  0.43840  0.19191  1.0000
  C   C1112     1.0  0.84667  0.43808  0.15762  1.0000
  C   C1113     1.0  0.83701  0.43143  0.12744  1.0000
  H   H1977     1.0  0.78794  0.42030  0.16834  1.0000
  H   H1978     1.0  0.80504  0.43197  0.22128  1.0000
  H   H1979     1.0  0.86317  0.44297  0.15440  1.0000
  H   H1980     1.0  0.84619  0.43124  0.10162  1.0000
  N   N61       1.0  0.67888  0.33416  0.03296  1.0000
  Fe  Fe127     1.0  0.84929  0.23515  0.24309  1.0000
  C   C1114     1.0  0.77183  0.35727  0.02004  1.0000
  C   C1115     1.0  0.63609  0.32642  0.02283  1.0000
  C   C1116     1.0  0.76224  0.33467  0.02000  1.0000
  C   C1117     1.0  0.61061  0.33107  0.01807  1.0000
  H   H1981     1.0  0.96726  0.26078  0.27490  1.0000
  H   H1982     1.0  0.94603  0.23493  0.25537  1.0000
  H   H1983     1.0  0.98037  0.28557  0.33277  1.0000
  C   C1118     1.0  0.83835  0.45351  0.03465  1.0000
  H   H1984     1.0  0.92202  0.29043  0.17340  1.0000
  H   H1985     1.0  0.69261  0.35091  0.09123  1.0000
  H   H1986     1.0  0.97370  0.38474  0.35254  1.0000
  S   S254      1.0  0.80481  0.42544  0.98538  1.0000
  H   H1987     1.0  0.81968  0.24153  0.07365  1.0000
  H   H1988     1.0  0.88896  0.25188  0.36977  1.0000
  C   C1119     1.0  0.79465  0.45681  0.44948  1.0000
  C   C1120     1.0  0.77302  0.34522  0.03635  1.0000
  H   H1989     1.0  0.82716  0.27398  0.02251  1.0000
  H   H1990     1.0  0.78020  0.36529  0.03300  1.0000
  H   H1991     1.0  0.50906  0.24426  0.10653  1.0000
  H   H1992     1.0  0.76086  0.24650  0.99980  1.0000
  C   C1121     1.0  0.72322  0.47318  0.02628  1.0000
  C   C1122     1.0  0.65315  0.33769  0.02839  1.0000
  H   H1993     1.0  0.71813  0.33312  0.08291  1.0000
  H   H1994     1.0  0.92987  0.27758  0.35149  1.0000
  C   C1123     1.0  0.89102  0.41216  0.34594  1.0000
  H   H1995     1.0  0.73267  0.47844  0.39416  1.0000
  C   C1124     1.0  0.77560  0.44648  0.44519  1.0000
  H   H1996     1.0  0.89900  0.26902  0.41393  1.0000
  H   H1997     1.0  0.67263  0.33249  0.09109  1.0000
  H   H1998     1.0  0.68957  0.35153  0.00719  1.0000
  H   H1999     1.0  0.74493  0.24231  0.26701  1.0000
  C   C1125     1.0  0.89766  0.27362  0.29524  1.0000
  C   C1126     1.0  0.63661  0.28645  0.99233  1.0000
  H   H2000     1.0  0.78843  0.47484  0.09554  1.0000
  H   H2001     1.0  0.96117  0.23917  0.29709  1.0000
  H   H2002     1.0  0.85545  0.26544  0.32656  1.0000
  H   H2003     1.0  0.78238  0.34409  0.06187  1.0000
  C   C1127     1.0  0.76117  0.44609  0.09474  1.0000
  C   C1128     1.0  0.91608  0.42959  0.39691  1.0000
  H   H2004     1.0  0.76701  0.23851  0.23396  1.0000
  H   H2005     1.0  0.86412  0.40761  0.30594  1.0000
  H   H2006     1.0  0.60898  0.33720  0.99374  1.0000
  H   H2007     1.0  0.84234  0.23535  0.04547  1.0000
  H   H2008     1.0  0.77529  0.44651  0.38575  1.0000
  S   S255      1.0  0.84174  0.47397  0.30538  1.0000
  H   H2009     1.0  0.83194  0.29678  0.02485  1.0000
  H   H2010     1.0  0.72634  0.46201  0.07443  1.0000
  C   C1129     1.0  0.87604  0.26737  0.27673  1.0000
  H   H2011     1.0  0.95686  0.29589  0.34971  1.0000
  H   H2012     1.0  0.89806  0.43244  0.40613  1.0000
  H   H2013     1.0  0.93991  0.41510  0.35064  1.0000
  H   H2014     1.0  0.94139  0.41385  0.44906  1.0000
  C   C1130     1.0  0.94145  0.41174  0.37923  1.0000
  C   C1131     1.0  0.68175  0.32726  0.06857  1.0000
  S   S256      1.0  0.49512  0.29100  0.03465  1.0000
  H   H2015     1.0  0.89114  0.29083  0.24232  1.0000
  H   H2016     1.0  0.84989  0.28002  0.30203  1.0000
  C   C1132     1.0  0.75040  0.33628  0.98684  1.0000
  H   H2017     1.0  0.83507  0.44584  0.01445  1.0000
  C   C1133     1.0  0.83237  0.25530  0.99799  1.0000
  H   H2018     1.0  0.92773  0.25493  0.30544  1.0000
  C   C1134     1.0  0.59442  0.29127  0.98156  1.0000
  H   H2019     1.0  0.79268  0.44425  0.03869  1.0000
  C   C1135     1.0  0.76312  0.23613  0.00285  1.0000
  C   C1136     1.0  0.96882  0.39497  0.35215  1.0000
  H   H2020     1.0  0.81983  0.46780  0.06513  1.0000
  H   H2021     1.0  0.96939  0.25388  0.42397  1.0000
  H   H2022     1.0  0.54034  0.24831  0.98561  1.0000
  C   C1137     1.0  0.93379  0.43816  0.41778  1.0000
  H   H2023     1.0  0.93341  0.39156  0.36912  1.0000
  H   H2024     1.0  0.75903  0.45665  0.02442  1.0000
  C   C1138     1.0  0.73604  0.42651  0.08809  1.0000
  C   C1139     1.0  0.94827  0.39751  0.37831  1.0000
  C   C1140     1.0  0.58189  0.47919  0.08367  1.0000
  H   H2025     1.0  0.73577  0.23800  0.19572  1.0000
  H   H2026     1.0  0.95226  0.43605  0.40958  1.0000
  C   C1141     1.0  0.95967  0.24117  0.26748  1.0000
  H   H2027     1.0  0.95420  0.39447  0.40575  1.0000
  C   C1142     1.0  0.89788  0.40906  0.38585  1.0000
  H   H2028     1.0  0.76733  0.23185  0.97585  1.0000
  H   H2029     1.0  0.58348  0.47099  0.10230  1.0000
  C   C1143     1.0  0.70750  0.32442  0.08062  1.0000
  H   H2030     1.0  0.85058  0.46038  0.02229  1.0000
  H   H2031     1.0  0.61312  0.44602  0.98210  1.0000
  H   H2032     1.0  0.87495  0.44888  0.45396  1.0000
  H   H2033     1.0  0.77479  0.25879  0.28871  1.0000
  H   H2034     1.0  0.76416  0.43231  0.40595  1.0000
  H   H2035     1.0  0.72686  0.31568  0.12495  1.0000
  H   H2036     1.0  0.91586  0.25233  0.26178  1.0000
  C   C1144     1.0  0.78917  0.25166  0.28468  1.0000
  H   H2037     1.0  0.74879  0.42062  0.10388  1.0000
  C   C1145     1.0  0.86880  0.40511  0.33443  1.0000
  C   C1146     1.0  0.96388  0.28601  0.34911  1.0000
  Fe  Fe128     1.0  0.77615  0.39253  0.97766  1.0000
  H   H2038     1.0  0.96375  0.39750  0.32384  1.0000
  C   C1147     1.0  0.81527  0.46024  0.04532  1.0000
  H   H2039     1.0  0.76910  0.47745  0.46307  1.0000
  H   H2040     1.0  0.80305  0.25336  0.30547  1.0000
  H   H2041     1.0  0.64344  0.26925  0.02166  1.0000
  H   H2042     1.0  0.69821  0.30899  0.11688  1.0000
  N   N62       1.0  0.92091  0.27211  0.27548  1.0000
  Fe  Fe129     1.0  0.51928  0.28235  0.99181  1.0000
  S   S257      1.0  0.55755  0.27558  0.00438  1.0000
  C   C1148     1.0  0.80820  0.25001  0.00972  1.0000
  H   H2043     1.0  0.64075  0.32076  0.99821  1.0000
  C   C1149     1.0  0.76157  0.46316  0.04821  1.0000
  C   C1150     1.0  0.92889  0.45215  0.40998  1.0000
  H   H2044     1.0  0.73985  0.47727  0.07769  1.0000
  H   H2045     1.0  0.80669  0.44470  0.08130  1.0000
  C   C1151     1.0  0.79734  0.45079  0.06130  1.0000
  C   C1152     1.0  0.70621  0.36661  0.06184  1.0000
  C   C1153     1.0  0.68733  0.32557  0.00243  1.0000
  H   H2046     1.0  0.95522  0.28101  0.27737  1.0000
  H   H2047     1.0  0.57210  0.24829  0.98034  1.0000
  C   C1154     1.0  0.79852  0.46127  0.13725  1.0000
  H   H2048     1.0  0.91065  0.45489  0.41829  1.0000
  H   H2049     1.0  0.79704  0.25288  0.25726  1.0000
  C   C1155     1.0  0.69330  0.34606  0.03236  1.0000
  H   H2050     1.0  0.80124  0.25589  0.03292  1.0000
  S   S258      1.0  0.91790  0.23130  0.33741  1.0000
  H   H2051     1.0  0.72264  0.43068  0.10691  1.0000
  N   N63       1.0  0.91965  0.41542  0.40066  1.0000
  H   H2052     1.0  0.70069  0.32432  0.13914  1.0000
  H   H2053     1.0  0.71248  0.34369  0.03090  1.0000
  H   H2054     1.0  0.77823  0.23822  0.05675  1.0000
  H   H2055     1.0  0.92078  0.29661  0.23932  1.0000
  S   S259      1.0  0.66690  0.29092  0.98686  1.0000
  H   H2056     1.0  0.73571  0.44186  0.05052  1.0000
  C   C1156     1.0  0.75957  0.35893  0.98729  1.0000
  H   H2057     1.0  0.72488  0.36324  0.06335  1.0000
  H   H2058     1.0  0.80225  0.23405  0.18075  1.0000
  H   H2059     1.0  0.88246  0.41159  0.40331  1.0000
  H   H2060     1.0  0.70660  0.32368  0.00496  1.0000
  H   H2061     1.0  0.85142  0.41094  0.47103  1.0000
  C   C1157     1.0  0.82740  0.30642  0.01511  1.0000
  C   C1158     1.0  0.95334  0.25511  0.26152  1.0000
  C   C1159     1.0  0.92848  0.25837  0.27703  1.0000
  C   C1160     1.0  0.78117  0.46606  0.10740  1.0000
  H   H2062     1.0  0.96820  0.28324  0.37755  1.0000
  H   H2063     1.0  0.84873  0.27329  0.98639  1.0000
  H   H2064     1.0  0.95318  0.26727  0.33499  1.0000
  H   H2065     1.0  0.70615  0.47752  0.03499  1.0000
  H   H2066     1.0  0.71614  0.31794  0.06074  1.0000
  H   H2067     1.0  0.98452  0.40050  0.36042  1.0000
  C   C1161     1.0  0.68936  0.35546  0.06456  1.0000
  H   H2068     1.0  0.84705  0.44939  0.05905  1.0000
  C   C1162     1.0  0.73728  0.46889  0.05966  1.0000
  H   H2069     1.0  0.97692  0.23886  0.25448  1.0000
  H   H2070     1.0  0.89935  0.39861  0.38749  1.0000
  C   C1163     1.0  0.92270  0.41244  0.44072  1.0000
  H   H2071     1.0  0.64668  0.34304  0.05277  1.0000
  S   S260      1.0  0.94153  0.27582  0.45120  1.0000
  H   H2072     1.0  0.89331  0.28381  0.30013  1.0000
  H   H2073     1.0  0.89798  0.30125  0.18378  1.0000
  C   C1164     1.0  0.85365  0.26971  0.29911  1.0000
  H   H2074     1.0  0.70355  0.37172  0.03577  1.0000
  C   C1165     1.0  0.83137  0.26973  0.99545  1.0000
  S   S261      1.0  0.90177  0.48001  0.37312  1.0000
  H   H2075     1.0  0.78543  0.47378  0.18064  1.0000
  H   H2076     1.0  0.67929  0.31607  0.00460  1.0000
  H   H2077     1.0  0.92137  0.39139  0.43611  1.0000
  H   H2078     1.0  0.88704  0.42239  0.34279  1.0000
  C   C1166     1.0  0.91484  0.39919  0.45385  1.0000
  C   C1167     1.0  0.77784  0.43970  0.40836  1.0000
  H   H2079     1.0  0.76478  0.46923  0.12173  1.0000
  H   H2080     1.0  0.67295  0.31790  0.06704  1.0000
  H   H2081     1.0  0.95713  0.41666  0.39039  1.0000
  H   H2082     1.0  0.94143  0.45814  0.42547  1.0000
  C   C1168     1.0  0.90850  0.28930  0.22898  1.0000
  N   N64       1.0  0.77528  0.45656  0.07789  1.0000
  H   H2083     1.0  0.89897  0.26947  0.32293  1.0000
  H   H2084     1.0  0.65068  0.34434  0.00528  1.0000
  H   H2085     1.0  0.81607  0.45886  0.12551  1.0000
  H   H2086     1.0  0.87269  0.27122  0.24917  1.0000
  H   H2087     1.0  0.79163  0.45274  0.15079  1.0000
  N   N65       1.0  0.80775  0.23615  0.01965  1.0000
  S   S262      1.0  0.81374  0.39523  0.99649  1.0000
  C   C1169     1.0  0.90500  0.29150  0.18820  1.0000
  H   H2088     1.0  0.81343  0.31046  0.03318  1.0000
  Fe  Fe130     1.0  0.86996  0.46999  0.34787  1.0000
  H   H2089     1.0  0.72690  0.42026  0.06826  1.0000
  C   C1170     1.0  0.62997  0.27542  0.01034  1.0000
  H   H2090     1.0  0.79634  0.25201  0.98624  1.0000
  H   H2091     1.0  0.79546  0.43504  0.40563  1.0000
  H   H2092     1.0  0.74739  0.45000  0.11347  1.0000
  H   H2093     1.0  0.55623  0.23364  0.97759  1.0000
  H   H2094     1.0  0.76213  0.43231  0.04947  1.0000
  C   C1171     1.0  0.58779  0.28020  0.99942  1.0000
  H   H2095     1.0  0.77270  0.44012  0.11238  1.0000
  C   C1172     1.0  0.77977  0.23825  0.28881  1.0000
  C   C1173     1.0  0.93875  0.28054  0.29380  1.0000
  H   H2096     1.0  0.59891  0.32280  0.01416  1.0000
  H   H2097     1.0  0.51564  0.25819  0.13320  1.0000
  C   C1174     1.0  0.94554  0.27698  0.33347  1.0000
  H   H2098     1.0  0.81486  0.46758  0.18754  1.0000
  H   H2099     1.0  0.80795  0.46471  0.02040  1.0000
  H   H2100     1.0  0.84664  0.25293  0.01747  1.0000
  C   C1175     1.0  0.91870  0.27582  0.23603  1.0000
  H   H2101     1.0  0.83845  0.26530  0.28496  1.0000
  H   H2102     1.0  0.89210  0.28468  0.17679  1.0000
  H   H2103     1.0  0.90789  0.26881  0.22070  1.0000
  H   H2104     1.0  0.60104  0.26374  0.02757  1.0000
  H   H2105     1.0  0.77184  0.47116  0.03719  1.0000
  C   C1176     1.0  0.49208  0.24515  0.15995  1.0000
  H   H2106     1.0  0.58270  0.47564  0.05508  1.0000
  H   H2107     1.0  0.79477  0.23152  0.28497  1.0000
  H   H2108     1.0  0.85234  0.23259  0.98375  1.0000
  H   H2109     1.0  0.71939  0.46493  0.00828  1.0000
  S   S263      1.0  0.77744  0.47440  0.35944  1.0000
  C   C1177     1.0  0.78281  0.23313  0.03100  1.0000
  H   H2110     1.0  0.72550  0.23367  0.99504  1.0000
  H   H2111     1.0  0.73426  0.23533  0.04202  1.0000
  C   C1178     1.0  0.75982  0.23561  0.26082  1.0000
  C   C1179     1.0  0.73932  0.23108  0.01525  1.0000
  C   C1180     1.0  0.61859  0.29428  0.97782  1.0000
  H   H2112     1.0  0.79683  0.32265  0.97882  1.0000
  H   H2113     1.0  0.80999  0.47999  0.15489  1.0000
  H   H2114     1.0  0.81779  0.27278  0.97543  1.0000
  C   C1181     1.0  0.81869  0.30573  0.97567  1.0000
  H   H2115     1.0  0.80329  0.29938  0.97510  1.0000
  H   H2116     1.0  0.80083  0.33516  0.88261  1.0000
  Fe  Fe131     1.0  0.81590  0.40899  0.94919  1.0000
  S   S264      1.0  0.84718  0.41185  0.90981  1.0000
  S   S265      1.0  0.77910  0.40561  0.92927  1.0000
  H   H2117     1.0  0.92401  0.46945  0.67185  1.0000
  S   S266      1.0  0.55045  0.46520  0.80268  1.0000
  S   S267      1.0  0.65745  0.44913  0.85420  1.0000
  C   C1182     1.0  0.72577  0.45397  0.80567  1.0000
  S   S268      1.0  0.61762  0.46930  0.79175  1.0000
  Fe  Fe132     1.0  0.90983  0.41656  0.61757  1.0000
  S   S269      1.0  0.94831  0.41132  0.62583  1.0000
  S   S270      1.0  0.90136  0.42946  0.56857  1.0000
  Fe  Fe133     1.0  0.89676  0.40840  0.69714  1.0000
  S   S271      1.0  0.93450  0.40300  0.70944  1.0000
  S   S272      1.0  0.86484  0.40655  0.73640  1.0000
  Fe  Fe134     1.0  0.94491  0.42086  0.68056  1.0000
  N   N66       1.0  0.92825  0.23709  0.55695  1.0000
  Fe  Fe135     1.0  0.93499  0.39370  0.65335  1.0000
  S   S273      1.0  0.95392  0.37418  0.65084  1.0000
  S   S274      1.0  0.90703  0.42681  0.67157  1.0000
  S   S275      1.0  0.89655  0.39831  0.64196  1.0000
  H   H2118     1.0  0.74416  0.45342  0.85665  1.0000
  C   C1183     1.0  0.92803  0.46127  0.65355  1.0000
  H   H2119     1.0  0.59059  0.45219  0.95207  1.0000
  H   H2120     1.0  0.59795  0.44461  0.82328  1.0000
  S   S276      1.0  0.77988  0.27471  0.92255  1.0000
  H   H2121     1.0  0.82965  0.24897  0.83990  1.0000
  H   H2122     1.0  0.91896  0.35024  0.69011  1.0000
  Fe  Fe136     1.0  0.96913  0.28207  0.49385  1.0000
  C   C1184     1.0  0.59778  0.43524  0.89481  1.0000
  H   H2123     1.0  0.53615  0.24050  0.92173  1.0000
  S   S277      1.0  0.97137  0.26929  0.62881  1.0000
  S   S278      1.0  0.95051  0.29072  0.54260  1.0000
  H   H2124     1.0  0.78509  0.30791  0.85686  1.0000
  Fe  Fe137     1.0  0.97661  0.30657  0.53937  1.0000
  H   H2125     1.0  0.95478  0.24970  0.57776  1.0000
  C   C1185     1.0  0.96122  0.43479  0.54597  1.0000
  H   H2126     1.0  0.95706  0.24690  0.53041  1.0000
  H   H2127     1.0  0.58028  0.44017  0.89483  1.0000
  C   C1186     1.0  0.90494  0.25235  0.68098  1.0000
  C   C1187     1.0  0.92756  0.24870  0.69248  1.0000
  C   C1188     1.0  0.94765  0.25398  0.67613  1.0000
  C   C1189     1.0  0.94543  0.26279  0.64776  1.0000
  C   C1190     1.0  0.92283  0.26634  0.63595  1.0000
  C   C1191     1.0  0.90272  0.26121  0.65268  1.0000
  H   H2128     1.0  0.92957  0.24195  0.71431  1.0000
  H   H2129     1.0  0.96506  0.25121  0.68559  1.0000
  H   H2130     1.0  0.92086  0.27314  0.61429  1.0000
  C   C1192     1.0  0.80388  0.23743  0.86623  1.0000
  C   C1193     1.0  0.78522  0.23743  0.89158  1.0000
  C   C1194     1.0  0.77782  0.24870  0.90945  1.0000
  C   C1195     1.0  0.78905  0.26011  0.90215  1.0000
  C   C1196     1.0  0.80787  0.26008  0.87715  1.0000
  C   C1197     1.0  0.81530  0.24881  0.85934  1.0000
  H   H2131     1.0  0.55203  0.28536  0.92738  1.0000
  H   H2132     1.0  0.76303  0.24864  0.92802  1.0000
  H   H2133     1.0  0.81662  0.26885  0.87115  1.0000
  C   C1198     1.0  0.87302  0.41876  0.51410  1.0000
  C   C1199     1.0  0.95578  0.36119  0.61929  1.0000
  C   C1200     1.0  0.97011  0.35061  0.62800  1.0000
  H   H2134     1.0  0.82666  0.32536  0.96860  1.0000
  C   C1201     1.0  0.95980  0.33993  0.57102  1.0000
  C   C1202     1.0  0.94542  0.35049  0.56237  1.0000
  C   C1203     1.0  0.94339  0.36104  0.58626  1.0000
  H   H2135     1.0  0.56786  0.24068  0.91637  1.0000
  H   H2136     1.0  0.57703  0.45766  0.68738  1.0000
  H   H2137     1.0  0.56797  0.30547  0.90670  1.0000
  H   H2138     1.0  0.93225  0.36904  0.57913  1.0000
  C   C1204     1.0  0.88572  0.42925  0.52636  1.0000
  H   H2139     1.0  0.61378  0.24413  0.85946  1.0000
  H   H2140     1.0  0.60992  0.44196  0.88141  1.0000
  C   C1205     1.0  0.61445  0.25419  0.85098  1.0000
  H   H2141     1.0  0.89374  0.29004  0.74393  1.0000
  Fe  Fe138     1.0  0.97724  0.28044  0.57655  1.0000
  C   C1206     1.0  0.95802  0.45202  0.60853  1.0000
  H   H2142     1.0  0.89596  0.44827  0.51344  1.0000
  C   C1207     1.0  0.72193  0.44194  0.92852  1.0000
  C   C1208     1.0  0.71161  0.43200  0.90903  1.0000
  C   C1209     1.0  0.69180  0.43437  0.88659  1.0000
  C   C1210     1.0  0.68204  0.44665  0.88351  1.0000
  C   C1211     1.0  0.69235  0.45657  0.90303  1.0000
  C   C1212     1.0  0.71223  0.45422  0.92528  1.0000
  H   H2143     1.0  0.71889  0.42251  0.91119  1.0000
  H   H2144     1.0  0.68404  0.42664  0.87146  1.0000
  H   H2145     1.0  0.68513  0.46608  0.90074  1.0000
  C   C1213     1.0  0.85181  0.40989  0.86161  1.0000
  C   C1214     1.0  0.83461  0.40500  0.83808  1.0000
  C   C1215     1.0  0.83893  0.40406  0.80009  1.0000
  C   C1216     1.0  0.86068  0.40771  0.78490  1.0000
  C   C1217     1.0  0.87798  0.41243  0.80852  1.0000
  C   C1218     1.0  0.87351  0.41355  0.84641  1.0000
  H   H2146     1.0  0.81795  0.40197  0.84911  1.0000
  H   H2147     1.0  0.82540  0.40036  0.78229  1.0000
  H   H2148     1.0  0.89477  0.41531  0.79754  1.0000
  H   H2149     1.0  0.88706  0.41730  0.86414  1.0000
  H   H2150     1.0  0.93537  0.28693  0.69064  1.0000
  C   C1219     1.0  0.92793  0.23157  0.48768  1.0000
  C   C1220     1.0  0.51426  0.44810  0.80813  1.0000
  C   C1221     1.0  0.53270  0.45427  0.82657  1.0000
  C   C1222     1.0  0.53649  0.45165  0.86342  1.0000
  C   C1223     1.0  0.95307  0.24216  0.55650  1.0000
  H   H2151     1.0  0.85550  0.43807  0.80098  1.0000
  H   H2152     1.0  0.55025  0.45652  0.87814  1.0000
  H   H2153     1.0  0.65828  0.40014  0.86421  1.0000
  N   N67       1.0  0.54927  0.26250  0.87924  1.0000
  C   C1224     1.0  0.55111  0.25965  0.91940  1.0000
  C   C1225     1.0  0.54626  0.27662  0.87369  1.0000
  C   C1226     1.0  0.52740  0.25607  0.86483  1.0000
  C   C1227     1.0  0.57019  0.25726  0.85817  1.0000
  H   H2154     1.0  0.76852  0.32208  0.86837  1.0000
  C   C1228     1.0  0.55255  0.24545  0.92969  1.0000
  C   C1229     1.0  0.51874  0.26024  0.82641  1.0000
  H   H2155     1.0  0.69324  0.33934  0.95861  1.0000
  C   C1230     1.0  0.91751  0.25938  0.53029  1.0000
  H   H2156     1.0  0.52705  0.40949  0.93185  1.0000
  H   H2157     1.0  0.53017  0.24561  0.86375  1.0000
  H   H2158     1.0  0.73936  0.34955  0.94547  1.0000
  H   H2159     1.0  0.63193  0.25799  0.85894  1.0000
  N   N68       1.0  0.80513  0.32002  0.92191  1.0000
  H   H2160     1.0  0.56733  0.43018  0.84149  1.0000
  H   H2161     1.0  0.70843  0.45559  0.81920  1.0000
  H   H2162     1.0  0.78660  0.35893  0.91348  1.0000
  H   H2163     1.0  0.58040  0.46160  0.73515  1.0000
  H   H2164     1.0  0.57044  0.24673  0.85888  1.0000
  H   H2165     1.0  0.56852  0.25954  0.82880  1.0000
  H   H2166     1.0  0.56800  0.30007  0.85994  1.0000
  C   C1231     1.0  0.59488  0.26197  0.86967  1.0000
  H   H2167     1.0  0.88241  0.26381  0.50909  1.0000
  H   H2168     1.0  0.81950  0.47607  0.51388  1.0000
  C   C1232     1.0  0.91036  0.24781  0.55341  1.0000
  H   H2169     1.0  0.95131  0.29679  0.64254  1.0000
  H   H2170     1.0  0.94803  0.46384  0.55154  1.0000
  H   H2171     1.0  0.59492  0.47781  0.67034  1.0000
  H   H2172     1.0  0.54638  0.41869  0.87891  1.0000
  C   C1233     1.0  0.58292  0.41312  0.89274  1.0000
  H   H2173     1.0  0.62147  0.45288  0.93935  1.0000
  H   H2174     1.0  0.83045  0.34302  0.93418  1.0000
  H   H2175     1.0  0.59703  0.27192  0.86097  1.0000
  C   C1234     1.0  0.55897  0.29924  0.88665  1.0000
  H   H2176     1.0  0.72018  0.46200  0.93995  1.0000
  S   S279      1.0  0.75682  0.37394  0.96593  1.0000
  N   N69       1.0  0.59686  0.42304  0.87316  1.0000
  C   C1235     1.0  0.60627  0.43408  0.93487  1.0000
  H   H2177     1.0  0.56830  0.43908  0.77634  1.0000
  H   H2178     1.0  0.83433  0.45059  0.51510  1.0000
  H   H2179     1.0  0.83964  0.43665  0.75840  1.0000
  H   H2180     1.0  0.53344  0.26152  0.80702  1.0000
  C   C1236     1.0  0.97220  0.34008  0.60405  1.0000
  C   C1237     1.0  0.52216  0.44288  0.88143  1.0000
  S   S280      1.0  0.96740  0.43719  0.70236  1.0000
  S   S281      1.0  0.96168  0.32700  0.53934  1.0000
  H   H2181     1.0  0.88529  0.26412  0.64369  1.0000
  H   H2182     1.0  0.68156  0.31189  0.93753  1.0000
  S   S282      1.0  0.87894  0.24637  0.70134  1.0000
  H   H2183     1.0  0.57878  0.28281  0.90300  1.0000
  C   C1238     1.0  0.55731  0.41697  0.90354  1.0000
  H   H2184     1.0  0.55117  0.47769  0.68026  1.0000
  H   H2185     1.0  0.85532  0.32055  0.93068  1.0000
  H   H2186     1.0  0.76955  0.31463  0.93580  1.0000
  H   H2187     1.0  0.80456  0.34484  0.96191  1.0000
  H   H2188     1.0  0.97117  0.31750  0.69443  1.0000
  H   H2189     1.0  0.94985  0.47232  0.61869  1.0000
  H   H2190     1.0  0.55067  0.27911  0.84509  1.0000
  H   H2191     1.0  0.77958  0.44986  0.52015  1.0000
  H   H2192     1.0  0.89624  0.33016  0.69979  1.0000
  H   H2193     1.0  0.96517  0.30139  0.70655  1.0000
  H   H2194     1.0  0.49410  0.25438  0.78426  1.0000
  H   H2195     1.0  0.81333  0.36490  0.93337  1.0000
  H   H2196     1.0  0.66419  0.33263  0.95805  1.0000
  C   C1239     1.0  0.81723  0.44562  0.51629  1.0000
  H   H2197     1.0  0.93159  0.26471  0.54457  1.0000
  H   H2198     1.0  0.91084  0.34965  0.64246  1.0000
  H   H2199     1.0  0.61702  0.43197  0.80753  1.0000
  C   C1240     1.0  0.58669  0.43535  0.77414  1.0000
  H   H2200     1.0  0.88797  0.23609  0.60837  1.0000
  Fe  Fe139     1.0  0.75494  0.27848  0.97052  1.0000
  N   N70       1.0  0.78529  0.43815  0.83722  1.0000
  C   C1241     1.0  0.80701  0.43546  0.81448  1.0000
  C   C1242     1.0  0.77593  0.42570  0.85044  1.0000
  C   C1243     1.0  0.79093  0.44631  0.87000  1.0000
  C   C1244     1.0  0.81187  0.44169  0.89397  1.0000
  C   C1245     1.0  0.82065  0.44717  0.80119  1.0000
  C   C1246     1.0  0.76566  0.41677  0.82070  1.0000
  C   C1247     1.0  0.75662  0.40455  0.83737  1.0000
  C   C1248     1.0  0.81591  0.45078  0.92598  1.0000
  C   C1249     1.0  0.84345  0.44307  0.78180  1.0000
  H   H2201     1.0  0.80239  0.42998  0.78952  1.0000
  H   H2202     1.0  0.81960  0.42924  0.82947  1.0000
  H   H2203     1.0  0.79027  0.42023  0.86415  1.0000
  H   H2204     1.0  0.76222  0.42727  0.87186  1.0000
  H   H2205     1.0  0.79437  0.45622  0.86172  1.0000
  H   H2206     1.0  0.77536  0.44700  0.88848  1.0000
  H   H2207     1.0  0.82860  0.44108  0.87832  1.0000
  H   H2208     1.0  0.80827  0.43222  0.90528  1.0000
  H   H2209     1.0  0.80981  0.45267  0.78154  1.0000
  H   H2210     1.0  0.82560  0.45350  0.82412  1.0000
  H   H2211     1.0  0.75061  0.42129  0.80624  1.0000
  H   H2212     1.0  0.77932  0.41404  0.80036  1.0000
  H   H2213     1.0  0.77142  0.39909  0.84981  1.0000
  H   H2214     1.0  0.74856  0.39857  0.81578  1.0000
  H   H2215     1.0  0.56665  0.26422  0.93198  1.0000
  H   H2216     1.0  0.83096  0.44724  0.94264  1.0000
  H   H2217     1.0  0.82021  0.46037  0.91601  1.0000
  C   C1250     1.0  0.84906  0.32107  0.90211  1.0000
  H   H2218     1.0  0.85265  0.45151  0.77135  1.0000
  H   H2219     1.0  0.54035  0.30256  0.88395  1.0000
  N   N71       1.0  0.92676  0.31146  0.66163  1.0000
  C   C1251     1.0  0.91819  0.30585  0.69679  1.0000
  C   C1252     1.0  0.92727  0.32568  0.66581  1.0000
  C   C1253     1.0  0.91031  0.30750  0.63135  1.0000
  C   C1254     1.0  0.95143  0.30681  0.65241  1.0000
  Fe  Fe140     1.0  0.58479  0.47349  0.82456  1.0000
  C   C1255     1.0  0.91796  0.29116  0.69788  1.0000
  C   C1256     1.0  0.91380  0.31419  0.59437  1.0000
  C   C1257     1.0  0.90310  0.33243  0.67232  1.0000
  C   C1258     1.0  0.90555  0.34681  0.67034  1.0000
  H   H2220     1.0  0.83707  0.25156  0.97050  1.0000
  C   C1259     1.0  0.91148  0.28641  0.73572  1.0000
  C   C1260     1.0  0.89683  0.30912  0.56547  1.0000
  H   H2221     1.0  0.89972  0.30902  0.70242  1.0000
  H   H2222     1.0  0.92864  0.30946  0.72032  1.0000
  H   H2223     1.0  0.93863  0.32847  0.68916  1.0000
  H   H2224     1.0  0.93569  0.33001  0.64167  1.0000
  H   H2225     1.0  0.89153  0.30881  0.63965  1.0000
  H   H2226     1.0  0.91240  0.29716  0.62572  1.0000
  H   H2227     1.0  0.95177  0.43012  0.56848  1.0000
  H   H2228     1.0  0.95861  0.31222  0.62908  1.0000
  H   H2229     1.0  0.93134  0.23707  0.61585  1.0000
  H   H2230     1.0  0.59786  0.26128  0.89943  1.0000
  H   H2231     1.0  0.90458  0.28748  0.67855  1.0000
  C   C1261     1.0  0.96762  0.46436  0.55410  1.0000
  H   H2232     1.0  0.93199  0.31254  0.58440  1.0000
  H   H2233     1.0  0.91064  0.32455  0.59664  1.0000
  H   H2234     1.0  0.88977  0.32964  0.65176  1.0000
  C   C1262     1.0  0.81107  0.34438  0.93333  1.0000
  H   H2235     1.0  0.58093  0.29752  0.97069  1.0000
  H   H2236     1.0  0.88837  0.35152  0.67682  1.0000
  H   H2237     1.0  0.50897  0.26942  0.82859  1.0000
  H   H2238     1.0  0.68775  0.32464  0.90686  1.0000
  H   H2239     1.0  0.58138  0.40448  0.87540  1.0000
  N   N72       1.0  0.97684  0.45445  0.58028  1.0000
  H   H2240     1.0  0.91106  0.27589  0.73525  1.0000
  H   H2241     1.0  0.92481  0.28942  0.75614  1.0000
  C   C1263     1.0  0.86751  0.31427  0.87833  1.0000
  H   H2242     1.0  0.89929  0.29874  0.56167  1.0000
  H   H2243     1.0  0.87824  0.31121  0.57337  1.0000
  H   H2244     1.0  0.90042  0.31377  0.53904  1.0000
  C   C1264     1.0  0.81579  0.47260  0.48573  1.0000
  H   H2245     1.0  0.97098  0.47402  0.56526  1.0000
  C   C1265     1.0  0.81753  0.43748  0.55050  1.0000
  C   C1266     1.0  0.78365  0.31192  0.91590  1.0000
  H   H2246     1.0  0.55511  0.40459  0.95069  1.0000
  C   C1267     1.0  0.54542  0.40649  0.92494  1.0000
  H   H2247     1.0  0.81611  0.43912  0.49244  1.0000
  H   H2248     1.0  0.81955  0.44347  0.57533  1.0000
  H   H2249     1.0  0.58652  0.42579  0.76127  1.0000
  S   S283      1.0  0.50551  0.29491  0.94688  1.0000
  H   H2250     1.0  0.71045  0.31901  0.93723  1.0000
  H   H2251     1.0  0.86250  0.31478  0.84907  1.0000
  C   C1268     1.0  0.88627  0.44008  0.50428  1.0000
  H   H2252     1.0  0.91339  0.46030  0.63359  1.0000
  H   H2253     1.0  0.86938  0.30418  0.88628  1.0000
  H   H2254     1.0  0.94851  0.44126  0.53222  1.0000
  C   C1269     1.0  0.81175  0.31910  0.96170  1.0000
  H   H2255     1.0  0.51111  0.45008  0.77967  1.0000
  H   H2256     1.0  0.78785  0.30179  0.92109  1.0000
  H   H2257     1.0  0.82650  0.30458  0.89996  1.0000
  H   H2258     1.0  0.88963  0.27186  0.55154  1.0000
  Fe  Fe141     1.0  0.76775  0.42127  0.96754  1.0000
  H   H2259     1.0  0.91361  0.23833  0.48007  1.0000
  H   H2260     1.0  0.79797  0.46075  0.54292  1.0000
  H   H2261     1.0  0.91640  0.38740  0.50202  1.0000
  H   H2262     1.0  0.62407  0.42960  0.93631  1.0000
  C   C1270     1.0  0.74273  0.44733  0.83196  1.0000
  H   H2263     1.0  0.76482  0.44008  0.78757  1.0000
  C   C1271     1.0  0.59833  0.43486  0.81166  1.0000
  H   H2264     1.0  0.66155  0.41111  0.82697  1.0000
  H   H2265     1.0  0.60613  0.45926  0.70685  1.0000
  H   H2266     1.0  0.65302  0.39500  0.81792  1.0000
  H   H2267     1.0  0.84838  0.33109  0.89340  1.0000
  H   H2268     1.0  0.90252  0.27685  0.50925  1.0000
  H   H2269     1.0  0.73642  0.30897  0.89367  1.0000
  H   H2270     1.0  0.51219  0.25772  0.88374  1.0000
  H   H2271     1.0  0.92907  0.45261  0.67040  1.0000
  H   H2272     1.0  0.81968  0.31650  0.86820  1.0000
  H   H2273     1.0  0.62334  0.30279  0.96359  1.0000
  H   H2274     1.0  0.79995  0.45139  0.94356  1.0000
  H   H2275     1.0  0.75318  0.29474  0.88274  1.0000
  H   H2276     1.0  0.83305  0.30139  0.95908  1.0000
  H   H2277     1.0  0.83198  0.46715  0.47763  1.0000
  C   C1272     1.0  0.96986  0.30769  0.68372  1.0000
  H   H2278     1.0  0.89326  0.24417  0.54288  1.0000
  H   H2279     1.0  0.98144  0.41771  0.53212  1.0000
  H   H2280     1.0  0.77392  0.45459  0.80688  1.0000
  C   C1273     1.0  0.58772  0.46304  0.70747  1.0000
  C   C1274     1.0  0.89664  0.26850  0.52482  1.0000
  C   C1275     1.0  0.92469  0.23084  0.59346  1.0000
  C   C1276     1.0  0.79623  0.45523  0.51709  1.0000
  H   H2281     1.0  0.96335  0.44393  0.62621  1.0000
  H   H2282     1.0  0.74301  0.40667  0.85846  1.0000
  H   H2283     1.0  0.54458  0.39765  0.90834  1.0000
  H   H2284     1.0  0.83269  0.43070  0.54929  1.0000
  C   C1277     1.0  0.96883  0.42443  0.51903  1.0000
  C   C1278     1.0  0.77275  0.31227  0.87699  1.0000
  H   H2285     1.0  0.94131  0.44904  0.59511  1.0000
  H   H2286     1.0  0.55558  0.48009  0.72794  1.0000
  H   H2287     1.0  0.88490  0.31886  0.88188  1.0000
  C   C1279     1.0  0.74990  0.30476  0.87512  1.0000
  H   H2288     1.0  0.63369  0.42582  0.85953  1.0000
  H   H2289     1.0  0.72289  0.44802  0.78096  1.0000
  H   H2290     1.0  0.80102  0.43197  0.55251  1.0000
  C   C1280     1.0  0.62503  0.40692  0.84067  1.0000
  C   C1281     1.0  0.60790  0.44711  0.95311  1.0000
  C   C1282     1.0  0.62180  0.41810  0.86802  1.0000
  H   H2291     1.0  0.97043  0.45539  0.49973  1.0000
  H   H2292     1.0  0.95303  0.41910  0.51043  1.0000
  H   H2293     1.0  0.59386  0.42838  0.95109  1.0000
  H   H2294     1.0  0.62923  0.41481  0.89441  1.0000
  C   C1283     1.0  0.58505  0.42574  0.83713  1.0000
  H   H2295     1.0  0.74280  0.30492  0.84690  1.0000
  H   H2296     1.0  0.61882  0.40948  0.81300  1.0000
  C   C1284     1.0  0.69124  0.32089  0.93456  1.0000
  H   H2297     1.0  0.90624  0.25197  0.58061  1.0000
  H   H2298     1.0  0.73276  0.46330  0.79755  1.0000
  H   H2299     1.0  0.58149  0.41676  0.82209  1.0000
  H   H2300     1.0  0.52510  0.44103  0.91002  1.0000
  H   H2301     1.0  0.59689  0.44169  0.75633  1.0000
  H   H2302     1.0  0.52735  0.27948  0.87752  1.0000
  H   H2303     1.0  0.94527  0.23604  0.48345  1.0000
  C   C1285     1.0  0.58762  0.47711  0.69827  1.0000
  H   H2304     1.0  0.76663  0.47439  0.54681  1.0000
  H   H2305     1.0  0.93577  0.35052  0.53691  1.0000
  Fe  Fe142     1.0  0.63560  0.46733  0.84644  1.0000
  C   C1286     1.0  0.95147  0.46336  0.63404  1.0000
  C   C1287     1.0  0.65109  0.40308  0.83735  1.0000
  S   S284      1.0  0.60210  0.47025  0.87895  1.0000
  H   H2306     1.0  0.73452  0.43830  0.83989  1.0000
  H   H2307     1.0  0.61521  0.39851  0.84978  1.0000
  H   H2308     1.0  0.51185  0.24163  0.80267  1.0000
  H   H2309     1.0  0.61275  0.25472  0.82085  1.0000
  C   C1288     1.0  0.76732  0.44506  0.81414  1.0000
  C   C1289     1.0  0.82451  0.31504  0.89726  1.0000
  C   C1290     1.0  0.79845  0.33355  0.91235  1.0000
  H   H2310     1.0  0.87231  0.41037  0.53077  1.0000
  H   H2311     1.0  0.59240  0.40995  0.91771  1.0000
  H   H2312     1.0  0.55694  0.42562  0.92084  1.0000
  H   H2313     1.0  0.94302  0.39599  0.49349  1.0000
  H   H2314     1.0  0.92434  0.25658  0.50316  1.0000
  C   C1291     1.0  0.56003  0.28555  0.89980  1.0000
  H   H2315     1.0  0.97710  0.42861  0.49458  1.0000
  C   C1292     1.0  0.86113  0.41913  0.48022  1.0000
  H   H2316     1.0  0.53566  0.26392  0.93396  1.0000
  S   S285      1.0  0.74703  0.43962  0.95689  1.0000
  H   H2317     1.0  0.94955  0.47615  0.49198  1.0000
  C   C1293     1.0  0.50393  0.43654  0.86293  1.0000
  H   H2318     1.0  0.81411  0.35772  0.88857  1.0000
  H   H2319     1.0  0.77930  0.33538  0.91758  1.0000
  H   H2320     1.0  0.97982  0.35062  0.65341  1.0000
  C   C1294     1.0  0.50207  0.25052  0.80958  1.0000
  C   C1295     1.0  0.55548  0.24386  0.97082  1.0000
  C   C1296     1.0  0.74881  0.34837  0.97088  1.0000
  C   C1297     1.0  0.80593  0.35724  0.91601  1.0000
  H   H2321     1.0  0.96524  0.46448  0.65539  1.0000
  C   C1298     1.0  0.92344  0.39657  0.49263  1.0000
  S   S286      1.0  0.73252  0.29629  0.97133  1.0000
  H   H2322     1.0  0.80800  0.23240  0.96154  1.0000
  C   C1299     1.0  0.68313  0.33058  0.96322  1.0000
  H   H2323     1.0  0.98351  0.33213  0.61103  1.0000
  C   C1300     1.0  0.96915  0.47547  0.49287  1.0000
  H   H2324     1.0  0.74242  0.32824  0.97360  1.0000
  C   C1301     1.0  0.98267  0.44196  0.56183  1.0000
  C   C1302     1.0  0.49995  0.43927  0.82616  1.0000
  H   H2325     1.0  0.91720  0.40412  0.51176  1.0000
  C   C1303     1.0  0.97718  0.46384  0.51437  1.0000
  C   C1304     1.0  0.97329  0.23238  0.56321  1.0000
  N   N73       1.0  0.79459  0.46407  0.48512  1.0000
  H   H2326     1.0  0.75645  0.46524  0.48863  1.0000
  C   C1305     1.0  0.77185  0.47163  0.48793  1.0000
  H   H2327     1.0  0.49277  0.49841  0.14391  1.0000
  Fe  Fe143     1.0  0.51285  0.52266  0.19011  1.0000
  S   S287      1.0  0.54922  0.51530  0.17677  1.0000
  Fe  Fe144     1.0  0.52375  0.54887  0.15880  1.0000
  S   S288      1.0  0.56098  0.54302  0.14303  1.0000
  H   H2328     1.0  0.90633  0.49500  0.30613  1.0000
  Fe  Fe145     1.0  0.54485  0.52478  0.12247  1.0000
  S   S289      1.0  0.55091  0.51121  0.07375  1.0000
  Fe  Fe146     1.0  0.56278  0.53375  0.19873  1.0000
  S   S290      1.0  0.59701  0.53513  0.23297  1.0000
  S   S291      1.0  0.50746  0.53115  0.13485  1.0000
  S   S292      1.0  0.52660  0.54064  0.21555  1.0000
  Fe  Fe147     1.0  0.64381  0.52662  0.44525  1.0000
  S   S293      1.0  0.67398  0.53993  0.43819  1.0000
  S   S294      1.0  0.61555  0.52221  0.40183  1.0000
  C   C1306     1.0  0.90633  0.62973  0.40510  1.0000
  C   C1307     1.0  0.80570  0.69197  0.44005  1.0000
  H   H2329     1.0  0.97697  0.54212  0.23759  1.0000
  S   S295      1.0  0.51640  0.65706  0.05321  1.0000
  Fe  Fe148     1.0  0.59375  0.71012  0.25036  1.0000
  S   S296      1.0  0.63167  0.71649  0.25455  1.0000
  S   S297      1.0  0.58693  0.69461  0.20756  1.0000
  Fe  Fe149     1.0  0.62593  0.71702  0.31547  1.0000
  S   S298      1.0  0.65072  0.71285  0.36341  1.0000
  S   S299      1.0  0.58952  0.70900  0.31136  1.0000
  H   H2330     1.0  0.66312  0.70901  0.19064  1.0000
  C   C1308     1.0  0.51556  0.60702  0.10056  1.0000
  C   C1309     1.0  0.97335  0.65139  0.34223  1.0000
  H   H2331     1.0  0.88781  0.59238  0.38239  1.0000
  N   N74       1.0  0.89629  0.61890  0.46653  1.0000
  H   H2332     1.0  0.96425  0.64228  0.34661  1.0000
  C   C1310     1.0  0.72153  0.50575  0.31529  1.0000
  S   S300      1.0  0.68555  0.66004  0.42935  1.0000
  H   H2333     1.0  0.49128  0.59069  0.97738  1.0000
  H   H2334     1.0  0.85238  0.48543  0.45113  1.0000
  C   C1311     1.0  0.49641  0.60500  0.12368  1.0000
  C   C1312     1.0  0.57674  0.49789  0.97647  1.0000
  C   C1313     1.0  0.65874  0.69791  0.38197  1.0000
  C   C1314     1.0  0.65550  0.68653  0.36293  1.0000
  C   C1315     1.0  0.66355  0.67499  0.37797  1.0000
  C   C1316     1.0  0.67473  0.67470  0.41225  1.0000
  C   C1317     1.0  0.67738  0.68604  0.43166  1.0000
  C   C1318     1.0  0.66956  0.69758  0.41648  1.0000
  H   H2335     1.0  0.64722  0.68665  0.33635  1.0000
  H   H2336     1.0  0.66133  0.66627  0.36275  1.0000
  H   H2337     1.0  0.59996  0.49613  0.07005  1.0000
  H   H2338     1.0  0.67178  0.70631  0.43157  1.0000
  C   C1319     1.0  0.51789  0.68639  0.14523  1.0000
  C   C1320     1.0  0.53942  0.68103  0.13390  1.0000
  C   C1321     1.0  0.56040  0.68376  0.15302  1.0000
  C   C1322     1.0  0.56020  0.69206  0.18330  1.0000
  C   C1323     1.0  0.53878  0.69770  0.19400  1.0000
  C   C1324     1.0  0.51775  0.69484  0.17512  1.0000
  H   H2339     1.0  0.53985  0.67479  0.11041  1.0000
  H   H2340     1.0  0.57690  0.67944  0.14430  1.0000
  H   H2341     1.0  0.53833  0.70410  0.21720  1.0000
  H   H2342     1.0  0.57953  0.71147  0.09192  1.0000
  C   C1325     1.0  0.74606  0.50800  0.42533  1.0000
  C   C1326     1.0  0.73303  0.49704  0.41916  1.0000
  C   C1327     1.0  0.77954  0.49813  0.39297  1.0000
  C   C1328     1.0  0.76943  0.50842  0.41248  1.0000
  H   H2343     1.0  0.71522  0.49650  0.42961  1.0000
  H   H2344     1.0  0.79740  0.49868  0.38274  1.0000
  C   C1329     1.0  0.60118  0.53215  0.28060  1.0000
  C   C1330     1.0  0.62206  0.53619  0.29793  1.0000
  C   C1331     1.0  0.62660  0.53348  0.33504  1.0000
  C   C1332     1.0  0.61044  0.52651  0.35533  1.0000
  C   C1333     1.0  0.58961  0.52249  0.33798  1.0000
  C   C1334     1.0  0.58490  0.52536  0.30107  1.0000
  H   H2345     1.0  0.63467  0.54159  0.28265  1.0000
  H   H2346     1.0  0.64254  0.53679  0.34797  1.0000
  H   H2347     1.0  0.57692  0.51712  0.35325  1.0000
  H   H2348     1.0  0.56878  0.52215  0.28835  1.0000
  C   C1335     1.0  0.50942  0.58297  0.13338  1.0000
  C   C1336     1.0  0.52887  0.58508  0.11086  1.0000
  H   H2349     1.0  0.84743  0.61582  0.47126  1.0000
  H   H2350     1.0  0.55915  0.71829  0.03492  1.0000
  H   H2351     1.0  0.53608  0.66280  0.18997  1.0000
  H   H2352     1.0  0.75750  0.67454  0.43525  1.0000
  C   C1337     1.0  0.57271  0.71059  0.03451  1.0000
  C   C1338     1.0  0.56696  0.51017  0.03190  1.0000
  C   C1339     1.0  0.56378  0.49950  0.00914  1.0000
  H   H2353     1.0  0.68207  0.49180  0.32919  1.0000
  H   H2354     1.0  0.49155  0.66906  0.19756  1.0000
  H   H2355     1.0  0.93517  0.54012  0.22144  1.0000
  C   C1340     1.0  0.58338  0.51923  0.02154  1.0000
  H   H2356     1.0  0.55119  0.49240  0.01683  1.0000
  H   H2357     1.0  0.97281  0.50566  0.38911  1.0000
  H   H2358     1.0  0.58600  0.52751  0.03853  1.0000
  H   H2359     1.0  0.93401  0.61720  0.45698  1.0000
  N   N75       1.0  0.61836  0.72869  0.09648  1.0000
  C   C1341     1.0  0.95640  0.50951  0.33743  1.0000
  C   C1342     1.0  0.93754  0.50638  0.31411  1.0000
  C   C1343     1.0  0.92081  0.49725  0.32420  1.0000
  C   C1344     1.0  0.92268  0.49123  0.35792  1.0000
  C   C1345     1.0  0.94162  0.49432  0.38109  1.0000
  C   C1346     1.0  0.95843  0.50336  0.37090  1.0000
  H   H2360     1.0  0.60500  0.48530  0.14689  1.0000
  H   H2361     1.0  0.60583  0.48929  0.20399  1.0000
  H   H2362     1.0  0.63724  0.49194  0.20143  1.0000
  H   H2363     1.0  0.87371  0.63098  0.43350  1.0000
  H   H2364     1.0  0.88947  0.58183  0.42105  1.0000
  H   H2365     1.0  0.60116  0.50526  0.25210  1.0000
  C   C1347     1.0  0.75953  0.68107  0.41174  1.0000
  C   C1348     1.0  0.76598  0.70292  0.39321  1.0000
  H   H2366     1.0  0.67371  0.57847  0.43399  1.0000
  C   C1349     1.0  0.73951  0.67820  0.38399  1.0000
  H   H2367     1.0  0.58137  0.65129  0.07973  1.0000
  C   C1350     1.0  0.59645  0.51758  0.98897  1.0000
  C   C1351     1.0  0.65350  0.50275  0.09332  1.0000
  C   C1352     1.0  0.73835  0.66402  0.37563  1.0000
  C   C1353     1.0  0.90154  0.64180  0.38338  1.0000
  H   H2368     1.0  0.64963  0.48395  0.36981  1.0000
  Fe  Fe150     1.0  0.57716  0.72942  0.30949  1.0000
  H   H2369     1.0  0.73263  0.50406  0.33996  1.0000
  H   H2370     1.0  0.77620  0.67808  0.39802  1.0000
  H   H2371     1.0  0.78138  0.69913  0.37753  1.0000
  H   H2372     1.0  0.75100  0.70275  0.37356  1.0000
  C   C1354     1.0  0.64363  0.71958  0.14978  1.0000
  C   C1355     1.0  0.61977  0.49652  0.20629  1.0000
  H   H2373     1.0  0.74265  0.68307  0.35782  1.0000
  H   H2374     1.0  0.72201  0.68129  0.39444  1.0000
  C   C1356     1.0  0.64343  0.50028  0.13202  1.0000
  S   S301      1.0  0.73402  0.52138  0.44881  1.0000
  H   H2375     1.0  0.58659  0.69526  0.38866  1.0000
  H   H2376     1.0  0.60266  0.54020  0.09169  1.0000
  H   H2377     1.0  0.69025  0.49930  0.10875  1.0000
  H   H2378     1.0  0.59852  0.71745  0.38637  1.0000
  H   H2379     1.0  0.75148  0.60721  0.41128  1.0000
  H   H2380     1.0  0.58973  0.63520  0.06814  1.0000
  H   H2381     1.0  0.73533  0.65862  0.40100  1.0000
  H   H2382     1.0  0.72344  0.66216  0.35671  1.0000
  H   H2383     1.0  0.75502  0.66060  0.36272  1.0000
  C   C1357     1.0  0.89955  0.58849  0.40396  1.0000
  N   N76       1.0  0.66984  0.61782  0.41971  1.0000
  C   C1358     1.0  0.66658  0.62046  0.37957  1.0000
  H   H2384     1.0  0.67721  0.50492  0.27913  1.0000
  C   C1359     1.0  0.58169  0.72389  0.43728  1.0000
  C   C1360     1.0  0.69516  0.61939  0.43161  1.0000
  C   C1361     1.0  0.71359  0.61056  0.41288  1.0000
  C   C1362     1.0  0.67319  0.63392  0.36665  1.0000
  H   H2385     1.0  0.67002  0.60121  0.45403  1.0000
  C   C1363     1.0  0.66392  0.59422  0.39892  1.0000
  H   H2386     1.0  0.63118  0.72487  0.45985  1.0000
  H   H2387     1.0  0.72490  0.70206  0.42095  1.0000
  C   C1364     1.0  0.67114  0.63501  0.32525  1.0000
  C   C1365     1.0  0.57744  0.70241  0.40624  1.0000
  H   H2388     1.0  0.64777  0.61895  0.37185  1.0000
  H   H2389     1.0  0.67688  0.61368  0.36248  1.0000
  C   C1366     1.0  0.65277  0.49221  0.38801  1.0000
  H   H2390     1.0  0.56444  0.48393  0.08782  1.0000
  H   H2391     1.0  0.65556  0.50520  0.15126  1.0000
  C   C1367     1.0  0.89256  0.63002  0.44151  1.0000
  H   H2392     1.0  0.70071  0.62939  0.42863  1.0000
  C   C1368     1.0  0.65479  0.62739  0.44042  1.0000
  H   H2393     1.0  0.71257  0.61108  0.38280  1.0000
  H   H2394     1.0  0.71090  0.60065  0.42166  1.0000
  H   H2395     1.0  0.66107  0.64120  0.37854  1.0000
  H   H2396     1.0  0.69159  0.63627  0.37421  1.0000
  C   C1369     1.0  0.53192  0.59704  0.09465  1.0000
  C   C1370     1.0  0.74303  0.48680  0.39930  1.0000
  H   H2397     1.0  0.65075  0.59590  0.37693  1.0000
  H   H2398     1.0  0.68166  0.59403  0.38634  1.0000
  C   C1371     1.0  0.78028  0.69504  0.45365  1.0000
  H   H2399     1.0  0.52604  0.65137  0.22134  1.0000
  H   H2400     1.0  0.61020  0.70979  0.42632  1.0000
  H   H2401     1.0  0.95204  0.54458  0.18204  1.0000
  H   H2402     1.0  0.89705  0.63896  0.45617  1.0000
  C   C1372     1.0  0.66124  0.60469  0.42879  1.0000
  H   H2403     1.0  0.68360  0.62830  0.31149  1.0000
  H   H2404     1.0  0.65282  0.63303  0.31619  1.0000
  H   H2405     1.0  0.67558  0.64479  0.31699  1.0000
  H   H2406     1.0  0.67475  0.51510  0.21906  1.0000
  H   H2407     1.0  0.62982  0.54709  0.10727  1.0000
  N   N77       1.0  0.61809  0.50431  0.13901  1.0000
  C   C1373     1.0  0.61070  0.51589  0.11777  1.0000
  C   C1374     1.0  0.83754  0.49157  0.46083  1.0000
  C   C1375     1.0  0.61527  0.50749  0.17911  1.0000
  H   H2408     1.0  0.88217  0.66229  0.45520  1.0000
  C   C1376     1.0  0.90958  0.59919  0.42737  1.0000
  C   C1377     1.0  0.62345  0.52831  0.12836  1.0000
  C   C1378     1.0  0.51815  0.60421  0.98945  1.0000
  S   S302      1.0  0.95158  0.65211  0.43875  1.0000
  C   C1379     1.0  0.97158  0.53352  0.22230  1.0000
  C   C1380     1.0  0.62148  0.53815  0.09817  1.0000
  H   H2409     1.0  0.58232  0.71071  0.00812  1.0000
  H   H2410     1.0  0.59143  0.51780  0.12135  1.0000
  H   H2411     1.0  0.61275  0.51431  0.08803  1.0000
  H   H2412     1.0  0.54147  0.57748  0.10576  1.0000
  H   H2413     1.0  0.55932  0.64013  0.06475  1.0000
  H   H2414     1.0  0.59729  0.51137  0.18462  1.0000
  H   H2415     1.0  0.62747  0.51519  0.18729  1.0000
  H   H2416     1.0  0.63642  0.62749  0.42943  1.0000
  H   H2417     1.0  0.51534  0.49112  0.11597  1.0000
  H   H2418     1.0  0.65623  0.51303  0.08936  1.0000
  H   H2419     1.0  0.64219  0.58077  0.42844  1.0000
  H   H2420     1.0  0.61520  0.53248  0.15331  1.0000
  H   H2421     1.0  0.64242  0.52660  0.13431  1.0000
  H   H2422     1.0  0.92204  0.59481  0.44708  1.0000
  H   H2423     1.0  0.94325  0.48973  0.40721  1.0000
  H   H2424     1.0  0.48929  0.59823  0.04455  1.0000
  H   H2425     1.0  0.69704  0.61750  0.46122  1.0000
  C   C1381     1.0  0.50615  0.65200  0.17151  1.0000
  H   H2426     1.0  0.92564  0.62893  0.40962  1.0000
  C   C1382     1.0  0.81436  0.48434  0.46057  1.0000
  H   H2427     1.0  0.56118  0.70571  0.39197  1.0000
  H   H2428     1.0  0.78416  0.71836  0.42259  1.0000
  C   C1383     1.0  0.60130  0.49373  0.12993  1.0000
  S   S303      1.0  0.50399  0.56803  0.15380  1.0000
  N   N78       1.0  0.76086  0.69461  0.42534  1.0000
  Fe  Fe151     1.0  0.97966  0.63850  0.45884  1.0000
  N   N79       1.0  0.69735  0.51052  0.32675  1.0000
  H   H2429     1.0  0.65178  0.72881  0.06795  1.0000
  C   C1384     1.0  0.69969  0.52185  0.35214  1.0000
  C   C1385     1.0  0.68570  0.50001  0.34748  1.0000
  C   C1386     1.0  0.68173  0.51367  0.29459  1.0000
  C   C1387     1.0  0.69109  0.52351  0.26739  1.0000
  C   C1388     1.0  0.76632  0.48728  0.38607  1.0000
  C   C1389     1.0  0.66186  0.50341  0.36625  1.0000
  C   C1390     1.0  0.72050  0.53095  0.34493  1.0000
  C   C1391     1.0  0.71796  0.54325  0.36691  1.0000
  H   H2430     1.0  0.65964  0.57392  0.39201  1.0000
  C   C1392     1.0  0.49212  0.60076  0.98613  1.0000
  H   H2431     1.0  0.75203  0.49815  0.25744  1.0000
  H   H2432     1.0  0.62265  0.49336  0.26463  1.0000
  H   H2433     1.0  0.88231  0.59983  0.46786  1.0000
  H   H2434     1.0  0.68296  0.52752  0.35263  1.0000
  H   H2435     1.0  0.70241  0.51867  0.38080  1.0000
  S   S304      1.0  0.49071  0.50778  0.21841  1.0000
  H   H2436     1.0  0.66158  0.63710  0.43672  1.0000
  H   H2437     1.0  0.92010  0.60529  0.40942  1.0000
  H   H2438     1.0  0.66444  0.51756  0.30416  1.0000
  H   H2439     1.0  0.70912  0.52107  0.25775  1.0000
  H   H2440     1.0  0.69098  0.53304  0.28038  1.0000
  C   C1393     1.0  0.59386  0.71352  0.41330  1.0000
  H   H2441     1.0  0.97342  0.65693  0.36805  1.0000
  H   H2442     1.0  0.64811  0.50586  0.34585  1.0000
  H   H2443     1.0  0.66367  0.51151  0.38545  1.0000
  H   H2444     1.0  0.73743  0.52634  0.35324  1.0000
  H   H2445     1.0  0.72201  0.53349  0.31590  1.0000
  H   H2446     1.0  0.70110  0.54821  0.36028  1.0000
  H   H2447     1.0  0.71860  0.54126  0.39654  1.0000
  H   H2448     1.0  0.73281  0.54960  0.36044  1.0000
  H   H2449     1.0  0.87489  0.60836  0.42825  1.0000
  S   S305      1.0  0.97667  0.52130  0.32388  1.0000
  H   H2450     1.0  0.65701  0.52729  0.24134  1.0000
  H   H2451     1.0  0.63637  0.71059  0.09799  1.0000
  C   C1394     1.0  0.65071  0.70711  0.16786  1.0000
  H   H2452     1.0  0.88260  0.64249  0.37559  1.0000
  H   H2453     1.0  0.84156  0.69080  0.46100  1.0000
  H   H2454     1.0  0.71774  0.48514  0.30963  1.0000
  N   N80       1.0  0.54924  0.64369  0.17947  1.0000
  C   C1395     1.0  0.57170  0.64733  0.19895  1.0000
  C   C1396     1.0  0.55265  0.64552  0.13904  1.0000
  C   C1397     1.0  0.53004  0.65282  0.19199  1.0000
  C   C1398     1.0  0.54151  0.63032  0.18732  1.0000
  C   C1399     1.0  0.56117  0.62031  0.19522  1.0000
  C   C1400     1.0  0.56980  0.64861  0.24103  1.0000
  H   H2455     1.0  0.61871  0.48329  0.08534  1.0000
  C   C1401     1.0  0.57194  0.63721  0.12030  1.0000
  C   C1402     1.0  0.57577  0.64126  0.08087  1.0000
  C   C1403     1.0  0.55103  0.60698  0.19680  1.0000
  C   C1404     1.0  0.59417  0.64901  0.25889  1.0000
  Fe  Fe152     1.0  0.69591  0.52506  0.46719  1.0000
  H   H2456     1.0  0.57792  0.65665  0.18888  1.0000
  H   H2457     1.0  0.58632  0.64058  0.19264  1.0000
  H   H2458     1.0  0.53614  0.64344  0.12384  1.0000
  H   H2459     1.0  0.55663  0.65561  0.13356  1.0000
  H   H2460     1.0  0.74776  0.48139  0.26335  1.0000
  H   H2461     1.0  0.73117  0.51297  0.29974  1.0000
  H   H2462     1.0  0.52954  0.63016  0.21140  1.0000
  H   H2463     1.0  0.53059  0.62665  0.16428  1.0000
  H   H2464     1.0  0.56960  0.62226  0.22196  1.0000
  H   H2465     1.0  0.57523  0.62023  0.17434  1.0000
  H   H2466     1.0  0.56046  0.65761  0.24836  1.0000
  H   H2467     1.0  0.55980  0.64067  0.25284  1.0000
  H   H2468     1.0  0.60234  0.70390  0.06560  1.0000
  H   H2469     1.0  0.58280  0.49679  0.13631  1.0000
  H   H2470     1.0  0.58919  0.63789  0.13433  1.0000
  H   H2471     1.0  0.56633  0.62719  0.11944  1.0000
  H   H2472     1.0  0.93577  0.51108  0.28819  1.0000
  C   C1405     1.0  0.77005  0.71708  0.40198  1.0000
  H   H2473     1.0  0.52703  0.59838  0.01063  1.0000
  H   H2474     1.0  0.53712  0.60645  0.21806  1.0000
  H   H2475     1.0  0.54332  0.60428  0.17006  1.0000
  H   H2476     1.0  0.56525  0.60003  0.20340  1.0000
  H   H2477     1.0  0.59219  0.65036  0.28880  1.0000
  H   H2478     1.0  0.60406  0.64001  0.25377  1.0000
  H   H2479     1.0  0.60442  0.65706  0.24810  1.0000
  C   C1406     1.0  0.62690  0.71718  0.11707  1.0000
  H   H2480     1.0  0.68227  0.53154  0.21473  1.0000
  H   H2481     1.0  0.76349  0.72351  0.34645  1.0000
  H   H2482     1.0  0.54695  0.59851  0.07709  1.0000
  H   H2483     1.0  0.68541  0.68588  0.45838  1.0000
  H   H2484     1.0  0.91237  0.64164  0.35816  1.0000
  C   C1407     1.0  0.65955  0.58108  0.41438  1.0000
  S   S306      1.0  0.97930  0.62017  0.42453  1.0000
  H   H2485     1.0  0.63493  0.70235  0.17899  1.0000
  H   H2486     1.0  0.90043  0.62172  0.38780  1.0000
  H   H2487     1.0  0.96720  0.52608  0.24223  1.0000
  H   H2488     1.0  0.56354  0.70139  0.03669  1.0000
  C   C1408     1.0  0.73715  0.69822  0.44208  1.0000
  H   H2489     1.0  0.81093  0.69844  0.41794  1.0000
  S   S307      1.0  0.57834  0.72978  0.24785  1.0000
  H   H2490     1.0  0.57257  0.69782  0.43223  1.0000
  S   S308      1.0  0.51985  0.62170  0.07808  1.0000
  H   H2491     1.0  0.50123  0.69911  0.18397  1.0000
  H   H2492     1.0  0.69785  0.49636  0.36887  1.0000
  H   H2493     1.0  0.96335  0.65693  0.32162  1.0000
  C   C1409     1.0  0.82364  0.69349  0.47094  1.0000
  H   H2494     1.0  0.61187  0.71177  0.12809  1.0000
  C   C1410     1.0  0.67526  0.52436  0.23363  1.0000
  H   H2495     1.0  0.56679  0.72794  0.42109  1.0000
  H   H2496     1.0  0.75343  0.72156  0.41200  1.0000
  C   C1411     1.0  0.94889  0.53686  0.20173  1.0000
  H   H2497     1.0  0.61528  0.72328  0.03927  1.0000
  H   H2498     1.0  0.90617  0.65035  0.39958  1.0000
  C   C1412     1.0  0.72234  0.49333  0.29238  1.0000
  H   H2499     1.0  0.80732  0.68208  0.42994  1.0000
  S   S309      1.0  0.98532  0.68232  0.40110  1.0000
  H   H2500     1.0  0.97866  0.59801  0.37874  1.0000
  H   H2501     1.0  0.64198  0.60494  0.43521  1.0000
  C   C1413     1.0  0.73873  0.61404  0.42383  1.0000
  C   C1414     1.0  0.67737  0.49607  0.08791  1.0000
  C   C1415     1.0  0.61898  0.50131  0.24574  1.0000
  H   H2502     1.0  0.91425  0.58314  0.39059  1.0000
  H   H2503     1.0  0.94214  0.52842  0.18693  1.0000
  H   H2504     1.0  0.77973  0.51682  0.41732  1.0000
  H   H2505     1.0  0.64162  0.49953  0.07128  1.0000
  H   H2506     1.0  0.72812  0.68970  0.45241  1.0000
  H   H2507     1.0  0.64578  0.49002  0.13799  1.0000
  H   H2508     1.0  0.65968  0.70065  0.14803  1.0000
  H   H2509     1.0  0.63057  0.53469  0.07308  1.0000
  H   H2510     1.0  0.79429  0.72033  0.35690  1.0000
  H   H2511     1.0  0.63225  0.50876  0.25056  1.0000
  Fe  Fe153     1.0  0.49456  0.65908  0.00228  1.0000
  H   H2512     1.0  0.74090  0.61366  0.45391  1.0000
  H   H2513     1.0  0.80026  0.49106  0.46954  1.0000
  H   H2514     1.0  0.78123  0.70449  0.46689  1.0000
  H   H2515     1.0  0.74295  0.62369  0.41422  1.0000
  H   H2516     1.0  0.74746  0.71620  0.46927  1.0000
  Fe  Fe154     1.0  0.97930  0.66712  0.44362  1.0000
  H   H2517     1.0  0.51995  0.61439  0.99677  1.0000
  H   H2518     1.0  0.83956  0.66412  0.43920  1.0000
  C   C1416     1.0  0.88960  0.60662  0.44784  1.0000
  H   H2519     1.0  0.63580  0.49492  0.40136  1.0000
  H   H2520     1.0  0.67541  0.48564  0.08967  1.0000
  C   C1417     1.0  0.84462  0.66140  0.46648  1.0000
  C   C1418     1.0  0.77735  0.72421  0.36782  1.0000
  C   C1419     1.0  0.74714  0.49077  0.27732  1.0000
  Fe  Fe155     1.0  0.49669  0.63905  0.06419  1.0000
  H   H2521     1.0  0.81055  0.48151  0.43209  1.0000
  H   H2522     1.0  0.66560  0.48950  0.40960  1.0000
  H   H2523     1.0  0.68439  0.49832  0.06048  1.0000
  H   H2524     1.0  0.50065  0.64204  0.16752  1.0000
  C   C1420     1.0  0.49652  0.49421  0.11667  1.0000
  S   S310      1.0  0.66630  0.51123  0.47113  1.0000
  C   C1421     1.0  0.60377  0.72469  0.06369  1.0000
  H   H2525     1.0  0.71002  0.49378  0.26893  1.0000
  C   C1422     1.0  0.58985  0.71212  0.06643  1.0000
  H   H2526     1.0  0.50773  0.65649  0.14440  1.0000
  C   C1423     1.0  0.60187  0.48852  0.09035  1.0000
  H   H2527     1.0  0.58689  0.72461  0.15780  1.0000
  S   S311      1.0  0.49080  0.68266  0.12328  1.0000
  H   H2528     1.0  0.56955  0.72908  0.11823  1.0000
  H   H2529     1.0  0.63490  0.72571  0.17064  1.0000
  H   H2530     1.0  0.73319  0.48028  0.01057  1.0000
  H   H2531     1.0  0.70374  0.71710  0.46250  1.0000
  C   C1424     1.0  0.49329  0.59304  0.13974  1.0000
  H   H2532     1.0  0.83602  0.49980  0.44229  1.0000
  H   H2533     1.0  0.66026  0.72400  0.14094  1.0000
  H   H2534     1.0  0.76034  0.49064  0.29973  1.0000
  H   H2535     1.0  0.98379  0.52074  0.18022  1.0000
  H   H2536     1.0  0.57341  0.71887  0.46043  1.0000
  H   H2537     1.0  0.49387  0.50160  0.09563  1.0000
  H   H2538     1.0  0.60909  0.52466  0.98125  1.0000
  H   H2539     1.0  0.74973  0.72698  0.97548  1.0000
  H   H2540     1.0  0.82028  0.62370  0.52024  1.0000
  H   H2541     1.0  0.70127  0.70363  0.49259  1.0000
  H   H2542     1.0  0.59618  0.51161  0.60452  1.0000
  H   H2543     1.0  0.58899  0.51853  0.78327  1.0000
  S   S312      1.0  0.61053  0.50534  0.92557  1.0000
  C   C1425     1.0  0.52029  0.49570  0.73019  1.0000
  S   S313      1.0  0.63677  0.50379  0.74936  1.0000
  Fe  Fe156     1.0  0.65802  0.52040  0.52606  1.0000
  S   S314      1.0  0.68927  0.53338  0.52334  1.0000
  S   S315      1.0  0.64932  0.50715  0.57444  1.0000
  H   H2544     1.0  0.74567  0.49480  0.54440  1.0000
  S   S316      1.0  0.65891  0.56821  0.50812  1.0000
  C   C1426     1.0  0.58362  0.52405  0.75896  1.0000
  S   S317      1.0  0.63333  0.53471  0.50028  1.0000
  H   H2545     1.0  0.72196  0.66529  0.87974  1.0000
  C   C1427     1.0  0.83910  0.62143  0.52624  1.0000
  H   H2546     1.0  0.91704  0.60048  0.50753  1.0000
  H   H2547     1.0  0.96465  0.61413  0.51388  1.0000
  Fe  Fe157     1.0  0.57883  0.71099  0.81404  1.0000
  S   S318      1.0  0.61455  0.70157  0.81592  1.0000
  S   S319      1.0  0.54712  0.70824  0.85217  1.0000
  Fe  Fe158     1.0  0.62961  0.72124  0.81770  1.0000
  Fe  Fe159     1.0  0.61553  0.70346  0.75452  1.0000
  S   S320      1.0  0.62638  0.68641  0.71847  1.0000
  C   C1428     1.0  0.76928  0.48027  0.52223  1.0000
  S   S321      1.0  0.57821  0.71144  0.75238  1.0000
  H   H2548     1.0  0.82057  0.65376  0.54800  1.0000
  H   H2549     1.0  0.59235  0.50430  0.71712  1.0000
  Fe  Fe160     1.0  0.72588  0.63569  0.52884  1.0000
  S   S322      1.0  0.75027  0.64859  0.56066  1.0000
  S   S323      1.0  0.72943  0.61410  0.53441  1.0000
  C   C1429     1.0  0.57356  0.50362  0.72527  1.0000
  Fe  Fe161     1.0  0.62518  0.49013  0.79530  1.0000
  H   H2550     1.0  0.52722  0.60246  0.96303  1.0000
  H   H2551     1.0  0.64249  0.64520  0.49367  1.0000
  Fe  Fe162     1.0  0.71940  0.66256  0.56034  1.0000
  S   S324      1.0  0.71151  0.67699  0.60619  1.0000
  C   C1430     1.0  0.65321  0.62563  0.48228  1.0000
  S   S325      1.0  0.69441  0.64905  0.53244  1.0000
  H   H2552     1.0  0.58891  0.49724  0.65688  1.0000
  C   C1431     1.0  0.92153  0.61887  0.47975  1.0000
  H   H2553     1.0  0.72153  0.65809  0.68733  1.0000
  H   H2554     1.0  0.54892  0.51634  0.75464  1.0000
  S   S326      1.0  0.63302  0.72244  0.75648  1.0000
  H   H2555     1.0  0.57814  0.52569  0.60049  1.0000
  C   C1432     1.0  0.64855  0.68463  0.68410  1.0000
  C   C1433     1.0  0.65051  0.67303  0.66494  1.0000
  C   C1434     1.0  0.66896  0.67073  0.63971  1.0000
  C   C1435     1.0  0.68606  0.67993  0.63384  1.0000
  C   C1436     1.0  0.68387  0.69161  0.65252  1.0000
  C   C1437     1.0  0.66510  0.69402  0.67708  1.0000
  H   H2556     1.0  0.63782  0.66570  0.67000  1.0000
  H   H2557     1.0  0.67039  0.66170  0.62571  1.0000
  H   H2558     1.0  0.69692  0.69882  0.64817  1.0000
  H   H2559     1.0  0.66376  0.70304  0.69118  1.0000
  C   C1438     1.0  0.53916  0.69513  0.87971  1.0000
  C   C1439     1.0  0.52573  0.69735  0.91152  1.0000
  C   C1440     1.0  0.51747  0.68721  0.93269  1.0000
  C   C1441     1.0  0.52186  0.67467  0.92163  1.0000
  C   C1442     1.0  0.53524  0.67247  0.88978  1.0000
  C   C1443     1.0  0.54410  0.68260  0.86922  1.0000
  H   H2560     1.0  0.52173  0.70699  0.91990  1.0000
  H   H2561     1.0  0.49140  0.70527  0.74998  1.0000
  C   C1444     1.0  0.92733  0.60929  0.51050  1.0000
  H   H2562     1.0  0.55415  0.68070  0.84466  1.0000
  H   H2563     1.0  0.73511  0.53906  0.57670  1.0000
  C   C1445     1.0  0.67885  0.58093  0.51358  1.0000
  C   C1446     1.0  0.67000  0.59273  0.52591  1.0000
  C   C1447     1.0  0.68514  0.60306  0.53156  1.0000
  C   C1448     1.0  0.70935  0.60172  0.52483  1.0000
  S   S327      1.0  0.59111  0.49452  0.82530  1.0000
  H   H2564     1.0  0.57402  0.48965  0.95933  1.0000
  H   H2565     1.0  0.65134  0.59385  0.53158  1.0000
  H   H2566     1.0  0.67822  0.61192  0.54234  1.0000
  C   C1449     1.0  0.51699  0.70552  0.70729  1.0000
  H   H2567     1.0  0.52599  0.71228  0.68914  1.0000
  C   C1450     1.0  0.64039  0.50442  0.70062  1.0000
  C   C1451     1.0  0.64018  0.49361  0.67818  1.0000
  C   C1452     1.0  0.64284  0.49466  0.63991  1.0000
  C   C1453     1.0  0.64608  0.50649  0.62321  1.0000
  C   C1454     1.0  0.64628  0.51730  0.64564  1.0000
  C   C1455     1.0  0.64347  0.51627  0.68390  1.0000
  C   C1456     1.0  0.85812  0.65453  0.53659  1.0000
  H   H2568     1.0  0.75055  0.49592  0.49613  1.0000
  H   H2569     1.0  0.64850  0.52645  0.63340  1.0000
  H   H2570     1.0  0.64368  0.52473  0.70073  1.0000
  S   S328      1.0  0.73153  0.67156  0.50804  1.0000
  C   C1457     1.0  0.59322  0.50693  0.96613  1.0000
  H   H2571     1.0  0.74503  0.70290  0.49921  1.0000
  H   H2572     1.0  0.57394  0.49789  0.75060  1.0000
  C   C1458     1.0  0.71217  0.71189  0.48534  1.0000
  H   H2573     1.0  0.55144  0.51826  0.64869  1.0000
  H   H2574     1.0  0.95714  0.59937  0.53485  1.0000
  H   H2575     1.0  0.58169  0.51954  0.66451  1.0000
  C   C1459     1.0  0.56943  0.51405  0.64701  1.0000
  C   C1460     1.0  0.71822  0.58989  0.51278  1.0000
  C   C1461     1.0  0.74792  0.48920  0.51883  1.0000
  H   H2576     1.0  0.73633  0.65192  0.85789  1.0000
  H   H2577     1.0  0.69066  0.65527  0.69488  1.0000
  H   H2578     1.0  0.61683  0.66999  0.81786  1.0000
  H   H2579     1.0  0.52823  0.71636  0.77281  1.0000
  H   H2580     1.0  0.62756  0.67640  0.86062  1.0000
  H   H2581     1.0  0.62417  0.65956  0.85489  1.0000
  H   H2582     1.0  0.84156  0.49512  0.48871  1.0000
  H   H2583     1.0  0.81923  0.68723  0.49407  1.0000
  C   C1462     1.0  0.56478  0.51706  0.73709  1.0000
  C   C1463     1.0  0.50039  0.71254  0.73363  1.0000
  H   H2584     1.0  0.68723  0.71715  0.75263  1.0000
  C   C1464     1.0  0.83386  0.65557  0.52761  1.0000
  H   H2585     1.0  0.71248  0.64905  0.72633  1.0000
  C   C1465     1.0  0.85380  0.62281  0.49161  1.0000
  Fe  Fe163     1.0  0.76061  0.65669  0.50645  1.0000
  H   H2586     1.0  0.97628  0.48425  0.50533  1.0000
  S   S329      1.0  0.96862  0.67239  0.50108  1.0000
  H   H2587     1.0  0.84032  0.61157  0.53646  1.0000
  S   S330      1.0  0.50977  0.66146  0.94480  1.0000
  C   C1466     1.0  0.57795  0.51550  0.60773  1.0000
  Fe  Fe164     1.0  0.61090  0.49102  0.87776  1.0000
  C   C1467     1.0  0.82689  0.65903  0.49243  1.0000
  H   H2588     1.0  0.98040  0.70095  0.55408  1.0000
  S   S331      1.0  0.64566  0.48790  0.84811  1.0000
  H   H2589     1.0  0.59946  0.52565  0.74183  1.0000
  N   N81       1.0  0.55993  0.49697  0.69548  1.0000
  C   C1468     1.0  0.95353  0.60561  0.51125  1.0000
  H   H2590     1.0  0.88230  0.61290  0.51847  1.0000
  H   H2591     1.0  0.63607  0.63422  0.52946  1.0000
  H   H2592     1.0  0.60884  0.72001  0.48995  1.0000
  N   N82       1.0  0.68776  0.56579  0.61860  1.0000
  C   C1469     1.0  0.70066  0.55799  0.59000  1.0000
  C   C1470     1.0  0.66171  0.56617  0.60963  1.0000
  C   C1471     1.0  0.69670  0.57919  0.61623  1.0000
  C   C1472     1.0  0.69182  0.56099  0.65687  1.0000
  C   C1473     1.0  0.69522  0.54644  0.66138  1.0000
  C   C1474     1.0  0.72799  0.55891  0.59063  1.0000
  C   C1475     1.0  0.68311  0.58939  0.63889  1.0000
  C   C1476     1.0  0.64898  0.55331  0.60709  1.0000
  C   C1477     1.0  0.62385  0.55496  0.59245  1.0000
  C   C1478     1.0  0.69322  0.54257  0.70128  1.0000
  C   C1479     1.0  0.73958  0.54864  0.56677  1.0000
  C   C1480     1.0  0.69627  0.60194  0.63936  1.0000
  H   H2593     1.0  0.69476  0.56084  0.56228  1.0000
  H   H2594     1.0  0.69616  0.54785  0.59167  1.0000
  H   H2595     1.0  0.65171  0.57172  0.63053  1.0000
  H   H2596     1.0  0.65881  0.57124  0.58353  1.0000
  H   H2597     1.0  0.69655  0.58241  0.58739  1.0000
  H   H2598     1.0  0.71548  0.57961  0.62512  1.0000
  H   H2599     1.0  0.70787  0.56529  0.66912  1.0000
  H   H2600     1.0  0.67705  0.56416  0.67497  1.0000
  H   H2601     1.0  0.71300  0.54344  0.65159  1.0000
  H   H2602     1.0  0.68220  0.54092  0.64573  1.0000
  H   H2603     1.0  0.73347  0.56820  0.57967  1.0000
  H   H2604     1.0  0.73496  0.55803  0.61877  1.0000
  H   H2605     1.0  0.68072  0.58629  0.66747  1.0000
  H   H2606     1.0  0.66549  0.59130  0.62661  1.0000
  H   H2607     1.0  0.65816  0.54649  0.58867  1.0000
  H   H2608     1.0  0.64744  0.54923  0.63471  1.0000
  H   H2609     1.0  0.61336  0.56146  0.61028  1.0000
  H   H2610     1.0  0.62413  0.55877  0.56433  1.0000
  H   H2611     1.0  0.61509  0.54561  0.59152  1.0000
  H   H2612     1.0  0.70657  0.54750  0.71822  1.0000
  H   H2613     1.0  0.67526  0.54482  0.71192  1.0000
  H   H2614     1.0  0.69625  0.53218  0.70360  1.0000
  H   H2615     1.0  0.53080  0.51056  0.69330  1.0000
  H   H2616     1.0  0.73368  0.54960  0.53800  1.0000
  H   H2617     1.0  0.75907  0.54963  0.56759  1.0000
  H   H2618     1.0  0.68580  0.60920  0.65464  1.0000
  H   H2619     1.0  0.71374  0.60082  0.65285  1.0000
  H   H2620     1.0  0.69896  0.60538  0.61114  1.0000
  S   S332      1.0  0.90621  0.65493  0.52371  1.0000
  H   H2621     1.0  0.56605  0.51051  0.58846  1.0000
  H   H2622     1.0  0.64186  0.72143  0.53734  1.0000
  Fe  Fe165     1.0  0.94317  0.65605  0.49748  1.0000
  H   H2623     1.0  0.50674  0.69888  0.69000  1.0000
  H   H2624     1.0  0.84526  0.62805  0.54784  1.0000
  H   H2625     1.0  0.63840  0.48439  0.69033  1.0000
  H   H2626     1.0  0.64271  0.48619  0.62310  1.0000
  H   H2627     1.0  0.75630  0.72286  0.82464  1.0000
  H   H2628     1.0  0.97884  0.72374  0.76813  1.0000
  H   H2629     1.0  0.73152  0.48380  0.51383  1.0000
  C   C1481     1.0  0.51419  0.72187  0.75833  1.0000
  H   H2630     1.0  0.71598  0.71432  0.77292  1.0000
  H   H2631     1.0  0.86318  0.65186  0.56394  1.0000
  C   C1482     1.0  0.56992  0.49998  0.65841  1.0000
  H   H2632     1.0  0.74658  0.66768  0.84915  1.0000
  C   C1483     1.0  0.87585  0.65687  0.51067  1.0000
  H   H2633     1.0  0.57656  0.53339  0.76832  1.0000
  N   N83       1.0  0.68588  0.67903  0.78854  1.0000
  C   C1484     1.0  0.68514  0.66923  0.75832  1.0000
  C   C1485     1.0  0.66230  0.67938  0.80774  1.0000
  C   C1486     1.0  0.68901  0.69181  0.77105  1.0000
  C   C1487     1.0  0.70585  0.67682  0.81523  1.0000
  C   C1488     1.0  0.71352  0.66286  0.82208  1.0000
  C   C1489     1.0  0.70611  0.66941  0.73110  1.0000
  C   C1490     1.0  0.68747  0.70350  0.79693  1.0000
  C   C1491     1.0  0.65464  0.66712  0.82694  1.0000
  C   C1492     1.0  0.62926  0.66839  0.84089  1.0000
  C   C1493     1.0  0.73065  0.66194  0.85420  1.0000
  C   C1494     1.0  0.70774  0.65717  0.70865  1.0000
  C   C1495     1.0  0.69680  0.71537  0.77858  1.0000
  H   H2634     1.0  0.66871  0.67047  0.74191  1.0000
  H   H2635     1.0  0.68391  0.65952  0.76926  1.0000
  H   H2636     1.0  0.66193  0.68682  0.82942  1.0000
  H   H2637     1.0  0.64816  0.68204  0.78800  1.0000
  H   H2638     1.0  0.67541  0.69329  0.74954  1.0000
  H   H2639     1.0  0.70639  0.69225  0.75707  1.0000
  H   H2640     1.0  0.72212  0.68170  0.80615  1.0000
  H   H2641     1.0  0.70138  0.68126  0.84208  1.0000
  H   H2642     1.0  0.72271  0.65886  0.79777  1.0000
  H   H2643     1.0  0.69838  0.65671  0.82786  1.0000
  H   H2644     1.0  0.70359  0.67733  0.71171  1.0000
  H   H2645     1.0  0.72318  0.67081  0.74530  1.0000
  H   H2646     1.0  0.69765  0.70201  0.82240  1.0000
  H   H2647     1.0  0.66875  0.70546  0.80418  1.0000
  H   H2648     1.0  0.65529  0.65880  0.80834  1.0000
  H   H2649     1.0  0.66606  0.66535  0.85100  1.0000
  Fe  Fe166     1.0  0.66518  0.54720  0.49446  1.0000
  H   H2650     1.0  0.55992  0.52309  0.71374  1.0000
  H   H2651     1.0  0.50258  0.71288  0.82034  1.0000
  H   H2652     1.0  0.97720  0.57081  0.54381  1.0000
  C   C1496     1.0  0.70307  0.57957  0.50693  1.0000
  H   H2653     1.0  0.88642  0.62946  0.51536  1.0000
  H   H2654     1.0  0.50741  0.68910  0.95721  1.0000
  H   H2655     1.0  0.53871  0.66283  0.88084  1.0000
  H   H2656     1.0  0.73698  0.58869  0.50806  1.0000
  H   H2657     1.0  0.92269  0.61364  0.53733  1.0000
  H   H2658     1.0  0.69401  0.72370  0.79690  1.0000
  H   H2659     1.0  0.53050  0.69996  0.72253  1.0000
  S   S333      1.0  0.65775  0.72412  0.86175  1.0000
  S   S334      1.0  0.97032  0.64181  0.51789  1.0000
  H   H2660     1.0  0.71016  0.57054  0.49760  1.0000
  H   H2661     1.0  0.71287  0.71833  0.50943  1.0000
  C   C1497     1.0  0.88060  0.62100  0.49946  1.0000
  H   H2662     1.0  0.78502  0.48618  0.52686  1.0000
  H   H2663     1.0  0.52384  0.72813  0.73972  1.0000
  Fe  Fe167     1.0  0.70819  0.65745  0.48038  1.0000
  H   H2664     1.0  0.97594  0.70249  0.50567  1.0000
  H   H2665     1.0  0.67073  0.62697  0.49507  1.0000
  H   H2666     1.0  0.92619  0.62844  0.49043  1.0000
  H   H2667     1.0  0.49959  0.51299  0.73953  1.0000
  C   C1498     1.0  0.63643  0.63545  0.49943  1.0000
  C   C1499     1.0  0.53390  0.50024  0.69602  1.0000
  H   H2668     1.0  0.95853  0.60040  0.48590  1.0000
  H   H2669     1.0  0.56080  0.49433  0.63692  1.0000
  H   H2670     1.0  0.85023  0.63248  0.48107  1.0000
  H   H2671     1.0  0.61823  0.63431  0.48870  1.0000
  H   H2672     1.0  0.66156  0.72930  0.50625  1.0000
  H   H2673     1.0  0.52502  0.49599  0.67177  1.0000
  H   H2674     1.0  0.82398  0.70346  0.48079  1.0000
  H   H2675     1.0  0.64668  0.61612  0.48943  1.0000
  C   C1500     1.0  0.98817  0.70463  0.52855  1.0000
  C   C1501     1.0  0.48900  0.71997  0.81162  1.0000
  N   N84       1.0  0.49974  0.72937  0.78577  1.0000
  C   C1502     1.0  0.49670  0.50272  0.73475  1.0000
  H   H2676     1.0  0.53075  0.49698  0.75552  1.0000
  S   S335      1.0  0.79651  0.66086  0.47948  1.0000
  H   H2677     1.0  0.51645  0.48543  0.72741  1.0000
  H   H2678     1.0  0.77627  0.68834  0.47612  1.0000
  C   C1503     1.0  0.56227  0.48280  0.70058  1.0000
  C   C1504     1.0  0.61588  0.72852  0.47615  1.0000
  C   C1505     1.0  0.86888  0.66035  0.47547  1.0000
  H   H2679     1.0  0.59952  0.48198  0.71774  1.0000
  S   S336      1.0  0.73780  0.64320  0.47501  1.0000
  C   C1506     1.0  0.73718  0.70761  0.47498  1.0000
  S   S337      1.0  0.90944  0.77528  0.01819  1.0000
  S   S338      1.0  0.96986  0.79470  0.02600  1.0000
  H   H2680     1.0  0.61457  0.75951  0.44045  1.0000
  S   S339      1.0  0.74129  0.76904  0.01252  1.0000
  Fe  Fe168     1.0  0.71539  0.80270  0.03429  1.0000
  S   S340      1.0  0.74329  0.79336  0.06979  1.0000
  H   H2681     1.0  0.57217  0.95897  0.24969  1.0000
  Fe  Fe169     1.0  0.76147  0.78723  0.01721  1.0000
  C   C1507     1.0  0.58196  0.74414  0.46993  1.0000
  Fe  Fe170     1.0  0.72143  0.77560  0.06315  1.0000
  S   S341      1.0  0.71468  0.76051  0.10662  1.0000
  H   H2682     1.0  0.61603  0.74173  0.14229  1.0000
  S   S342      1.0  0.69261  0.78530  0.03151  1.0000
  H   H2683     1.0  0.89081  0.79772  0.07784  1.0000
  C   C1508     1.0  0.55968  0.97172  0.15933  1.0000
  H   H2684     1.0  0.56950  0.95217  0.10909  1.0000
  H   H2685     1.0  0.95793  0.75264  0.05728  1.0000
  S   S343      1.0  0.62740  0.75216  0.21524  1.0000
  C   C1509     1.0  0.71091  0.96931  0.32058  1.0000
  H   H2686     1.0  0.84901  0.95293  0.99597  1.0000
  Fe  Fe171     1.0  0.58350  0.96389  0.32459  1.0000
  S   S344      1.0  0.59515  0.94360  0.31471  1.0000
  H   H2687     1.0  0.77151  0.94227  0.02052  1.0000
  C   C1510     1.0  0.74025  0.73617  0.97950  1.0000
  S   S345      1.0  0.64868  0.95260  0.33451  1.0000
  H   H2688     1.0  0.59843  0.74608  0.10466  1.0000
  Fe  Fe172     1.0  0.62604  0.95144  0.28360  1.0000
  S   S346      1.0  0.64299  0.94688  0.22708  1.0000
  Fe  Fe173     1.0  0.61643  0.94639  0.36614  1.0000
  S   S347      1.0  0.61796  0.93152  0.41131  1.0000
  S   S348      1.0  0.61276  0.97156  0.29056  1.0000
  S   S349      1.0  0.60330  0.96621  0.37733  1.0000
  H   H2689     1.0  0.62763  0.75519  0.07426  1.0000
  H   H2690     1.0  0.67222  0.73812  0.20350  1.0000
  H   H2691     1.0  0.50471  0.91831  0.46397  1.0000
  H   H2692     1.0  0.97771  0.97133  0.12072  1.0000
  H   H2693     1.0  0.53801  0.93887  0.22083  1.0000
  Fe  Fe174     1.0  0.65569  0.91372  0.01831  1.0000
  S   S350      1.0  0.63700  0.91600  0.07452  1.0000
  S   S351      1.0  0.69492  0.91146  0.00858  1.0000
  C   C1511     1.0  0.64154  0.93776  0.18548  1.0000
  C   C1512     1.0  0.65708  0.94057  0.15672  1.0000
  C   C1513     1.0  0.65611  0.93403  0.12284  1.0000
  C   C1514     1.0  0.63963  0.92445  0.11709  1.0000
  C   C1515     1.0  0.62429  0.92152  0.14600  1.0000
  C   C1516     1.0  0.62517  0.92810  0.17982  1.0000
  H   H2694     1.0  0.66979  0.94802  0.16047  1.0000
  H   H2695     1.0  0.66788  0.93654  0.10097  1.0000
  H   H2696     1.0  0.61144  0.91414  0.14209  1.0000
  H   H2697     1.0  0.61312  0.92571  0.20147  1.0000
  H   H2698     1.0  0.82402  0.77206  0.04393  1.0000
  H   H2699     1.0  0.73351  0.83269  0.00012  1.0000
  N   N85       1.0  0.81390  0.97196  0.98053  1.0000
  H   H2700     1.0  0.64604  0.87265  0.12321  1.0000
  H   H2701     1.0  0.55376  0.73866  0.17469  1.0000
  C   C1517     1.0  0.69900  0.83663  0.02218  1.0000
  C   C1518     1.0  0.55464  0.88402  0.45068  1.0000
  H   H2702     1.0  0.97287  0.96191  0.06429  1.0000
  C   C1519     1.0  0.94914  0.74933  0.08239  1.0000
  C   C1520     1.0  0.54252  0.74702  0.37930  1.0000
  C   C1521     1.0  0.55478  0.75834  0.37571  1.0000
  C   C1522     1.0  0.55048  0.76851  0.40022  1.0000
  C   C1523     1.0  0.53407  0.76747  0.42881  1.0000
  C   C1524     1.0  0.52223  0.75603  0.43293  1.0000
  C   C1525     1.0  0.52633  0.74592  0.40819  1.0000
  H   H2703     1.0  0.56727  0.75936  0.35367  1.0000
  H   H2704     1.0  0.66947  0.86509  0.01381  1.0000
  H   H2705     1.0  0.95824  0.78330  0.20136  1.0000
  C   C1526     1.0  0.76186  0.93921  0.28790  1.0000
  C   C1527     1.0  0.68344  0.85808  0.01081  1.0000
  C   C1528     1.0  0.58040  0.89163  0.39890  1.0000
  H   H2706     1.0  0.67103  0.97787  0.41561  1.0000
  S   S352      1.0  0.54627  0.73409  0.34821  1.0000
  H   H2707     1.0  0.66530  0.74420  0.02192  1.0000
  H   H2708     1.0  0.66513  0.84368  0.04074  1.0000
  H   H2709     1.0  0.93410  0.74330  0.07422  1.0000
  H   H2710     1.0  0.62072  0.73324  0.40418  1.0000
  H   H2711     1.0  0.62260  0.80608  0.99510  1.0000
  C   C1529     1.0  0.69005  0.75831  0.13625  1.0000
  C   C1530     1.0  0.69039  0.74803  0.16050  1.0000
  C   C1531     1.0  0.67146  0.74595  0.18473  1.0000
  C   C1532     1.0  0.65179  0.75413  0.18500  1.0000
  C   C1533     1.0  0.65130  0.76431  0.16042  1.0000
  C   C1534     1.0  0.67023  0.76638  0.13620  1.0000
  H   H2712     1.0  0.70558  0.74170  0.16085  1.0000
  C   C1535     1.0  0.60453  0.73774  0.12059  1.0000
  H   H2713     1.0  0.63624  0.77072  0.16036  1.0000
  H   H2714     1.0  0.66960  0.77432  0.11778  1.0000
  C   C1536     1.0  0.87897  0.77969  0.01137  1.0000
  C   C1537     1.0  0.86140  0.77364  0.03188  1.0000
  C   C1538     1.0  0.83714  0.77681  0.02782  1.0000
  H   H2715     1.0  0.94735  0.76933  0.25265  1.0000
  H   H2716     1.0  0.64298  0.79507  0.01585  1.0000
  Fe  Fe175     1.0  0.94575  0.78133  0.99564  1.0000
  H   H2717     1.0  0.64336  0.75068  0.37379  1.0000
  H   H2718     1.0  0.57089  0.74917  0.44944  1.0000
  C   C1539     1.0  0.75178  0.95998  0.31981  1.0000
  S   S353      1.0  0.54389  0.96763  0.31997  1.0000
  C   C1540     1.0  0.64963  0.87573  0.09499  1.0000
  H   H2719     1.0  0.67096  0.75422  0.06115  1.0000
  C   C1541     1.0  0.60887  0.74020  0.41833  1.0000
  H   H2720     1.0  0.88694  0.79710  0.12662  1.0000
  N   N86       1.0  0.95493  0.77994  0.14340  1.0000
  C   C1542     1.0  0.92954  0.78449  0.14234  1.0000
  H   H2721     1.0  0.54549  0.96474  0.15387  1.0000
  H   H2722     1.0  0.52706  0.96372  0.46450  1.0000
  C   C1543     1.0  0.96036  0.76972  0.11528  1.0000
  C   C1544     1.0  0.94003  0.76060  0.10498  1.0000
  C   C1545     1.0  0.92218  0.79171  0.10735  1.0000
  H   H2723     1.0  0.56523  0.93567  0.24533  1.0000
  H   H2724     1.0  0.60292  0.96934  0.12394  1.0000
  H   H2725     1.0  0.53925  0.95020  0.41038  1.0000
  H   H2726     1.0  0.86660  0.76645  0.05121  1.0000
  C   C1546     1.0  0.89537  0.79232  0.10279  1.0000
  H   H2727     1.0  0.58939  0.90003  0.38762  1.0000
  H   H2728     1.0  0.92580  0.79098  0.16583  1.0000
  H   H2729     1.0  0.91717  0.77656  0.14594  1.0000
  H   H2730     1.0  0.96182  0.74353  0.09851  1.0000
  H   H2731     1.0  0.50739  0.97251  0.43530  1.0000
  H   H2732     1.0  0.72122  0.73424  0.98379  1.0000
  S   S354      1.0  0.79944  0.79036  0.99565  1.0000
  H   H2733     1.0  0.96622  0.77393  0.08908  1.0000
  H   H2734     1.0  0.98680  0.96889  0.33931  1.0000
  H   H2735     1.0  0.58173  0.89901  0.45317  1.0000
  H   H2736     1.0  0.86359  0.96809  0.99929  1.0000
  H   H2737     1.0  0.92860  0.80160  0.10880  1.0000
  H   H2738     1.0  0.92994  0.78721  0.08264  1.0000
  H   H2739     1.0  0.72770  0.97211  0.39736  1.0000
  H   H2740     1.0  0.51702  0.73713  0.41157  1.0000
  H   H2741     1.0  0.92745  0.76539  0.19312  1.0000
  H   H2742     1.0  0.51508  0.89534  0.46405  1.0000
  N   N87       1.0  0.58204  0.96508  0.17192  1.0000
  H   H2743     1.0  0.59106  0.73238  0.05611  1.0000
  C   C1547     1.0  0.97506  0.97048  0.04716  1.0000
  H   H2744     1.0  0.57866  0.94772  0.43598  1.0000
  H   H2745     1.0  0.81190  0.97614  0.06102  1.0000
  C   C1548     1.0  0.59813  0.96115  0.14090  1.0000
  H   H2746     1.0  0.59055  0.94128  0.12833  1.0000
  S   S355      1.0  0.69514  0.82155  0.04245  1.0000
  H   H2747     1.0  0.56335  0.97358  0.09990  1.0000
  H   H2748     1.0  0.58439  0.97613  0.22188  1.0000
  H   H2749     1.0  0.93648  0.97338  0.09035  1.0000
  N   N88       1.0  0.69160  0.88329  0.11305  1.0000
  C   C1549     1.0  0.66846  0.88628  0.09428  1.0000
  C   C1550     1.0  0.70814  0.89441  0.11050  1.0000
  C   C1551     1.0  0.70297  0.87227  0.09277  1.0000
  C   C1552     1.0  0.68819  0.87945  0.15220  1.0000
  C   C1553     1.0  0.67413  0.88883  0.17693  1.0000
  C   C1554     1.0  0.71117  0.94990  0.42524  1.0000
  C   C1555     1.0  0.72787  0.86809  0.10633  1.0000
  C   C1556     1.0  0.69707  0.90794  0.11240  1.0000
  C   C1557     1.0  0.71614  0.91799  0.11568  1.0000
  C   C1558     1.0  0.66828  0.88282  0.21350  1.0000
  H   H2750     1.0  0.93094  0.75682  0.12907  1.0000
  C   C1559     1.0  0.73847  0.85776  0.08168  1.0000
  H   H2751     1.0  0.67170  0.88873  0.06519  1.0000
  H   H2752     1.0  0.65989  0.89481  0.10632  1.0000
  H   H2753     1.0  0.72200  0.89378  0.13198  1.0000
  H   H2754     1.0  0.71784  0.89411  0.08400  1.0000
  H   H2755     1.0  0.70444  0.87454  0.06320  1.0000
  H   H2756     1.0  0.69189  0.86368  0.09427  1.0000
  H   H2757     1.0  0.67974  0.87001  0.15346  1.0000
  H   H2758     1.0  0.70556  0.87809  0.16586  1.0000
  H   H2759     1.0  0.65718  0.89190  0.16450  1.0000
  H   H2760     1.0  0.68497  0.89725  0.18299  1.0000
  H   H2761     1.0  0.96505  0.79939  0.15399  1.0000
  H   H2762     1.0  0.88818  0.78263  0.09960  1.0000
  H   H2763     1.0  0.72684  0.86413  0.13418  1.0000
  H   H2764     1.0  0.74035  0.87608  0.10668  1.0000
  H   H2765     1.0  0.68704  0.90987  0.08704  1.0000
  H   H2766     1.0  0.68475  0.90924  0.13548  1.0000
  H   H2767     1.0  0.70779  0.92756  0.11609  1.0000
  H   H2768     1.0  0.72631  0.91677  0.14134  1.0000
  H   H2769     1.0  0.72835  0.91738  0.09201  1.0000
  H   H2770     1.0  0.68468  0.87978  0.22781  1.0000
  H   H2771     1.0  0.65877  0.88984  0.23105  1.0000
  H   H2772     1.0  0.65671  0.87451  0.20944  1.0000
  H   H2773     1.0  0.70206  0.96003  0.31948  1.0000
  H   H2774     1.0  0.61713  0.76071  0.37280  1.0000
  H   H2775     1.0  0.61305  0.87272  0.07980  1.0000
  H   H2776     1.0  0.75586  0.85461  0.09259  1.0000
  H   H2777     1.0  0.72673  0.84942  0.08034  1.0000
  H   H2778     1.0  0.74120  0.86145  0.05377  1.0000
  C   C1560     1.0  0.84747  0.79205  0.98221  1.0000
  C   C1561     1.0  0.80297  0.96126  0.00139  1.0000
  H   H2779     1.0  0.56629  0.87545  0.44911  1.0000
  H   H2780     1.0  0.77978  0.93112  0.98522  1.0000
  C   C1562     1.0  0.56801  0.89536  0.43447  1.0000
  C   C1563     1.0  0.97029  0.79124  0.13607  1.0000
  H   H2781     1.0  0.69577  0.94373  0.43006  1.0000
  H   H2782     1.0  0.78747  0.96493  0.01721  1.0000
  C   C1564     1.0  0.60061  0.93199  0.45191  1.0000
  C   C1565     1.0  0.56130  0.97981  0.12427  1.0000
  C   C1566     1.0  0.58225  0.73243  0.13898  1.0000
  H   H2783     1.0  0.67359  0.97897  0.27897  1.0000
  Fe  Fe176     1.0  0.63387  0.97229  0.34260  1.0000
  H   H2784     1.0  0.56745  0.88820  0.37844  1.0000
  H   H2785     1.0  0.81534  0.95738  0.02201  1.0000
  C   C1567     1.0  0.52445  0.96725  0.43637  1.0000
  C   C1568     1.0  0.52236  0.95566  0.41140  1.0000
  H   H2786     1.0  0.54583  0.96194  0.22347  1.0000
  C   C1569     1.0  0.71945  0.83967  0.00300  1.0000
  H   H2787     1.0  0.77936  0.93883  0.30163  1.0000
  C   C1570     1.0  0.63984  0.73557  0.08284  1.0000
  C   C1571     1.0  0.71037  0.95481  0.38621  1.0000
  C   C1572     1.0  0.56081  0.95522  0.22755  1.0000
  H   H2788     1.0  0.97956  0.77238  0.18326  1.0000
  H   H2789     1.0  0.62848  0.88331  0.05032  1.0000
  H   H2790     1.0  0.72389  0.96885  0.26378  1.0000
  H   H2791     1.0  0.75709  0.96438  0.29368  1.0000
  H   H2792     1.0  0.95736  0.97218  0.03464  1.0000
  H   H2793     1.0  0.67586  0.80348  0.97929  1.0000
  H   H2794     1.0  0.64633  0.81180  0.02376  1.0000
  S   S356      1.0  0.61343  0.73742  0.31497  1.0000
  H   H2795     1.0  0.49573  0.97362  0.33833  1.0000
  C   C1573     1.0  0.54534  0.97572  0.42491  1.0000
  H   H2796     1.0  0.64350  0.76609  0.39525  1.0000
  C   C1574     1.0  0.59561  0.97331  0.19823  1.0000
  H   H2797     1.0  0.59504  0.74287  0.39802  1.0000
  H   H2798     1.0  0.59397  0.88414  0.40381  1.0000
  Fe  Fe177     1.0  0.71346  0.77991  0.98162  1.0000
  H   H2799     1.0  0.59162  0.94772  0.19966  1.0000
  C   C1575     1.0  0.63495  0.74715  0.05789  1.0000
  H   H2800     1.0  0.68751  0.97711  0.23510  1.0000
  H   H2801     1.0  0.69323  0.95992  0.38284  1.0000
  H   H2802     1.0  0.72669  0.94610  0.29696  1.0000
  C   C1576     1.0  0.78623  0.93904  0.00256  1.0000
  C   C1577     1.0  0.96068  0.77538  0.18134  1.0000
  H   H2803     1.0  0.80111  0.93544  0.01948  1.0000
  C   C1578     1.0  0.68104  0.84592  0.02597  1.0000
  H   H2804     1.0  0.75594  0.92936  0.28302  1.0000
  H   H2805     1.0  0.58112  0.74680  0.18217  1.0000
  H   H2806     1.0  0.65538  0.86738  0.07856  1.0000
  H   H2807     1.0  0.56492  0.94687  0.17424  1.0000
  H   H2808     1.0  0.62232  0.74498  0.03568  1.0000
  C   C1579     1.0  0.63253  0.75767  0.38954  1.0000
  H   H2809     1.0  0.56312  0.75050  0.14292  1.0000
  C   C1580     1.0  0.55079  0.94273  0.24089  1.0000
  H   H2810     1.0  0.55533  0.90311  0.42789  1.0000
  C   C1581     1.0  0.56934  0.74276  0.16099  1.0000
  S   S357      1.0  0.73459  0.79774  0.98297  1.0000
  S   S358      1.0  0.52917  0.78066  0.45855  1.0000
  H   H2811     1.0  0.74714  0.74091  0.00439  1.0000
  H   H2812     1.0  0.94160  0.96675  0.15498  1.0000
  H   H2813     1.0  0.74230  0.94097  0.33746  1.0000
  C   C1582     1.0  0.58236  0.94090  0.45705  1.0000
  H   H2814     1.0  0.76847  0.95902  0.33560  1.0000
  H   H2815     1.0  0.55253  0.97792  0.18163  1.0000
  H   H2816     1.0  0.72759  0.94427  0.42995  1.0000
  H   H2817     1.0  0.51875  0.86590  0.45059  1.0000
  H   H2818     1.0  0.59893  0.95882  0.06327  1.0000
  H   H2819     1.0  0.92651  0.76561  0.08842  1.0000
  H   H2820     1.0  0.84111  0.97169  0.04653  1.0000
  C   C1583     1.0  0.71129  0.97435  0.28101  1.0000
  H   H2821     1.0  0.61084  0.96781  0.20954  1.0000
  C   C1584     1.0  0.94680  0.76385  0.19510  1.0000
  H   H2822     1.0  0.95201  0.75525  0.17927  1.0000
  C   C1585     1.0  0.62618  0.88042  0.07906  1.0000
  C   C1586     1.0  0.82992  0.78607  0.00291  1.0000
  H   H2823     1.0  0.54000  0.88205  0.43132  1.0000
  H   H2824     1.0  0.51011  0.75496  0.45538  1.0000
  C   C1587     1.0  0.73111  0.96392  0.37875  1.0000
  H   H2825     1.0  0.62129  0.94884  0.08415  1.0000
  N   N89       1.0  0.73442  0.96843  0.33998  1.0000
  H   H2826     1.0  0.61913  0.88862  0.09507  1.0000
  H   H2827     1.0  0.68129  0.96334  0.26181  1.0000
  C   C1588     1.0  0.74378  0.94629  0.31168  1.0000
  H   H2828     1.0  0.55985  0.77728  0.39687  1.0000
  H   H2829     1.0  0.76367  0.94392  0.26110  1.0000
  C   C1589     1.0  0.57544  0.95323  0.19212  1.0000
  C   C1590     1.0  0.58852  0.95066  0.11517  1.0000
  H   H2830     1.0  0.50837  0.94937  0.42171  1.0000
  H   H2831     1.0  0.71045  0.94655  0.36748  1.0000
  C   C1591     1.0  0.65771  0.75167  0.04009  1.0000
  C   C1592     1.0  0.85538  0.96116  0.98047  1.0000
  H   H2832     1.0  0.54343  0.97744  0.39525  1.0000
  H   H2833     1.0  0.96762  0.79455  0.10764  1.0000
  H   H2834     1.0  0.97673  0.94782  0.00748  1.0000
  S   S359      1.0  0.97456  0.76625  0.99170  1.0000
  C   C1593     1.0  0.95258  0.76115  0.23503  1.0000
  H   H2835     1.0  0.65392  0.76021  0.02348  1.0000
  H   H2836     1.0  0.54144  0.94435  0.26718  1.0000
  N   N90       1.0  0.59746  0.73431  0.45119  1.0000
  H   H2837     1.0  0.61533  0.95757  0.15180  1.0000
  H   H2838     1.0  0.51751  0.95859  0.38337  1.0000
  H   H2839     1.0  0.69867  0.97558  0.33641  1.0000
  H   H2840     1.0  0.50274  0.79107  0.39542  1.0000
  C   C1594     1.0  0.60205  0.95005  0.07915  1.0000
  H   H2841     1.0  0.59603  0.94182  0.06267  1.0000
  H   H2842     1.0  0.64043  0.74916  0.44067  1.0000
  C   C1595     1.0  0.72191  0.85184  0.98802  1.0000
  H   H2843     1.0  0.97567  0.76385  0.12444  1.0000
  H   H2844     1.0  0.94274  0.75271  0.24407  1.0000
  H   H2845     1.0  0.74769  0.95946  0.38920  1.0000
  H   H2846     1.0  0.56178  0.96990  0.42706  1.0000
  C   C1596     1.0  0.98159  0.95627  0.99149  1.0000
  H   H2847     1.0  0.77978  0.73438  0.37466  1.0000
  C   C1597     1.0  0.62431  0.75195  0.42540  1.0000
  Fe  Fe178     1.0  0.61616  0.73616  0.25351  1.0000
  S   S360      1.0  0.64684  0.89606  0.98557  1.0000
  C   C1598     1.0  0.82760  0.97934  0.04567  1.0000
  H   H2848     1.0  0.71033  0.95791  0.44509  1.0000
  C   C1599     1.0  0.70405  0.86116  0.99207  1.0000
  H   H2849     1.0  0.65033  0.73943  0.10598  1.0000
  C   C1600     1.0  0.79430  0.94983  0.97829  1.0000
  C   C1601     1.0  0.64133  0.80455  0.00314  1.0000
  C   C1602     1.0  0.68692  0.97337  0.26326  1.0000
  H   H2850     1.0  0.97178  0.75915  0.23848  1.0000
  C   C1603     1.0  0.93576  0.97655  0.14838  1.0000
  H   H2851     1.0  0.91616  0.97705  0.14957  1.0000
  H   H2852     1.0  0.78206  0.97739  0.35363  1.0000
  H   H2853     1.0  0.96565  0.96009  0.97745  1.0000
  C   C1604     1.0  0.87175  0.78895  0.98645  1.0000
  H   H2854     1.0  0.49700  0.91619  0.51155  1.0000
  N   N91       1.0  0.54518  0.88578  0.48885  1.0000
  H   H2855     1.0  0.50482  0.74564  0.82124  1.0000
  H   H2856     1.0  0.97308  0.73450  0.70750  1.0000
  S   S361      1.0  0.95424  0.78940  0.94067  1.0000
  H   H2857     1.0  0.94114  0.75822  0.76517  1.0000
  H   H2858     1.0  0.68728  0.84472  0.92987  1.0000
  H   H2859     1.0  0.90209  0.89045  0.78772  1.0000
  H   H2860     1.0  0.56918  0.96672  0.55320  1.0000
  S   S362      1.0  0.69648  0.77623  0.92601  1.0000
  S   S363      1.0  0.51668  0.78751  0.56319  1.0000
  C   C1605     1.0  0.73154  0.95003  0.79129  1.0000
  C   C1606     1.0  0.97146  0.95609  0.73630  1.0000
  Fe  Fe179     1.0  0.54366  0.89063  0.62355  1.0000
  S   S364      1.0  0.57565  0.90314  0.62419  1.0000
  S   S365      1.0  0.54976  0.87080  0.59873  1.0000
  Fe  Fe180     1.0  0.51274  0.91177  0.65708  1.0000
  S   S366      1.0  0.54270  0.92553  0.66068  1.0000
  Fe  Fe181     1.0  0.55180  0.91868  0.60367  1.0000
  S   S367      1.0  0.55661  0.93324  0.55818  1.0000
  Fe  Fe182     1.0  0.56456  0.90889  0.68135  1.0000
  S   S368      1.0  0.59561  0.90916  0.72249  1.0000
  S   S369      1.0  0.52058  0.90581  0.59923  1.0000
  S   S370      1.0  0.53381  0.89553  0.68147  1.0000
  H   H2861     1.0  0.53571  0.87098  0.71705  1.0000
  Fe  Fe183     1.0  0.64436  0.90842  0.93555  1.0000
  S   S371      1.0  0.61268  0.90661  0.89612  1.0000
  S   S372      1.0  0.68277  0.90580  0.92147  1.0000
  Fe  Fe184     1.0  0.87941  0.97068  0.81632  1.0000
  S   S373      1.0  0.91879  0.96538  0.81688  1.0000
  S   S374      1.0  0.80853  0.94711  0.85990  1.0000
  S   S375      1.0  0.84855  0.96298  0.78449  1.0000
  S   S376      1.0  0.86021  0.97045  0.86970  1.0000
  C   C1607     1.0  0.73674  0.94201  0.91727  1.0000
  C   C1608     1.0  0.75262  0.93183  0.91305  1.0000
  C   C1609     1.0  0.77436  0.93356  0.89509  1.0000
  C   C1610     1.0  0.78050  0.94544  0.88105  1.0000
  C   C1611     1.0  0.76444  0.95554  0.88469  1.0000
  C   C1612     1.0  0.74285  0.95387  0.90310  1.0000
  H   H2862     1.0  0.74823  0.92266  0.92382  1.0000
  H   H2863     1.0  0.78661  0.92566  0.89231  1.0000
  H   H2864     1.0  0.76874  0.96466  0.87350  1.0000
  C   C1613     1.0  0.56486  0.73906  0.49925  1.0000
  C   C1614     1.0  0.59979  0.90844  0.77093  1.0000
  C   C1615     1.0  0.58096  0.90772  0.79551  1.0000
  C   C1616     1.0  0.58529  0.90720  0.83350  1.0000
  C   C1617     1.0  0.60845  0.90741  0.84770  1.0000
  C   C1618     1.0  0.62728  0.90805  0.82309  1.0000
  C   C1619     1.0  0.62296  0.90856  0.78511  1.0000
  H   H2865     1.0  0.56305  0.90762  0.78529  1.0000
  H   H2866     1.0  0.57054  0.90668  0.85211  1.0000
  H   H2867     1.0  0.64516  0.90796  0.83334  1.0000
  H   H2868     1.0  0.63770  0.90894  0.76649  1.0000
  C   C1620     1.0  0.57368  0.93227  0.51741  1.0000
  C   C1621     1.0  0.59182  0.92329  0.51226  1.0000
  H   H2869     1.0  0.65821  0.74983  0.83267  1.0000
  H   H2870     1.0  0.56670  0.96870  0.48666  1.0000
  C   C1622     1.0  0.56891  0.94095  0.48942  1.0000
  H   H2871     1.0  0.59591  0.91667  0.53371  1.0000
  H   H2872     1.0  0.74764  0.94612  0.80476  1.0000
  S   S377      1.0  0.96998  0.91154  0.83300  1.0000
  C   C1623     1.0  0.95512  0.92647  0.83238  1.0000
  C   C1624     1.0  0.93163  0.92721  0.81999  1.0000
  C   C1625     1.0  0.91984  0.93901  0.81675  1.0000
  C   C1626     1.0  0.93161  0.95023  0.82520  1.0000
  C   C1627     1.0  0.95503  0.94946  0.83796  1.0000
  C   C1628     1.0  0.96660  0.93764  0.84211  1.0000
  H   H2873     1.0  0.92252  0.91865  0.81248  1.0000
  H   H2874     1.0  0.90190  0.93947  0.80663  1.0000
  H   H2875     1.0  0.96430  0.95807  0.84450  1.0000
  C   C1629     1.0  0.94435  0.82836  0.84883  1.0000
  H   H2876     1.0  0.70011  0.80966  0.93622  1.0000
  C   C1630     1.0  0.52556  0.83528  0.57679  1.0000
  C   C1631     1.0  0.53952  0.84626  0.57877  1.0000
  C   C1632     1.0  0.53072  0.85757  0.59465  1.0000
  C   C1633     1.0  0.50757  0.85785  0.60788  1.0000
  H   H2877     1.0  0.53269  0.82662  0.56497  1.0000
  H   H2878     1.0  0.55739  0.84591  0.56837  1.0000
  H   H2879     1.0  0.54834  0.86560  0.49976  1.0000
  Fe  Fe185     1.0  0.82840  0.96423  0.83771  1.0000
  H   H2880     1.0  0.75016  0.82604  0.88785  1.0000
  H   H2881     1.0  0.54212  0.74590  0.54315  1.0000
  H   H2882     1.0  0.95512  0.84215  0.88818  1.0000
  C   C1634     1.0  0.51139  0.91865  0.49243  1.0000
  H   H2883     1.0  0.92112  0.88213  0.84251  1.0000
  H   H2884     1.0  0.76740  0.75688  0.84957  1.0000
  C   C1635     1.0  0.52343  0.75425  0.64652  1.0000
  C   C1636     1.0  0.52916  0.74204  0.65920  1.0000
  C   C1637     1.0  0.54840  0.74003  0.68303  1.0000
  C   C1638     1.0  0.56193  0.75024  0.69493  1.0000
  C   C1639     1.0  0.55645  0.76241  0.68181  1.0000
  C   C1640     1.0  0.53738  0.76441  0.65762  1.0000
  H   H2885     1.0  0.82985  0.96118  0.93609  1.0000
  H   H2886     1.0  0.74393  0.81712  0.92821  1.0000
  H   H2887     1.0  0.56690  0.77037  0.69064  1.0000
  H   H2888     1.0  0.53319  0.77385  0.64815  1.0000
  C   C1641     1.0  0.74063  0.90331  0.82941  1.0000
  H   H2889     1.0  0.64194  0.85688  0.89894  1.0000
  C   C1642     1.0  0.67441  0.76141  0.87460  1.0000
  C   C1643     1.0  0.68407  0.76185  0.90993  1.0000
  C   C1644     1.0  0.68419  0.75084  0.93085  1.0000
  H   H2890     1.0  0.61997  0.87799  0.54419  1.0000
  H   H2891     1.0  0.67406  0.76987  0.85824  1.0000
  H   H2892     1.0  0.93190  0.88523  0.93210  1.0000
  C   C1645     1.0  0.55181  0.85977  0.77348  1.0000
  C   C1646     1.0  0.50338  0.85659  0.49629  1.0000
  H   H2893     1.0  0.78967  0.78001  0.88019  1.0000
  C   C1647     1.0  0.65535  0.81826  0.95124  1.0000
  H   H2894     1.0  0.73294  0.73315  0.84118  1.0000
  H   H2895     1.0  0.75154  0.96597  0.77179  1.0000
  H   H2896     1.0  0.49350  0.93548  0.60912  1.0000
  H   H2897     1.0  0.53104  0.81418  0.68788  1.0000
  H   H2898     1.0  0.70551  0.92589  0.75863  1.0000
  C   C1648     1.0  0.51556  0.73805  0.80762  1.0000
  H   H2899     1.0  0.64903  0.93603  0.81853  1.0000
  H   H2900     1.0  0.94702  0.82580  0.81968  1.0000
  H   H2901     1.0  0.57373  0.73194  0.51680  1.0000
  Fe  Fe186     1.0  0.50341  0.78289  0.50650  1.0000
  C   C1649     1.0  0.66633  0.73894  0.88042  1.0000
  H   H2902     1.0  0.97678  0.74513  0.77326  1.0000
  C   C1650     1.0  0.60451  0.88457  0.54438  1.0000
  H   H2903     1.0  0.96036  0.86199  0.90234  1.0000
  H   H2904     1.0  0.84738  0.75095  0.92312  1.0000
  H   H2905     1.0  0.95082  0.84925  0.80626  1.0000
  H   H2906     1.0  0.65260  0.79728  0.95128  1.0000
  C   C1651     1.0  0.53624  0.74439  0.78728  1.0000
  H   H2907     1.0  0.58072  0.87037  0.52658  1.0000
  C   C1652     1.0  0.75172  0.73279  0.83230  1.0000
  C   C1653     1.0  0.49374  0.84684  0.60636  1.0000
  C   C1654     1.0  0.53246  0.90960  0.49700  1.0000
  H   H2908     1.0  0.65086  0.92788  0.73156  1.0000
  H   H2909     1.0  0.75161  0.90683  0.85242  1.0000
  C   C1655     1.0  0.79548  0.97682  0.95410  1.0000
  H   H2910     1.0  0.49897  0.87564  0.47763  1.0000
  H   H2911     1.0  0.74263  0.79256  0.90292  1.0000
  H   H2912     1.0  0.55010  0.73717  0.78089  1.0000
  C   C1656     1.0  0.97829  0.94193  0.74134  1.0000
  H   H2913     1.0  0.59714  0.88484  0.57240  1.0000
  H   H2914     1.0  0.53087  0.74872  0.76124  1.0000
  C   C1657     1.0  0.71755  0.91095  0.82701  1.0000
  H   H2915     1.0  0.94265  0.95358  0.69739  1.0000
  H   H2916     1.0  0.53884  0.96751  0.53896  1.0000
  H   H2917     1.0  0.80502  0.76035  0.87432  1.0000
  S   S378      1.0  0.70926  0.94051  0.94016  1.0000
  H   H2918     1.0  0.96353  0.88259  0.81784  1.0000
  H   H2919     1.0  0.98253  0.96056  0.71522  1.0000
  C   C1658     1.0  0.53491  0.87336  0.50091  1.0000
  C   C1659     1.0  0.54489  0.81715  0.66844  1.0000
  C   C1660     1.0  0.56442  0.88915  0.51572  1.0000
  H   H2920     1.0  0.58039  0.85326  0.80885  1.0000
  H   H2921     1.0  0.50041  0.86648  0.61988  1.0000
  H   H2922     1.0  0.74279  0.75262  0.87599  1.0000
  H   H2923     1.0  0.88336  0.96426  0.94086  1.0000
  H   H2924     1.0  0.57173  0.89859  0.51012  1.0000
  H   H2925     1.0  0.94487  0.75800  0.71636  1.0000
  H   H2926     1.0  0.54595  0.75707  0.50691  1.0000
  C   C1661     1.0  0.83517  0.96762  0.95880  1.0000
  C   C1662     1.0  0.76197  0.79255  0.89785  1.0000
  C   C1663     1.0  0.58596  0.87989  0.51737  1.0000
  C   C1664     1.0  0.95151  0.88532  0.93160  1.0000
  C   C1665     1.0  0.81579  0.76277  0.93077  1.0000
  H   H2927     1.0  0.53306  0.86270  0.77721  1.0000
  H   H2928     1.0  0.53466  0.76253  0.81613  1.0000
  H   H2929     1.0  0.67740  0.92871  0.70418  1.0000
  C   C1666     1.0  0.76232  0.75125  0.87369  1.0000
  H   H2930     1.0  0.86778  0.94953  0.93456  1.0000
  H   H2931     1.0  0.70696  0.90710  0.80409  1.0000
  H   H2932     1.0  0.69090  0.75111  0.95843  1.0000
  H   H2933     1.0  0.50634  0.94486  0.57374  1.0000
  C   C1667     1.0  0.77052  0.77939  0.88591  1.0000
  H   H2934     1.0  0.73021  0.94572  0.76367  1.0000
  H   H2935     1.0  0.84683  0.76537  0.89660  1.0000
  H   H2936     1.0  0.59464  0.87899  0.49037  1.0000
  H   H2937     1.0  0.70798  0.90939  0.85286  1.0000
  H   H2938     1.0  0.92517  0.82966  0.85433  1.0000
  H   H2939     1.0  0.64233  0.92865  0.88227  1.0000
  C   C1668     1.0  0.60508  0.92311  0.47960  1.0000
  H   H2940     1.0  0.69888  0.82563  0.94974  1.0000
  H   H2941     1.0  0.49582  0.87743  0.73565  1.0000
  C   C1669     1.0  0.64595  0.93871  0.87616  1.0000
  H   H2942     1.0  0.54957  0.73448  0.48573  1.0000
  H   H2943     1.0  0.95855  0.87853  0.95198  1.0000
  C   C1670     1.0  0.98696  0.86308  0.84280  1.0000
  H   H2944     1.0  0.93839  0.74352  0.74034  1.0000
  C   C1671     1.0  0.76942  0.74794  0.94004  1.0000
  H   H2945     1.0  0.73133  0.92867  0.84709  1.0000
  C   C1672     1.0  0.97451  0.75005  0.74704  1.0000
  C   C1673     1.0  0.70937  0.94717  0.81451  1.0000
  H   H2946     1.0  0.62878  0.94381  0.87320  1.0000
  H   H2947     1.0  0.95390  0.88934  0.87474  1.0000
  H   H2948     1.0  0.95102  0.82041  0.86581  1.0000
  N   N92       1.0  0.54918  0.85199  0.70568  1.0000
  C   C1674     1.0  0.53098  0.86244  0.70114  1.0000
  C   C1675     1.0  0.57173  0.85575  0.68692  1.0000
  C   C1676     1.0  0.54003  0.84036  0.68616  1.0000
  C   C1677     1.0  0.55372  0.84875  0.74517  1.0000
  H   H2949     1.0  0.67113  0.85741  0.87871  1.0000
  C   C1678     1.0  0.55746  0.82895  0.68259  1.0000
  C   C1679     1.0  0.58346  0.86815  0.70019  1.0000
  C   C1680     1.0  0.60315  0.87206  0.67434  1.0000
  H   H2950     1.0  0.73699  0.83385  0.92679  1.0000
  H   H2951     1.0  0.55782  0.80922  0.66509  1.0000
  H   H2952     1.0  0.53062  0.86566  0.67236  1.0000
  H   H2953     1.0  0.58560  0.84829  0.68998  1.0000
  H   H2954     1.0  0.56855  0.85653  0.65704  1.0000
  H   H2955     1.0  0.53422  0.84279  0.65807  1.0000
  C   C1681     1.0  0.80077  0.75605  0.90106  1.0000
  S   S379      1.0  0.58553  0.74832  0.72653  1.0000
  H   H2956     1.0  0.57150  0.84422  0.74807  1.0000
  H   H2957     1.0  0.56161  0.86823  0.76507  1.0000
  H   H2958     1.0  0.56566  0.82666  0.70924  1.0000
  H   H2959     1.0  0.57160  0.83107  0.66269  1.0000
  H   H2960     1.0  0.57085  0.87622  0.70176  1.0000
  H   H2961     1.0  0.59162  0.86668  0.72736  1.0000
  H   H2962     1.0  0.59589  0.87402  0.64677  1.0000
  H   H2963     1.0  0.61140  0.88087  0.68480  1.0000
  H   H2964     1.0  0.61696  0.86453  0.67227  1.0000
  H   H2965     1.0  0.74584  0.76936  0.91893  1.0000
  H   H2966     1.0  0.73567  0.73930  0.92254  1.0000
  C   C1682     1.0  0.56130  0.85575  0.81069  1.0000
  H   H2967     1.0  0.66560  0.86481  0.92232  1.0000
  S   S380      1.0  0.49790  0.75641  0.61885  1.0000
  N   N93       1.0  0.96040  0.86433  0.84386  1.0000
  C   C1683     1.0  0.95281  0.87384  0.81558  1.0000
  C   C1684     1.0  0.64683  0.73073  0.52592  1.0000
  C   C1685     1.0  0.72240  0.92524  0.82192  1.0000
  C   C1686     1.0  0.92102  0.88758  0.78655  1.0000
  C   C1687     1.0  0.96067  0.88198  0.89351  1.0000
  H   H2968     1.0  0.73692  0.96882  0.81472  1.0000
  C   C1688     1.0  0.92632  0.87779  0.81601  1.0000
  H   H2969     1.0  0.59257  0.75171  0.48275  1.0000
  N   N94       1.0  0.70123  0.93360  0.81342  1.0000
  H   H2970     1.0  0.51859  0.73411  0.65058  1.0000
  H   H2971     1.0  0.76117  0.77709  0.86015  1.0000
  H   H2972     1.0  0.97369  0.96132  0.76251  1.0000
  H   H2973     1.0  0.98457  0.93722  0.85207  1.0000
  H   H2974     1.0  0.76565  0.79949  0.87610  1.0000
  H   H2975     1.0  0.79115  0.96943  0.93352  1.0000
  H   H2976     1.0  0.88875  0.95127  0.97120  1.0000
  H   H2977     1.0  0.49758  0.85278  0.69022  1.0000
  H   H2978     1.0  0.77221  0.77293  0.94210  1.0000
  H   H2979     1.0  0.66478  0.80096  0.79804  1.0000
  C   C1689     1.0  0.54750  0.75470  0.81079  1.0000
  H   H2980     1.0  0.55285  0.73060  0.69216  1.0000
  H   H2981     1.0  0.64672  0.79435  0.83337  1.0000
  C   C1690     1.0  0.66505  0.93420  0.72199  1.0000
  H   H2982     1.0  0.73236  0.75324  0.95021  1.0000
  H   H2983     1.0  0.73070  0.96181  0.90617  1.0000
  C   C1691     1.0  0.50263  0.83545  0.59102  1.0000
  H   H2984     1.0  0.52926  0.87415  0.52992  1.0000
  H   H2985     1.0  0.55461  0.94771  0.49287  1.0000
  H   H2986     1.0  0.77137  0.79560  0.92299  1.0000
  S   S381      1.0  0.59391  0.73058  0.81894  1.0000
  H   H2987     1.0  0.81188  0.77309  0.93155  1.0000
  H   H2988     1.0  0.97359  0.91632  0.73942  1.0000
  H   H2989     1.0  0.93183  0.89617  0.79091  1.0000
  H   H2990     1.0  0.92481  0.88357  0.75903  1.0000
  Fe  Fe187     1.0  0.59565  0.73034  0.75752  1.0000
  C   C1692     1.0  0.66536  0.75006  0.86003  1.0000
  H   H2991     1.0  0.92949  0.85260  0.84012  1.0000
  N   N95       1.0  0.77446  0.75614  0.90751  1.0000
  H   H2992     1.0  0.66514  0.94544  0.77083  1.0000
  H   H2993     1.0  0.54111  0.84147  0.75463  1.0000
  H   H2994     1.0  0.91495  0.86950  0.81079  1.0000
  C   C1693     1.0  0.66021  0.93973  0.84102  1.0000
  C   C1694     1.0  0.52548  0.89565  0.48982  1.0000
  H   H2995     1.0  0.69103  0.94683  0.74345  1.0000
  C   C1695     1.0  0.84219  0.76113  0.92319  1.0000
  H   H2996     1.0  0.84226  0.79921  0.96279  1.0000
  H   H2997     1.0  0.53655  0.81900  0.64153  1.0000
  H   H2998     1.0  0.61065  0.89415  0.53696  1.0000
  C   C1696     1.0  0.69126  0.92965  0.77684  1.0000
  H   H2999     1.0  0.75079  0.90400  0.80364  1.0000
  C   C1697     1.0  0.55539  0.97300  0.54110  1.0000
  H   H3000     1.0  0.63117  0.74640  0.49751  1.0000
  C   C1698     1.0  0.95297  0.86854  0.88163  1.0000
  H   H3001     1.0  0.67749  0.92183  0.84427  1.0000
  C   C1699     1.0  0.76533  0.76938  0.91549  1.0000
  H   H3002     1.0  0.97676  0.83834  0.85389  1.0000
  C   C1700     1.0  0.76788  0.73725  0.86313  1.0000
  H   H3003     1.0  0.69169  0.93372  0.87035  1.0000
  H   H3004     1.0  0.85241  0.76600  0.94491  1.0000
  H   H3005     1.0  0.94065  0.96787  0.72462  1.0000
  C   C1701     1.0  0.94889  0.85182  0.83561  1.0000
  H   H3006     1.0  0.56949  0.75425  0.53934  1.0000
  H   H3007     1.0  0.67899  0.92158  0.78034  1.0000
  H   H3008     1.0  0.53877  0.91063  0.52546  1.0000
  C   C1702     1.0  0.95774  0.84038  0.85861  1.0000
  H   H3009     1.0  0.65672  0.94184  0.70558  1.0000
  H   H3010     1.0  0.73668  0.89319  0.83423  1.0000
  C   C1703     1.0  0.68336  0.93181  0.84338  1.0000
  H   H3011     1.0  0.65837  0.84432  0.95034  1.0000
  C   C1704     1.0  0.94559  0.95765  0.72502  1.0000
  H   H3012     1.0  0.69512  0.95383  0.80623  1.0000
  H   H3013     1.0  0.84331  0.97583  0.94509  1.0000
  H   H3014     1.0  0.77885  0.95263  0.96149  1.0000
  H   H3015     1.0  0.78643  0.73628  0.85359  1.0000
  H   H3016     1.0  0.49926  0.74217  0.71856  1.0000
  H   H3017     1.0  0.93347  0.86796  0.88487  1.0000
  H   H3018     1.0  0.65309  0.73686  0.54863  1.0000
  H   H3019     1.0  0.73577  0.92580  0.79980  1.0000
  N   N96       1.0  0.66936  0.81983  0.91652  1.0000
  C   C1705     1.0  0.66214  0.83247  0.90062  1.0000
  C   C1706     1.0  0.66308  0.80908  0.89083  1.0000
  H   H3020     1.0  0.95644  0.87004  0.78773  1.0000
  C   C1707     1.0  0.69523  0.81925  0.92626  1.0000
  C   C1708     1.0  0.71297  0.82205  0.89537  1.0000
  C   C1709     1.0  0.66808  0.84432  0.92413  1.0000
  C   C1710     1.0  0.67582  0.73940  0.91588  1.0000
  C   C1711     1.0  0.66572  0.81140  0.84935  1.0000
  C   C1712     1.0  0.66379  0.79901  0.82769  1.0000
  C   C1713     1.0  0.73747  0.82491  0.91061  1.0000
  C   C1714     1.0  0.66120  0.85656  0.90465  1.0000
  C   C1715     1.0  0.50528  0.85906  0.71145  1.0000
  H   H3021     1.0  0.64275  0.83265  0.89529  1.0000
  H   H3022     1.0  0.67029  0.83396  0.87361  1.0000
  H   H3023     1.0  0.67357  0.80040  0.89771  1.0000
  H   H3024     1.0  0.64424  0.80642  0.89447  1.0000
  Fe  Fe188     1.0  0.68910  0.92283  0.95738  1.0000
  H   H3025     1.0  0.71361  0.95001  0.84308  1.0000
  C   C1716     1.0  0.56339  0.97727  0.50345  1.0000
  H   H3026     1.0  0.72005  0.96869  0.77264  1.0000
  H   H3027     1.0  0.70760  0.83033  0.87890  1.0000
  H   H3028     1.0  0.71474  0.81360  0.87728  1.0000
  C   C1717     1.0  0.67818  0.94000  0.75440  1.0000
  H   H3029     1.0  0.65574  0.94298  0.89939  1.0000
  H   H3030     1.0  0.96923  0.93872  0.76645  1.0000
  H   H3031     1.0  0.55685  0.89002  0.54368  1.0000
  H   H3032     1.0  0.65137  0.81788  0.83992  1.0000
  H   H3033     1.0  0.68279  0.81570  0.84241  1.0000
  H   H3034     1.0  0.67852  0.79244  0.83492  1.0000
  H   H3035     1.0  0.55144  0.84750  0.82103  1.0000
  H   H3036     1.0  0.66349  0.94991  0.83680  1.0000
  S   S382      1.0  0.65024  0.92613  0.96918  1.0000
  C   C1718     1.0  0.73511  0.96427  0.78744  1.0000
  C   C1719     1.0  0.74315  0.74454  0.94607  1.0000
  Fe  Fe189     1.0  0.49018  0.77321  0.58139  1.0000
  C   C1720     1.0  0.98510  0.74247  0.71416  1.0000
  Fe  Fe190     1.0  0.98467  0.77527  0.93872  1.0000
  H   H3037     1.0  0.49691  0.85874  0.52431  1.0000
  H   H3038     1.0  0.98373  0.74902  0.69057  1.0000
  C   C1721     1.0  0.55507  0.74975  0.52355  1.0000
  H   H3039     1.0  0.56294  0.75861  0.79626  1.0000
  H   H3040     1.0  0.51268  0.89353  0.51201  1.0000
  H   H3041     1.0  0.77983  0.73893  0.93867  1.0000
  H   H3042     1.0  0.80755  0.74612  0.89892  1.0000
  H   H3043     1.0  0.96987  0.93663  0.71853  1.0000
  H   H3044     1.0  0.95733  0.89499  0.93930  1.0000
  H   H3045     1.0  0.81231  0.75890  0.95822  1.0000
  C   C1722     1.0  0.87494  0.95627  0.95510  1.0000
  H   H3046     1.0  0.55917  0.86372  0.83047  1.0000
  H   H3047     1.0  0.55374  0.75073  0.83710  1.0000
  H   H3048     1.0  0.97489  0.85106  0.96568  1.0000
  H   H3049     1.0  0.49456  0.75480  0.75144  1.0000
  H   H3050     1.0  0.75378  0.73882  0.80787  1.0000
  H   H3051     1.0  0.93384  0.95289  0.74472  1.0000
  H   H3052     1.0  0.52405  0.83675  0.70008  1.0000
  C   C1723     1.0  0.62562  0.73704  0.50730  1.0000
  H   H3053     1.0  0.98014  0.88247  0.89433  1.0000
  C   C1724     1.0  0.94811  0.75257  0.74173  1.0000
  H   H3054     1.0  0.51698  0.92848  0.49867  1.0000
  H   H3055     1.0  0.77545  0.75268  0.96557  1.0000
  H   H3056     1.0  0.61188  0.73870  0.52844  1.0000
  H   H3057     1.0  0.98311  0.75937  0.74996  1.0000
  H   H3058     1.0  0.76550  0.73074  0.88627  1.0000
  H   H3059     1.0  0.50468  0.85410  0.73794  1.0000
  H   H3060     1.0  0.77871  0.97911  0.96881  1.0000
  H   H3061     1.0  0.80840  0.94602  0.96014  1.0000
  H   H3062     1.0  0.51704  0.84895  0.49773  1.0000
  H   H3063     1.0  0.52441  0.73266  0.82996  1.0000
  H   H3064     1.0  0.61917  0.91618  0.47603  1.0000
  Fe  Fe191     1.0  0.97978  0.80221  0.97057  1.0000
  C   C1725     1.0  0.65751  0.80515  0.96988  1.0000
  S   S383      1.0  0.97805  0.82393  0.96417  1.0000
  H   H3065     1.0  0.73795  0.85412  0.97366  1.0000
  H   H3066     1.0  0.54669  0.91274  0.47878  1.0000
  H   H3067     1.0  0.63622  0.82013  0.94602  1.0000
  S   S384      1.0  0.70876  0.87651  0.97403  1.0000
  H   H3068     1.0  0.88487  0.79372  0.97040  1.0000
  Fe  Fe192     1.0  0.68560  0.89450  0.97354  1.0000
  H   H3069     1.0  0.67657  0.73086  0.93192  1.0000
  C   C1726     1.0  0.51343  0.86847  0.47884  1.0000
  H   H3070     1.0  0.48937  0.87599  0.68745  1.0000
  C   C1727     1.0  0.48951  0.87092  0.71387  1.0000
  C   C1728     1.0  0.48939  0.94179  0.58581  1.0000
  H   H3071     1.0  0.49092  0.73042  0.86412  1.0000
  H   H3072     1.0  0.66079  0.82528  0.97232  1.0000
