data_image0
_chemical_formula_structural       FeSHFeS2FeSFeS3CH3CHCFeSHCFeHSFe2SHFeSHFeSFeS3C2H8C2H14C2HC6H2C4H2C6H3NC9HCH12CH3CH6NC11H11CH12SH4SHCHCH4SNH2CH2CH2CHCH2CSCHCH3CH2CHCH4CHCH3C2HNCHCH2CHSH2CH5C2H2CH2SHC4HNCHC5H2C3H8NH2C3H10CH4CH6CH2C2H5CH2C4H3C2SHCH3CH6SH3C2SHFeS2FeS2FeSFeS3HS2CNSFeS2FeS2FeSFeHS2FeSH2SHCHC2HCH2CH4C4HNC7H4C7H2C6H4CH3CH2C6H2FeH3CH3NC12H28C2H2FeH2CHC4H2CH3SH2CH11CHC2H3NHC4HC2HCH5C2H9CHCH5CH4CNHC9H4SH17CH6CH6CH2C2H5NC8HC2H22CH3FeC2HCH2CH2CSHNH4C3NH3FeCHCSCH3CHC2HFeS2FeS2FeSFeS3H3SCSFeSFeSCFeS2FeHSFeH2S2H4C7H2CHCH2SCHC3H2CH7C2HCHCSH2C6H4CH2C3HCH2FeH6SNC12H21CH6CHSHC3HC2HCH3C4H2NHCHFeC4H6CH11CNC7H14NC2SC3HC4HCH11C2H2SCH11CH2CHCHCHC2FeNCH2CH8CH2CHCHC3H5C3H5CH7C4H4NSH5CSCSFeS2FeS2FeSFeS4FeSHFeSHSFeSHFeSFeS2HSCHCH2C3H2C7H2CHC4HCH3C7H4C2H6CHC3H3CSH2FeH2SH10CH2FeNHCHCH2C5HC2HCH3CH4CH4CH7CH4CH3CHCH5CHC2H2NHCH3CSH4NC2H4CHNH2SCH3C2HCHCHCH23CHC2H3C2H4CHCH3C3H3C2HCH4CH2C2H4CHCNCHCNC10H2C2H7CH3CHCH2C2H3CHSH2CHCHC2H2CH4CH3C2HCH4CHCHCFeS2FeSHFeSFeS3FeSCFeS2FeSFeS2HSFeSH2CHC6H2C4HCHC6H5SCHCHC2H4C3H5C2HS2H2CH3SH4CH3CNC11H16CH2CH10CNCH8CH2CH4CHC2HFeH5C2SHCHCH2CH2C3H5NH2CH3C2H2CH2SCH3C2H4FeH2C2HCH3NCH2CH7CH2C3H2CHSH4CH4NC12H15SH4CHCFeH3CH7CH3CH2SFeSHFeS2FeSFeS2C2SCHSH2SHFeS2FeS2FeCFeS3HSH2FeS3H2CHC4H7CH2CH4C6H4C6H4C3HCH2FeH2C5H6CHCHC4HCH5CSHNCSC3HCHC2HCHCHC2H2C2H10C2H2CH3CHCH2SH4C2H2NHCH8CHCH3CH3CH3FeNC12H16CH17CHC2NHFeHSC2HFeCH2CH3C2H4CH5C3HC2NHCH8CH6C2HCHC2H3CH6C2HCHCH3C2H2CHSH3SH3CH5C2HCFeS2FeS2FeSFeS3HC3SNFeS3HFeS2FeSHFeSFeCSH2CSCH2CH2SC3H2C3HCHCH5CH2C2HC2H2C7H4C2FeC4H3C2HCH11CH2SH5CHCN2C5HC4H20CH3NC2H4C2H4CSHC2H2C2H4C2H5CHCHCH2CHCHCHCSH2CH4CH2C2H6C2H3CHCNCH8NC11H25CH2CH5C2HCH3CH3CH6FeHC3SHCH2CH3C2H3CHFeS2FeSFe2CS2FeS2FeS2FeS2FeSFeHS2FeHC2HCH2C2HC3H4C3H2CH7SC2H3CH4C2H2C6H4C3H2CHC3H10NCH2CHSHCH4CH12CHNH2CH4C2H5SH2CH2NC2H2CSHC2HCHCHC2NC12H19CH8CHCHC3HC6HCH4CH5CH6C2H2C2SHCH4C4NHCH3C3FeC2SHCHCH2CH5C2HC2H6NSH3CH3CH3CH3CH2SH2C2H2CH2CFeS2FeHCFeSFeCS2HSHFeS2FeSHFeSFeS3FeSFeS3H5CNHC4HCH2CH2SHC5H6C5H2C7H4CSHC4H6CHNC2H13CSHC2HSHSH2NHC2H4C2H3C2H2CH2C5FeC4H9CH3NC11H26CH3CHNC4H2C3SH5CHCHFeH2CHCHCH7CH3C2H2C2HC4H3CH4C2H4C2HCSHC2HCHSCNH3CH5C2FeHCH8CH6CH4C2H3C4HCHCH5CSH2FeSHFeSHFeSFeS3FeS2FeS2FeHFeS3HFeHFeS2C6H4C2HC3HCHC7H4SHC3H2C3HNC2H4SCHCH4CH2CNH2NC3H8CH3C2H3C2H4CHCH2CHCH3C3H5CH2SH7CH11CHC2H2CH3C3HNH5C2H3CH9C2H4CHCHCH2FeNH2C2HC2H2CHCH4CHCH2C4HSH2S2C2HCH5C2H2CFeH2CHC3H2CHCHCH3NHCH3CH2C2H4C3H3CH2FeCH6C2NC3HSCH2SH4CHCHSC2H4CH5NHCSHC2HCHCH2SH2NHCHCH5FeS2FeS2FeSFeCS2H2CFeHSH3SFeS2FeS2FeSFeHS2HCH3SCHC4H4C3HC3H3CHC3H2CH4C2H4CH3C6H4CHC4H3C2H8CH3C2H2FeH2CNH4C2HC2H2NCSHC2HCH3CH2FeH2SHC2HNC9H19CHCFeH2CH2C2HC2H9CNC12H25CH2SC2H5CH2C2H7CH2C3HCH8CHCSCNC2H2CHCH2C2HCHCSH2CH9CFeS2FeS2FeCFeHS2CHFeSH2FeS2FeSCFe3S3H2SC7H4C2HC3H4C5H3C2H4CHC6H4CHSH3CH2CHCH3CHC2H2CH2CH2CH2NC2HCH2C2SH17C2H2CH5SH2CNC6H9CH8CHCH5CH3CH7CH4CHCH3C2H2C2H6SH2C4H4C2H10SCHCH5CH10CH3C2H2CH2SC3H2C3HC2SCNCH3C3H10CSC2H3NH2NC2H8C3FeC4H4CH3SCHFeCHCSH3NSHCH3C2H2FeSCFeS2FeSFeS3HC2FeS2FeSHFeSFeS3FeSHSHSC3HCHC6H4C2H5CH3C4H2CHC2H6FeHC3H4CHC6H4SH2NC12H28NC8HC2H4CH19C3HCHC2H2NC3H2C3H8C2HCHCH2SH4C2H8CH5C2H3CH5CHNH2CH4SC2HC3H3CHCH5C2H4CHNC2H3CHSHFeHCH7C2H5CH2C2H5CFeSHFeS2FeSFeS3H3SH2SHFeS2FeS2FeHFeS3HCFeSH3C3H4C2H2CH2C2H2C3H3C6H2C8H3C7H10CHCSC2H5CH4CHCNH3CH3CH2C2H2NCSC2HCFeH3C2H14FeCHCHCHCH3C3HCHSHCH3CHCHC4HC2H7CHCH2CH6CHNH3C2H10CNC12H29CHC2H2CH3C2HCHSCH2CH3CH3CHNH2CHC2H3C3HCH2CH3CH2CH2CH3SHCHSFeSHFeS2FeSFeS3FeSFeSHFeSHFeSFeS2H2SH2C3NC4H4C3H4CHCHC2H2CHCSHCHC6H4C4H2C2H2CH3CH2C2HC2HC2HCH5CH3CHC2HCSH2CHCHCHNH3SCNC2H6NC12H34CHSCH2CHCNCH2CFeCHSH2C2H3CHCH7CHCH3CNC2H2CH2CHC2H2CHCSHCHCH3CHC3HCH4CHCH5CSH3CHC2H6CH13CHCHCH6C2HFeHC2HCHCHCH6SH2CHSCFeSFeSFeS2FeS2FeSFeS3FeS2FeHSFeCFeHS2H5CHNFeC4HCH3C2HC2H3C3HC7H4NH3C2HC2HC4H2C3H5CH5CHCH2CHCHCH4CSH4CH2C2H5CSHC2H5CH2C4H2CHCSHNCHC5H2C3H3FeH10SCSH3CHSH5NC12H29CHC4H3CHCH2NH5CH2C2H2CHFeH4SCNC9H20CHSCHC2FeHCH14SH2CH2CH5C2HSH2CH2CH4CH4S2H3FeCHC5
_chemical_formula_sum              "Fe192 S384 H3072 C1728 N96"
_cell_length_a       76.7951
_cell_length_b       77.295
_cell_length_c       35.7878
_cell_angle_alpha    88.5906
_cell_angle_beta     88.5309
_cell_angle_gamma    87.8738

_space_group_name_H-M_alt    "P 1"
_space_group_IT_number       1

loop_
  _space_group_symop_operation_xyz
  'x, y, z'

loop_
  _atom_site_type_symbol
  _atom_site_label
  _atom_site_symmetry_multiplicity
  _atom_site_fract_x
  _atom_site_fract_y
  _atom_site_fract_z
  _atom_site_occupancy
  Fe  Fe1       1.0  0.03136  0.12393  0.23031  1.0000
  S   S1        1.0  0.04839  0.11741  0.17993  1.0000
  H   H1        1.0  0.04397  0.00436  0.68476  1.0000
  Fe  Fe2       1.0  0.05068  0.09664  0.28085  1.0000
  S   S2        1.0  0.06947  0.08947  0.23387  1.0000
  S   S3        1.0  0.05516  0.08198  0.33672  1.0000
  Fe  Fe3       1.0  0.07094  0.11780  0.21951  1.0000
  S   S4        1.0  0.09414  0.13382  0.19865  1.0000
  Fe  Fe4       1.0  0.04566  0.08947  0.19853  1.0000
  S   S5        1.0  0.04373  0.06346  0.17048  1.0000
  S   S6        1.0  0.05399  0.12527  0.26926  1.0000
  S   S7        1.0  0.02685  0.09583  0.24612  1.0000
  C   C1        1.0  0.24331  0.16627  0.66118  1.0000
  H   H2        1.0  0.07432  0.01162  0.68356  1.0000
  H   H3        1.0  0.16288  0.00687  0.81045  1.0000
  H   H4        1.0  0.21000  0.11703  0.14831  1.0000
  C   C2        1.0  0.02992  0.17390  0.29906  1.0000
  H   H5        1.0  0.16749  0.14456  0.05790  1.0000
  C   C3        1.0  0.01407  0.05393  0.37691  1.0000
  Fe  Fe5       1.0  0.23678  0.05104  0.87219  1.0000
  S   S8        1.0  0.20990  0.04212  0.85517  1.0000
  H   H6        1.0  0.23405  0.09382  0.30489  1.0000
  C   C4        1.0  0.24235  0.10954  0.08747  1.0000
  Fe  Fe6       1.0  0.01063  0.00674  0.47555  1.0000
  H   H7        1.0  0.12241  0.15431  0.17147  1.0000
  S   S9        1.0  0.23897  0.07973  0.88275  1.0000
  Fe  Fe7       1.0  0.00738  0.01282  0.01027  1.0000
  Fe  Fe8       1.0  0.22732  0.15324  0.16026  1.0000
  S   S10       1.0  0.20043  0.16607  0.16364  1.0000
  H   H8        1.0  0.24225  0.10762  0.11751  1.0000
  Fe  Fe9       1.0  0.23344  0.15966  0.24562  1.0000
  S   S11       1.0  0.20705  0.17295  0.25202  1.0000
  H   H9        1.0  0.06844  0.01907  0.72961  1.0000
  Fe  Fe10      1.0  0.19682  0.15152  0.21821  1.0000
  S   S12       1.0  0.17478  0.13458  0.24072  1.0000
  Fe  Fe11      1.0  0.21298  0.18656  0.19653  1.0000
  S   S13       1.0  0.20443  0.21526  0.18912  1.0000
  S   S14       1.0  0.22304  0.13753  0.21312  1.0000
  S   S15       1.0  0.24012  0.17448  0.19156  1.0000
  C   C5        1.0  0.21125  0.23091  0.15470  1.0000
  C   C6        1.0  0.22667  0.22867  0.13339  1.0000
  H   H10       1.0  0.12805  0.12587  0.07566  1.0000
  H   H11       1.0  0.21301  0.04830  0.68687  1.0000
  H   H12       1.0  0.15801  0.09955  0.09474  1.0000
  H   H13       1.0  0.23459  0.21690  0.13685  1.0000
  H   H14       1.0  0.10458  0.00515  0.70388  1.0000
  H   H15       1.0  0.02399  0.05846  0.23794  1.0000
  H   H16       1.0  0.24488  0.10684  0.69047  1.0000
  H   H17       1.0  0.08546  0.05864  0.08516  1.0000
  C   C7        1.0  0.18395  0.10714  0.13858  1.0000
  C   C8        1.0  0.23941  0.12622  0.07224  1.0000
  H   H18       1.0  0.21884  0.09535  0.19613  1.0000
  H   H19       1.0  0.08912  0.00868  0.00925  1.0000
  H   H20       1.0  0.22359  0.12294  0.47350  1.0000
  H   H21       1.0  0.24161  0.04640  0.64802  1.0000
  H   H22       1.0  0.09864  0.01237  0.75044  1.0000
  H   H23       1.0  0.19828  0.10563  0.20959  1.0000
  H   H24       1.0  0.23932  0.21692  0.45442  1.0000
  H   H25       1.0  0.09658  0.00713  0.93380  1.0000
  H   H26       1.0  0.22605  0.00793  0.83724  1.0000
  H   H27       1.0  0.22223  0.04984  0.78122  1.0000
  H   H28       1.0  0.19641  0.09093  0.78380  1.0000
  H   H29       1.0  0.23303  0.10498  0.26017  1.0000
  H   H30       1.0  0.23076  0.07184  0.68914  1.0000
  H   H31       1.0  0.04307  0.02005  0.97808  1.0000
  C   C9        1.0  0.20169  0.02258  0.83799  1.0000
  C   C10       1.0  0.18383  0.02206  0.83017  1.0000
  H   H32       1.0  0.17544  0.03335  0.83524  1.0000
  C   C11       1.0  0.04195  0.06687  0.36190  1.0000
  C   C12       1.0  0.04959  0.05577  0.38922  1.0000
  C   C13       1.0  0.03956  0.04379  0.41018  1.0000
  C   C14       1.0  0.02166  0.04289  0.40438  1.0000
  C   C15       1.0  0.02455  0.03531  0.08806  1.0000
  C   C16       1.0  0.02411  0.06579  0.35576  1.0000
  H   H33       1.0  0.06336  0.05651  0.39436  1.0000
  H   H34       1.0  0.04564  0.03544  0.43116  1.0000
  C   C17       1.0  0.03415  0.05809  0.12809  1.0000
  C   C18       1.0  0.02164  0.04741  0.05901  1.0000
  C   C19       1.0  0.02481  0.06493  0.06480  1.0000
  C   C20       1.0  0.03089  0.07031  0.09938  1.0000
  H   H35       1.0  0.01831  0.01183  0.79918  1.0000
  H   H36       1.0  0.03350  0.08378  0.10347  1.0000
  C   C21       1.0  0.11653  0.13367  0.21091  1.0000
  C   C22       1.0  0.12353  0.12230  0.23809  1.0000
  C   C23       1.0  0.14135  0.12279  0.24680  1.0000
  C   C24       1.0  0.15239  0.13467  0.22867  1.0000
  C   C25       1.0  0.14540  0.14607  0.20154  1.0000
  C   C26       1.0  0.12762  0.14549  0.19265  1.0000
  H   H37       1.0  0.11522  0.11313  0.25239  1.0000
  H   H38       1.0  0.14659  0.11388  0.26779  1.0000
  H   H39       1.0  0.15368  0.15529  0.18734  1.0000
  N   N1        1.0  0.06062  0.18257  0.21175  1.0000
  C   C27       1.0  0.04689  0.17468  0.23714  1.0000
  C   C28       1.0  0.06211  0.17310  0.17522  1.0000
  C   C29       1.0  0.07787  0.18021  0.23112  1.0000
  C   C30       1.0  0.05710  0.20173  0.20502  1.0000
  C   C31       1.0  0.03940  0.20721  0.18764  1.0000
  C   C32       1.0  0.04480  0.18223  0.27688  1.0000
  C   C33       1.0  0.09446  0.18444  0.20735  1.0000
  C   C34       1.0  0.04513  0.16628  0.15934  1.0000
  C   C35       1.0  0.04823  0.15947  0.11991  1.0000
  H   H40       1.0  0.04390  0.05074  0.95251  1.0000
  C   C36       1.0  0.11071  0.18293  0.23124  1.0000
  H   H41       1.0  0.04975  0.16051  0.24055  1.0000
  H   H42       1.0  0.03387  0.17566  0.22454  1.0000
  H   H43       1.0  0.06852  0.18128  0.15321  1.0000
  H   H44       1.0  0.07072  0.16127  0.17836  1.0000
  H   H45       1.0  0.07969  0.16653  0.24156  1.0000
  H   H46       1.0  0.07806  0.18844  0.25615  1.0000
  H   H47       1.0  0.05837  0.20886  0.23137  1.0000
  H   H48       1.0  0.06717  0.20711  0.18567  1.0000
  H   H49       1.0  0.05677  0.17966  0.29310  1.0000
  H   H50       1.0  0.04187  0.19638  0.27543  1.0000
  H   H51       1.0  0.09370  0.19779  0.19535  1.0000
  H   H52       1.0  0.09643  0.17530  0.18406  1.0000
  C   C37       1.0  0.07503  0.00915  0.00247  1.0000
  H   H53       1.0  0.03450  0.17626  0.15829  1.0000
  H   H54       1.0  0.08206  0.05198  0.24349  1.0000
  H   H55       1.0  0.03601  0.15414  0.10983  1.0000
  C   C38       1.0  0.18672  0.16316  0.06760  1.0000
  H   H56       1.0  0.02822  0.20128  0.20257  1.0000
  H   H57       1.0  0.09744  0.03206  0.97318  1.0000
  H   H58       1.0  0.03950  0.20364  0.15780  1.0000
  H   H59       1.0  0.12252  0.18504  0.21337  1.0000
  H   H60       1.0  0.11006  0.19278  0.25334  1.0000
  H   H61       1.0  0.11199  0.16982  0.24460  1.0000
  N   N2        1.0  0.20403  0.13116  0.36464  1.0000
  C   C39       1.0  0.20616  0.12998  0.40651  1.0000
  C   C40       1.0  0.18726  0.12316  0.35360  1.0000
  C   C41       1.0  0.21906  0.12071  0.34725  1.0000
  C   C42       1.0  0.20486  0.14954  0.34961  1.0000
  C   C43       1.0  0.19167  0.16293  0.36685  1.0000
  C   C44       1.0  0.22273  0.13819  0.42140  1.0000
  C   C45       1.0  0.21823  0.11788  0.30458  1.0000
  C   C46       1.0  0.17109  0.12565  0.38009  1.0000
  C   C47       1.0  0.15451  0.12037  0.36126  1.0000
  C   C48       1.0  0.19686  0.18149  0.35776  1.0000
  C   C49       1.0  0.09068  0.01956  0.92325  1.0000
  H   H62       1.0  0.24832  0.21748  0.38663  1.0000
  H   H63       1.0  0.20626  0.11614  0.41612  1.0000
  H   H64       1.0  0.19492  0.13613  0.42171  1.0000
  H   H65       1.0  0.18356  0.12790  0.32505  1.0000
  H   H66       1.0  0.18916  0.10884  0.35144  1.0000
  H   H67       1.0  0.22028  0.10767  0.36115  1.0000
  H   H68       1.0  0.23164  0.12702  0.35143  1.0000
  H   H69       1.0  0.21823  0.15432  0.35205  1.0000
  H   H70       1.0  0.20256  0.15006  0.31907  1.0000
  H   H71       1.0  0.19064  0.16168  0.39766  1.0000
  H   H72       1.0  0.17863  0.16130  0.35492  1.0000
  C   C50       1.0  0.21995  0.03970  0.70753  1.0000
  H   H73       1.0  0.22301  0.15215  0.41360  1.0000
  H   H74       1.0  0.21847  0.13048  0.28937  1.0000
  H   H75       1.0  0.20628  0.11128  0.29699  1.0000
  H   H76       1.0  0.17276  0.11734  0.40566  1.0000
  H   H77       1.0  0.16904  0.13917  0.38895  1.0000
  H   H78       1.0  0.15574  0.10667  0.35252  1.0000
  H   H79       1.0  0.14320  0.12173  0.38109  1.0000
  H   H80       1.0  0.15190  0.12881  0.33626  1.0000
  H   H81       1.0  0.20954  0.18406  0.37035  1.0000
  H   H82       1.0  0.19784  0.18383  0.32710  1.0000
  H   H83       1.0  0.18683  0.19072  0.36941  1.0000
  H   H84       1.0  0.24807  0.08257  0.07606  1.0000
  S   S16       1.0  0.01036  0.14588  0.23633  1.0000
  H   H85       1.0  0.23480  0.13164  0.41032  1.0000
  H   H86       1.0  0.03217  0.15963  0.30131  1.0000
  H   H87       1.0  0.24624  0.11319  0.29608  1.0000
  H   H88       1.0  0.17915  0.16941  0.09080  1.0000
  S   S17       1.0  0.01612  0.00624  0.53804  1.0000
  H   H89       1.0  0.02829  0.04696  0.89407  1.0000
  C   C51       1.0  0.02206  0.00849  0.32997  1.0000
  H   H90       1.0  0.05851  0.14896  0.11988  1.0000
  C   C52       1.0  0.01871  0.03604  0.27450  1.0000
  H   H91       1.0  0.19896  0.08401  0.19113  1.0000
  H   H92       1.0  0.05219  0.17008  0.10037  1.0000
  H   H93       1.0  0.02076  0.03277  0.93103  1.0000
  H   H94       1.0  0.23095  0.23301  0.39751  1.0000
  S   S18       1.0  0.23552  0.14486  0.10047  1.0000
  N   N3        1.0  0.03640  0.02687  0.27555  1.0000
  H   H95       1.0  0.09187  0.04985  0.02108  1.0000
  H   H96       1.0  0.14960  0.11935  0.14632  1.0000
  C   C53       1.0  0.03622  0.22684  0.18857  1.0000
  H   H97       1.0  0.06469  0.04866  0.08547  1.0000
  H   H98       1.0  0.01799  0.07431  0.33513  1.0000
  C   C54       1.0  0.22331  0.13674  0.46401  1.0000
  H   H99       1.0  0.04088  0.02308  0.21625  1.0000
  H   H100      1.0  0.21452  0.08249  0.81066  1.0000
  C   C55       1.0  0.05006  0.04053  0.27318  1.0000
  H   H101      1.0  0.01281  0.01867  0.34092  1.0000
  C   C56       1.0  0.21442  0.07392  0.75302  1.0000
  H   H102      1.0  0.23638  0.01299  0.75221  1.0000
  H   H103      1.0  0.20088  0.16379  0.07296  1.0000
  C   C57       1.0  0.20499  0.07932  0.78922  1.0000
  S   S19       1.0  0.00807  0.02832  0.43015  1.0000
  C   C58       1.0  0.08202  0.04829  0.27369  1.0000
  H   H104      1.0  0.23532  0.14271  0.47362  1.0000
  C   C59       1.0  0.06902  0.03417  0.28212  1.0000
  H   H105      1.0  0.17967  0.14036  0.12416  1.0000
  H   H106      1.0  0.06846  0.06745  0.05563  1.0000
  H   H107      1.0  0.20245  0.00815  0.70470  1.0000
  C   C60       1.0  0.03091  0.04061  0.12225  1.0000
  H   H108      1.0  0.24349  0.11615  0.97924  1.0000
  H   H109      1.0  0.18383  0.01499  0.73280  1.0000
  C   C61       1.0  0.18577  0.13355  0.09981  1.0000
  H   H110      1.0  0.07940  0.01694  0.90586  1.0000
  C   C62       1.0  0.25009  0.05553  0.66175  1.0000
  H   H111      1.0  0.07872  0.05988  0.29053  1.0000
  H   H112      1.0  0.05569  0.01284  0.93933  1.0000
  H   H113      1.0  0.05057  0.04674  0.24479  1.0000
  H   H114      1.0  0.23969  0.15507  0.64450  1.0000
  C   C63       1.0  0.23386  0.10677  0.29074  1.0000
  H   H115      1.0  0.22574  0.02886  0.69081  1.0000
  C   C64       1.0  0.20543  0.03228  0.73385  1.0000
  H   H116      1.0  0.07324  0.02283  0.26543  1.0000
  H   H117      1.0  0.24407  0.23995  0.09192  1.0000
  H   H118      1.0  0.09907  0.04022  0.88499  1.0000
  C   C65       1.0  0.20334  0.10454  0.14937  1.0000
  C   C66       1.0  0.24623  0.09751  0.02448  1.0000
  H   H119      1.0  0.02369  0.23041  0.17499  1.0000
  N   N4        1.0  0.18076  0.11486  0.10007  1.0000
  C   C67       1.0  0.18159  0.14437  0.06383  1.0000
  H   H120      1.0  0.01668  0.04003  0.21342  1.0000
  C   C68       1.0  0.19437  0.01961  0.71359  1.0000
  H   H121      1.0  0.05824  0.04368  0.91467  1.0000
  H   H122      1.0  0.12659  0.10743  0.10779  1.0000
  C   C69       1.0  0.24926  0.03699  0.73601  1.0000
  H   H123      1.0  0.23933  0.02728  0.79075  1.0000
  S   S20       1.0  0.01506  0.04074  0.01471  1.0000
  H   H124      1.0  0.01693  0.04444  0.29919  1.0000
  H   H125      1.0  0.01732  0.17679  0.28533  1.0000
  C   C70       1.0  0.23204  0.24181  0.10794  1.0000
  H   H126      1.0  0.21547  0.07807  0.05026  1.0000
  H   H127      1.0  0.17578  0.08311  0.05948  1.0000
  H   H128      1.0  0.24011  0.18093  0.34691  1.0000
  H   H129      1.0  0.21068  0.02542  0.75872  1.0000
  H   H130      1.0  0.05911  0.00114  0.86082  1.0000
  C   C71       1.0  0.18911  0.08572  0.06865  1.0000
  C   C72       1.0  0.14864  0.12377  0.11669  1.0000
  H   H131      1.0  0.02262  0.07437  0.04244  1.0000
  H   H132      1.0  0.22111  0.08543  0.74142  1.0000
  C   C73       1.0  0.23987  0.12837  0.03298  1.0000
  H   H133      1.0  0.20003  0.13438  0.10358  1.0000
  H   H134      1.0  0.24500  0.17758  0.64188  1.0000
  S   S21       1.0  0.25080  0.07897  0.99621  1.0000
  H   H135      1.0  0.04656  0.05123  0.29254  1.0000
  C   C74       1.0  0.03961  0.01520  0.24264  1.0000
  C   C75       1.0  0.01507  0.04754  0.23937  1.0000
  C   C76       1.0  0.24820  0.22701  0.44356  1.0000
  C   C77       1.0  0.19156  0.10553  0.07048  1.0000
  H   H136      1.0  0.04050  0.15536  0.17726  1.0000
  N   N5        1.0  0.07034  0.02574  0.98091  1.0000
  C   C78       1.0  0.05406  0.02368  0.95883  1.0000
  H   H137      1.0  0.23914  0.06437  0.77419  1.0000
  C   C79       1.0  0.06628  0.03966  0.00912  1.0000
  C   C80       1.0  0.08550  0.03135  0.95642  1.0000
  C   C81       1.0  0.03844  0.01702  0.31238  1.0000
  C   C82       1.0  0.04786  0.03964  0.93477  1.0000
  C   C83       1.0  0.08108  0.04333  0.03633  1.0000
  H   H138      1.0  0.09534  0.04348  0.28095  1.0000
  H   H139      1.0  0.19114  0.07910  0.09610  1.0000
  C   C84       1.0  0.09562  0.01381  0.72029  1.0000
  C   C85       1.0  0.03200  0.03557  0.91203  1.0000
  C   C86       1.0  0.07448  0.05528  0.06742  1.0000
  H   H140      1.0  0.08644  0.03131  0.04993  1.0000
  H   H141      1.0  0.03538  0.23127  0.21788  1.0000
  H   H142      1.0  0.24785  0.09670  0.75687  1.0000
  H   H143      1.0  0.23605  0.24115  0.21469  1.0000
  H   H144      1.0  0.05445  0.03634  0.02621  1.0000
  H   H145      1.0  0.06301  0.05230  0.99508  1.0000
  H   H146      1.0  0.08306  0.04479  0.94541  1.0000
  H   H147      1.0  0.20454  0.07048  0.73269  1.0000
  N   N6        1.0  0.23425  0.04923  0.72567  1.0000
  H   H148      1.0  0.03489  0.02432  0.89385  1.0000
  H   H149      1.0  0.19678  0.06872  0.80028  1.0000
  C   C87       1.0  0.24524  0.02221  0.76451  1.0000
  C   C88       1.0  0.21234  0.00784  0.83115  1.0000
  C   C89       1.0  0.22793  0.05878  0.76002  1.0000
  H   H150      1.0  0.00905  0.14860  0.15416  1.0000
  H   H151      1.0  0.21186  0.14367  0.47700  1.0000
  H   H152      1.0  0.18396  0.17055  0.04129  1.0000
  H   H153      1.0  0.19653  0.04284  0.74420  1.0000
  H   H154      1.0  0.20566  0.10791  0.07347  1.0000
  H   H155      1.0  0.11628  0.03040  0.91310  1.0000
  H   H156      1.0  0.07010  0.03051  0.31220  1.0000
  H   H157      1.0  0.02212  0.02181  0.08407  1.0000
  H   H158      1.0  0.06787  0.00877  0.03003  1.0000
  H   H159      1.0  0.18901  0.13914  0.03936  1.0000
  C   C90       1.0  0.12989  0.12128  0.10499  1.0000
  H   H160      1.0  0.20101  0.08391  0.01257  1.0000
  H   H161      1.0  0.03350  0.03108  0.14420  1.0000
  H   H162      1.0  0.23258  0.16920  0.68169  1.0000
  H   H163      1.0  0.21050  0.09551  0.13036  1.0000
  C   C91       1.0  0.24869  0.17204  0.36213  1.0000
  H   H164      1.0  0.12071  0.12884  0.12333  1.0000
  H   H165      1.0  0.15098  0.13784  0.11486  1.0000
  H   H166      1.0  0.15929  0.11690  0.06181  1.0000
  H   H167      1.0  0.18828  0.02599  0.68876  1.0000
  H   H168      1.0  0.23771  0.14120  0.02076  1.0000
  H   H169      1.0  0.19905  0.06351  0.03754  1.0000
  C   C92       1.0  0.17665  0.00704  0.81603  1.0000
  H   H170      1.0  0.10798  0.01897  0.87443  1.0000
  H   H171      1.0  0.18844  0.11085  0.04221  1.0000
  C   C93       1.0  0.20487  0.09690  0.18900  1.0000
  C   C94       1.0  0.20194  0.07737  0.04050  1.0000
  H   H172      1.0  0.17763  0.09446  0.14230  1.0000
  H   H173      1.0  0.02906  0.17911  0.32772  1.0000
  H   H174      1.0  0.04249  0.02594  0.33440  1.0000
  H   H175      1.0  0.17764  0.11552  0.16036  1.0000
  H   H176      1.0  0.09790  0.02738  0.71109  1.0000
  C   C95       1.0  0.24954  0.20771  0.58274  1.0000
  H   H177      1.0  0.24741  0.22051  0.51467  1.0000
  H   H178      1.0  0.04911  0.00692  0.30997  1.0000
  C   C96       1.0  0.16175  0.11329  0.09157  1.0000
  C   C97       1.0  0.24494  0.22958  0.40179  1.0000
  C   C98       1.0  0.24134  0.06255  0.69817  1.0000
  C   C99       1.0  0.24317  0.11416  0.00928  1.0000
  H   H179      1.0  0.04683  0.23359  0.17318  1.0000
  H   H180      1.0  0.24177  0.07742  0.62573  1.0000
  H   H181      1.0  0.00805  0.02680  0.27716  1.0000
  C   C100      1.0  0.10434  0.02788  0.89751  1.0000
  C   C101      1.0  0.24578  0.09535  0.06378  1.0000
  S   S22       1.0  0.25078  0.15215  0.29674  1.0000
  H   H182      1.0  0.24699  0.18659  0.41308  1.0000
  C   C102      1.0  0.07668  0.00957  0.71387  1.0000
  H   H183      1.0  0.23877  0.21767  0.58109  1.0000
  H   H184      1.0  0.24465  0.23927  0.45783  1.0000
  H   H185      1.0  0.24477  0.19507  0.57398  1.0000
  C   C103      1.0  0.20122  0.24640  0.14977  1.0000
  H   H186      1.0  0.01263  0.00687  0.23604  1.0000
  H   H187      1.0  0.04365  0.00943  0.74839  1.0000
  H   H188      1.0  0.05234  0.00803  0.24504  1.0000
  H   H189      1.0  0.01835  0.00183  0.64423  1.0000
  H   H190      1.0  0.18924  0.24828  0.16596  1.0000
  H   H191      1.0  0.01506  0.00097  0.30969  1.0000
  S   S23       1.0  0.25015  0.04279  0.92534  1.0000
  H   H192      1.0  0.03379  0.00359  0.38430  1.0000
  H   H193      1.0  0.02776  0.00176  0.17549  1.0000
  H   H194      1.0  0.25115  0.07039  0.71185  1.0000
  C   C104      1.0  0.02609  0.00126  0.23653  1.0000
  C   C105      1.0  0.00225  0.15983  0.16572  1.0000
  S   S24       1.0  0.00494  0.00003  0.95453  1.0000
  H   H195      1.0  0.18271  0.46691  0.35316  1.0000
  Fe  Fe12      1.0  0.03495  0.34836  0.00648  1.0000
  S   S25       1.0  0.04916  0.36233  0.05068  1.0000
  S   S26       1.0  0.02699  0.32022  0.01720  1.0000
  Fe  Fe13      1.0  0.03739  0.37941  0.95059  1.0000
  S   S27       1.0  0.05101  0.39528  0.99140  1.0000
  S   S28       1.0  0.03295  0.38921  0.89061  1.0000
  Fe  Fe14      1.0  0.06744  0.37107  0.00406  1.0000
  S   S29       1.0  0.09652  0.37653  0.00845  1.0000
  Fe  Fe15      1.0  0.03199  0.38520  0.03408  1.0000
  S   S30       1.0  0.01602  0.40181  0.07431  1.0000
  S   S31       1.0  0.05462  0.35552  0.96089  1.0000
  S   S32       1.0  0.01678  0.37090  0.99237  1.0000
  H   H196      1.0  0.20802  0.42188  0.19449  1.0000
  S   S33       1.0  0.02106  0.47853  0.72427  1.0000
  S   S34       1.0  0.24814  0.34043  0.94960  1.0000
  C   C106      1.0  0.21216  0.33095  0.79532  1.0000
  N   N7        1.0  0.23502  0.42869  0.18533  1.0000
  S   S35       1.0  0.04819  0.44714  0.19924  1.0000
  Fe  Fe16      1.0  0.19238  0.32695  0.02497  1.0000
  S   S36       1.0  0.21017  0.34944  0.02562  1.0000
  S   S37       1.0  0.16497  0.32642  0.00066  1.0000
  Fe  Fe17      1.0  0.22083  0.30140  0.05552  1.0000
  S   S38       1.0  0.24056  0.32241  0.05684  1.0000
  S   S39       1.0  0.22985  0.27355  0.07109  1.0000
  Fe  Fe18      1.0  0.21868  0.33889  0.08225  1.0000
  S   S40       1.0  0.21745  0.35434  0.13701  1.0000
  Fe  Fe19      1.0  0.23070  0.33107  0.99976  1.0000
  H   H197      1.0  0.22752  0.26848  0.18247  1.0000
  S   S41       1.0  0.19939  0.31742  0.08286  1.0000
  S   S42       1.0  0.21255  0.30907  0.99726  1.0000
  Fe  Fe20      1.0  0.24177  0.43307  0.35849  1.0000
  S   S43       1.0  0.21611  0.44905  0.35486  1.0000
  H   H198      1.0  0.06983  0.47185  0.24375  1.0000
  H   H199      1.0  0.22523  0.25583  0.24665  1.0000
  S   S44       1.0  0.24014  0.40397  0.35791  1.0000
  H   H200      1.0  0.21738  0.31258  0.22351  1.0000
  C   C107      1.0  0.23115  0.36262  0.17156  1.0000
  H   H201      1.0  0.02989  0.47285  0.14437  1.0000
  C   C108      1.0  0.02806  0.48551  0.08837  1.0000
  C   C109      1.0  0.05333  0.48624  0.13253  1.0000
  H   H202      1.0  0.02932  0.33485  0.08730  1.0000
  C   C110      1.0  0.20642  0.25941  0.12379  1.0000
  H   H203      1.0  0.17956  0.44400  0.49791  1.0000
  H   H204      1.0  0.21189  0.42550  0.52460  1.0000
  C   C111      1.0  0.01294  0.49809  0.01583  1.0000
  H   H205      1.0  0.19834  0.27103  0.11981  1.0000
  H   H206      1.0  0.01864  0.28691  0.04906  1.0000
  H   H207      1.0  0.02136  0.37696  0.17181  1.0000
  H   H208      1.0  0.08168  0.49354  0.44926  1.0000
  C   C112      1.0  0.24162  0.28596  0.21871  1.0000
  C   C113      1.0  0.15491  0.43257  0.50804  1.0000
  C   C114      1.0  0.20763  0.29850  0.17874  1.0000
  C   C115      1.0  0.22874  0.39975  0.09851  1.0000
  H   H209      1.0  0.06277  0.48869  0.10913  1.0000
  N   N8        1.0  0.24025  0.30208  0.19386  1.0000
  C   C116      1.0  0.06935  0.46970  0.27455  1.0000
  C   C117      1.0  0.02481  0.44635  0.85267  1.0000
  C   C118      1.0  0.02736  0.43331  0.82650  1.0000
  C   C119      1.0  0.02969  0.41587  0.83851  1.0000
  C   C120      1.0  0.02981  0.41130  0.87681  1.0000
  C   C121      1.0  0.02765  0.42438  0.90300  1.0000
  C   C122      1.0  0.02516  0.44180  0.89096  1.0000
  H   H210      1.0  0.02779  0.43670  0.79709  1.0000
  H   H211      1.0  0.04408  0.46313  0.10939  1.0000
  H   H212      1.0  0.02778  0.42102  0.93249  1.0000
  H   H213      1.0  0.02373  0.44507  0.98113  1.0000
  C   C123      1.0  0.02557  0.41398  0.10883  1.0000
  C   C124      1.0  0.01459  0.42200  0.13558  1.0000
  C   C125      1.0  0.02148  0.43189  0.16365  1.0000
  C   C126      1.0  0.03942  0.43412  0.16491  1.0000
  C   C127      1.0  0.05048  0.42602  0.13818  1.0000
  C   C128      1.0  0.04358  0.41595  0.11015  1.0000
  C   C129      1.0  0.20188  0.42510  0.27009  1.0000
  H   H214      1.0  0.06441  0.42758  0.13910  1.0000
  H   H215      1.0  0.05216  0.40976  0.08966  1.0000
  C   C130      1.0  0.11525  0.36214  0.00746  1.0000
  C   C131      1.0  0.13150  0.36835  0.01732  1.0000
  C   C132      1.0  0.14676  0.35754  0.01635  1.0000
  C   C133      1.0  0.14603  0.34041  0.00489  1.0000
  C   C134      1.0  0.12982  0.33427  0.99461  1.0000
  C   C135      1.0  0.11452  0.34499  0.99612  1.0000
  H   H216      1.0  0.13227  0.38159  0.02605  1.0000
  H   H217      1.0  0.15911  0.36251  0.02414  1.0000
  H   H218      1.0  0.12908  0.32106  0.98561  1.0000
  H   H219      1.0  0.10219  0.34000  0.98829  1.0000
  C   C136      1.0  0.23721  0.25363  0.22909  1.0000
  H   H220      1.0  0.19714  0.37321  0.95512  1.0000
  H   H221      1.0  0.00298  0.32142  0.16633  1.0000
  H   H222      1.0  0.00510  0.38192  0.23238  1.0000
  C   C137      1.0  0.23426  0.47070  0.12177  1.0000
  H   H223      1.0  0.09137  0.48537  0.28124  1.0000
  H   H224      1.0  0.20458  0.34031  0.77753  1.0000
  C   C138      1.0  0.20477  0.46213  0.38854  1.0000
  C   C139      1.0  0.21157  0.46520  0.42357  1.0000
  C   C140      1.0  0.20171  0.47500  0.44996  1.0000
  C   C141      1.0  0.18511  0.48216  0.44145  1.0000
  C   C142      1.0  0.17839  0.47920  0.40634  1.0000
  C   C143      1.0  0.18812  0.46920  0.38012  1.0000
  H   H225      1.0  0.22442  0.46008  0.43028  1.0000
  H   H226      1.0  0.14770  0.44510  0.50282  1.0000
  Fe  Fe21      1.0  0.02932  0.46601  0.22840  1.0000
  H   H227      1.0  0.20945  0.36836  0.20918  1.0000
  H   H228      1.0  0.24294  0.31051  0.13600  1.0000
  H   H229      1.0  0.14703  0.42197  0.49782  1.0000
  C   C144      1.0  0.22202  0.25730  0.10300  1.0000
  H   H230      1.0  0.22145  0.32234  0.17875  1.0000
  H   H231      1.0  0.20755  0.44050  0.48772  1.0000
  H   H232      1.0  0.20619  0.28651  0.19598  1.0000
  N   N9        1.0  0.08465  0.42273  0.91084  1.0000
  C   C145      1.0  0.08029  0.40385  0.91367  1.0000
  C   C146      1.0  0.07572  0.43212  0.94300  1.0000
  C   C147      1.0  0.07697  0.43003  0.87496  1.0000
  C   C148      1.0  0.10408  0.42541  0.90990  1.0000
  C   C149      1.0  0.11567  0.41205  0.93238  1.0000
  C   C150      1.0  0.08608  0.39289  0.87940  1.0000
  C   C151      1.0  0.07765  0.44994  0.86856  1.0000
  C   C152      1.0  0.08249  0.42767  0.98262  1.0000
  C   C153      1.0  0.07101  0.43645  0.01274  1.0000
  C   C154      1.0  0.13435  0.41801  0.93469  1.0000
  C   C155      1.0  0.08611  0.37351  0.88875  1.0000
  C   C156      1.0  0.07389  0.45518  0.82800  1.0000
  H   H233      1.0  0.06593  0.40258  0.91699  1.0000
  H   H234      1.0  0.08566  0.39751  0.93924  1.0000
  H   H235      1.0  0.07718  0.44631  0.93983  1.0000
  H   H236      1.0  0.06142  0.43002  0.94297  1.0000
  H   H237      1.0  0.06305  0.42662  0.87324  1.0000
  H   H238      1.0  0.08369  0.42402  0.85033  1.0000
  H   H239      1.0  0.10940  0.42518  0.88064  1.0000
  H   H240      1.0  0.10672  0.43859  0.91974  1.0000
  H   H241      1.0  0.11630  0.39931  0.91872  1.0000
  H   H242      1.0  0.11071  0.40976  0.96127  1.0000
  H   H243      1.0  0.07683  0.39541  0.85632  1.0000
  H   H244      1.0  0.09926  0.39617  0.86875  1.0000
  H   H245      1.0  0.09060  0.45474  0.87535  1.0000
  H   H246      1.0  0.06750  0.45662  0.88624  1.0000
  H   H247      1.0  0.08281  0.41358  0.98881  1.0000
  H   H248      1.0  0.09582  0.43250  0.98532  1.0000
  H   H249      1.0  0.07610  0.43291  0.04081  1.0000
  H   H250      1.0  0.07102  0.45076  0.00902  1.0000
  H   H251      1.0  0.05742  0.43212  0.01173  1.0000
  H   H252      1.0  0.13462  0.43035  0.94993  1.0000
  H   H253      1.0  0.14232  0.40804  0.95014  1.0000
  H   H254      1.0  0.00739  0.40132  0.20420  1.0000
  H   H255      1.0  0.07264  0.36958  0.89568  1.0000
  H   H256      1.0  0.09097  0.36611  0.86417  1.0000
  H   H257      1.0  0.09465  0.37019  0.91272  1.0000
  H   H258      1.0  0.08411  0.44968  0.80874  1.0000
  H   H259      1.0  0.06097  0.45063  0.82000  1.0000
  H   H260      1.0  0.07365  0.46951  0.82471  1.0000
  C   C157      1.0  0.08396  0.47934  0.45336  1.0000
  C   C158      1.0  0.22340  0.36906  0.20481  1.0000
  H   H261      1.0  0.11947  0.47667  0.30342  1.0000
  H   H262      1.0  0.22413  0.36768  0.55087  1.0000
  Fe  Fe22      1.0  0.01446  0.48336  0.78493  1.0000
  H   H263      1.0  0.22207  0.46811  0.10711  1.0000
  H   H264      1.0  0.22726  0.38127  0.25775  1.0000
  C   C159      1.0  0.03065  0.33014  0.11649  1.0000
  H   H265      1.0  0.00824  0.48922  0.40790  1.0000
  C   C160      1.0  0.21543  0.43388  0.24477  1.0000
  C   C161      1.0  0.11694  0.48124  0.33221  1.0000
  C   C162      1.0  0.23844  0.41517  0.15595  1.0000
  C   C163      1.0  0.05004  0.32630  0.12273  1.0000
  H   H266      1.0  0.20972  0.44665  0.23570  1.0000
  H   H267      1.0  0.12407  0.34923  0.87423  1.0000
  C   C164      1.0  0.00697  0.31195  0.03506  1.0000
  H   H268      1.0  0.23136  0.48038  0.14375  1.0000
  H   H269      1.0  0.23213  0.28700  0.24267  1.0000
  H   H270      1.0  0.03027  0.35605  0.13619  1.0000
  S   S45       1.0  0.02201  0.46578  0.28959  1.0000
  H   H271      1.0  0.01199  0.46027  0.55775  1.0000
  H   H272      1.0  0.24877  0.25255  0.24714  1.0000
  C   C165      1.0  0.00691  0.37784  0.17218  1.0000
  H   H273      1.0  0.12977  0.33532  0.91341  1.0000
  H   H274      1.0  0.03781  0.48858  0.06591  1.0000
  H   H275      1.0  0.09589  0.47692  0.46989  1.0000
  H   H276      1.0  0.22628  0.33262  0.78914  1.0000
  H   H277      1.0  0.24506  0.44502  0.11561  1.0000
  H   H278      1.0  0.05964  0.47907  0.28686  1.0000
  H   H279      1.0  0.17014  0.43512  0.45750  1.0000
  H   H280      1.0  0.14920  0.48753  0.29719  1.0000
  H   H281      1.0  0.22013  0.39379  0.46194  1.0000
  H   H282      1.0  0.02714  0.34011  0.17241  1.0000
  H   H283      1.0  0.23282  0.43044  0.45056  1.0000
  C   C166      1.0  0.02316  0.34410  0.14361  1.0000
  H   H284      1.0  0.21576  0.34744  0.90204  1.0000
  C   C167      1.0  0.03836  0.47558  0.11950  1.0000
  C   C168      1.0  0.21246  0.42702  0.49357  1.0000
  H   H285      1.0  0.05208  0.32054  0.15108  1.0000
  H   H286      1.0  0.05516  0.31694  0.10169  1.0000
  H   H287      1.0  0.05751  0.33830  0.11942  1.0000
  N   N10       1.0  0.10407  0.47010  0.35335  1.0000
  H   H288      1.0  0.02334  0.45181  0.91142  1.0000
  C   C169      1.0  0.08681  0.47071  0.33369  1.0000
  C   C170      1.0  0.10110  0.47764  0.39169  1.0000
  C   C171      1.0  0.11096  0.45171  0.35877  1.0000
  C   C172      1.0  0.11601  0.44169  0.32298  1.0000
  H   H289      1.0  0.23144  0.36945  0.50282  1.0000
  C   C173      1.0  0.08569  0.47042  0.41571  1.0000
  C   C174      1.0  0.08733  0.47222  0.29031  1.0000
  H   H290      1.0  0.19780  0.43382  0.29315  1.0000
  C   C175      1.0  0.12527  0.42436  0.33263  1.0000
  H   H291      1.0  0.20904  0.31752  0.78821  1.0000
  H   H292      1.0  0.00770  0.44673  0.75238  1.0000
  H   H293      1.0  0.15349  0.35494  0.89449  1.0000
  H   H294      1.0  0.23535  0.33240  0.24447  1.0000
  H   H295      1.0  0.07909  0.45927  0.34221  1.0000
  C   C176      1.0  0.22282  0.41093  0.13148  1.0000
  C   C177      1.0  0.20726  0.36944  0.93380  1.0000
  H   H296      1.0  0.11293  0.47556  0.40878  1.0000
  H   H297      1.0  0.12240  0.45127  0.37730  1.0000
  H   H298      1.0  0.10109  0.44383  0.37390  1.0000
  H   H299      1.0  0.12494  0.44899  0.30420  1.0000
  H   H300      1.0  0.10409  0.43877  0.30780  1.0000
  H   H301      1.0  0.02556  0.43570  0.69994  1.0000
  H   H302      1.0  0.14158  0.47002  0.35430  1.0000
  H   H303      1.0  0.08766  0.45634  0.42149  1.0000
  H   H304      1.0  0.07305  0.47263  0.40168  1.0000
  C   C178      1.0  0.18325  0.41551  0.49457  1.0000
  H   H305      1.0  0.09653  0.46269  0.27729  1.0000
  C   C179      1.0  0.23347  0.37645  0.23241  1.0000
  H   H306      1.0  0.21628  0.42282  0.11990  1.0000
  H   H307      1.0  0.02560  0.42910  0.01881  1.0000
  H   H308      1.0  0.13768  0.42645  0.34690  1.0000
  H   H309      1.0  0.11679  0.41627  0.35100  1.0000
  H   H310      1.0  0.12834  0.41722  0.30657  1.0000
  C   C180      1.0  0.01751  0.42658  0.71679  1.0000
  H   H311      1.0  0.01821  0.48818  0.99622  1.0000
  H   H312      1.0  0.22029  0.37065  0.94610  1.0000
  H   H313      1.0  0.21314  0.40347  0.14821  1.0000
  H   H314      1.0  0.15658  0.43086  0.53868  1.0000
  C   C181      1.0  0.22000  0.37130  0.52210  1.0000
  N   N11       1.0  0.20105  0.41425  0.47575  1.0000
  H   H315      1.0  0.20963  0.36254  0.51416  1.0000
  C   C182      1.0  0.20838  0.39595  0.48046  1.0000
  C   C183      1.0  0.00665  0.29473  0.04882  1.0000
  C   C184      1.0  0.20009  0.41858  0.43450  1.0000
  C   C185      1.0  0.18738  0.40783  0.41225  1.0000
  C   C186      1.0  0.24231  0.43896  0.50242  1.0000
  C   C187      1.0  0.22022  0.42261  0.21038  1.0000
  C   C188      1.0  0.21329  0.39017  0.52082  1.0000
  C   C189      1.0  0.24597  0.29884  0.15390  1.0000
  C   C190      1.0  0.18663  0.41419  0.37153  1.0000
  H   H316      1.0  0.23576  0.38776  0.10842  1.0000
  H   H317      1.0  0.17515  0.40463  0.48641  1.0000
  H   H318      1.0  0.19886  0.38657  0.47101  1.0000
  H   H319      1.0  0.20751  0.41289  0.28254  1.0000
  S   S46       1.0  0.02138  0.46851  0.83939  1.0000
  H   H320      1.0  0.19664  0.43253  0.42988  1.0000
  H   H321      1.0  0.21311  0.41666  0.42057  1.0000
  H   H322      1.0  0.17393  0.40880  0.42415  1.0000
  H   H323      1.0  0.19176  0.39399  0.41225  1.0000
  H   H324      1.0  0.07874  0.48225  0.34253  1.0000
  H   H325      1.0  0.19014  0.42221  0.25418  1.0000
  H   H326      1.0  0.21643  0.44551  0.15612  1.0000
  H   H327      1.0  0.19632  0.28363  0.94251  1.0000
  H   H328      1.0  0.22378  0.39807  0.53149  1.0000
  H   H329      1.0  0.20185  0.39131  0.54024  1.0000
  H   H330      1.0  0.22691  0.43611  0.26197  1.0000
  H   H331      1.0  0.07272  0.47424  0.46976  1.0000
  H   H332      1.0  0.00693  0.48314  0.55268  1.0000
  H   H333      1.0  0.19973  0.41297  0.35775  1.0000
  H   H334      1.0  0.17754  0.40629  0.35609  1.0000
  H   H335      1.0  0.18195  0.42796  0.36987  1.0000
  H   H336      1.0  0.00726  0.36723  0.09936  1.0000
  C   C191      1.0  0.02027  0.46141  0.05020  1.0000
  H   H337      1.0  0.18441  0.41394  0.52541  1.0000
  H   H338      1.0  0.19048  0.32076  0.16434  1.0000
  H   H339      1.0  0.03160  0.40587  0.81802  1.0000
  H   H340      1.0  0.15963  0.49515  0.33780  1.0000
  H   H341      1.0  0.21066  0.29518  0.14932  1.0000
  H   H342      1.0  0.14024  0.41983  0.90625  1.0000
  C   C192      1.0  0.13499  0.48289  0.34995  1.0000
  H   H343      1.0  0.20702  0.34227  0.94734  1.0000
  H   H344      1.0  0.18007  0.30023  0.16655  1.0000
  H   H345      1.0  0.18554  0.31054  0.20916  1.0000
  H   H346      1.0  0.24230  0.43513  0.53254  1.0000
  H   H347      1.0  0.02396  0.31770  0.11965  1.0000
  H   H348      1.0  0.21575  0.28762  0.91433  1.0000
  C   C193      1.0  0.22185  0.30971  0.19446  1.0000
  H   H349      1.0  0.20706  0.47724  0.47703  1.0000
  H   H350      1.0  0.13006  0.32678  0.86674  1.0000
  C   C194      1.0  0.18987  0.30815  0.17983  1.0000
  C   C195      1.0  0.17262  0.43278  0.48763  1.0000
  H   H351      1.0  0.00854  0.28847  0.92202  1.0000
  H   H352      1.0  0.19700  0.29817  0.86169  1.0000
  H   H353      1.0  0.15402  0.34641  0.84805  1.0000
  H   H354      1.0  0.06508  0.45631  0.28056  1.0000
  H   H355      1.0  0.13368  0.48948  0.37712  1.0000
  N   N12       1.0  0.18367  0.33135  0.88768  1.0000
  C   C196      1.0  0.19314  0.31650  0.90767  1.0000
  C   C197      1.0  0.18675  0.34821  0.90672  1.0000
  C   C198      1.0  0.16438  0.32805  0.89105  1.0000
  C   C199      1.0  0.18865  0.33247  0.84663  1.0000
  C   C200      1.0  0.20828  0.33411  0.83674  1.0000
  C   C201      1.0  0.19159  0.29835  0.89073  1.0000
  C   C202      1.0  0.15182  0.34314  0.87809  1.0000
  C   C203      1.0  0.20513  0.35075  0.92222  1.0000
  H   H356      1.0  0.16560  0.48448  0.39976  1.0000
  C   C204      1.0  0.20174  0.28454  0.91346  1.0000
  C   C205      1.0  0.13279  0.33825  0.88344  1.0000
  H   H357      1.0  0.18837  0.31570  0.93731  1.0000
  H   H358      1.0  0.20730  0.31863  0.90928  1.0000
  H   H359      1.0  0.18356  0.35939  0.88758  1.0000
  H   H360      1.0  0.17779  0.34965  0.93164  1.0000
  H   H361      1.0  0.16066  0.32477  0.92067  1.0000
  H   H362      1.0  0.16112  0.31664  0.87465  1.0000
  H   H363      1.0  0.18386  0.32109  0.83197  1.0000
  H   H364      1.0  0.18199  0.34388  0.83304  1.0000
  H   H365      1.0  0.21649  0.32467  0.85272  1.0000
  H   H366      1.0  0.21231  0.34743  0.84224  1.0000
  H   H367      1.0  0.17785  0.29445  0.89070  1.0000
  H   H368      1.0  0.24366  0.47628  0.10112  1.0000
  H   H369      1.0  0.22791  0.45583  0.19076  1.0000
  H   H370      1.0  0.20633  0.37840  0.90914  1.0000
  H   H371      1.0  0.21720  0.39591  0.08298  1.0000
  H   H372      1.0  0.23807  0.41339  0.48380  1.0000
  H   H373      1.0  0.02353  0.49819  0.09997  1.0000
  H   H374      1.0  0.03014  0.46596  0.02927  1.0000
  H   H375      1.0  0.01289  0.43749  0.18472  1.0000
  H   H376      1.0  0.06030  0.47903  0.15522  1.0000
  H   H377      1.0  0.25053  0.42078  0.23316  1.0000
  H   H378      1.0  0.20074  0.27173  0.90047  1.0000
  C   C206      1.0  0.25146  0.37793  0.22681  1.0000
  H   H379      1.0  0.02589  0.42007  0.73815  1.0000
  H   H380      1.0  0.23744  0.40702  0.07902  1.0000
  H   H381      1.0  0.02753  0.45200  0.06860  1.0000
  Fe  Fe23      1.0  0.00681  0.49835  0.21149  1.0000
  C   C207      1.0  0.23182  0.42647  0.48040  1.0000
  C   C208      1.0  0.22954  0.44606  0.16850  1.0000
  H   H382      1.0  0.22327  0.40923  0.22095  1.0000
  C   C209      1.0  0.14686  0.49378  0.32456  1.0000
  H   H383      1.0  0.11122  0.49459  0.32856  1.0000
  H   H384      1.0  0.24288  0.40275  0.16962  1.0000
  C   C210      1.0  0.23912  0.26828  0.20000  1.0000
  H   H385      1.0  0.23689  0.45243  0.49912  1.0000
  H   H386      1.0  0.24933  0.41869  0.13669  1.0000
  C   C211      1.0  0.24213  0.45395  0.13888  1.0000
  S   S47       1.0  0.03490  0.49437  0.22680  1.0000
  H   H387      1.0  0.23843  0.28852  0.14166  1.0000
  N   N13       1.0  0.01288  0.47638  0.07262  1.0000
  H   H388      1.0  0.24274  0.31249  0.26741  1.0000
  H   H389      1.0  0.00273  0.35341  0.20165  1.0000
  H   H390      1.0  0.09888  0.49192  0.38922  1.0000
  H   H391      1.0  0.01269  0.41674  0.69787  1.0000
  C   C212      1.0  0.00276  0.48951  0.04896  1.0000
  C   C213      1.0  0.24654  0.32296  0.24739  1.0000
  C   C214      1.0  0.24894  0.31907  0.88649  1.0000
  N   N14       1.0  0.00366  0.34763  0.14292  1.0000
  H   H392      1.0  0.00315  0.34670  0.08260  1.0000
  H   H393      1.0  0.00685  0.45745  0.11623  1.0000
  H   H394      1.0  0.24064  0.31053  0.90261  1.0000
  Fe  Fe24      1.0  0.02482  0.49459  0.28620  1.0000
  C   C215      1.0  0.00706  0.45052  0.03004  1.0000
  H   H395      1.0  0.24978  0.30316  0.83742  1.0000
  C   C216      1.0  0.24923  0.36354  0.16653  1.0000
  S   S48       1.0  0.17297  0.49400  0.47604  1.0000
  C   C217      1.0  0.01642  0.43792  0.00336  1.0000
  H   H396      1.0  0.00673  0.42989  0.99001  1.0000
  H   H397      1.0  0.25052  0.26482  0.18165  1.0000
  H   H398      1.0  0.00256  0.38510  0.14677  1.0000
  C   C218      1.0  0.00223  0.43661  0.73535  1.0000
  H   H399      1.0  0.25088  0.44317  0.22219  1.0000
  C   C219      1.0  0.25092  0.43022  0.20917  1.0000
  C   C220      1.0  0.25186  0.31563  0.20857  1.0000
  H   H400      1.0  0.04825  0.49879  0.14361  1.0000
  Fe  Fe25      1.0  0.15972  0.67899  0.45537  1.0000
  S   S49       1.0  0.14919  0.70673  0.46154  1.0000
  S   S50       1.0  0.14117  0.65620  0.45774  1.0000
  Fe  Fe26      1.0  0.19572  0.69103  0.42741  1.0000
  S   S51       1.0  0.18742  0.71892  0.43207  1.0000
  S   S52       1.0  0.22134  0.68026  0.40113  1.0000
  Fe  Fe27      1.0  0.17502  0.71163  0.48820  1.0000
  S   S53       1.0  0.18164  0.73036  0.53550  1.0000
  Fe  Fe28      1.0  0.16233  0.71200  0.40529  1.0000
  S   S54       1.0  0.15356  0.72973  0.35561  1.0000
  S   S55       1.0  0.18484  0.68358  0.48469  1.0000
  S   S56       1.0  0.17134  0.68435  0.39824  1.0000
  H   H401      1.0  0.23831  0.72833  0.32054  1.0000
  H   H402      1.0  0.15536  0.72004  0.59337  1.0000
  H   H403      1.0  0.23148  0.71900  0.84235  1.0000
  S   S57       1.0  0.09197  0.71807  0.11161  1.0000
  C   C221      1.0  0.12719  0.73810  0.25828  1.0000
  S   S58       1.0  0.12251  0.50550  0.45221  1.0000
  Fe  Fe29      1.0  0.09067  0.73336  0.16469  1.0000
  S   S59       1.0  0.10118  0.72152  0.22017  1.0000
  Fe  Fe30      1.0  0.06309  0.72429  0.10661  1.0000
  S   S60       1.0  0.04099  0.70481  0.10512  1.0000
  C   C222      1.0  0.18947  0.59127  0.32650  1.0000
  Fe  Fe31      1.0  0.13768  0.55090  0.47956  1.0000
  S   S61       1.0  0.13883  0.52738  0.51850  1.0000
  S   S62       1.0  0.14999  0.57543  0.50036  1.0000
  Fe  Fe32      1.0  0.12198  0.53019  0.41811  1.0000
  H   H404      1.0  0.12656  0.74810  0.23666  1.0000
  S   S63       1.0  0.11261  0.53035  0.35857  1.0000
  Fe  Fe33      1.0  0.11191  0.52208  0.49918  1.0000
  H   H405      1.0  0.16036  0.71818  0.22854  1.0000
  H   H406      1.0  0.03078  0.61593  0.93454  1.0000
  S   S64       1.0  0.10999  0.54660  0.46358  1.0000
  S   S65       1.0  0.14964  0.53638  0.43085  1.0000
  H   H407      1.0  0.13988  0.56434  0.35225  1.0000
  H   H408      1.0  0.22294  0.71898  0.24505  1.0000
  H   H409      1.0  0.18052  0.69869  0.32875  1.0000
  H   H410      1.0  0.21011  0.69464  0.26908  1.0000
  C   C223      1.0  0.09098  0.52422  0.35239  1.0000
  C   C224      1.0  0.08521  0.52111  0.31630  1.0000
  C   C225      1.0  0.06816  0.51569  0.31093  1.0000
  C   C226      1.0  0.18857  0.72066  0.22898  1.0000
  C   C227      1.0  0.13524  0.57592  0.36797  1.0000
  C   C228      1.0  0.17072  0.72504  0.21249  1.0000
  C   C229      1.0  0.07862  0.51310  0.57482  1.0000
  H   H411      1.0  0.01725  0.57485  0.84200  1.0000
  H   H412      1.0  0.05364  0.51550  0.40149  1.0000
  C   C230      1.0  0.05428  0.50784  0.61903  1.0000
  H   H413      1.0  0.20318  0.72788  0.05753  1.0000
  C   C231      1.0  0.08785  0.51996  0.60389  1.0000
  H   H414      1.0  0.21268  0.72081  0.34951  1.0000
  H   H415      1.0  0.15417  0.59298  0.34388  1.0000
  S   S66       1.0  0.01340  0.64403  0.00505  1.0000
  C   C232      1.0  0.24270  0.70867  0.39393  1.0000
  H   H416      1.0  0.19095  0.70648  0.22742  1.0000
  C   C233      1.0  0.03422  0.68762  0.07690  1.0000
  C   C234      1.0  0.02166  0.67632  0.09175  1.0000
  C   C235      1.0  0.01543  0.66281  0.07043  1.0000
  H   H417      1.0  0.00692  0.55474  0.01254  1.0000
  H   H418      1.0  0.19018  0.72422  0.34375  1.0000
  C   C236      1.0  0.02284  0.57636  0.95940  1.0000
  H   H419      1.0  0.04079  0.54546  0.31940  1.0000
  H   H420      1.0  0.17603  0.66767  0.31800  1.0000
  H   H421      1.0  0.02274  0.59899  0.87607  1.0000
  H   H422      1.0  0.16783  0.61163  0.42213  1.0000
  H   H423      1.0  0.17850  0.58361  0.31731  1.0000
  H   H424      1.0  0.02056  0.57912  0.20179  1.0000
  H   H425      1.0  0.18580  0.60526  0.32472  1.0000
  C   C237      1.0  0.17687  0.73667  0.58295  1.0000
  C   C238      1.0  0.22134  0.72544  0.27245  1.0000
  H   H426      1.0  0.15941  0.57703  0.42252  1.0000
  C   C239      1.0  0.20300  0.72733  0.33073  1.0000
  H   H427      1.0  0.02794  0.74776  0.23680  1.0000
  C   C240      1.0  0.00834  0.62686  0.90656  1.0000
  S   S67       1.0  0.05470  0.51602  0.69461  1.0000
  H   H428      1.0  0.14092  0.50696  0.31991  1.0000
  H   H429      1.0  0.08852  0.74641  0.38526  1.0000
  C   C241      1.0  0.14427  0.63373  0.46893  1.0000
  C   C242      1.0  0.15776  0.62734  0.49154  1.0000
  C   C243      1.0  0.15910  0.60953  0.50128  1.0000
  C   C244      1.0  0.14731  0.59779  0.48774  1.0000
  C   C245      1.0  0.13387  0.60413  0.46496  1.0000
  C   C246      1.0  0.13228  0.62201  0.45597  1.0000
  H   H430      1.0  0.16695  0.63619  0.50214  1.0000
  H   H431      1.0  0.16945  0.60482  0.51923  1.0000
  H   H432      1.0  0.12461  0.59532  0.45455  1.0000
  H   H433      1.0  0.12169  0.62683  0.43877  1.0000
  C   C247      1.0  0.13957  0.72673  0.31721  1.0000
  H   H434      1.0  0.17793  0.69451  0.28044  1.0000
  H   H435      1.0  0.12440  0.58245  0.35248  1.0000
  C   C248      1.0  0.11666  0.72374  0.25623  1.0000
  C   C249      1.0  0.11791  0.71083  0.28465  1.0000
  C   C250      1.0  0.12935  0.71221  0.31471  1.0000
  H   H436      1.0  0.17710  0.64302  0.42422  1.0000
  C   C251      1.0  0.18901  0.67309  0.31174  1.0000
  H   H437      1.0  0.10988  0.69965  0.28351  1.0000
  H   H438      1.0  0.12999  0.70219  0.33633  1.0000
  Fe  Fe34      1.0  0.09592  0.74370  0.08064  1.0000
  H   H439      1.0  0.03328  0.56692  0.32867  1.0000
  H   H440      1.0  0.19703  0.57116  0.36541  1.0000
  H   H441      1.0  0.00608  0.65405  0.08263  1.0000
  H   H442      1.0  0.06382  0.51327  0.28309  1.0000
  H   H443      1.0  0.23203  0.71626  0.40631  1.0000
  H   H444      1.0  0.00757  0.63854  0.92407  1.0000
  S   S68       1.0  0.08744  0.51158  0.52840  1.0000
  N   N15       1.0  0.10347  0.57912  0.57709  1.0000
  C   C252      1.0  0.09160  0.57598  0.54512  1.0000
  C   C253      1.0  0.11260  0.59606  0.57082  1.0000
  C   C254      1.0  0.11726  0.56464  0.57756  1.0000
  C   C255      1.0  0.09391  0.57871  0.61447  1.0000
  C   C256      1.0  0.07744  0.59074  0.61837  1.0000
  C   C257      1.0  0.08198  0.55868  0.54709  1.0000
  C   C258      1.0  0.13196  0.56629  0.60619  1.0000
  C   C259      1.0  0.10258  0.61099  0.54978  1.0000
  C   C260      1.0  0.11210  0.62796  0.55162  1.0000
  C   C261      1.0  0.06803  0.58752  0.65594  1.0000
  C   C262      1.0  0.06819  0.55815  0.51712  1.0000
  C   C263      1.0  0.14585  0.55175  0.60192  1.0000
  H   H445      1.0  0.09924  0.57633  0.51819  1.0000
  H   H446      1.0  0.08148  0.58649  0.54224  1.0000
  H   H447      1.0  0.11689  0.60108  0.59787  1.0000
  H   H448      1.0  0.12482  0.59397  0.55375  1.0000
  H   H449      1.0  0.12347  0.56336  0.54927  1.0000
  H   H450      1.0  0.11136  0.55198  0.58403  1.0000
  H   H451      1.0  0.09020  0.56526  0.62221  1.0000
  H   H452      1.0  0.10267  0.58237  0.63701  1.0000
  H   H453      1.0  0.06796  0.58855  0.59629  1.0000
  H   H454      1.0  0.08114  0.60447  0.61736  1.0000
  H   H455      1.0  0.09139  0.54772  0.54223  1.0000
  H   H456      1.0  0.07527  0.55659  0.57453  1.0000
  H   H457      1.0  0.12660  0.56539  0.63522  1.0000
  H   H458      1.0  0.13864  0.57872  0.60247  1.0000
  H   H459      1.0  0.10166  0.60783  0.51976  1.0000
  H   H460      1.0  0.08921  0.61326  0.56124  1.0000
  H   H461      1.0  0.12575  0.62627  0.54097  1.0000
  H   H462      1.0  0.10544  0.63809  0.53401  1.0000
  H   H463      1.0  0.11219  0.63249  0.58082  1.0000
  H   H464      1.0  0.07675  0.58985  0.67946  1.0000
  H   H465      1.0  0.05641  0.59645  0.65841  1.0000
  C   C264      1.0  0.01360  0.54858  0.27953  1.0000
  H   H466      1.0  0.06222  0.54526  0.51820  1.0000
  H   H467      1.0  0.05774  0.56821  0.52208  1.0000
  H   H468      1.0  0.07411  0.56020  0.48881  1.0000
  H   H469      1.0  0.15582  0.55283  0.62358  1.0000
  H   H470      1.0  0.13994  0.53888  0.60531  1.0000
  H   H471      1.0  0.15248  0.55274  0.57403  1.0000
  C   C265      1.0  0.02101  0.55660  0.01694  1.0000
  H   H472      1.0  0.00449  0.59120  0.90201  1.0000
  S   S69       1.0  0.03487  0.50813  0.33635  1.0000
  H   H473      1.0  0.17064  0.61376  0.37335  1.0000
  C   C266      1.0  0.14999  0.58846  0.37213  1.0000
  C   C267      1.0  0.01301  0.58138  0.22817  1.0000
  C   C268      1.0  0.07956  0.52206  0.38304  1.0000
  H   H474      1.0  0.14252  0.73018  0.86920  1.0000
  C   C269      1.0  0.13845  0.73961  0.28865  1.0000
  C   C270      1.0  0.17026  0.74789  0.65807  1.0000
  H   H475      1.0  0.18970  0.74154  0.26662  1.0000
  C   C271      1.0  0.16334  0.72972  0.60495  1.0000
  H   H476      1.0  0.17994  0.71532  0.92947  1.0000
  H   H477      1.0  0.01037  0.73738  0.09148  1.0000
  H   H478      1.0  0.16572  0.74845  0.88827  1.0000
  C   C272      1.0  0.19463  0.58542  0.36647  1.0000
  C   C273      1.0  0.01751  0.61191  0.92790  1.0000
  C   C274      1.0  0.20936  0.71461  0.88055  1.0000
  C   C275      1.0  0.18690  0.69260  0.30410  1.0000
  H   H479      1.0  0.08385  0.52443  0.41097  1.0000
  H   H480      1.0  0.19823  0.64835  0.40544  1.0000
  N   N16       1.0  0.02951  0.55912  0.27161  1.0000
  H   H481      1.0  0.03865  0.67028  0.99012  1.0000
  C   C276      1.0  0.04071  0.55084  0.24103  1.0000
  H   H482      1.0  0.06026  0.57774  0.35644  1.0000
  Fe  Fe35      1.0  0.02883  0.50630  0.71926  1.0000
  C   C277      1.0  0.05897  0.56501  0.30288  1.0000
  C   C278      1.0  0.03124  0.54268  0.20827  1.0000
  C   C279      1.0  0.04411  0.53729  0.17704  1.0000
  C   C280      1.0  0.06182  0.50706  0.58267  1.0000
  H   H483      1.0  0.21751  0.70723  0.90104  1.0000
  H   H484      1.0  0.04444  0.56189  0.98598  1.0000
  H   H485      1.0  0.05002  0.56032  0.22900  1.0000
  H   H486      1.0  0.04881  0.53989  0.25300  1.0000
  H   H487      1.0  0.21301  0.74578  0.39157  1.0000
  H   H488      1.0  0.03676  0.58518  0.25590  1.0000
  C   C281      1.0  0.01818  0.59516  0.90476  1.0000
  H   H489      1.0  0.02658  0.54468  0.03071  1.0000
  H   H490      1.0  0.05963  0.57766  0.28780  1.0000
  H   H491      1.0  0.06731  0.55544  0.28736  1.0000
  H   H492      1.0  0.02456  0.53089  0.21833  1.0000
  H   H493      1.0  0.02127  0.55150  0.19584  1.0000
  H   H494      1.0  0.05068  0.54877  0.16491  1.0000
  H   H495      1.0  0.05404  0.52774  0.18780  1.0000
  H   H496      1.0  0.03697  0.53121  0.15448  1.0000
  H   H497      1.0  0.10092  0.52424  0.59857  1.0000
  H   H498      1.0  0.01564  0.72282  0.05406  1.0000
  H   H499      1.0  0.16772  0.73921  0.21310  1.0000
  C   C282      1.0  0.04033  0.68525  0.04010  1.0000
  N   N17       1.0  0.18172  0.58982  0.39757  1.0000
  C   C283      1.0  0.17737  0.60903  0.39886  1.0000
  C   C284      1.0  0.19002  0.58448  0.43416  1.0000
  C   C285      1.0  0.19289  0.62098  0.40389  1.0000
  C   C286      1.0  0.19369  0.56474  0.44076  1.0000
  C   C287      1.0  0.00628  0.60023  0.22645  1.0000
  C   C288      1.0  0.20019  0.56092  0.48023  1.0000
  C   C289      1.0  0.06348  0.51473  0.64810  1.0000
  H   H500      1.0  0.01998  0.54232  0.83931  1.0000
  H   H501      1.0  0.18169  0.58917  0.45800  1.0000
  H   H502      1.0  0.20278  0.59062  0.43692  1.0000
  H   H503      1.0  0.20758  0.59067  0.37220  1.0000
  H   H504      1.0  0.19876  0.61872  0.43167  1.0000
  H   H505      1.0  0.20308  0.61892  0.38179  1.0000
  H   H506      1.0  0.20388  0.55979  0.42080  1.0000
  H   H507      1.0  0.14442  0.59984  0.38730  1.0000
  H   H508      1.0  0.04070  0.72798  0.22823  1.0000
  H   H509      1.0  0.15205  0.71151  0.89333  1.0000
  H   H510      1.0  0.17072  0.73405  0.95066  1.0000
  H   H511      1.0  0.19016  0.56510  0.50141  1.0000
  H   H512      1.0  0.20281  0.54677  0.48418  1.0000
  H   H513      1.0  0.21243  0.56770  0.48483  1.0000
  N   N18       1.0  0.02932  0.58017  0.91993  1.0000
  C   C290      1.0  0.02646  0.56472  0.89607  1.0000
  C   C291      1.0  0.21849  0.71312  0.84223  1.0000
  S   S70       1.0  0.02435  0.51043  0.78103  1.0000
  C   C292      1.0  0.04811  0.58543  0.91946  1.0000
  C   C293      1.0  0.06236  0.57076  0.91529  1.0000
  C   C294      1.0  0.02894  0.56780  0.85326  1.0000
  H   H514      1.0  0.24935  0.73166  0.49091  1.0000
  C   C295      1.0  0.18692  0.64005  0.40174  1.0000
  C   C296      1.0  0.03995  0.55881  0.30696  1.0000
  C   C297      1.0  0.08046  0.57741  0.92221  1.0000
  C   C298      1.0  0.03114  0.55071  0.83273  1.0000
  H   H515      1.0  0.19668  0.70831  0.87897  1.0000
  C   C299      1.0  0.08027  0.52086  0.64021  1.0000
  H   H516      1.0  0.03498  0.55347  0.90432  1.0000
  H   H517      1.0  0.19858  0.72700  0.21095  1.0000
  H   H518      1.0  0.08101  0.56988  0.33756  1.0000
  H   H519      1.0  0.22000  0.73382  0.95952  1.0000
  H   H520      1.0  0.20049  0.59206  0.27003  1.0000
  H   H521      1.0  0.05069  0.59481  0.89597  1.0000
  H   H522      1.0  0.05075  0.59264  0.94518  1.0000
  H   H523      1.0  0.06254  0.56571  0.88650  1.0000
  H   H524      1.0  0.06017  0.55973  0.93484  1.0000
  H   H525      1.0  0.20870  0.57417  0.29856  1.0000
  H   H526      1.0  0.04048  0.57564  0.84658  1.0000
  C   C300      1.0  0.15037  0.72584  0.89360  1.0000
  C   C301      1.0  0.03060  0.56000  0.97961  1.0000
  H   H527      1.0  0.19740  0.67039  0.33621  1.0000
  H   H528      1.0  0.22033  0.69927  0.83500  1.0000
  S   S71       1.0  0.06161  0.73831  0.16137  1.0000
  C   C302      1.0  0.17889  0.72968  0.92625  1.0000
  H   H529      1.0  0.16832  0.56685  0.38222  1.0000
  H   H530      1.0  0.08349  0.58823  0.90233  1.0000
  H   H531      1.0  0.08125  0.58197  0.95131  1.0000
  H   H532      1.0  0.09043  0.56680  0.91810  1.0000
  H   H533      1.0  0.04342  0.54370  0.84066  1.0000
  H   H534      1.0  0.05457  0.50167  0.56047  1.0000
  H   H535      1.0  0.03158  0.55330  0.80204  1.0000
  H   H536      1.0  0.14303  0.72963  0.91946  1.0000
  H   H537      1.0  0.18183  0.55722  0.43765  1.0000
  H   H538      1.0  0.10440  0.73482  0.35609  1.0000
  H   H539      1.0  0.00844  0.57521  0.95965  1.0000
  C   C303      1.0  0.20972  0.72576  0.02989  1.0000
  H   H540      1.0  0.09400  0.52276  0.29248  1.0000
  H   H541      1.0  0.14956  0.72978  0.65846  1.0000
  C   C304      1.0  0.03388  0.67187  0.01858  1.0000
  H   H542      1.0  0.22087  0.73956  0.26536  1.0000
  C   C305      1.0  0.16524  0.57979  0.39429  1.0000
  H   H543      1.0  0.05541  0.73047  0.28827  1.0000
  C   C306      1.0  0.24092  0.69093  0.38889  1.0000
  H   H544      1.0  0.17690  0.72473  0.28473  1.0000
  C   C307      1.0  0.06246  0.51694  0.37762  1.0000
  C   C308      1.0  0.05672  0.51366  0.34165  1.0000
  Fe  Fe36      1.0  0.14930  0.51265  0.46841  1.0000
  N   N19       1.0  0.20463  0.72018  0.29184  1.0000
  C   C309      1.0  0.20476  0.70065  0.29509  1.0000
  H   H545      1.0  0.02513  0.72887  0.26657  1.0000
  H   H546      1.0  0.01687  0.67793  0.12018  1.0000
  C   C310      1.0  0.18944  0.72722  0.26951  1.0000
  H   H547      1.0  0.02534  0.58732  0.97789  1.0000
  H   H548      1.0  0.06358  0.57400  0.65817  1.0000
  H   H549      1.0  0.18118  0.64338  0.37420  1.0000
  H   H550      1.0  0.21265  0.71166  0.02706  1.0000
  H   H551      1.0  0.21377  0.69592  0.31740  1.0000
  H   H552      1.0  0.17058  0.72088  0.18302  1.0000
  H   H553      1.0  0.13009  0.57166  0.39588  1.0000
  H   H554      1.0  0.22047  0.73869  0.89354  1.0000
  C   C311      1.0  0.02135  0.66058  0.03352  1.0000
  H   H555      1.0  0.19489  0.66653  0.28696  1.0000
  H   H556      1.0  0.07138  0.74693  0.32763  1.0000
  C   C312      1.0  0.02483  0.57784  0.26206  1.0000
  H   H557      1.0  0.04137  0.50308  0.62460  1.0000
  C   C313      1.0  0.06699  0.56699  0.34114  1.0000
  H   H558      1.0  0.06597  0.55486  0.35814  1.0000
  C   C314      1.0  0.20461  0.58812  0.29862  1.0000
  C   C315      1.0  0.16009  0.73530  0.64204  1.0000
  C   C316      1.0  0.04887  0.74230  0.27605  1.0000
  H   H559      1.0  0.08756  0.52608  0.66253  1.0000
  H   H560      1.0  0.02238  0.56758  0.03598  1.0000
  H   H561      1.0  0.04991  0.69382  0.02812  1.0000
  H   H562      1.0  0.21592  0.59587  0.30574  1.0000
  H   H563      1.0  0.01003  0.60991  0.95450  1.0000
  C   C317      1.0  0.20475  0.74722  0.33357  1.0000
  C   C318      1.0  0.23824  0.72109  0.29422  1.0000
  C   C319      1.0  0.03482  0.73643  0.25019  1.0000
  H   H564      1.0  0.01729  0.60916  0.22453  1.0000
  H   H565      1.0  0.20761  0.71510  0.95703  1.0000
  H   H566      1.0  0.01299  0.56017  0.90081  1.0000
  H   H567      1.0  0.22212  0.73275  0.02895  1.0000
  H   H568      1.0  0.00496  0.51238  0.40576  1.0000
  C   C320      1.0  0.16808  0.73426  0.89114  1.0000
  H   H569      1.0  0.01773  0.53495  0.28677  1.0000
  H   H570      1.0  0.18540  0.72557  0.00191  1.0000
  H   H571      1.0  0.08789  0.74052  0.29463  1.0000
  H   H572      1.0  0.20136  0.74129  0.86757  1.0000
  H   H573      1.0  0.02951  0.54822  0.96295  1.0000
  H   H574      1.0  0.23953  0.70705  0.30129  1.0000
  H   H575      1.0  0.19484  0.74643  0.00364  1.0000
  C   C321      1.0  0.20635  0.72939  0.95968  1.0000
  C   C322      1.0  0.19778  0.73251  0.99885  1.0000
  C   C323      1.0  0.20708  0.73385  0.89160  1.0000
  C   C324      1.0  0.09999  0.74781  0.36602  1.0000
  H   H576      1.0  0.01570  0.63007  0.88033  1.0000
  H   H577      1.0  0.17479  0.72963  0.86529  1.0000
  H   H578      1.0  0.21052  0.71979  0.82033  1.0000
  H   H579      1.0  0.00868  0.51691  0.97052  1.0000
  N   N20       1.0  0.19666  0.73738  0.92710  1.0000
  S   S72       1.0  0.00208  0.51276  0.15659  1.0000
  H   H580      1.0  0.01854  0.58427  0.28670  1.0000
  H   H581      1.0  0.07118  0.74416  0.23865  1.0000
  H   H582      1.0  0.00561  0.54765  0.25438  1.0000
  H   H583      1.0  0.02382  0.50563  0.02588  1.0000
  H   H584      1.0  0.00769  0.55562  0.33815  1.0000
  C   C325      1.0  0.00485  0.73039  0.06800  1.0000
  S   S73       1.0  0.06706  0.74908  0.07250  1.0000
  C   C326      1.0  0.18705  0.74926  0.59902  1.0000
  S   S74       1.0  0.11969  0.74917  0.04166  1.0000
  Fe  Fe37      1.0  0.12207  0.96345  0.71903  1.0000
  S   S75       1.0  0.10439  0.94956  0.75946  1.0000
  S   S76       1.0  0.11381  0.97420  0.66160  1.0000
  Fe  Fe38      1.0  0.15060  0.96695  0.77862  1.0000
  S   S77       1.0  0.13399  0.95397  0.82303  1.0000
  S   S78       1.0  0.17899  0.97300  0.79107  1.0000
  Fe  Fe39      1.0  0.12855  0.93460  0.77879  1.0000
  S   S79       1.0  0.12777  0.90599  0.79812  1.0000
  Fe  Fe40      1.0  0.11143  0.96978  0.79991  1.0000
  S   S80       1.0  0.09081  0.98688  0.82901  1.0000
  S   S81       1.0  0.14592  0.94699  0.73498  1.0000
  S   S82       1.0  0.12844  0.98429  0.75890  1.0000
  S   S83       1.0  0.02300  0.98020  0.46494  1.0000
  Fe  Fe41      1.0  0.02698  0.97909  0.52800  1.0000
  S   S84       1.0  0.04681  0.96319  0.56313  1.0000
  H   H585      1.0  0.19428  0.75439  0.31824  1.0000
  Fe  Fe42      1.0  0.01929  0.97733  0.98127  1.0000
  S   S85       1.0  0.03962  0.95878  0.95606  1.0000
  H   H586      1.0  0.13356  0.84686  0.65941  1.0000
  S   S86       1.0  0.19419  0.79097  0.75821  1.0000
  Fe  Fe43      1.0  0.15813  0.78086  0.83406  1.0000
  S   S87       1.0  0.17890  0.80014  0.84374  1.0000
  H   H587      1.0  0.02987  0.77331  0.18525  1.0000
  Fe  Fe44      1.0  0.17407  0.80954  0.78440  1.0000
  S   S88       1.0  0.17408  0.83751  0.76107  1.0000
  Fe  Fe45      1.0  0.19755  0.78049  0.81704  1.0000
  S   S89       1.0  0.22329  0.76943  0.84059  1.0000
  S   S90       1.0  0.15213  0.79164  0.77622  1.0000
  H   H588      1.0  0.00962  0.87945  0.06536  1.0000
  S   S91       1.0  0.05589  0.79004  0.13581  1.0000
  C   C327      1.0  0.01934  0.82297  0.18352  1.0000
  H   H589      1.0  0.17760  0.93309  0.79569  1.0000
  C   C328      1.0  0.14400  0.76588  0.94513  1.0000
  H   H590      1.0  0.15673  0.77031  0.93714  1.0000
  H   H591      1.0  0.02971  0.93811  0.02282  1.0000
  C   C329      1.0  0.24145  0.77963  0.85952  1.0000
  C   C330      1.0  0.13094  0.76628  0.91858  1.0000
  C   C331      1.0  0.02450  0.98909  0.63709  1.0000
  H   H592      1.0  0.09972  0.78881  0.97602  1.0000
  H   H593      1.0  0.23135  0.80579  0.85246  1.0000
  C   C332      1.0  0.19434  0.75677  0.93068  1.0000
  C   C333      1.0  0.09410  0.97176  0.63724  1.0000
  C   C334      1.0  0.08405  0.95711  0.64233  1.0000
  C   C335      1.0  0.06946  0.95493  0.61990  1.0000
  C   C336      1.0  0.06440  0.96752  0.59277  1.0000
  C   C337      1.0  0.07398  0.98254  0.58887  1.0000
  C   C338      1.0  0.08886  0.98452  0.61064  1.0000
  H   H594      1.0  0.08799  0.94709  0.66233  1.0000
  H   H595      1.0  0.06223  0.94321  0.62302  1.0000
  C   C339      1.0  0.14035  0.76040  0.98238  1.0000
  H   H596      1.0  0.04101  0.96092  0.72668  1.0000
  C   C340      1.0  0.05281  0.96603  0.91824  1.0000
  C   C341      1.0  0.06708  0.95559  0.90598  1.0000
  C   C342      1.0  0.07857  0.96161  0.87772  1.0000
  C   C343      1.0  0.07588  0.97816  0.86185  1.0000
  H   H597      1.0  0.19762  0.75470  0.58260  1.0000
  C   C344      1.0  0.04973  0.98229  0.90124  1.0000
  H   H598      1.0  0.06947  0.94296  0.91891  1.0000
  H   H599      1.0  0.08974  0.95364  0.86892  1.0000
  H   H600      1.0  0.10243  0.81806  0.03281  1.0000
  C   C345      1.0  0.02956  0.99236  0.19919  1.0000
  C   C346      1.0  0.14075  0.88710  0.78702  1.0000
  C   C347      1.0  0.13900  0.87202  0.80954  1.0000
  C   C348      1.0  0.14904  0.85674  0.80212  1.0000
  C   C349      1.0  0.16093  0.85632  0.77184  1.0000
  C   C350      1.0  0.16258  0.87135  0.74915  1.0000
  C   C351      1.0  0.15257  0.88663  0.75662  1.0000
  H   H601      1.0  0.12980  0.87217  0.83292  1.0000
  H   H602      1.0  0.14755  0.84529  0.81973  1.0000
  H   H603      1.0  0.17166  0.87117  0.72553  1.0000
  H   H604      1.0  0.15387  0.89798  0.73863  1.0000
  C   C352      1.0  0.13645  0.84054  0.68681  1.0000
  C   C353      1.0  0.00504  0.91330  0.02331  1.0000
  H   H605      1.0  0.01481  0.93932  0.06145  1.0000
  H   H606      1.0  0.06322  0.80358  0.86588  1.0000
  H   H607      1.0  0.02177  0.87406  0.12838  1.0000
  H   H608      1.0  0.08547  0.86625  0.95680  1.0000
  H   H609      1.0  0.10892  0.86812  0.95724  1.0000
  H   H610      1.0  0.20496  0.78993  0.90749  1.0000
  C   C354      1.0  0.14245  0.79165  0.66579  1.0000
  H   H611      1.0  0.22036  0.87669  0.77445  1.0000
  C   C355      1.0  0.02706  0.78712  0.18475  1.0000
  C   C356      1.0  0.03762  0.79802  0.16296  1.0000
  C   C357      1.0  0.03366  0.81596  0.16260  1.0000
  H   H612      1.0  0.07563  0.79547  0.23290  1.0000
  H   H613      1.0  0.15487  0.92446  0.83978  1.0000
  H   H614      1.0  0.03863  0.99028  0.91017  1.0000
  C   C358      1.0  0.05868  0.93994  0.77552  1.0000
  S   S92       1.0  0.17694  0.76067  0.81074  1.0000
  H   H615      1.0  0.12912  0.79757  0.95748  1.0000
  H   H616      1.0  0.06151  0.88041  0.99704  1.0000
  Fe  Fe46      1.0  0.06729  0.76241  0.12801  1.0000
  H   H617      1.0  0.09377  0.97682  0.00368  1.0000
  H   H618      1.0  0.08920  0.84307  0.90956  1.0000
  S   S93       1.0  0.13433  0.77473  0.87213  1.0000
  H   H619      1.0  0.19761  0.92763  0.70109  1.0000
  H   H620      1.0  0.15842  0.80141  0.92681  1.0000
  H   H621      1.0  0.03428  0.96129  0.08996  1.0000
  H   H622      1.0  0.14562  0.78785  0.69512  1.0000
  H   H623      1.0  0.07664  0.79509  0.92523  1.0000
  H   H624      1.0  0.10877  0.83825  0.98366  1.0000
  H   H625      1.0  0.01714  0.91782  0.36157  1.0000
  H   H626      1.0  0.09518  0.79797  0.17648  1.0000
  H   H627      1.0  0.21967  0.79273  0.94494  1.0000
  H   H628      1.0  0.15156  0.90497  0.91562  1.0000
  C   C359      1.0  0.18387  0.75474  0.63619  1.0000
  H   H629      1.0  0.15050  0.80500  0.52722  1.0000
  H   H630      1.0  0.13543  0.81542  0.71489  1.0000
  Fe  Fe47      1.0  0.17239  0.77246  0.75330  1.0000
  N   N21       1.0  0.07345  0.76417  0.27908  1.0000
  H   H631      1.0  0.01174  0.93302  0.97966  1.0000
  C   C360      1.0  0.07099  0.99177  0.98433  1.0000
  H   H632      1.0  0.12971  0.81589  0.98624  1.0000
  C   C361      1.0  0.21376  0.87046  0.79899  1.0000
  H   H633      1.0  0.15053  0.76037  0.00273  1.0000
  H   H634      1.0  0.03523  0.87671  0.03791  1.0000
  C   C362      1.0  0.02631  0.93174  0.05005  1.0000
  C   C363      1.0  0.03669  0.90428  0.02370  1.0000
  C   C364      1.0  0.19688  0.80747  0.66072  1.0000
  C   C365      1.0  0.06131  0.98838  0.87328  1.0000
  C   C366      1.0  0.04176  0.93472  0.07615  1.0000
  H   H635      1.0  0.22331  0.86787  0.82142  1.0000
  C   C367      1.0  0.00853  0.88009  0.12516  1.0000
  C   C368      1.0  0.04843  0.87925  0.98494  1.0000
  H   H636      1.0  0.13526  0.91882  0.89330  1.0000
  C   C369      1.0  0.09120  0.79411  0.05134  1.0000
  H   H637      1.0  0.11039  0.84726  0.70905  1.0000
  H   H638      1.0  0.02164  0.97849  0.69268  1.0000
  H   H639      1.0  0.20550  0.76698  0.37548  1.0000
  C   C370      1.0  0.01908  0.90482  0.08326  1.0000
  H   H640      1.0  0.00584  0.88939  0.14794  1.0000
  H   H641      1.0  0.09652  0.76081  0.24387  1.0000
  H   H642      1.0  0.04010  0.91202  0.99801  1.0000
  H   H643      1.0  0.04866  0.90388  0.04047  1.0000
  C   C371      1.0  0.16437  0.81445  0.66799  1.0000
  H   H644      1.0  0.07136  0.96397  0.78033  1.0000
  H   H645      1.0  0.01944  0.94318  0.24432  1.0000
  H   H646      1.0  0.02303  0.97640  0.76240  1.0000
  H   H647      1.0  0.05389  0.92797  0.06607  1.0000
  C   C372      1.0  0.03228  0.98009  0.67169  1.0000
  H   H648      1.0  0.18743  0.93923  0.85415  1.0000
  H   H649      1.0  0.05784  0.77376  0.32631  1.0000
  H   H650      1.0  0.09667  0.77922  0.27299  1.0000
  H   H651      1.0  0.10818  0.77969  0.19368  1.0000
  H   H652      1.0  0.21551  0.90374  0.80860  1.0000
  H   H653      1.0  0.04667  0.86546  0.97836  1.0000
  H   H654      1.0  0.04774  0.88707  0.95850  1.0000
  C   C373      1.0  0.03418  0.88532  0.01273  1.0000
  H   H655      1.0  0.09762  0.75141  0.97526  1.0000
  H   H656      1.0  0.14934  0.79240  0.59082  1.0000
  H   H657      1.0  0.09575  0.79511  0.08040  1.0000
  H   H658      1.0  0.09161  0.78019  0.04415  1.0000
  C   C374      1.0  0.14652  0.90966  0.88825  1.0000
  H   H659      1.0  0.18557  0.94237  0.73114  1.0000
  H   H660      1.0  0.14183  0.89851  0.87287  1.0000
  H   H661      1.0  0.16824  0.82681  0.65402  1.0000
  C   C375      1.0  0.08814  0.77157  0.25559  1.0000
  H   H662      1.0  0.17603  0.92239  0.71746  1.0000
  C   C376      1.0  0.00387  0.92053  0.37118  1.0000
  H   H663      1.0  0.14997  0.84346  0.69407  1.0000
  H   H664      1.0  0.01441  0.98095  0.62545  1.0000
  H   H665      1.0  0.08700  0.83362  0.97440  1.0000
  H   H666      1.0  0.05668  0.99011  0.98492  1.0000
  H   H667      1.0  0.18416  0.76005  0.95223  1.0000
  C   C377      1.0  0.17864  0.80030  0.65913  1.0000
  H   H668      1.0  0.19908  0.90551  0.75129  1.0000
  C   C378      1.0  0.20776  0.78612  0.93693  1.0000
  C   C379      1.0  0.21088  0.76652  0.94064  1.0000
  H   H669      1.0  0.15131  0.78332  0.64843  1.0000
  H   H670      1.0  0.02785  0.80781  0.28141  1.0000
  N   N22       1.0  0.02173  0.91308  0.04481  1.0000
  H   H671      1.0  0.03713  0.96696  0.66340  1.0000
  C   C380      1.0  0.19852  0.88197  0.81316  1.0000
  H   H672      1.0  0.18134  0.90060  0.88169  1.0000
  H   H673      1.0  0.20108  0.92445  0.88029  1.0000
  H   H674      1.0  0.19888  0.81724  0.63787  1.0000
  C   C381      1.0  0.09918  0.79056  0.20206  1.0000
  S   S94       1.0  0.02394  0.99107  0.03438  1.0000
  H   H675      1.0  0.07518  0.77715  0.20224  1.0000
  H   H676      1.0  0.07375  0.81828  0.92171  1.0000
  H   H677      1.0  0.10731  0.79560  0.91062  1.0000
  H   H678      1.0  0.05830  0.98829  0.66516  1.0000
  N   N23       1.0  0.05414  0.98549  0.72514  1.0000
  C   C382      1.0  0.12365  0.78594  0.65896  1.0000
  C   C383      1.0  0.20466  0.89955  0.82728  1.0000
  H   H679      1.0  0.10624  0.79928  0.22016  1.0000
  H   H680      1.0  0.00475  0.78560  0.22263  1.0000
  H   H681      1.0  0.10399  0.76107  0.90959  1.0000
  H   H682      1.0  0.02145  0.88361  0.99967  1.0000
  C   C384      1.0  0.00693  0.88921  0.08694  1.0000
  H   H683      1.0  0.09083  0.77258  0.34403  1.0000
  N   N24       1.0  0.19056  0.91362  0.83092  1.0000
  H   H684      1.0  0.19670  0.79051  0.95538  1.0000
  H   H685      1.0  0.13665  0.83528  0.93455  1.0000
  S   S95       1.0  0.16508  0.75470  0.70503  1.0000
  C   C385      1.0  0.13387  0.82070  0.68581  1.0000
  H   H686      1.0  0.08299  0.80488  0.98335  1.0000
  H   H687      1.0  0.14480  0.82623  0.54454  1.0000
  H   H688      1.0  0.01113  0.93999  0.40992  1.0000
  C   C386      1.0  0.04668  0.78624  0.27791  1.0000
  C   C387      1.0  0.20522  0.99295  0.81626  1.0000
  H   H689      1.0  0.14502  0.83038  0.61515  1.0000
  C   C388      1.0  0.11423  0.76088  0.92982  1.0000
  H   H690      1.0  0.08105  0.81728  0.85324  1.0000
  C   C389      1.0  0.03970  0.80288  0.29605  1.0000
  H   H691      1.0  0.01651  0.83679  0.18286  1.0000
  C   C390      1.0  0.05392  0.96613  0.73208  1.0000
  H   H692      1.0  0.20927  0.94500  0.80736  1.0000
  H   H693      1.0  0.12936  0.80906  0.54881  1.0000
  H   H694      1.0  0.11227  0.84479  0.91041  1.0000
  H   H695      1.0  0.08469  0.79402  0.85723  1.0000
  H   H696      1.0  0.07799  0.98883  0.75513  1.0000
  H   H697      1.0  0.16556  0.81656  0.69853  1.0000
  H   H698      1.0  0.01315  0.91450  0.10291  1.0000
  H   H699      1.0  0.07145  0.78921  0.30499  1.0000
  H   H700      1.0  0.11996  0.81919  0.67906  1.0000
  H   H701      1.0  0.04943  0.78930  0.24810  1.0000
  H   H702      1.0  0.03474  0.99111  0.61511  1.0000
  H   H703      1.0  0.03879  0.93014  0.10518  1.0000
  H   H704      1.0  0.02510  0.99173  0.82252  1.0000
  H   H705      1.0  0.10634  0.81706  0.89380  1.0000
  H   H706      1.0  0.04173  0.82453  0.14594  1.0000
  H   H707      1.0  0.11645  0.79888  0.02797  1.0000
  H   H708      1.0  0.16998  0.89542  0.84078  1.0000
  H   H709      1.0  0.04957  0.81302  0.29380  1.0000
  H   H710      1.0  0.07504  0.97639  0.03552  1.0000
  H   H711      1.0  0.03615  0.80043  0.32594  1.0000
  H   H712      1.0  0.08145  0.98200  0.70872  1.0000
  H   H713      1.0  0.22426  0.92850  0.82595  1.0000
  H   H714      1.0  0.09720  0.87328  0.91522  1.0000
  C   C391      1.0  0.18330  0.91965  0.79368  1.0000
  H   H715      1.0  0.12651  0.86308  0.71676  1.0000
  C   C392      1.0  0.04762  0.99029  0.68653  1.0000
  C   C393      1.0  0.15081  0.80657  0.58765  1.0000
  H   H716      1.0  0.16086  0.81716  0.96282  1.0000
  H   H717      1.0  0.13405  0.81865  0.90043  1.0000
  H   H718      1.0  0.10777  0.76171  0.31651  1.0000
  C   C394      1.0  0.00878  0.81210  0.20532  1.0000
  C   C395      1.0  0.07738  0.80538  0.86914  1.0000
  H   H719      1.0  0.06250  0.93574  0.80418  1.0000
  H   H720      1.0  0.16487  0.82295  0.91431  1.0000
  H   H721      1.0  0.18917  0.88395  0.79029  1.0000
  H   H722      1.0  0.05703  0.95568  0.09544  1.0000
  C   C396      1.0  0.06258  0.75337  0.25476  1.0000
  H   H723      1.0  0.16491  0.92956  0.88303  1.0000
  C   C397      1.0  0.12422  0.84898  0.71601  1.0000
  H   H724      1.0  0.14629  0.75089  0.29015  1.0000
  H   H725      1.0  0.03189  0.90077  0.09520  1.0000
  H   H726      1.0  0.17211  0.91180  0.78627  1.0000
  C   C398      1.0  0.14154  0.81664  0.61979  1.0000
  C   C399      1.0  0.19608  0.91909  0.75926  1.0000
  C   C400      1.0  0.07934  0.97637  0.00566  1.0000
  H   H727      1.0  0.16485  0.80945  0.58640  1.0000
  H   H728      1.0  0.03597  0.77699  0.27892  1.0000
  H   H729      1.0  0.01472  0.91111  0.96503  1.0000
  C   C401      1.0  0.18827  0.92846  0.72524  1.0000
  C   C402      1.0  0.12355  0.75532  0.99381  1.0000
  H   H730      1.0  0.04302  0.98659  0.19769  1.0000
  C   C403      1.0  0.21338  0.93773  0.83299  1.0000
  H   H731      1.0  0.12660  0.76149  0.69041  1.0000
  H   H732      1.0  0.02712  0.99105  0.25876  1.0000
  H   H733      1.0  0.17731  0.79465  0.63135  1.0000
  H   H734      1.0  0.22217  0.76293  0.92227  1.0000
  C   C404      1.0  0.05846  0.95970  0.77225  1.0000
  H   H735      1.0  0.21078  0.89685  0.85483  1.0000
  H   H736      1.0  0.20857  0.92509  0.76475  1.0000
  C   C405      1.0  0.16070  0.91891  0.86557  1.0000
  C   C406      1.0  0.07295  0.99062  0.72647  1.0000
  H   H737      1.0  0.22535  0.94442  0.88521  1.0000
  H   H738      1.0  0.19186  0.87475  0.83631  1.0000
  H   H739      1.0  0.07566  0.99113  0.95494  1.0000
  H   H740      1.0  0.07751  0.79926  0.05049  1.0000
  C   C407      1.0  0.19758  0.92865  0.85132  1.0000
  H   H741      1.0  0.01672  0.99653  0.73915  1.0000
  C   C408      1.0  0.01261  0.93153  0.25471  1.0000
  N   N25       1.0  0.14574  0.81065  0.65909  1.0000
  C   C409      1.0  0.04561  0.95392  0.07769  1.0000
  H   H742      1.0  0.19878  0.81359  0.68802  1.0000
  C   C410      1.0  0.08299  0.78387  0.22267  1.0000
  N   N26       1.0  0.10613  0.81432  0.95455  1.0000
  C   C411      1.0  0.10113  0.80852  0.91641  1.0000
  C   C412      1.0  0.12559  0.81163  0.95847  1.0000
  C   C413      1.0  0.09739  0.80262  0.98334  1.0000
  C   C414      1.0  0.10046  0.83290  0.96199  1.0000
  C   C415      1.0  0.10020  0.84574  0.92784  1.0000
  C   C416      1.0  0.08132  0.80695  0.91054  1.0000
  C   C417      1.0  0.10298  0.80432  0.02442  1.0000
  C   C418      1.0  0.13746  0.82116  0.92965  1.0000
  C   C419      1.0  0.15655  0.81527  0.93385  1.0000
  C   C420      1.0  0.09779  0.86448  0.94021  1.0000
  H   H743      1.0  0.01497  0.99119  0.37628  1.0000
  H   H744      1.0  0.06301  0.95944  0.71184  1.0000
  C   C421      1.0  0.18731  0.99235  0.80897  1.0000
  C   C422      1.0  0.00628  0.92000  0.98209  1.0000
  H   H745      1.0  0.12723  0.81663  0.61558  1.0000
  H   H746      1.0  0.00237  0.94386  0.17292  1.0000
  H   H747      1.0  0.21366  0.98181  0.81041  1.0000
  H   H748      1.0  0.04556  0.93507  0.77024  1.0000
  H   H749      1.0  0.10887  0.76253  0.65829  1.0000
  H   H750      1.0  0.06827  0.93413  0.75524  1.0000
  H   H751      1.0  0.04872  0.96470  0.79313  1.0000
  C   C423      1.0  0.17605  0.90623  0.85514  1.0000
  H   H752      1.0  0.09656  0.99587  0.60631  1.0000
  H   H753      1.0  0.20680  0.79676  0.65731  1.0000
  H   H754      1.0  0.03544  0.98539  0.35327  1.0000
  C   C424      1.0  0.14336  0.81212  0.54982  1.0000
  H   H755      1.0  0.11936  0.78992  0.63059  1.0000
  C   C425      1.0  0.24211  0.79761  0.86221  1.0000
  H   H756      1.0  0.17775  0.78960  0.68031  1.0000
  H   H757      1.0  0.20880  0.85790  0.79017  1.0000
  C   C426      1.0  0.02693  0.99642  0.36286  1.0000
  C   C427      1.0  0.22047  0.95093  0.85932  1.0000
  H   H758      1.0  0.07538  0.96412  0.99326  1.0000
  H   H759      1.0  0.04858  0.95920  0.04919  1.0000
  H   H760      1.0  0.23143  0.95771  0.84523  1.0000
  C   C428      1.0  0.01279  0.79415  0.20588  1.0000
  H   H761      1.0  0.19210  0.76414  0.64793  1.0000
  S   S96       1.0  0.09632  0.75842  0.13435  1.0000
  H   H762      1.0  0.11435  0.79154  0.68001  1.0000
  H   H763      1.0  0.13095  0.75992  0.64062  1.0000
  C   C429      1.0  0.11055  0.75542  0.96710  1.0000
  H   H764      1.0  0.01509  0.92099  0.23449  1.0000
  C   C430      1.0  0.06289  0.77840  0.29852  1.0000
  H   H765      1.0  0.21460  0.76349  0.96989  1.0000
  C   C431      1.0  0.04401  0.99532  0.75499  1.0000
  C   C432      1.0  0.02476  0.99056  0.76166  1.0000
  H   H766      1.0  0.21014  0.96079  0.86690  1.0000
  H   H767      1.0  0.05087  0.99398  0.78208  1.0000
  C   C433      1.0  0.12250  0.76627  0.66232  1.0000
  H   H768      1.0  0.07038  0.99229  0.56798  1.0000
  H   H769      1.0  0.00379  0.99395  0.80291  1.0000
  H   H770      1.0  0.18941  0.76271  0.90410  1.0000
  H   H771      1.0  0.12669  0.84325  0.74424  1.0000
  C   C434      1.0  0.09548  0.75990  0.33295  1.0000
  H   H772      1.0  0.01791  0.92714  0.28211  1.0000
  H   H773      1.0  0.02029  0.98183  0.19604  1.0000
  H   H774      1.0  0.05588  0.76144  0.23304  1.0000
  C   C435      1.0  0.20323  0.75291  0.37411  1.0000
  C   C436      1.0  0.01760  0.99751  0.79884  1.0000
  H   H775      1.0  0.18991  0.75063  0.38564  1.0000
  C   C437      1.0  0.08159  0.75208  0.30820  1.0000
  H   H776      1.0  0.21753  0.75139  0.32223  1.0000
  H   H777      1.0  0.11076  0.75316  0.38180  1.0000
  H   H778      1.0  0.04241  0.74949  0.29931  1.0000
  H   H779      1.0  0.36856  0.13934  0.45834  1.0000
  C   C438      1.0  0.28668  0.19019  0.74504  1.0000
  H   H780      1.0  0.45226  0.04581  0.70060  1.0000
  C   C439      1.0  0.46360  0.06731  0.79058  1.0000
  H   H781      1.0  0.37938  0.11052  0.40346  1.0000
  C   C440      1.0  0.32048  0.01003  0.98761  1.0000
  Fe  Fe48      1.0  0.47234  0.10568  0.50058  1.0000
  S   S97       1.0  0.45266  0.10685  0.54878  1.0000
  S   S98       1.0  0.46711  0.08311  0.46197  1.0000
  Fe  Fe49      1.0  0.49064  0.13817  0.52812  1.0000
  S   S99       1.0  0.47177  0.14143  0.57637  1.0000
  H   H782      1.0  0.28158  0.13476  0.81479  1.0000
  Fe  Fe50      1.0  0.47535  0.11258  0.58418  1.0000
  S   S100      1.0  0.48133  0.10273  0.64267  1.0000
  Fe  Fe51      1.0  0.45062  0.13547  0.53666  1.0000
  S   S101      1.0  0.42561  0.15263  0.53424  1.0000
  S   S102      1.0  0.49517  0.10935  0.53767  1.0000
  S   S103      1.0  0.46931  0.13430  0.48680  1.0000
  Fe  Fe52      1.0  0.28538  0.16012  0.51932  1.0000
  S   S104      1.0  0.31023  0.17348  0.53326  1.0000
  C   C441      1.0  0.26655  0.17725  0.70323  1.0000
  Fe  Fe53      1.0  0.28489  0.14028  0.59774  1.0000
  S   S105      1.0  0.30939  0.15245  0.61478  1.0000
  S   S106      1.0  0.26838  0.12253  0.63662  1.0000
  Fe  Fe54      1.0  0.29813  0.17759  0.59077  1.0000
  S   S107      1.0  0.29610  0.20049  0.63080  1.0000
  Fe  Fe55      1.0  0.31961  0.14734  0.55635  1.0000
  S   S108      1.0  0.34568  0.13211  0.54900  1.0000
  S   S109      1.0  0.29537  0.13373  0.53981  1.0000
  H   H783      1.0  0.27284  0.03505  0.09600  1.0000
  S   S110      1.0  0.27983  0.07099  0.90245  1.0000
  Fe  Fe56      1.0  0.27516  0.04306  0.89122  1.0000
  S   S111      1.0  0.29639  0.02135  0.88868  1.0000
  H   H784      1.0  0.49492  0.22268  0.53450  1.0000
  H   H785      1.0  0.29344  0.19756  0.72204  1.0000
  C   C442      1.0  0.25275  0.17529  0.39975  1.0000
  H   H786      1.0  0.44810  0.01804  0.70509  1.0000
  C   C443      1.0  0.29593  0.16450  0.70980  1.0000
  C   C444      1.0  0.30623  0.22083  0.47076  1.0000
  C   C445      1.0  0.27122  0.11537  0.68421  1.0000
  C   C446      1.0  0.27456  0.10342  0.76006  1.0000
  C   C447      1.0  0.28855  0.11102  0.74025  1.0000
  C   C448      1.0  0.28697  0.11677  0.70259  1.0000
  H   H787      1.0  0.30082  0.11223  0.75400  1.0000
  H   H788      1.0  0.29803  0.12202  0.68756  1.0000
  C   C449      1.0  0.29779  0.22334  0.62550  1.0000
  C   C450      1.0  0.30554  0.23113  0.59387  1.0000
  C   C451      1.0  0.49680  0.05659  0.36330  1.0000
  C   C452      1.0  0.33557  0.00042  0.97638  1.0000
  H   H789      1.0  0.31105  0.22314  0.57190  1.0000
  C   C453      1.0  0.43938  0.02742  0.76047  1.0000
  H   H790      1.0  0.45507  0.01101  0.02516  1.0000
  C   C454      1.0  0.40346  0.14688  0.54065  1.0000
  C   C455      1.0  0.39880  0.13026  0.55250  1.0000
  C   C456      1.0  0.38107  0.12607  0.55535  1.0000
  C   C457      1.0  0.36773  0.13854  0.54754  1.0000
  C   C458      1.0  0.37237  0.15531  0.53679  1.0000
  C   C459      1.0  0.39013  0.15940  0.53315  1.0000
  H   H791      1.0  0.40886  0.12065  0.55939  1.0000
  H   H792      1.0  0.37764  0.11308  0.56383  1.0000
  H   H793      1.0  0.36231  0.16501  0.53043  1.0000
  H   H794      1.0  0.39356  0.17232  0.52416  1.0000
  H   H795      1.0  0.28004  0.14067  0.41726  1.0000
  S   S112      1.0  0.46889  0.00937  0.84987  1.0000
  C   C460      1.0  0.26876  0.03594  0.06644  1.0000
  H   H796      1.0  0.28537  0.22811  0.67919  1.0000
  C   C461      1.0  0.42887  0.01295  0.00637  1.0000
  H   H797      1.0  0.43159  0.12938  0.47303  1.0000
  C   C462      1.0  0.48587  0.08042  0.64995  1.0000
  C   C463      1.0  0.48246  0.06845  0.62266  1.0000
  H   H798      1.0  0.43038  0.06979  0.78160  1.0000
  H   H799      1.0  0.47739  0.07291  0.59603  1.0000
  H   H800      1.0  0.44809  0.13709  0.41387  1.0000
  H   H801      1.0  0.49803  0.07154  0.51402  1.0000
  C   C464      1.0  0.25717  0.10794  0.70415  1.0000
  C   C465      1.0  0.32614  0.00353  0.91196  1.0000
  C   C466      1.0  0.47885  0.07336  0.42377  1.0000
  H   H802      1.0  0.39085  0.13002  0.41071  1.0000
  H   H803      1.0  0.25481  0.18295  0.71781  1.0000
  H   H804      1.0  0.28656  0.12410  0.08143  1.0000
  H   H805      1.0  0.42270  0.00869  0.03333  1.0000
  H   H806      1.0  0.27862  0.11835  0.03676  1.0000
  C   C467      1.0  0.30832  0.01638  0.96119  1.0000
  C   C468      1.0  0.31124  0.01346  0.92311  1.0000
  H   H807      1.0  0.29659  0.02340  0.97014  1.0000
  S   S113      1.0  0.27299  0.16560  0.57616  1.0000
  S   S114      1.0  0.27720  0.09681  0.80801  1.0000
  H   H808      1.0  0.43480  0.08016  0.72588  1.0000
  H   H809      1.0  0.43335  0.00620  0.15627  1.0000
  C   C469      1.0  0.29011  0.11742  0.05502  1.0000
  H   H810      1.0  0.43836  0.04605  0.83512  1.0000
  H   H811      1.0  0.50056  0.05230  0.71822  1.0000
  H   H812      1.0  0.41271  0.05580  0.87354  1.0000
  S   S115      1.0  0.49380  0.02226  0.67429  1.0000
  H   H813      1.0  0.29660  0.18817  0.76680  1.0000
  H   H814      1.0  0.49965  0.17499  0.58064  1.0000
  H   H815      1.0  0.41568  0.05466  0.76641  1.0000
  H   H816      1.0  0.44028  0.01002  0.90275  1.0000
  C   C470      1.0  0.48272  0.06940  0.79976  1.0000
  H   H817      1.0  0.33346  0.21474  0.45732  1.0000
  H   H818      1.0  0.43788  0.15558  0.43641  1.0000
  H   H819      1.0  0.31817  0.01248  0.01696  1.0000
  C   C471      1.0  0.44751  0.00546  0.00267  1.0000
  N   N27       1.0  0.30365  0.06937  0.03188  1.0000
  C   C472      1.0  0.30629  0.06210  0.99331  1.0000
  C   C473      1.0  0.28819  0.06131  0.05206  1.0000
  C   C474      1.0  0.29958  0.08856  0.02705  1.0000
  C   C475      1.0  0.31981  0.06692  0.05488  1.0000
  C   C476      1.0  0.32806  0.04834  0.05698  1.0000
  C   C477      1.0  0.32097  0.07003  0.96843  1.0000
  C   C478      1.0  0.29529  0.09848  0.06361  1.0000
  C   C479      1.0  0.28345  0.04276  0.04119  1.0000
  C   C480      1.0  0.46067  0.04947  0.77303  1.0000
  C   C481      1.0  0.34441  0.04763  0.08051  1.0000
  C   C482      1.0  0.32615  0.05835  0.93576  1.0000
  H   H820      1.0  0.29398  0.06376  0.97756  1.0000
  H   H821      1.0  0.30902  0.04798  0.99499  1.0000
  H   H822      1.0  0.28973  0.06137  0.08292  1.0000
  H   H823      1.0  0.28866  0.22450  0.76570  1.0000
  H   H824      1.0  0.28833  0.09075  0.00809  1.0000
  H   H825      1.0  0.31071  0.09519  0.01319  1.0000
  H   H826      1.0  0.33007  0.07582  0.04477  1.0000
  H   H827      1.0  0.31697  0.07074  0.08425  1.0000
  H   H828      1.0  0.33208  0.04367  0.02888  1.0000
  H   H829      1.0  0.31879  0.03930  0.07031  1.0000
  H   H830      1.0  0.31638  0.08277  0.95661  1.0000
  H   H831      1.0  0.33291  0.07193  0.98429  1.0000
  H   H832      1.0  0.30681  0.09834  0.08172  1.0000
  H   H833      1.0  0.48709  0.00636  0.08430  1.0000
  H   H834      1.0  0.27871  0.04291  0.01208  1.0000
  H   H835      1.0  0.29472  0.03348  0.04308  1.0000
  C   C483      1.0  0.29136  0.23396  0.65453  1.0000
  H   H836      1.0  0.49717  0.05297  0.54523  1.0000
  H   H837      1.0  0.48514  0.24412  0.52877  1.0000
  C   C484      1.0  0.48507  0.05062  0.63034  1.0000
  H   H838      1.0  0.35442  0.05619  0.06799  1.0000
  H   H839      1.0  0.26544  0.02282  0.05755  1.0000
  H   H840      1.0  0.33232  0.04598  0.94617  1.0000
  H   H841      1.0  0.31461  0.05539  0.91931  1.0000
  H   H842      1.0  0.33567  0.06492  0.91690  1.0000
  H   H843      1.0  0.30030  0.17307  0.68617  1.0000
  H   H844      1.0  0.32333  0.14088  0.69210  1.0000
  H   H845      1.0  0.29612  0.16220  0.79963  1.0000
  H   H846      1.0  0.26045  0.06503  0.60830  1.0000
  H   H847      1.0  0.42808  0.06886  0.44265  1.0000
  C   C485      1.0  0.48944  0.23410  0.54967  1.0000
  N   N28       1.0  0.28082  0.17318  0.73080  1.0000
  C   C486      1.0  0.26182  0.01176  0.77469  1.0000
  H   H848      1.0  0.33851  0.14853  0.72482  1.0000
  H   H849      1.0  0.42511  0.07402  0.66280  1.0000
  H   H850      1.0  0.45723  0.07540  0.71188  1.0000
  H   H851      1.0  0.33109  0.16269  0.68726  1.0000
  H   H852      1.0  0.42828  0.14710  0.39551  1.0000
  H   H853      1.0  0.45599  0.06859  0.81720  1.0000
  H   H854      1.0  0.43151  0.07201  0.53576  1.0000
  H   H855      1.0  0.27519  0.14752  0.75242  1.0000
  C   C487      1.0  0.28173  0.16233  0.80067  1.0000
  H   H856      1.0  0.27712  0.17446  0.81429  1.0000
  H   H857      1.0  0.25362  0.20640  0.61228  1.0000
  C   C488      1.0  0.49141  0.04472  0.66500  1.0000
  H   H858      1.0  0.26165  0.24625  0.51458  1.0000
  H   H859      1.0  0.48436  0.08229  0.81201  1.0000
  H   H860      1.0  0.26261  0.19534  0.77888  1.0000
  H   H861      1.0  0.27588  0.22806  0.43042  1.0000
  C   C489      1.0  0.47235  0.05841  0.40808  1.0000
  H   H862      1.0  0.42898  0.02732  0.00556  1.0000
  C   C490      1.0  0.31206  0.15892  0.73287  1.0000
  C   C491      1.0  0.26738  0.22109  0.45072  1.0000
  H   H863      1.0  0.30107  0.12417  0.04095  1.0000
  Fe  Fe57      1.0  0.26461  0.07747  0.85012  1.0000
  H   H864      1.0  0.41121  0.06659  0.55884  1.0000
  H   H865      1.0  0.30876  0.14807  0.75237  1.0000
  H   H866      1.0  0.28388  0.24249  0.52459  1.0000
  H   H867      1.0  0.27075  0.18724  0.68225  1.0000
  H   H868      1.0  0.29187  0.15245  0.69689  1.0000
  C   C492      1.0  0.48127  0.05004  0.37816  1.0000
  C   C493      1.0  0.27939  0.21694  0.78329  1.0000
  S   S116      1.0  0.46157  0.99974  0.20657  1.0000
  H   H869      1.0  0.31692  0.16977  0.74881  1.0000
  C   C494      1.0  0.45104  0.01562  0.73501  1.0000
  H   H870      1.0  0.45958  0.07828  0.77200  1.0000
  C   C495      1.0  0.32712  0.15238  0.70760  1.0000
  H   H871      1.0  0.27606  0.06923  0.04719  1.0000
  H   H872      1.0  0.28618  0.21148  0.80821  1.0000
  C   C496      1.0  0.27379  0.16124  0.76132  1.0000
  H   H873      1.0  0.46403  0.03961  0.79519  1.0000
  H   H874      1.0  0.40189  0.06418  0.83240  1.0000
  C   C497      1.0  0.25882  0.10204  0.74174  1.0000
  C   C498      1.0  0.27128  0.14947  0.40227  1.0000
  C   C499      1.0  0.44168  0.05230  0.71759  1.0000
  H   H875      1.0  0.48205  0.04137  0.60948  1.0000
  H   H876      1.0  0.26278  0.04882  0.66777  1.0000
  H   H877      1.0  0.27275  0.13475  0.35149  1.0000
  H   H878      1.0  0.28960  0.19958  0.48652  1.0000
  H   H879      1.0  0.47614  0.03854  0.36654  1.0000
  N   N29       1.0  0.27335  0.22292  0.49026  1.0000
  H   H880      1.0  0.41205  0.13882  0.45336  1.0000
  H   H881      1.0  0.41385  0.06516  0.36378  1.0000
  C   C500      1.0  0.49534  0.05674  0.69179  1.0000
  H   H882      1.0  0.27017  0.15811  0.65944  1.0000
  H   H883      1.0  0.32020  0.19606  0.46258  1.0000
  H   H884      1.0  0.48492  0.02485  0.44319  1.0000
  C   C501      1.0  0.42572  0.04872  0.82134  1.0000
  C   C502      1.0  0.26026  0.16173  0.68122  1.0000
  H   H885      1.0  0.47075  0.04737  0.75053  1.0000
  H   H886      1.0  0.34123  0.05162  0.10959  1.0000
  C   C503      1.0  0.49442  0.07984  0.40908  1.0000
  H   H887      1.0  0.25284  0.24022  0.38983  1.0000
  H   H888      1.0  0.32653  0.20754  0.50340  1.0000
  S   S117      1.0  0.26885  0.16918  0.46790  1.0000
  C   C504      1.0  0.26051  0.21391  0.51614  1.0000
  H   H889      1.0  0.44190  0.08976  0.66072  1.0000
  H   H890      1.0  0.48428  0.00888  0.47944  1.0000
  H   H891      1.0  0.46039  0.05321  0.41930  1.0000
  C   C505      1.0  0.32256  0.20902  0.47381  1.0000
  C   C506      1.0  0.26709  0.14614  0.36475  1.0000
  H   H892      1.0  0.40829  0.05196  0.40466  1.0000
  H   H893      1.0  0.25466  0.03029  0.71095  1.0000
  H   H894      1.0  0.35001  0.03416  0.08149  1.0000
  H   H895      1.0  0.42557  0.02512  0.75372  1.0000
  Fe  Fe58      1.0  0.25396  0.07135  0.93410  1.0000
  H   H896      1.0  0.43360  0.08192  0.40216  1.0000
  H   H897      1.0  0.44715  0.06773  0.64838  1.0000
  C   C507      1.0  0.26508  0.21305  0.55817  1.0000
  C   C508      1.0  0.29079  0.21342  0.49390  1.0000
  H   H898      1.0  0.46504  0.01788  0.73913  1.0000
  C   C509      1.0  0.26416  0.16412  0.42024  1.0000
  H   H899      1.0  0.43032  0.05160  0.38595  1.0000
  H   H900      1.0  0.49962  0.09129  0.42077  1.0000
  H   H901      1.0  0.28433  0.09272  0.07977  1.0000
  N   N30       1.0  0.44276  0.04659  0.75820  1.0000
  C   C510      1.0  0.27623  0.14719  0.82600  1.0000
  H   H902      1.0  0.44119  0.02226  0.78954  1.0000
  H   H903      1.0  0.25858  0.00151  0.79577  1.0000
  C   C511      1.0  0.25578  0.15736  0.34417  1.0000
  H   H904      1.0  0.35693  0.11978  0.45187  1.0000
  H   H905      1.0  0.30327  0.22223  0.44068  1.0000
  H   H906      1.0  0.26011  0.04445  0.74709  1.0000
  H   H907      1.0  0.42914  0.04825  0.70608  1.0000
  H   H908      1.0  0.48705  0.05930  0.82047  1.0000
  H   H909      1.0  0.35902  0.13544  0.41398  1.0000
  H   H910      1.0  0.26862  0.22586  0.79298  1.0000
  C   C512      1.0  0.44353  0.07184  0.70832  1.0000
  H   H911      1.0  0.46352  0.00906  0.40664  1.0000
  H   H912      1.0  0.26873  0.20727  0.44242  1.0000
  C   C513      1.0  0.42837  0.05569  0.78053  1.0000
  C   C514      1.0  0.49242  0.07453  0.68441  1.0000
  C   C515      1.0  0.41481  0.06147  0.84501  1.0000
  H   H913      1.0  0.30956  0.23358  0.48171  1.0000
  H   H914      1.0  0.49111  0.06850  0.77412  1.0000
  C   C516      1.0  0.43912  0.07602  0.66757  1.0000
  H   H915      1.0  0.27575  0.20326  0.56289  1.0000
  S   S118      1.0  0.26151  0.04946  0.83707  1.0000
  H   H916      1.0  0.36076  0.24259  0.69498  1.0000
  H   H917      1.0  0.41871  0.03638  0.82136  1.0000
  H   H918      1.0  0.26468  0.20874  0.73734  1.0000
  H   H919      1.0  0.49516  0.00301  0.39631  1.0000
  C   C517      1.0  0.27199  0.20248  0.76078  1.0000
  H   H920      1.0  0.29508  0.21321  0.52323  1.0000
  H   H921      1.0  0.42165  0.07379  0.84748  1.0000
  H   H922      1.0  0.32845  0.00102  0.88262  1.0000
  H   H923      1.0  0.41899  0.08817  0.56201  1.0000
  N   N31       1.0  0.40961  0.10209  0.44863  1.0000
  C   C518      1.0  0.40672  0.08691  0.42413  1.0000
  C   C519      1.0  0.39221  0.11091  0.45772  1.0000
  C   C520      1.0  0.42167  0.11420  0.42791  1.0000
  C   C521      1.0  0.41790  0.09633  0.48482  1.0000
  C   C522      1.0  0.40818  0.08234  0.50821  1.0000
  C   C523      1.0  0.42296  0.07478  0.41641  1.0000
  C   C524      1.0  0.42448  0.13169  0.44674  1.0000
  C   C525      1.0  0.38273  0.12005  0.42456  1.0000
  C   C526      1.0  0.36579  0.12917  0.43808  1.0000
  C   C527      1.0  0.41815  0.07699  0.54330  1.0000
  C   C528      1.0  0.41849  0.06000  0.39116  1.0000
  C   C529      1.0  0.43536  0.14354  0.42142  1.0000
  H   H924      1.0  0.40205  0.09156  0.39633  1.0000
  H   H925      1.0  0.39607  0.07889  0.43597  1.0000
  H   H926      1.0  0.38298  0.10142  0.46993  1.0000
  H   H927      1.0  0.39351  0.12056  0.47990  1.0000
  H   H928      1.0  0.41720  0.11690  0.39893  1.0000
  H   H929      1.0  0.43491  0.10797  0.42449  1.0000
  H   H930      1.0  0.43157  0.09159  0.47976  1.0000
  H   H931      1.0  0.41901  0.10756  0.50327  1.0000
  H   H932      1.0  0.40662  0.07049  0.49199  1.0000
  H   H933      1.0  0.39509  0.08733  0.51750  1.0000
  H   H934      1.0  0.25949  0.16355  0.76574  1.0000
  H   H935      1.0  0.27151  0.02018  0.78690  1.0000
  H   H936      1.0  0.47771  0.15291  0.66101  1.0000
  H   H937      1.0  0.26926  0.22570  0.56802  1.0000
  H   H938      1.0  0.49998  0.24594  0.66522  1.0000
  S   S119      1.0  0.48451  0.00202  0.30625  1.0000
  H   H939      1.0  0.28136  0.14863  0.85444  1.0000
  H   H940      1.0  0.26285  0.07956  0.64624  1.0000
  H   H941      1.0  0.49237  0.17060  0.65748  1.0000
  H   H942      1.0  0.48838  0.04656  0.48066  1.0000
  C   C530      1.0  0.38178  0.23163  0.63514  1.0000
  H   H943      1.0  0.32199  0.24739  0.76141  1.0000
  C   C531      1.0  0.49169  0.01278  0.45362  1.0000
  Fe  Fe59      1.0  0.49143  0.00314  0.80977  1.0000
  H   H944      1.0  0.25802  0.15034  0.69992  1.0000
  H   H945      1.0  0.45291  0.01003  0.97530  1.0000
  H   H946      1.0  0.47802  0.22992  0.56685  1.0000
  C   C532      1.0  0.49096  0.15702  0.66774  1.0000
  H   H947      1.0  0.42095  0.00878  0.98289  1.0000
  H   H948      1.0  0.37941  0.22111  0.65620  1.0000
  H   H949      1.0  0.26776  0.00548  0.74961  1.0000
  H   H950      1.0  0.26180  0.14670  0.82828  1.0000
  H   H951      1.0  0.49226  0.15635  0.69858  1.0000
  H   H952      1.0  0.49513  0.08376  0.70554  1.0000
  H   H953      1.0  0.25878  0.20038  0.50718  1.0000
  C   C533      1.0  0.27431  0.24156  0.50186  1.0000
  H   H954      1.0  0.25692  0.04459  0.06426  1.0000
  H   H955      1.0  0.37239  0.23074  0.61220  1.0000
  H   H956      1.0  0.39517  0.22968  0.62316  1.0000
  C   C534      1.0  0.25398  0.07031  0.63391  1.0000
  H   H957      1.0  0.32777  0.24877  0.69248  1.0000
  H   H958      1.0  0.35173  0.24812  0.65117  1.0000
  S   S120      1.0  0.50196  0.02729  0.78331  1.0000
  Fe  Fe60      1.0  0.48487  0.35269  0.74894  1.0000
  S   S121      1.0  0.46254  0.35345  0.70922  1.0000
  H   H959      1.0  0.48636  0.48980  0.81435  1.0000
  Fe  Fe61      1.0  0.47775  0.39021  0.77385  1.0000
  S   S122      1.0  0.45499  0.39331  0.73560  1.0000
  S   S123      1.0  0.48183  0.41607  0.80217  1.0000
  Fe  Fe62      1.0  0.44686  0.36693  0.75440  1.0000
  S   S124      1.0  0.41767  0.36582  0.76900  1.0000
  Fe  Fe63      1.0  0.47192  0.37987  0.69304  1.0000
  S   S125      1.0  0.47235  0.38816  0.63201  1.0000
  S   S126      1.0  0.46843  0.36452  0.79624  1.0000
  C   C535      1.0  0.39800  0.28004  0.74088  1.0000
  C   C536      1.0  0.35014  0.29804  0.59257  1.0000
  S   S127      1.0  0.49319  0.47271  0.49546  1.0000
  C   C537      1.0  0.49624  0.25699  0.59656  1.0000
  H   H960      1.0  0.28791  0.43412  0.51845  1.0000
  S   S128      1.0  0.26474  0.38838  0.25918  1.0000
  H   H961      1.0  0.28860  0.36759  0.39928  1.0000
  H   H962      1.0  0.37176  0.27573  0.75928  1.0000
  S   S129      1.0  0.47016  0.46903  0.59822  1.0000
  H   H963      1.0  0.27040  0.40662  0.50633  1.0000
  Fe  Fe64      1.0  0.29983  0.30545  0.65561  1.0000
  S   S130      1.0  0.27684  0.32340  0.67007  1.0000
  S   S131      1.0  0.30166  0.28282  0.61474  1.0000
  Fe  Fe65      1.0  0.32606  0.32912  0.69199  1.0000
  S   S132      1.0  0.30479  0.34855  0.70949  1.0000
  S   S133      1.0  0.35612  0.32764  0.69036  1.0000
  Fe  Fe66      1.0  0.28886  0.32538  0.72736  1.0000
  C   C538      1.0  0.34539  0.40320  0.40001  1.0000
  Fe  Fe67      1.0  0.29391  0.34540  0.65153  1.0000
  S   S134      1.0  0.28716  0.36975  0.61499  1.0000
  S   S135      1.0  0.31098  0.30616  0.71301  1.0000
  S   S136      1.0  0.31592  0.32746  0.63390  1.0000
  H   H964      1.0  0.43919  0.40872  0.53695  1.0000
  S   S137      1.0  0.28252  0.40234  0.35406  1.0000
  H   H965      1.0  0.27940  0.34909  0.82802  1.0000
  H   H966      1.0  0.39666  0.29440  0.74208  1.0000
  Fe  Fe68      1.0  0.28173  0.43152  0.35420  1.0000
  S   S138      1.0  0.30805  0.44444  0.35858  1.0000
  S   S139      1.0  0.27154  0.31947  0.78055  1.0000
  S   S140      1.0  0.26219  0.43278  0.40265  1.0000
  H   H967      1.0  0.48137  0.47902  0.15829  1.0000
  H   H968      1.0  0.34395  0.46450  0.12785  1.0000
  C   C539      1.0  0.34717  0.37138  0.52827  1.0000
  H   H969      1.0  0.33634  0.27476  0.64411  1.0000
  C   C540      1.0  0.28010  0.37305  0.56795  1.0000
  C   C541      1.0  0.26838  0.37974  0.49371  1.0000
  C   C542      1.0  0.27040  0.36270  0.50829  1.0000
  C   C543      1.0  0.27630  0.35935  0.54498  1.0000
  H   H970      1.0  0.31259  0.25521  0.56654  1.0000
  H   H971      1.0  0.27772  0.34617  0.55567  1.0000
  H   H972      1.0  0.27248  0.32338  0.27078  1.0000
  H   H973      1.0  0.38194  0.25803  0.73417  1.0000
  H   H974      1.0  0.28712  0.26016  0.67406  1.0000
  H   H975      1.0  0.29661  0.42900  0.20115  1.0000
  H   H976      1.0  0.29035  0.25122  0.45356  1.0000
  C   C544      1.0  0.39804  0.47380  0.12624  1.0000
  H   H977      1.0  0.45913  0.42073  0.89669  1.0000
  H   H978      1.0  0.49705  0.29020  0.61485  1.0000
  C   C545      1.0  0.27887  0.25523  0.47095  1.0000
  H   H979      1.0  0.33574  0.48395  0.14992  1.0000
  H   H980      1.0  0.34281  0.36353  0.55298  1.0000
  H   H981      1.0  0.35527  0.48464  0.33110  1.0000
  H   H982      1.0  0.34949  0.47360  0.21049  1.0000
  C   C546      1.0  0.47068  0.41064  0.62260  1.0000
  C   C547      1.0  0.47345  0.41692  0.58594  1.0000
  C   C548      1.0  0.47364  0.43483  0.57818  1.0000
  C   C549      1.0  0.47020  0.44653  0.60688  1.0000
  C   C550      1.0  0.46640  0.44023  0.64310  1.0000
  C   C551      1.0  0.46704  0.42236  0.65113  1.0000
  H   H983      1.0  0.32229  0.37026  0.50318  1.0000
  H   H984      1.0  0.47621  0.43961  0.54998  1.0000
  H   H985      1.0  0.42043  0.41485  0.72881  1.0000
  H   H986      1.0  0.46498  0.41775  0.67951  1.0000
  C   C552      1.0  0.40079  0.35498  0.74678  1.0000
  C   C553      1.0  0.38328  0.35964  0.75557  1.0000
  C   C554      1.0  0.36943  0.35144  0.73875  1.0000
  C   C555      1.0  0.37292  0.33836  0.71301  1.0000
  C   C556      1.0  0.39044  0.33363  0.70431  1.0000
  C   C557      1.0  0.40429  0.34187  0.72103  1.0000
  H   H987      1.0  0.38039  0.36967  0.77559  1.0000
  H   H988      1.0  0.35606  0.35522  0.74581  1.0000
  H   H989      1.0  0.39331  0.32351  0.68451  1.0000
  H   H990      1.0  0.41765  0.33800  0.71425  1.0000
  C   C558      1.0  0.28267  0.27259  0.48809  1.0000
  C   C559      1.0  0.29979  0.42661  0.46491  1.0000
  C   C560      1.0  0.38292  0.47648  0.20627  1.0000
  H   H991      1.0  0.46896  0.39360  0.87567  1.0000
  C   C561      1.0  0.33674  0.39138  0.47523  1.0000
  H   H992      1.0  0.27314  0.30632  0.14712  1.0000
  H   H993      1.0  0.26736  0.35195  0.49109  1.0000
  Fe  Fe69      1.0  0.48502  0.48738  0.03909  1.0000
  H   H994      1.0  0.38293  0.25927  0.63145  1.0000
  H   H995      1.0  0.25545  0.35870  0.14120  1.0000
  C   C562      1.0  0.31132  0.46769  0.29766  1.0000
  C   C563      1.0  0.31837  0.46084  0.33081  1.0000
  C   C564      1.0  0.33434  0.46704  0.34245  1.0000
  C   C565      1.0  0.34307  0.47999  0.32157  1.0000
  C   C566      1.0  0.34877  0.41320  0.36327  1.0000
  H   H996      1.0  0.29907  0.46311  0.28830  1.0000
  H   H997      1.0  0.33995  0.46189  0.36799  1.0000
  H   H998      1.0  0.26331  0.27220  0.11182  1.0000
  H   H999      1.0  0.39793  0.46048  0.07314  1.0000
  H   H1000     1.0  0.29417  0.27123  0.50633  1.0000
  H   H1001     1.0  0.34417  0.38237  0.45665  1.0000
  C   C567      1.0  0.42123  0.42255  0.70231  1.0000
  H   H1002     1.0  0.34077  0.28181  0.72910  1.0000
  C   C568      1.0  0.26532  0.32557  0.82764  1.0000
  H   H1003     1.0  0.32491  0.38865  0.53221  1.0000
  C   C569      1.0  0.31447  0.37398  0.41725  1.0000
  C   C570      1.0  0.30836  0.38871  0.44357  1.0000
  C   C571      1.0  0.27804  0.39011  0.55336  1.0000
  C   C572      1.0  0.37199  0.27977  0.69838  1.0000
  H   H1004     1.0  0.33294  0.42405  0.42912  1.0000
  C   C573      1.0  0.38027  0.27233  0.73474  1.0000
  H   H1005     1.0  0.26438  0.29288  0.08722  1.0000
  H   H1006     1.0  0.32594  0.36657  0.42815  1.0000
  H   H1007     1.0  0.38246  0.28066  0.67666  1.0000
  H   H1008     1.0  0.37146  0.46929  0.11495  1.0000
  H   H1009     1.0  0.38078  0.45371  0.14601  1.0000
  C   C574      1.0  0.33132  0.38047  0.51046  1.0000
  S   S141      1.0  0.46155  0.48249  0.07846  1.0000
  H   H1010     1.0  0.34409  0.38942  0.39341  1.0000
  N   N32       1.0  0.32211  0.40085  0.45483  1.0000
  C   C575      1.0  0.25927  0.37120  0.19388  1.0000
  S   S142      1.0  0.26061  0.38303  0.44724  1.0000
  C   C576      1.0  0.25450  0.33418  0.90272  1.0000
  C   C577      1.0  0.40048  0.45917  0.25431  1.0000
  C   C578      1.0  0.44130  0.49076  0.14060  1.0000
  H   H1011     1.0  0.31271  0.26930  0.75946  1.0000
  C   C579      1.0  0.31373  0.41372  0.48155  1.0000
  H   H1012     1.0  0.31768  0.37947  0.38907  1.0000
  C   C580      1.0  0.33988  0.47020  0.15497  1.0000
  C   C581      1.0  0.25422  0.31489  0.84935  1.0000
  H   H1013     1.0  0.30237  0.25224  0.73602  1.0000
  C   C582      1.0  0.43184  0.40201  0.87549  1.0000
  H   H1014     1.0  0.28078  0.40084  0.57089  1.0000
  C   C583      1.0  0.27091  0.34065  0.84395  1.0000
  H   H1015     1.0  0.47988  0.35607  0.87654  1.0000
  C   C584      1.0  0.43949  0.41139  0.84033  1.0000
  C   C585      1.0  0.49483  0.47903  0.14638  1.0000
  H   H1016     1.0  0.47329  0.27461  0.64653  1.0000
  H   H1017     1.0  0.47575  0.40790  0.56365  1.0000
  C   C586      1.0  0.26571  0.29423  0.14793  1.0000
  C   C587      1.0  0.42562  0.41488  0.81103  1.0000
  H   H1018     1.0  0.27319  0.37211  0.18924  1.0000
  H   H1019     1.0  0.31896  0.46620  0.19640  1.0000
  H   H1020     1.0  0.49384  0.37316  0.88965  1.0000
  H   H1021     1.0  0.47000  0.44063  0.94685  1.0000
  H   H1022     1.0  0.42067  0.41015  0.88654  1.0000
  H   H1023     1.0  0.42616  0.39012  0.86469  1.0000
  H   H1024     1.0  0.26777  0.25746  0.45199  1.0000
  H   H1025     1.0  0.43243  0.48959  0.43552  1.0000
  H   H1026     1.0  0.40715  0.47437  0.14958  1.0000
  H   H1027     1.0  0.43306  0.43039  0.70254  1.0000
  C   C588      1.0  0.45899  0.38574  0.89070  1.0000
  C   C589      1.0  0.26912  0.42676  0.19017  1.0000
  H   H1028     1.0  0.45000  0.40320  0.82732  1.0000
  H   H1029     1.0  0.44467  0.42412  0.84692  1.0000
  C   C590      1.0  0.41832  0.36242  0.96166  1.0000
  H   H1030     1.0  0.40737  0.27644  0.71798  1.0000
  H   H1031     1.0  0.46357  0.44923  0.66533  1.0000
  H   H1032     1.0  0.26549  0.31036  0.21069  1.0000
  C   C591      1.0  0.46609  0.43116  0.96903  1.0000
  H   H1033     1.0  0.39342  0.46574  0.27781  1.0000
  C   C592      1.0  0.35918  0.28458  0.61815  1.0000
  H   H1034     1.0  0.41236  0.46637  0.24663  1.0000
  H   H1035     1.0  0.48196  0.48337  0.22348  1.0000
  S   S143      1.0  0.26134  0.43387  0.31008  1.0000
  H   H1036     1.0  0.49831  0.44964  0.67307  1.0000
  H   H1037     1.0  0.41450  0.42280  0.82270  1.0000
  H   H1038     1.0  0.43148  0.42216  0.78704  1.0000
  H   H1039     1.0  0.42080  0.40251  0.80078  1.0000
  C   C593      1.0  0.32908  0.41089  0.42109  1.0000
  C   C594      1.0  0.49085  0.42289  0.84449  1.0000
  H   H1040     1.0  0.27001  0.35660  0.89290  1.0000
  H   H1041     1.0  0.30539  0.44767  0.50178  1.0000
  N   N33       1.0  0.35665  0.27026  0.68466  1.0000
  H   H1042     1.0  0.31860  0.41320  0.40038  1.0000
  C   C595      1.0  0.34806  0.28108  0.65406  1.0000
  H   H1043     1.0  0.44039  0.42343  0.92650  1.0000
  H   H1044     1.0  0.33765  0.41211  0.34428  1.0000
  H   H1045     1.0  0.26610  0.34277  0.24451  1.0000
  H   H1046     1.0  0.46181  0.49390  0.46012  1.0000
  H   H1047     1.0  0.33687  0.29401  0.58579  1.0000
  H   H1048     1.0  0.44020  0.47692  0.14442  1.0000
  H   H1049     1.0  0.36800  0.29347  0.70406  1.0000
  H   H1050     1.0  0.45926  0.40483  0.97619  1.0000
  C   C596      1.0  0.32590  0.26102  0.70784  1.0000
  H   H1051     1.0  0.34330  0.29379  0.66525  1.0000
  C   C597      1.0  0.29407  0.44027  0.49328  1.0000
  H   H1052     1.0  0.41916  0.46626  0.08792  1.0000
  H   H1053     1.0  0.29607  0.35531  0.43988  1.0000
  H   H1054     1.0  0.37208  0.28962  0.62428  1.0000
  C   C598      1.0  0.31516  0.25727  0.74348  1.0000
  H   H1055     1.0  0.43119  0.36469  0.90767  1.0000
  H   H1056     1.0  0.37602  0.48320  0.22985  1.0000
  H   H1057     1.0  0.47701  0.40839  0.94323  1.0000
  C   C599      1.0  0.45140  0.49722  0.11033  1.0000
  H   H1058     1.0  0.35707  0.40423  0.41741  1.0000
  H   H1059     1.0  0.31802  0.27030  0.69059  1.0000
  H   H1060     1.0  0.28450  0.44958  0.48036  1.0000
  Fe  Fe70      1.0  0.26091  0.40461  0.31240  1.0000
  N   N34       1.0  0.40676  0.38494  0.63997  1.0000
  C   C600      1.0  0.42153  0.37195  0.64751  1.0000
  C   C601      1.0  0.40658  0.39862  0.66937  1.0000
  C   C602      1.0  0.38990  0.37548  0.64463  1.0000
  C   C603      1.0  0.40783  0.39301  0.60106  1.0000
  C   C604      1.0  0.42641  0.39559  0.58372  1.0000
  C   C605      1.0  0.42163  0.35540  0.62365  1.0000
  C   C606      1.0  0.37273  0.38662  0.64125  1.0000
  C   C607      1.0  0.42231  0.41054  0.66900  1.0000
  C   C608      1.0  0.26946  0.28500  0.11120  1.0000
  C   C609      1.0  0.27224  0.39345  0.51659  1.0000
  C   C610      1.0  0.43916  0.34543  0.62447  1.0000
  C   C611      1.0  0.35694  0.37518  0.63947  1.0000
  H   H1061     1.0  0.42118  0.36762  0.67745  1.0000
  H   H1062     1.0  0.43439  0.37791  0.64381  1.0000
  H   H1063     1.0  0.39510  0.40766  0.66644  1.0000
  H   H1064     1.0  0.40531  0.39241  0.69780  1.0000
  H   H1065     1.0  0.38935  0.36863  0.67236  1.0000
  H   H1066     1.0  0.38925  0.36528  0.62339  1.0000
  H   H1067     1.0  0.40103  0.38505  0.58082  1.0000
  H   H1068     1.0  0.40064  0.40580  0.60057  1.0000
  H   H1069     1.0  0.43247  0.38301  0.57514  1.0000
  H   H1070     1.0  0.43536  0.40121  0.60339  1.0000
  H   H1071     1.0  0.41162  0.34649  0.63484  1.0000
  H   H1072     1.0  0.41860  0.35859  0.59411  1.0000
  H   H1073     1.0  0.37300  0.39508  0.61576  1.0000
  H   H1074     1.0  0.37055  0.39480  0.66612  1.0000
  H   H1075     1.0  0.43479  0.40298  0.67033  1.0000
  H   H1076     1.0  0.42236  0.41898  0.64345  1.0000
  C   C612      1.0  0.47809  0.29685  0.67891  1.0000
  H   H1077     1.0  0.27096  0.41276  0.18412  1.0000
  H   H1078     1.0  0.48438  0.25273  0.61221  1.0000
  H   H1079     1.0  0.41151  0.37779  0.91325  1.0000
  H   H1080     1.0  0.46290  0.49196  0.27689  1.0000
  H   H1081     1.0  0.48965  0.49703  0.65514  1.0000
  H   H1082     1.0  0.44999  0.35395  0.61590  1.0000
  H   H1083     1.0  0.44142  0.33997  0.65295  1.0000
  H   H1084     1.0  0.43910  0.33451  0.60490  1.0000
  H   H1085     1.0  0.34484  0.38340  0.63674  1.0000
  H   H1086     1.0  0.35814  0.36654  0.61515  1.0000
  H   H1087     1.0  0.35568  0.36710  0.66545  1.0000
  H   H1088     1.0  0.39606  0.45090  0.19874  1.0000
  H   H1089     1.0  0.42500  0.49695  0.18920  1.0000
  H   H1090     1.0  0.36092  0.27249  0.60217  1.0000
  H   H1091     1.0  0.40960  0.43148  0.70051  1.0000
  H   H1092     1.0  0.35057  0.42713  0.36854  1.0000
  H   H1093     1.0  0.28809  0.41966  0.45723  1.0000
  C   C613      1.0  0.42367  0.37323  0.92721  1.0000
  H   H1094     1.0  0.41051  0.37049  0.98168  1.0000
  C   C614      1.0  0.26552  0.34490  0.88096  1.0000
  C   C615      1.0  0.30012  0.36110  0.41244  1.0000
  N   N35       1.0  0.44450  0.39745  0.90626  1.0000
  H   H1095     1.0  0.42490  0.39865  0.95073  1.0000
  Fe  Fe71      1.0  0.49008  0.47897  0.55629  1.0000
  H   H1096     1.0  0.47994  0.44887  0.83791  1.0000
  S   S144      1.0  0.48559  0.48585  0.97609  1.0000
  C   C616      1.0  0.40635  0.46138  0.09775  1.0000
  C   C617      1.0  0.30008  0.25996  0.62010  1.0000
  H   H1097     1.0  0.41742  0.40222  0.52761  1.0000
  Fe  Fe72      1.0  0.26178  0.40369  0.39970  1.0000
  C   C618      1.0  0.46854  0.37329  0.91883  1.0000
  H   H1098     1.0  0.49319  0.45266  0.12800  1.0000
  H   H1099     1.0  0.35396  0.36256  0.50815  1.0000
  C   C619      1.0  0.45147  0.41425  0.91940  1.0000
  H   H1100     1.0  0.49906  0.40439  0.52031  1.0000
  H   H1101     1.0  0.41027  0.35162  0.95306  1.0000
  H   H1102     1.0  0.47539  0.30649  0.65606  1.0000
  C   C620      1.0  0.29241  0.25215  0.65181  1.0000
  C   C621      1.0  0.28383  0.43146  0.21562  1.0000
  H   H1103     1.0  0.28551  0.28229  0.46555  1.0000
  H   H1104     1.0  0.48623  0.27028  0.68710  1.0000
  H   H1105     1.0  0.47640  0.43044  0.99031  1.0000
  H   H1106     1.0  0.34913  0.26056  0.73985  1.0000
  C   C622      1.0  0.26143  0.33253  0.26420  1.0000
  H   H1107     1.0  0.40330  0.27501  0.76779  1.0000
  H   H1108     1.0  0.45373  0.43595  0.98263  1.0000
  H   H1109     1.0  0.28373  0.28284  0.10691  1.0000
  H   H1110     1.0  0.35782  0.29953  0.56607  1.0000
  H   H1111     1.0  0.34917  0.31079  0.60627  1.0000
  C   C623      1.0  0.32011  0.48059  0.27668  1.0000
  C   C624      1.0  0.50079  0.28115  0.63815  1.0000
  C   C625      1.0  0.46391  0.41324  0.95288  1.0000
  H   H1112     1.0  0.40457  0.44591  0.26402  1.0000
  C   C626      1.0  0.34360  0.26884  0.71688  1.0000
  C   C627      1.0  0.33600  0.48689  0.28852  1.0000
  N   N36       1.0  0.37153  0.47732  0.17244  1.0000
  H   H1113     1.0  0.30192  0.38286  0.46869  1.0000
  C   C628      1.0  0.43429  0.38902  0.93794  1.0000
  H   H1114     1.0  0.34639  0.40085  0.48391  1.0000
  H   H1115     1.0  0.28354  0.42336  0.24169  1.0000
  H   H1116     1.0  0.45392  0.37728  0.86902  1.0000
  H   H1117     1.0  0.25597  0.43860  0.49166  1.0000
  H   H1118     1.0  0.30497  0.35053  0.39401  1.0000
  H   H1119     1.0  0.32394  0.42154  0.49399  1.0000
  H   H1120     1.0  0.36075  0.40783  0.34910  1.0000
  H   H1121     1.0  0.29767  0.39596  0.42899  1.0000
  C   C629      1.0  0.36693  0.49600  0.16177  1.0000
  H   H1122     1.0  0.30704  0.40698  0.50534  1.0000
  H   H1123     1.0  0.30471  0.43364  0.43967  1.0000
  H   H1124     1.0  0.45967  0.36325  0.92973  1.0000
  H   H1125     1.0  0.47335  0.38016  0.94300  1.0000
  H   H1126     1.0  0.37728  0.45060  0.23020  1.0000
  H   H1127     1.0  0.35639  0.38102  0.53771  1.0000
  C   C630      1.0  0.30656  0.24932  0.59112  1.0000
  C   C631      1.0  0.48771  0.44013  0.85537  1.0000
  H   H1128     1.0  0.44291  0.38472  0.96098  1.0000
  C   C632      1.0  0.38867  0.45812  0.22076  1.0000
  H   H1129     1.0  0.43002  0.35679  0.97576  1.0000
  C   C633      1.0  0.42580  0.40752  0.54907  1.0000
  C   C634      1.0  0.36150  0.25225  0.67138  1.0000
  H   H1130     1.0  0.42077  0.42068  0.55664  1.0000
  H   H1131     1.0  0.28271  0.44536  0.22291  1.0000
  H   H1132     1.0  0.49429  0.48394  0.11708  1.0000
  C   C635      1.0  0.48414  0.36382  0.90017  1.0000
  H   H1133     1.0  0.40857  0.44829  0.11064  1.0000
  H   H1134     1.0  0.27126  0.27748  0.50496  1.0000
  H   H1135     1.0  0.31445  0.48590  0.25134  1.0000
  H   H1136     1.0  0.49057  0.35489  0.92079  1.0000
  H   H1137     1.0  0.27081  0.28580  0.17099  1.0000
  H   H1138     1.0  0.49202  0.45951  0.89659  1.0000
  C   C636      1.0  0.37985  0.46788  0.13975  1.0000
  C   C637      1.0  0.35482  0.46851  0.18345  1.0000
  H   H1139     1.0  0.39504  0.48361  0.20122  1.0000
  C   C638      1.0  0.32386  0.46070  0.16955  1.0000
  H   H1140     1.0  0.27069  0.43415  0.16353  1.0000
  C   C639      1.0  0.49456  0.44623  0.88862  1.0000
  H   H1141     1.0  0.35732  0.45439  0.18837  1.0000
  H   H1142     1.0  0.39682  0.48668  0.11200  1.0000
  H   H1143     1.0  0.36267  0.49699  0.13225  1.0000
  C   C640      1.0  0.50042  0.48959  0.82100  1.0000
  C   C641      1.0  0.48408  0.27935  0.66307  1.0000
  H   H1144     1.0  0.25681  0.33880  0.29043  1.0000
  H   H1145     1.0  0.31331  0.46215  0.14894  1.0000
  C   C642      1.0  0.50102  0.41181  0.86721  1.0000
  H   H1146     1.0  0.46597  0.29537  0.69613  1.0000
  S   S145      1.0  0.49546  0.37830  0.72920  1.0000
  H   H1147     1.0  0.32707  0.44667  0.17395  1.0000
  H   H1148     1.0  0.49699  0.43375  0.71071  1.0000
  H   H1149     1.0  0.25463  0.28474  0.23180  1.0000
  S   S146      1.0  0.50071  0.32736  0.75944  1.0000
  H   H1150     1.0  0.49639  0.45575  0.41982  1.0000
  H   H1151     1.0  0.39008  0.24979  0.67463  1.0000
  H   H1152     1.0  0.49139  0.26702  0.57614  1.0000
  C   C643      1.0  0.48120  0.49723  0.23100  1.0000
  H   H1153     1.0  0.25441  0.45732  0.15213  1.0000
  H   H1154     1.0  0.25248  0.32690  0.18853  1.0000
  H   H1155     1.0  0.45275  0.49795  0.23340  1.0000
  H   H1156     1.0  0.48820  0.30183  0.69705  1.0000
  H   H1157     1.0  0.50190  0.45439  0.17405  1.0000
  C   C644      1.0  0.44126  0.49803  0.42048  1.0000
  C   C645      1.0  0.50176  0.46026  0.14542  1.0000
  H   H1158     1.0  0.50178  0.48444  0.39051  1.0000
  C   C646      1.0  0.37993  0.24935  0.65319  1.0000
  Fe  Fe73      1.0  0.31832  0.70839  0.32968  1.0000
  S   S147      1.0  0.33720  0.73004  0.32297  1.0000
  S   S148      1.0  0.29163  0.71789  0.35301  1.0000
  Fe  Fe74      1.0  0.34551  0.68162  0.30051  1.0000
  S   S149      1.0  0.36591  0.70170  0.29353  1.0000
  S   S150      1.0  0.35007  0.65528  0.27250  1.0000
  Fe  Fe75      1.0  0.35668  0.71145  0.34993  1.0000
  S   S151      1.0  0.37592  0.72330  0.39005  1.0000
  Fe  Fe76      1.0  0.34502  0.71892  0.26710  1.0000
  S   S152      1.0  0.35360  0.73471  0.21424  1.0000
  S   S153      1.0  0.33750  0.69013  0.35897  1.0000
  S   S154      1.0  0.32487  0.69859  0.27201  1.0000
  H   H1159     1.0  0.47234  0.50565  0.17629  1.0000
  C   C647      1.0  0.41650  0.54072  0.45750  1.0000
  C   C648      1.0  0.45790  0.50043  0.43442  1.0000
  C   C649      1.0  0.43983  0.57382  0.34768  1.0000
  S   S155      1.0  0.41803  0.72962  0.65701  1.0000
  N   N37       1.0  0.50035  0.50864  0.17551  1.0000
  Fe  Fe77      1.0  0.44719  0.72533  0.65295  1.0000
  S   S156      1.0  0.45672  0.69793  0.67092  1.0000
  S   S157      1.0  0.39798  0.50605  0.27083  1.0000
  S   S158      1.0  0.39905  0.72692  0.56141  1.0000
  H   H1160     1.0  0.39413  0.59813  0.49847  1.0000
  Fe  Fe78      1.0  0.40513  0.53122  0.24281  1.0000
  S   S159      1.0  0.41193  0.54374  0.29657  1.0000
  S   S160      1.0  0.42342  0.53499  0.19196  1.0000
  Fe  Fe79      1.0  0.37075  0.51788  0.27589  1.0000
  S   S161      1.0  0.37499  0.52964  0.33141  1.0000
  H   H1161     1.0  0.25940  0.73040  0.38599  1.0000
  Fe  Fe80      1.0  0.38387  0.55351  0.29975  1.0000
  S   S162      1.0  0.37782  0.57968  0.32770  1.0000
  Fe  Fe81      1.0  0.40262  0.51943  0.32446  1.0000
  C   C650      1.0  0.32855  0.73882  0.15846  1.0000
  S   S163      1.0  0.37754  0.54259  0.24406  1.0000
  H   H1162     1.0  0.43910  0.55856  0.41377  1.0000
  H   H1163     1.0  0.48834  0.51207  0.12176  1.0000
  C   C651      1.0  0.25830  0.71662  0.38269  1.0000
  S   S164      1.0  0.48931  0.51641  0.43497  1.0000
  C   C652      1.0  0.43402  0.52000  0.16127  1.0000
  H   H1164     1.0  0.33039  0.73392  0.56767  1.0000
  H   H1165     1.0  0.43326  0.72275  0.88185  1.0000
  C   C653      1.0  0.44422  0.52642  0.13115  1.0000
  H   H1166     1.0  0.45062  0.52449  0.51324  1.0000
  H   H1167     1.0  0.44527  0.54026  0.12709  1.0000
  S   S165      1.0  0.49196  0.50780  0.54713  1.0000
  C   C654      1.0  0.46913  0.51180  0.41597  1.0000
  C   C655      1.0  0.46389  0.52025  0.38269  1.0000
  C   C656      1.0  0.44728  0.51769  0.36849  1.0000
  H   H1168     1.0  0.47254  0.52906  0.36833  1.0000
  H   H1169     1.0  0.44320  0.52442  0.34316  1.0000
  C   C657      1.0  0.42587  0.55739  0.40236  1.0000
  C   C658      1.0  0.47569  0.68858  0.69247  1.0000
  C   C659      1.0  0.47749  0.67041  0.69578  1.0000
  H   H1170     1.0  0.49571  0.69520  0.80412  1.0000
  C   C660      1.0  0.48870  0.69854  0.70690  1.0000
  H   H1171     1.0  0.46749  0.66251  0.68513  1.0000
  C   C661      1.0  0.37874  0.55384  0.44246  1.0000
  H   H1172     1.0  0.48753  0.71251  0.70475  1.0000
  H   H1173     1.0  0.46022  0.52026  0.08221  1.0000
  H   H1174     1.0  0.39426  0.56582  0.50174  1.0000
  H   H1175     1.0  0.49617  0.52317  0.29186  1.0000
  H   H1176     1.0  0.41585  0.71561  0.83141  1.0000
  C   C662      1.0  0.42859  0.73376  0.86371  1.0000
  H   H1177     1.0  0.38237  0.51185  0.19724  1.0000
  H   H1178     1.0  0.43955  0.55195  0.48263  1.0000
  C   C663      1.0  0.34581  0.74086  0.16881  1.0000
  C   C664      1.0  0.39491  0.55454  0.41585  1.0000
  H   H1179     1.0  0.33461  0.69460  0.44255  1.0000
  C   C665      1.0  0.44418  0.73723  0.77406  1.0000
  C   C666      1.0  0.43577  0.50687  0.38790  1.0000
  H   H1180     1.0  0.44278  0.56136  0.33361  1.0000
  H   H1181     1.0  0.36387  0.53597  0.41089  1.0000
  C   C667      1.0  0.40455  0.59049  0.51311  1.0000
  C   C668      1.0  0.35799  0.63443  0.28857  1.0000
  C   C669      1.0  0.35942  0.62079  0.26311  1.0000
  C   C670      1.0  0.36555  0.60403  0.27434  1.0000
  C   C671      1.0  0.37026  0.60062  0.31140  1.0000
  C   C672      1.0  0.36883  0.61426  0.33687  1.0000
  C   C673      1.0  0.36278  0.63105  0.32559  1.0000
  H   H1182     1.0  0.35566  0.62318  0.23450  1.0000
  H   H1183     1.0  0.36650  0.59372  0.25441  1.0000
  H   H1184     1.0  0.37238  0.61183  0.36561  1.0000
  H   H1185     1.0  0.36175  0.64133  0.34555  1.0000
  C   C674      1.0  0.38213  0.72394  0.43794  1.0000
  C   C675      1.0  0.48458  0.70027  0.82157  1.0000
  Fe  Fe82      1.0  0.41940  0.73982  0.59736  1.0000
  C   C676      1.0  0.39289  0.72617  0.51350  1.0000
  C   C677      1.0  0.38119  0.71360  0.50302  1.0000
  C   C678      1.0  0.37584  0.71248  0.46560  1.0000
  C   C679      1.0  0.31439  0.72350  0.50327  1.0000
  H   H1186     1.0  0.40085  0.58948  0.54328  1.0000
  H   H1187     1.0  0.37624  0.70463  0.52401  1.0000
  H   H1188     1.0  0.36698  0.70267  0.45806  1.0000
  C   C680      1.0  0.27072  0.68921  0.36219  1.0000
  C   C681      1.0  0.27241  0.70697  0.36682  1.0000
  H   H1189     1.0  0.28142  0.68160  0.34999  1.0000
  C   C682      1.0  0.41839  0.64422  0.49947  1.0000
  H   H1190     1.0  0.37126  0.73603  0.80668  1.0000
  H   H1191     1.0  0.44798  0.66040  0.52212  1.0000
  H   H1192     1.0  0.43289  0.74248  0.75801  1.0000
  H   H1193     1.0  0.31275  0.72958  0.84635  1.0000
  H   H1194     1.0  0.26627  0.72281  0.28761  1.0000
  H   H1195     1.0  0.36543  0.63254  0.12194  1.0000
  H   H1196     1.0  0.44816  0.68659  0.48183  1.0000
  H   H1197     1.0  0.49615  0.56234  0.62810  1.0000
  H   H1198     1.0  0.41473  0.52880  0.44122  1.0000
  H   H1199     1.0  0.36907  0.62541  0.16953  1.0000
  H   H1200     1.0  0.47914  0.52249  0.20407  1.0000
  C   C683      1.0  0.40670  0.57236  0.49708  1.0000
  H   H1201     1.0  0.45398  0.73315  0.75229  1.0000
  H   H1202     1.0  0.33076  0.66346  0.44866  1.0000
  S   S166      1.0  0.34670  0.50295  0.26054  1.0000
  H   H1203     1.0  0.49151  0.67036  0.56973  1.0000
  H   H1204     1.0  0.32238  0.74500  0.87576  1.0000
  H   H1205     1.0  0.44455  0.53513  0.45025  1.0000
  H   H1206     1.0  0.25383  0.66755  0.36902  1.0000
  H   H1207     1.0  0.31993  0.72579  0.40643  1.0000
  C   C684      1.0  0.42362  0.57247  0.37317  1.0000
  H   H1208     1.0  0.40164  0.73327  0.88508  1.0000
  C   C685      1.0  0.25504  0.68128  0.37300  1.0000
  N   N38       1.0  0.43896  0.72194  0.79834  1.0000
  N   N39       1.0  0.43795  0.68157  0.55608  1.0000
  C   C686      1.0  0.43298  0.69673  0.53060  1.0000
  C   C687      1.0  0.42722  0.68299  0.59195  1.0000
  C   C688      1.0  0.45683  0.68324  0.56612  1.0000
  C   C689      1.0  0.43587  0.66429  0.53809  1.0000
  C   C690      1.0  0.42084  0.66300  0.51004  1.0000
  H   H1209     1.0  0.35113  0.72280  0.55972  1.0000
  C   C691      1.0  0.46482  0.66869  0.59191  1.0000
  C   C692      1.0  0.40737  0.68064  0.58920  1.0000
  C   C693      1.0  0.39785  0.68503  0.62598  1.0000
  C   C694      1.0  0.41260  0.74227  0.88306  1.0000
  H   H1210     1.0  0.46333  0.65571  0.58011  1.0000
  H   H1211     1.0  0.43319  0.70904  0.54601  1.0000
  H   H1212     1.0  0.41930  0.69611  0.52173  1.0000
  H   H1213     1.0  0.43153  0.67306  0.61295  1.0000
  H   H1214     1.0  0.42923  0.69574  0.60490  1.0000
  H   H1215     1.0  0.45865  0.69588  0.57966  1.0000
  H   H1216     1.0  0.49228  0.58203  0.79293  1.0000
  H   H1217     1.0  0.33616  0.72278  0.43980  1.0000
  H   H1218     1.0  0.43428  0.65401  0.56017  1.0000
  H   H1219     1.0  0.42380  0.67041  0.48385  1.0000
  H   H1220     1.0  0.40822  0.66821  0.52119  1.0000
  H   H1221     1.0  0.49341  0.56203  0.89322  1.0000
  H   H1222     1.0  0.37604  0.56676  0.45466  1.0000
  H   H1223     1.0  0.46534  0.68323  0.54054  1.0000
  H   H1224     1.0  0.45867  0.66877  0.62018  1.0000
  H   H1225     1.0  0.40150  0.68905  0.56709  1.0000
  H   H1226     1.0  0.40486  0.66691  0.58349  1.0000
  H   H1227     1.0  0.39905  0.69896  0.63194  1.0000
  H   H1228     1.0  0.38379  0.68247  0.62382  1.0000
  H   H1229     1.0  0.40325  0.67706  0.64951  1.0000
  C   C695      1.0  0.36251  0.54937  0.42136  1.0000
  H   H1230     1.0  0.38043  0.54397  0.46515  1.0000
  H   H1231     1.0  0.44957  0.70318  0.83799  1.0000
  H   H1232     1.0  0.47551  0.71780  0.77838  1.0000
  N   N40       1.0  0.41230  0.55665  0.43367  1.0000
  C   C696      1.0  0.32305  0.69029  0.45889  1.0000
  C   C697      1.0  0.29252  0.73142  0.45612  1.0000
  H   H1233     1.0  0.30831  0.66668  0.46380  1.0000
  H   H1234     1.0  0.31499  0.67249  0.41652  1.0000
  H   H1235     1.0  0.42340  0.70600  0.45758  1.0000
  H   H1236     1.0  0.34123  0.71178  0.50012  1.0000
  C   C698      1.0  0.49902  0.51229  0.70025  1.0000
  C   C699      1.0  0.45282  0.51512  0.10579  1.0000
  H   H1237     1.0  0.40792  0.64373  0.47869  1.0000
  H   H1238     1.0  0.48643  0.68383  0.60961  1.0000
  H   H1239     1.0  0.38503  0.63828  0.14527  1.0000
  H   H1240     1.0  0.42581  0.57846  0.45460  1.0000
  C   C700      1.0  0.42400  0.72697  0.82477  1.0000
  S   S167      1.0  0.41411  0.50479  0.37399  1.0000
  H   H1241     1.0  0.40809  0.74740  0.49326  1.0000
  C   C701      1.0  0.44475  0.69913  0.49505  1.0000
  C   C702      1.0  0.48429  0.67111  0.59696  1.0000
  H   H1242     1.0  0.25773  0.74179  0.44868  1.0000
  H   H1243     1.0  0.38927  0.74138  0.74898  1.0000
  C   C703      1.0  0.30715  0.70293  0.45380  1.0000
  C   C704      1.0  0.27628  0.72428  0.47724  1.0000
  H   H1244     1.0  0.32627  0.68901  0.48887  1.0000
  H   H1245     1.0  0.47841  0.56807  0.76846  1.0000
  H   H1246     1.0  0.43360  0.72424  0.47779  1.0000
  H   H1247     1.0  0.48962  0.66077  0.61602  1.0000
  C   C705      1.0  0.31898  0.67215  0.44617  1.0000
  C   C706      1.0  0.39388  0.73644  0.44843  1.0000
  H   H1248     1.0  0.42877  0.53025  0.52945  1.0000
  H   H1249     1.0  0.40722  0.53957  0.48156  1.0000
  H   H1250     1.0  0.49158  0.52396  0.68984  1.0000
  H   H1251     1.0  0.38608  0.53645  0.15358  1.0000
  H   H1252     1.0  0.47997  0.53942  0.15216  1.0000
  C   C707      1.0  0.37084  0.63625  0.14897  1.0000
  H   H1253     1.0  0.30896  0.73597  0.51442  1.0000
  C   C708      1.0  0.43527  0.53934  0.47277  1.0000
  H   H1254     1.0  0.41253  0.57025  0.35494  1.0000
  C   C709      1.0  0.49853  0.51800  0.13828  1.0000
  H   H1255     1.0  0.35088  0.55017  0.44040  1.0000
  H   H1256     1.0  0.31939  0.73322  0.17834  1.0000
  C   C710      1.0  0.32037  0.74151  0.84636  1.0000
  H   H1257     1.0  0.41697  0.59740  0.51023  1.0000
  C   C711      1.0  0.38103  0.50958  0.16701  1.0000
  H   H1258     1.0  0.41455  0.63632  0.52449  1.0000
  C   C712      1.0  0.48279  0.50906  0.19549  1.0000
  H   H1259     1.0  0.37508  0.52556  0.11757  1.0000
  C   C713      1.0  0.43294  0.70809  0.77294  1.0000
  S   S168      1.0  0.44835  0.73420  0.59264  1.0000
  H   H1260     1.0  0.42128  0.58512  0.38673  1.0000
  H   H1261     1.0  0.45915  0.72356  0.83958  1.0000
  C   C714      1.0  0.41521  0.71182  0.75381  1.0000
  H   H1262     1.0  0.49131  0.54200  0.73895  1.0000
  H   H1263     1.0  0.44268  0.70571  0.74986  1.0000
  H   H1264     1.0  0.28958  0.73184  0.42578  1.0000
  H   H1265     1.0  0.43248  0.51319  0.49601  1.0000
  C   C715      1.0  0.41083  0.69703  0.72847  1.0000
  H   H1266     1.0  0.25543  0.71859  0.24496  1.0000
  H   H1267     1.0  0.42621  0.54511  0.38672  1.0000
  C   C716      1.0  0.39917  0.73761  0.48585  1.0000
  C   C717      1.0  0.25443  0.72598  0.27121  1.0000
  H   H1268     1.0  0.43187  0.69553  0.78872  1.0000
  H   H1269     1.0  0.49075  0.51770  0.77731  1.0000
  H   H1270     1.0  0.47989  0.68947  0.83976  1.0000
  H   H1271     1.0  0.46648  0.69657  0.77846  1.0000
  H   H1272     1.0  0.29667  0.69738  0.47187  1.0000
  H   H1273     1.0  0.44460  0.71241  0.44087  1.0000
  C   C718      1.0  0.32305  0.72897  0.43568  1.0000
  C   C719      1.0  0.37597  0.52694  0.14826  1.0000
  H   H1274     1.0  0.41556  0.72383  0.73645  1.0000
  H   H1275     1.0  0.40432  0.71326  0.77459  1.0000
  H   H1276     1.0  0.45126  0.57727  0.36400  1.0000
  C   C720      1.0  0.41246  0.57325  0.45513  1.0000
  H   H1277     1.0  0.45707  0.70516  0.50256  1.0000
  C   C721      1.0  0.43679  0.52600  0.50486  1.0000
  N   N41       1.0  0.30966  0.72165  0.46277  1.0000
  C   C722      1.0  0.43599  0.71116  0.46611  1.0000
  H   H1278     1.0  0.48392  0.54010  0.08305  1.0000
  H   H1279     1.0  0.40416  0.58345  0.44095  1.0000
  H   H1280     1.0  0.36036  0.55856  0.39736  1.0000
  H   H1281     1.0  0.39541  0.54266  0.39864  1.0000
  H   H1282     1.0  0.39192  0.56551  0.39621  1.0000
  H   H1283     1.0  0.39824  0.70013  0.71474  1.0000
  H   H1284     1.0  0.42107  0.69519  0.70631  1.0000
  H   H1285     1.0  0.40962  0.68475  0.74498  1.0000
  N   N42       1.0  0.35747  0.68583  0.14807  1.0000
  C   C723      1.0  0.34257  0.68545  0.17645  1.0000
  C   C724      1.0  0.37260  0.69473  0.16442  1.0000
  C   C725      1.0  0.35129  0.69682  0.11505  1.0000
  C   C726      1.0  0.36308  0.66800  0.13472  1.0000
  C   C727      1.0  0.36145  0.65263  0.16343  1.0000
  C   C728      1.0  0.32508  0.67935  0.16125  1.0000
  C   C729      1.0  0.36529  0.70130  0.08466  1.0000
  C   C730      1.0  0.38087  0.68614  0.19952  1.0000
  C   C731      1.0  0.39452  0.69768  0.21529  1.0000
  C   C732      1.0  0.31240  0.67395  0.19260  1.0000
  C   C733      1.0  0.35692  0.70923  0.04959  1.0000
  H   H1286     1.0  0.33998  0.69861  0.18798  1.0000
  H   H1287     1.0  0.34594  0.67721  0.20120  1.0000
  H   H1288     1.0  0.38357  0.69561  0.14370  1.0000
  H   H1289     1.0  0.36862  0.70831  0.17108  1.0000
  H   H1290     1.0  0.34536  0.70936  0.12477  1.0000
  H   H1291     1.0  0.34078  0.69034  0.10053  1.0000
  H   H1292     1.0  0.35540  0.66445  0.11024  1.0000
  H   H1293     1.0  0.37684  0.66804  0.12404  1.0000
  H   H1294     1.0  0.34757  0.64960  0.16854  1.0000
  H   H1295     1.0  0.36685  0.65538  0.19090  1.0000
  H   H1296     1.0  0.31860  0.69010  0.14498  1.0000
  H   H1297     1.0  0.32723  0.66826  0.14241  1.0000
  H   H1298     1.0  0.37316  0.68959  0.07653  1.0000
  H   H1299     1.0  0.37411  0.71107  0.09514  1.0000
  H   H1300     1.0  0.37105  0.68368  0.22200  1.0000
  H   H1301     1.0  0.38773  0.67377  0.19210  1.0000
  H   H1302     1.0  0.40521  0.69985  0.19440  1.0000
  H   H1303     1.0  0.38849  0.71040  0.22329  1.0000
  H   H1304     1.0  0.40017  0.69134  0.24064  1.0000
  H   H1305     1.0  0.30799  0.68537  0.20894  1.0000
  H   H1306     1.0  0.30075  0.66837  0.18046  1.0000
  H   H1307     1.0  0.31857  0.66401  0.21152  1.0000
  H   H1308     1.0  0.34849  0.69981  0.03657  1.0000
  H   H1309     1.0  0.34895  0.72107  0.05654  1.0000
  H   H1310     1.0  0.36723  0.71293  0.02888  1.0000
  C   C734      1.0  0.47005  0.70734  0.79638  1.0000
  H   H1311     1.0  0.43061  0.63855  0.48682  1.0000
  H   H1312     1.0  0.41665  0.56511  0.51377  1.0000
  C   C735      1.0  0.45411  0.71419  0.81997  1.0000
  H   H1313     1.0  0.49545  0.57938  0.74330  1.0000
  H   H1314     1.0  0.30272  0.70199  0.42449  1.0000
  H   H1315     1.0  0.36329  0.53204  0.15988  1.0000
  H   H1316     1.0  0.43749  0.58406  0.32585  1.0000
  H   H1317     1.0  0.48931  0.71065  0.83923  1.0000
  C   C736      1.0  0.26102  0.73756  0.47759  1.0000
  C   C737      1.0  0.33413  0.72308  0.51217  1.0000
  H   H1318     1.0  0.27184  0.71263  0.46308  1.0000
  C   C738      1.0  0.33695  0.72252  0.55431  1.0000
  H   H1319     1.0  0.25408  0.74008  0.26439  1.0000
  H   H1320     1.0  0.41517  0.73680  0.81097  1.0000
  H   H1321     1.0  0.46246  0.51423  0.26078  1.0000
  C   C739      1.0  0.49191  0.57264  0.77001  1.0000
  H   H1322     1.0  0.27920  0.72065  0.50666  1.0000
  H   H1323     1.0  0.30813  0.71330  0.52095  1.0000
  H   H1324     1.0  0.34038  0.73485  0.50066  1.0000
  C   C740      1.0  0.46377  0.50059  0.25167  1.0000
  H   H1325     1.0  0.39887  0.74538  0.42740  1.0000
  H   H1326     1.0  0.33325  0.73873  0.83254  1.0000
  H   H1327     1.0  0.33183  0.71045  0.56718  1.0000
  H   H1328     1.0  0.43892  0.74334  0.86222  1.0000
  H   H1329     1.0  0.30962  0.74279  0.11505  1.0000
  H   H1330     1.0  0.48989  0.56009  0.10310  1.0000
  Fe  Fe83      1.0  0.49755  0.50113  0.48693  1.0000
  H   H1331     1.0  0.50058  0.55135  0.80475  1.0000
  C   C741      1.0  0.49209  0.66225  0.71287  1.0000
  C   C742      1.0  0.49350  0.54609  0.10103  1.0000
  C   C743      1.0  0.49334  0.53758  0.14001  1.0000
  S   S169      1.0  0.50055  0.53091  0.93639  1.0000
  H   H1332     1.0  0.49071  0.50539  0.72103  1.0000
  C   C744      1.0  0.32304  0.74429  0.12244  1.0000
  H   H1333     1.0  0.49320  0.64826  0.71515  1.0000
  H   H1334     1.0  0.41588  0.74601  0.91174  1.0000
  C   C745      1.0  0.35746  0.74816  0.14224  1.0000
  H   H1335     1.0  0.35555  0.50087  0.17904  1.0000
  H   H1336     1.0  0.39401  0.50544  0.15582  1.0000
  H   H1337     1.0  0.29339  0.74520  0.46400  1.0000
  C   C746      1.0  0.37745  0.74829  0.80251  1.0000
  C   C747      1.0  0.43267  0.50207  0.16599  1.0000
  H   H1338     1.0  0.49171  0.49944  0.25074  1.0000
  H   H1339     1.0  0.46171  0.74904  0.81359  1.0000
  H   H1340     1.0  0.50092  0.53810  0.32797  1.0000
  C   C748      1.0  0.32466  0.74894  0.43649  1.0000
  H   H1341     1.0  0.26425  0.74904  0.49379  1.0000
  Fe  Fe84      1.0  0.34940  0.80743  0.96153  1.0000
  S   S170      1.0  0.36054  0.78017  0.97195  1.0000
  S   S171      1.0  0.36741  0.82988  0.97084  1.0000
  Fe  Fe85      1.0  0.31499  0.79410  0.93268  1.0000
  S   S172      1.0  0.28963  0.80493  0.90687  1.0000
  Fe  Fe86      1.0  0.33408  0.77452  0.99735  1.0000
  Fe  Fe87      1.0  0.34964  0.77419  0.91581  1.0000
  C   C749      1.0  0.47855  0.82807  0.60703  1.0000
  S   S173      1.0  0.32354  0.80210  0.98955  1.0000
  S   S174      1.0  0.34023  0.80155  0.90412  1.0000
  Fe  Fe88      1.0  0.45163  0.76119  0.61446  1.0000
  S   S175      1.0  0.47393  0.77636  0.58615  1.0000
  S   S176      1.0  0.42255  0.76741  0.61568  1.0000
  Fe  Fe89      1.0  0.37596  0.93229  0.00762  1.0000
  S   S177      1.0  0.37459  0.95234  0.05262  1.0000
  S   S178      1.0  0.35674  0.91009  0.01093  1.0000
  Fe  Fe90      1.0  0.40174  0.95387  0.96074  1.0000
  S   S179      1.0  0.40148  0.97566  0.00119  1.0000
  S   S180      1.0  0.41861  0.95089  0.90835  1.0000
  Fe  Fe91      1.0  0.40378  0.95447  0.04536  1.0000
  S   S181      1.0  0.42577  0.95194  0.08797  1.0000
  Fe  Fe92      1.0  0.37232  0.97204  0.00504  1.0000
  H   H1342     1.0  0.48602  0.88703  0.61675  1.0000
  S   S182      1.0  0.40517  0.93268  0.00423  1.0000
  S   S183      1.0  0.37262  0.95203  0.96075  1.0000
  Fe  Fe93      1.0  0.48571  0.99757  0.24373  1.0000
  H   H1343     1.0  0.48129  0.82649  0.42316  1.0000
  C   C750      1.0  0.45818  0.76645  0.76696  1.0000
  C   C751      1.0  0.49572  0.91771  0.62739  1.0000
  H   H1344     1.0  0.29096  0.89150  0.93835  1.0000
  C   C752      1.0  0.46979  0.99670  0.41684  1.0000
  H   H1345     1.0  0.44957  0.82555  0.54880  1.0000
  H   H1346     1.0  0.44111  0.98145  0.03212  1.0000
  C   C753      1.0  0.43541  0.96556  0.12078  1.0000
  C   C754      1.0  0.42978  0.98278  0.12597  1.0000
  H   H1347     1.0  0.50078  0.97450  0.96941  1.0000
  C   C755      1.0  0.45193  0.98618  0.17359  1.0000
  C   C756      1.0  0.45769  0.96902  0.16804  1.0000
  C   C757      1.0  0.44943  0.95880  0.14198  1.0000
  H   H1348     1.0  0.34247  0.76902  0.41958  1.0000
  H   H1349     1.0  0.34425  0.75004  0.39133  1.0000
  H   H1350     1.0  0.46838  0.96357  0.18413  1.0000
  H   H1351     1.0  0.45393  0.94551  0.13827  1.0000
  C   C758      1.0  0.43232  0.96739  0.89223  1.0000
  C   C759      1.0  0.44529  0.96353  0.86505  1.0000
  C   C760      1.0  0.45654  0.97633  0.85165  1.0000
  H   H1352     1.0  0.32319  0.75382  0.46533  1.0000
  H   H1353     1.0  0.45200  0.82732  0.46295  1.0000
  C   C761      1.0  0.43050  0.98420  0.90570  1.0000
  H   H1354     1.0  0.44668  0.95055  0.85444  1.0000
  H   H1355     1.0  0.46657  0.97322  0.83086  1.0000
  H   H1356     1.0  0.47121  0.97047  0.08153  1.0000
  H   H1357     1.0  0.42034  0.98733  0.92616  1.0000
  H   H1358     1.0  0.30154  0.90879  0.01050  1.0000
  H   H1359     1.0  0.46683  0.91018  0.70140  1.0000
  H   H1360     1.0  0.28105  0.76851  0.89753  1.0000
  S   S184      1.0  0.32663  0.75892  0.05131  1.0000
  C   C762      1.0  0.31097  0.91983  0.95643  1.0000
  C   C763      1.0  0.46548  0.94481  0.71782  1.0000
  H   H1361     1.0  0.34234  0.95162  0.85007  1.0000
  H   H1362     1.0  0.34052  0.95297  0.01160  1.0000
  H   H1363     1.0  0.49487  0.98624  0.43212  1.0000
  C   C764      1.0  0.48180  0.79776  0.58956  1.0000
  H   H1364     1.0  0.49951  0.98333  0.49671  1.0000
  H   H1365     1.0  0.49084  0.97615  0.02765  1.0000
  H   H1366     1.0  0.46929  0.76089  0.75015  1.0000
  H   H1367     1.0  0.47672  0.84625  0.35278  1.0000
  C   C765      1.0  0.47220  0.81111  0.60723  1.0000
  C   C766      1.0  0.44708  0.82071  0.52053  1.0000
  H   H1368     1.0  0.48352  0.89595  0.49925  1.0000
  H   H1369     1.0  0.45972  0.80845  0.62041  1.0000
  C   C767      1.0  0.36384  0.85226  0.98079  1.0000
  C   C768      1.0  0.37811  0.86320  0.97853  1.0000
  C   C769      1.0  0.37618  0.88091  0.98723  1.0000
  C   C770      1.0  0.35993  0.88791  0.99885  1.0000
  C   C771      1.0  0.34566  0.87694  0.00145  1.0000
  C   C772      1.0  0.34754  0.85927  0.99224  1.0000
  H   H1370     1.0  0.39080  0.85795  0.96991  1.0000
  H   H1371     1.0  0.38730  0.88911  0.98521  1.0000
  H   H1372     1.0  0.33310  0.88214  0.01090  1.0000
  H   H1373     1.0  0.33646  0.85103  0.99444  1.0000
  C   C773      1.0  0.37495  0.76112  0.82968  1.0000
  C   C774      1.0  0.38296  0.77694  0.82362  1.0000
  C   C775      1.0  0.39351  0.77976  0.79124  1.0000
  H   H1374     1.0  0.38132  0.78693  0.84423  1.0000
  H   H1375     1.0  0.39981  0.79199  0.78725  1.0000
  C   C776      1.0  0.27104  0.79467  0.89005  1.0000
  H   H1376     1.0  0.46303  0.99224  0.44293  1.0000
  C   C777      1.0  0.29648  0.94859  0.95504  1.0000
  C   C778      1.0  0.29638  0.96847  0.95933  1.0000
  C   C779      1.0  0.28066  0.97729  0.94043  1.0000
  H   H1377     1.0  0.29308  0.94581  0.92579  1.0000
  H   H1378     1.0  0.28526  0.94412  0.97243  1.0000
  H   H1379     1.0  0.30819  0.97421  0.94667  1.0000
  H   H1380     1.0  0.29540  0.97167  0.98938  1.0000
  H   H1381     1.0  0.28438  0.91615  0.98001  1.0000
  H   H1382     1.0  0.32349  0.92782  0.01718  1.0000
  H   H1383     1.0  0.32189  0.96751  0.00941  1.0000
  H   H1384     1.0  0.46851  0.86513  0.47586  1.0000
  H   H1385     1.0  0.28043  0.99141  0.94558  1.0000
  H   H1386     1.0  0.25731  0.81899  0.87874  1.0000
  N   N43       1.0  0.46564  0.97641  0.00206  1.0000
  C   C780      1.0  0.46376  0.95745  0.01166  1.0000
  H   H1387     1.0  0.28959  0.77709  0.79035  1.0000
  H   H1388     1.0  0.47453  0.99300  0.95633  1.0000
  C   C781      1.0  0.45312  0.94711  0.98406  1.0000
  H   H1389     1.0  0.47909  0.83213  0.52327  1.0000
  S   S185      1.0  0.32380  0.76636  0.94184  1.0000
  H   H1390     1.0  0.33427  0.96649  0.07195  1.0000
  C   C782      1.0  0.45208  0.92817  0.99690  1.0000
  H   H1391     1.0  0.48579  0.96610  0.89356  1.0000
  H   H1392     1.0  0.45715  0.95586  0.03953  1.0000
  H   H1393     1.0  0.47674  0.95077  0.01476  1.0000
  H   H1394     1.0  0.47774  0.88083  0.66159  1.0000
  C   C783      1.0  0.45105  0.75291  0.79454  1.0000
  H   H1395     1.0  0.45200  0.80703  0.51894  1.0000
  H   H1396     1.0  0.43938  0.98105  0.98312  1.0000
  H   H1397     1.0  0.26519  0.78955  0.75572  1.0000
  H   H1398     1.0  0.43958  0.95252  0.98235  1.0000
  H   H1399     1.0  0.45913  0.94727  0.95555  1.0000
  H   H1400     1.0  0.45594  0.85061  0.42682  1.0000
  H   H1401     1.0  0.46065  0.83162  0.37179  1.0000
  H   H1402     1.0  0.48950  0.95534  0.95811  1.0000
  H   H1403     1.0  0.40831  0.75417  0.86731  1.0000
  H   H1404     1.0  0.44561  0.92720  0.02499  1.0000
  H   H1405     1.0  0.44426  0.92113  0.97688  1.0000
  H   H1406     1.0  0.46530  0.92189  0.99796  1.0000
  C   C784      1.0  0.34541  0.76607  0.71565  1.0000
  H   H1407     1.0  0.49661  0.87333  0.43362  1.0000
  N   N44       1.0  0.31573  0.78638  0.79548  1.0000
  H   H1408     1.0  0.45575  0.94977  0.69736  1.0000
  H   H1409     1.0  0.34911  0.77280  0.77238  1.0000
  C   C785      1.0  0.48600  0.89345  0.46910  1.0000
  H   H1410     1.0  0.32366  0.79122  0.73783  1.0000
  H   H1411     1.0  0.34928  0.79425  0.82389  1.0000
  H   H1412     1.0  0.31644  0.95447  0.89138  1.0000
  H   H1413     1.0  0.35493  0.94192  0.88741  1.0000
  C   C786      1.0  0.26889  0.80231  0.76606  1.0000
  C   C787      1.0  0.31604  0.93961  0.00712  1.0000
  H   H1414     1.0  0.49516  0.90317  0.45772  1.0000
  H   H1415     1.0  0.31971  0.81349  0.78222  1.0000
  H   H1416     1.0  0.47361  0.89508  0.45388  1.0000
  H   H1417     1.0  0.38800  0.78116  0.04383  1.0000
  H   H1418     1.0  0.40249  0.79780  0.05747  1.0000
  S   S186      1.0  0.36230  0.75641  0.87107  1.0000
  H   H1419     1.0  0.49853  0.98565  0.09208  1.0000
  H   H1420     1.0  0.28681  0.88417  0.98585  1.0000
  C   C788      1.0  0.32707  0.94523  0.90011  1.0000
  H   H1421     1.0  0.48609  0.94516  0.55084  1.0000
  H   H1422     1.0  0.47942  0.81692  0.48687  1.0000
  N   N45       1.0  0.48644  0.84292  0.46933  1.0000
  C   C789      1.0  0.48223  0.86120  0.48150  1.0000
  C   C790      1.0  0.29753  0.90978  0.98091  1.0000
  H   H1423     1.0  0.48159  0.99715  0.01950  1.0000
  H   H1424     1.0  0.29146  0.79305  0.82473  1.0000
  C   C791      1.0  0.46826  0.85130  0.41029  1.0000
  S   S187      1.0  0.41017  0.77116  0.72462  1.0000
  H   H1425     1.0  0.31269  0.95804  0.07406  1.0000
  C   C792      1.0  0.45587  0.83204  0.49046  1.0000
  C   C793      1.0  0.48343  0.84041  0.42826  1.0000
  H   H1426     1.0  0.44018  0.75939  0.81052  1.0000
  C   C794      1.0  0.43795  0.99296  0.15226  1.0000
  H   H1427     1.0  0.45068  0.84546  0.49415  1.0000
  C   C795      1.0  0.39620  0.76688  0.76429  1.0000
  H   H1428     1.0  0.46283  0.77758  0.78249  1.0000
  C   C796      1.0  0.33461  0.75189  0.09611  1.0000
  C   C797      1.0  0.34999  0.82163  0.81293  1.0000
  N   N46       1.0  0.35400  0.81188  0.10999  1.0000
  C   C798      1.0  0.35294  0.83073  0.09794  1.0000
  C   C799      1.0  0.33872  0.80300  0.09419  1.0000
  C   C800      1.0  0.35376  0.81059  0.15214  1.0000
  C   C801      1.0  0.37059  0.80303  0.09549  1.0000
  C   C802      1.0  0.37519  0.80637  0.05357  1.0000
  C   C803      1.0  0.36810  0.84181  0.11043  1.0000
  C   C804      1.0  0.35227  0.79202  0.16925  1.0000
  C   C805      1.0  0.32040  0.80893  0.10941  1.0000
  C   C806      1.0  0.30634  0.79719  0.09611  1.0000
  C   C807      1.0  0.39091  0.79511  0.04089  1.0000
  C   C808      1.0  0.36732  0.85976  0.09149  1.0000
  C   C809      1.0  0.35203  0.79215  0.21193  1.0000
  H   H1429     1.0  0.34081  0.83712  0.10942  1.0000
  H   H1430     1.0  0.35182  0.83206  0.06696  1.0000
  H   H1431     1.0  0.33844  0.80503  0.06340  1.0000
  H   H1432     1.0  0.34020  0.78873  0.09820  1.0000
  H   H1433     1.0  0.34312  0.81903  0.16429  1.0000
  H   H1434     1.0  0.36594  0.81574  0.16307  1.0000
  H   H1435     1.0  0.38200  0.80668  0.11179  1.0000
  H   H1436     1.0  0.36994  0.78875  0.09969  1.0000
  H   H1437     1.0  0.37854  0.82007  0.04830  1.0000
  H   H1438     1.0  0.36414  0.80350  0.03575  1.0000
  H   H1439     1.0  0.36722  0.84362  0.14112  1.0000
  H   H1440     1.0  0.38103  0.83574  0.10347  1.0000
  H   H1441     1.0  0.36356  0.78365  0.16022  1.0000
  H   H1442     1.0  0.34015  0.78595  0.16085  1.0000
  H   H1443     1.0  0.31961  0.80859  0.14035  1.0000
  H   H1444     1.0  0.31707  0.82231  0.09931  1.0000
  H   H1445     1.0  0.29331  0.80209  0.10609  1.0000
  H   H1446     1.0  0.30638  0.79687  0.06511  1.0000
  H   H1447     1.0  0.30852  0.78379  0.10742  1.0000
  C   C810      1.0  0.25686  0.80506  0.87721  1.0000
  H   H1448     1.0  0.49550  0.98633  0.90413  1.0000
  H   H1449     1.0  0.49323  0.89434  0.70972  1.0000
  H   H1450     1.0  0.35452  0.86650  0.09707  1.0000
  H   H1451     1.0  0.37774  0.86776  0.10221  1.0000
  H   H1452     1.0  0.36944  0.85865  0.06083  1.0000
  H   H1453     1.0  0.36420  0.79751  0.22218  1.0000
  H   H1454     1.0  0.34061  0.79995  0.22266  1.0000
  H   H1455     1.0  0.35105  0.77867  0.22317  1.0000
  C   C811      1.0  0.28870  0.80321  0.76831  1.0000
  H   H1456     1.0  0.31664  0.77933  0.85436  1.0000
  C   C812      1.0  0.45483  0.99309  0.86538  1.0000
  H   H1457     1.0  0.29144  0.81640  0.77771  1.0000
  C   C813      1.0  0.44173  0.99703  0.89225  1.0000
  C   C814      1.0  0.48416  0.92662  0.59725  1.0000
  C   C815      1.0  0.32623  0.95568  0.06329  1.0000
  H   H1458     1.0  0.34708  0.96426  0.88990  1.0000
  C   C816      1.0  0.45886  0.89438  0.62842  1.0000
  C   C817      1.0  0.45341  0.87889  0.60625  1.0000
  C   C818      1.0  0.34217  0.75467  0.42027  1.0000
  C   C819      1.0  0.47801  0.89190  0.64099  1.0000
  C   C820      1.0  0.34391  0.95113  0.88085  1.0000
  C   C821      1.0  0.44789  0.98537  0.00547  1.0000
  H   H1459     1.0  0.46245  0.92314  0.66120  1.0000
  C   C822      1.0  0.32362  0.80348  0.80346  1.0000
  H   H1460     1.0  0.26264  0.80435  0.79401  1.0000
  H   H1461     1.0  0.33174  0.94342  0.07581  1.0000
  H   H1462     1.0  0.47153  0.86515  0.40781  1.0000
  H   H1463     1.0  0.31130  0.77255  0.74459  1.0000
  C   C823      1.0  0.47594  0.83060  0.49344  1.0000
  H   H1464     1.0  0.47329  0.93448  0.60981  1.0000
  H   H1465     1.0  0.47894  0.91671  0.57908  1.0000
  H   H1466     1.0  0.30339  0.93964  0.02305  1.0000
  H   H1467     1.0  0.36445  0.82119  0.81418  1.0000
  H   H1468     1.0  0.48644  0.94329  0.67738  1.0000
  C   C824      1.0  0.29614  0.78930  0.79622  1.0000
  H   H1469     1.0  0.45000  0.89542  0.65339  1.0000
  H   H1470     1.0  0.45674  0.90617  0.61081  1.0000
  H   H1471     1.0  0.43965  0.88086  0.59780  1.0000
  H   H1472     1.0  0.46177  0.87738  0.58063  1.0000
  H   H1473     1.0  0.45451  0.86680  0.62362  1.0000
  H   H1474     1.0  0.39400  0.79808  0.01095  1.0000
  C   C825      1.0  0.47827  0.98376  0.02852  1.0000
  C   C826      1.0  0.47238  0.98389  0.07033  1.0000
  H   H1475     1.0  0.49531  0.84353  0.41121  1.0000
  H   H1476     1.0  0.31854  0.80831  0.83097  1.0000
  C   C827      1.0  0.33824  0.99706  0.93840  1.0000
  C   C828      1.0  0.32667  0.95484  0.02067  1.0000
  S   S188      1.0  0.50109  0.85395  0.58696  1.0000
  H   H1477     1.0  0.46278  0.97530  0.94205  1.0000
  C   C829      1.0  0.35195  0.75360  0.10622  1.0000
  H   H1478     1.0  0.32454  0.93227  0.88940  1.0000
  H   H1479     1.0  0.34028  0.93643  0.95045  1.0000
  H   H1480     1.0  0.47092  0.95606  0.73166  1.0000
  H   H1481     1.0  0.34924  0.80093  0.77506  1.0000
  C   C830      1.0  0.33844  0.76802  0.75576  1.0000
  C   C831      1.0  0.46482  0.84524  0.37091  1.0000
  C   C832      1.0  0.49015  0.96950  0.95278  1.0000
  C   C833      1.0  0.49802  0.80160  0.57255  1.0000
  N   N47       1.0  0.31300  0.93866  0.96557  1.0000
  H   H1482     1.0  0.34982  0.98980  0.92932  1.0000
  C   C834      1.0  0.31055  0.75616  0.82551  1.0000
  H   H1483     1.0  0.47080  0.83828  0.62013  1.0000
  H   H1484     1.0  0.34599  0.83140  0.79124  1.0000
  H   H1485     1.0  0.48329  0.86201  0.51246  1.0000
  C   C835      1.0  0.32003  0.77357  0.82671  1.0000
  C   C836      1.0  0.32866  0.94481  0.94329  1.0000
  C   C837      1.0  0.48022  0.93444  0.69818  1.0000
  Fe  Fe94      1.0  0.42307  0.75647  0.67514  1.0000
  C   C838      1.0  0.49468  0.83193  0.58967  1.0000
  C   C839      1.0  0.34377  0.80373  0.80332  1.0000
  S   S189      1.0  0.35080  0.99333  0.01070  1.0000
  H   H1486     1.0  0.33205  0.95808  0.95080  1.0000
  C   C840      1.0  0.47254  0.97904  0.96252  1.0000
  H   H1487     1.0  0.43277  0.82109  0.51661  1.0000
  C   C841      1.0  0.49404  0.87526  0.46390  1.0000
  H   H1488     1.0  0.32375  0.91253  0.95889  1.0000
  H   H1489     1.0  0.46842  0.98681  0.39518  1.0000
  C   C842      1.0  0.27029  0.77667  0.88773  1.0000
  H   H1490     1.0  0.26384  0.81259  0.74653  1.0000
  H   H1491     1.0  0.30704  0.91856  0.92699  1.0000
  H   H1492     1.0  0.34459  0.82576  0.84050  1.0000
  H   H1493     1.0  0.44781  0.77138  0.74796  1.0000
  H   H1494     1.0  0.41905  0.98822  0.11000  1.0000
  C   C843      1.0  0.29598  0.89132  0.96720  1.0000
  C   C844      1.0  0.47320  0.91829  0.67917  1.0000
  H   H1495     1.0  0.28153  0.97552  0.90971  1.0000
  C   C845      1.0  0.49522  0.97229  0.91155  1.0000
  C   C846      1.0  0.25561  0.76923  0.87246  1.0000
  H   H1496     1.0  0.29440  0.80149  0.73979  1.0000
  H   H1497     1.0  0.30886  0.88427  0.96741  1.0000
  H   H1498     1.0  0.45555  0.98832  0.72386  1.0000
  H   H1499     1.0  0.26830  0.97201  0.95180  1.0000
  H   H1500     1.0  0.45426  0.85352  0.35836  1.0000
  H   H1501     1.0  0.45892  0.93668  0.73959  1.0000
  N   N48       1.0  0.48644  0.90731  0.65748  1.0000
  S   S190      1.0  0.49144  0.98899  0.75570  1.0000
  H   H1502     1.0  0.35705  0.75708  0.71541  1.0000
  H   H1503     1.0  0.48984  0.93068  0.71978  1.0000
  H   H1504     1.0  0.25523  0.75530  0.87063  1.0000
  C   C847      1.0  0.32167  0.78000  0.75741  1.0000
  H   H1505     1.0  0.34942  0.77878  0.70381  1.0000
  H   H1506     1.0  0.29737  0.75776  0.83885  1.0000
  H   H1507     1.0  0.45141  0.99292  0.77256  1.0000
  C   C848      1.0  0.49470  0.93876  0.57190  1.0000
  H   H1508     1.0  0.33424  0.77071  0.82778  1.0000
  H   H1509     1.0  0.33537  0.76073  0.69781  1.0000
  H   H1510     1.0  0.43371  0.99384  0.74003  1.0000
  C   C849      1.0  0.44768  0.99652  0.74350  1.0000
  H   H1511     1.0  0.36113  0.75907  0.08623  1.0000
  H   H1512     1.0  0.33563  0.75488  0.76695  1.0000
  H   H1513     1.0  0.30879  0.75204  0.79644  1.0000
  C   C850      1.0  0.48568  0.99269  0.09381  1.0000
  H   H1514     1.0  0.45967  0.99091  0.07456  1.0000
  H   H1515     1.0  0.48121  0.99266  0.12359  1.0000
  S   S191      1.0  0.45236  0.75168  0.67462  1.0000
  H   H1516     1.0  0.31420  0.75530  0.41951  1.0000
  H   H1517     1.0  0.50051  0.94892  0.58856  1.0000
  C   C851      1.0  0.38781  0.75121  0.76985  1.0000
  C   C852      1.0  0.49984  0.90047  0.68490  1.0000
  H   H1518     1.0  0.37087  0.74967  0.14966  1.0000
  H   H1519     1.0  0.35299  0.74952  0.43780  1.0000
  C   C853      1.0  0.48912  0.99904  0.42353  1.0000
  H   H1520     1.0  0.52569  0.00292  0.06972  1.0000
  H   H1521     1.0  0.52558  0.10483  0.66025  1.0000
  C   C854      1.0  0.50246  0.04706  0.48658  1.0000
  Fe  Fe95      1.0  0.63962  0.04944  0.99188  1.0000
  S   S192      1.0  0.64696  0.03777  0.04775  1.0000
  S   S193      1.0  0.65405  0.07280  0.96698  1.0000
  Fe  Fe96      1.0  0.61772  0.01792  0.97517  1.0000
  H   H1522     1.0  0.52986  0.13978  0.58644  1.0000
  C   C855      1.0  0.52284  0.17136  0.54640  1.0000
  Fe  Fe97      1.0  0.61877  0.03041  0.05452  1.0000
  S   S194      1.0  0.60148  0.03646  0.10620  1.0000
  Fe  Fe98      1.0  0.65152  0.01260  0.01754  1.0000
  C   C856      1.0  0.71916  0.03942  0.87475  1.0000
  S   S195      1.0  0.61109  0.04378  0.00018  1.0000
  S   S196      1.0  0.64544  0.02447  0.96149  1.0000
  H   H1523     1.0  0.73661  0.23260  0.24565  1.0000
  S   S197      1.0  0.54773  0.03322  0.82034  1.0000
  H   H1524     1.0  0.54528  0.02805  0.37394  1.0000
  Fe  Fe99      1.0  0.66726  0.21171  0.92058  1.0000
  S   S198      1.0  0.67881  0.18468  0.91456  1.0000
  S   S199      1.0  0.65816  0.22912  0.87076  1.0000
  Fe  Fe100     1.0  0.67386  0.21171  0.00710  1.0000
  S   S200      1.0  0.68604  0.18475  0.00521  1.0000
  H   H1525     1.0  0.53096  0.09951  0.56624  1.0000
  Fe  Fe101     1.0  0.69990  0.19355  0.95192  1.0000
  S   S201      1.0  0.72814  0.18372  0.94177  1.0000
  Fe  Fe102     1.0  0.66421  0.17789  0.96808  1.0000
  S   S202      1.0  0.64617  0.15535  0.98182  1.0000
  S   S203      1.0  0.68916  0.22103  0.95586  1.0000
  S   S204      1.0  0.65125  0.20456  0.97180  1.0000
  Fe  Fe103     1.0  0.56975  0.22971  0.62262  1.0000
  S   S205      1.0  0.54467  0.21453  0.61753  1.0000
  Fe  Fe104     1.0  0.59941  0.23530  0.67753  1.0000
  S   S206      1.0  0.61186  0.21919  0.72589  1.0000
  S   S207      1.0  0.57032  0.24076  0.68036  1.0000
  S   S208      1.0  0.59873  0.22293  0.62080  1.0000
  H   H1526     1.0  0.52061  0.00148  0.13865  1.0000
  H   H1527     1.0  0.54558  0.00073  0.09553  1.0000
  H   H1528     1.0  0.51997  0.24005  0.64287  1.0000
  H   H1529     1.0  0.57804  0.18148  0.67497  1.0000
  H   H1530     1.0  0.75005  0.24847  0.12579  1.0000
  C   C857      1.0  0.69119  0.23900  0.10790  1.0000
  N   N49       1.0  0.51032  0.01626  0.46243  1.0000
  H   H1531     1.0  0.69744  0.17553  0.81987  1.0000
  C   C858      1.0  0.64533  0.22596  0.83054  1.0000
  C   C859      1.0  0.63704  0.21049  0.82452  1.0000
  C   C860      1.0  0.62698  0.20870  0.79234  1.0000
  C   C861      1.0  0.62494  0.22233  0.76571  1.0000
  H   H1532     1.0  0.74991  0.21769  0.80016  1.0000
  C   C862      1.0  0.74531  0.21077  0.90604  1.0000
  H   H1533     1.0  0.63839  0.19986  0.84462  1.0000
  H   H1534     1.0  0.62071  0.19662  0.78809  1.0000
  C   C863      1.0  0.52334  0.15042  0.65682  1.0000
  H   H1535     1.0  0.57405  0.01747  0.00494  1.0000
  H   H1536     1.0  0.70845  0.24314  0.50572  1.0000
  S   S209      1.0  0.51486  0.15453  0.51885  1.0000
  H   H1537     1.0  0.73420  0.21894  0.91422  1.0000
  C   C864      1.0  0.71154  0.17701  0.82453  1.0000
  C   C865      1.0  0.54680  0.19023  0.56062  1.0000
  C   C866      1.0  0.53675  0.19795  0.58926  1.0000
  C   C867      1.0  0.51970  0.19231  0.59620  1.0000
  C   C868      1.0  0.51279  0.17910  0.57502  1.0000
  H   H1538     1.0  0.55990  0.19440  0.55479  1.0000
  H   H1539     1.0  0.58091  0.21541  0.81271  1.0000
  H   H1540     1.0  0.70952  0.16559  0.88086  1.0000
  H   H1541     1.0  0.50265  0.02340  0.51879  1.0000
  H   H1542     1.0  0.59296  0.01836  0.73907  1.0000
  H   H1543     1.0  0.73606  0.23738  0.47945  1.0000
  C   C869      1.0  0.58602  0.02891  0.89662  1.0000
  C   C870      1.0  0.57423  0.03554  0.86988  1.0000
  C   C871      1.0  0.56165  0.02497  0.85548  1.0000
  C   C872      1.0  0.51032  0.02859  0.49453  1.0000
  C   C873      1.0  0.53877  0.02107  0.96201  1.0000
  H   H1544     1.0  0.59591  0.03702  0.90707  1.0000
  H   H1545     1.0  0.57505  0.04882  0.85990  1.0000
  C   C874      1.0  0.74573  0.20566  0.78728  1.0000
  C   C875      1.0  0.65202  0.09566  0.97342  1.0000
  C   C876      1.0  0.63796  0.10348  0.99311  1.0000
  C   C877      1.0  0.63652  0.12171  0.99567  1.0000
  C   C878      1.0  0.64917  0.13239  0.97898  1.0000
  C   C879      1.0  0.66345  0.12456  0.96011  1.0000
  C   C880      1.0  0.66478  0.10635  0.95719  1.0000
  H   H1546     1.0  0.62802  0.09550  0.00569  1.0000
  H   H1547     1.0  0.62540  0.12758  0.01028  1.0000
  H   H1548     1.0  0.67328  0.13254  0.94709  1.0000
  H   H1549     1.0  0.67571  0.10049  0.94188  1.0000
  C   C881      1.0  0.56303  0.00273  0.17469  1.0000
  S   S210      1.0  0.62410  0.00429  0.02973  1.0000
  H   H1550     1.0  0.53748  0.04122  0.45336  1.0000
  C   C882      1.0  0.52414  0.01373  0.12392  1.0000
  C   C883      1.0  0.58670  0.02311  0.13174  1.0000
  C   C884      1.0  0.57503  0.03073  0.15807  1.0000
  C   C885      1.0  0.56327  0.02063  0.17942  1.0000
  H   H1551     1.0  0.52417  0.15259  0.68737  1.0000
  H   H1552     1.0  0.70536  0.21490  0.39347  1.0000
  H   H1553     1.0  0.57517  0.04454  0.16222  1.0000
  H   H1554     1.0  0.55449  0.02670  0.19973  1.0000
  H   H1555     1.0  0.57850  0.06727  0.99575  1.0000
  H   H1556     1.0  0.66512  0.01618  0.89199  1.0000
  C   C886      1.0  0.58530  0.01161  0.90875  1.0000
  H   H1557     1.0  0.68330  0.01332  0.94510  1.0000
  N   N50       1.0  0.70172  0.01294  0.89787  1.0000
  C   C887      1.0  0.71701  0.16350  0.85432  1.0000
  C   C888      1.0  0.69261  0.02207  0.93038  1.0000
  H   H1558     1.0  0.51176  0.19815  0.61823  1.0000
  H   H1559     1.0  0.71139  0.05695  0.82888  1.0000
  H   H1560     1.0  0.60072  0.23957  0.91812  1.0000
  H   H1561     1.0  0.52244  0.02760  0.00999  1.0000
  H   H1562     1.0  0.71361  0.04844  0.89596  1.0000
  H   H1563     1.0  0.70512  0.19793  0.86077  1.0000
  H   H1564     1.0  0.54194  0.10431  0.73780  1.0000
  H   H1565     1.0  0.63428  0.23299  0.43291  1.0000
  H   H1566     1.0  0.61977  0.23439  0.88926  1.0000
  H   H1567     1.0  0.53229  0.23187  0.70429  1.0000
  H   H1568     1.0  0.61565  0.19881  0.02265  1.0000
  H   H1569     1.0  0.73154  0.21890  0.30801  1.0000
  H   H1570     1.0  0.68447  0.03337  0.92012  1.0000
  C   C889      1.0  0.53452  0.00967  0.08791  1.0000
  S   S211      1.0  0.50562  0.01808  0.23295  1.0000
  H   H1571     1.0  0.53762  0.03483  0.95230  1.0000
  C   C890      1.0  0.56498  0.01336  0.02808  1.0000
  C   C891      1.0  0.50327  0.07153  0.37901  1.0000
  H   H1572     1.0  0.72409  0.23470  0.42441  1.0000
  S   S212      1.0  0.53127  0.00294  0.73996  1.0000
  H   H1573     1.0  0.69138  0.23837  0.83983  1.0000
  S   S213      1.0  0.60063  0.00210  0.93941  1.0000
  H   H1574     1.0  0.57054  0.02600  0.74388  1.0000
  H   H1575     1.0  0.62018  0.23534  0.49609  1.0000
  N   N51       1.0  0.53828  0.13857  0.64349  1.0000
  H   H1576     1.0  0.53675  0.04934  0.38611  1.0000
  C   C892      1.0  0.72339  0.05029  0.83964  1.0000
  C   C893      1.0  0.75048  0.23812  0.14789  1.0000
  H   H1577     1.0  0.54774  0.17124  0.51717  1.0000
  H   H1578     1.0  0.51527  0.07672  0.36784  1.0000
  H   H1579     1.0  0.68936  0.05251  0.97284  1.0000
  H   H1580     1.0  0.74811  0.19464  0.80716  1.0000
  C   C894      1.0  0.54490  0.03802  0.39584  1.0000
  C   C895      1.0  0.70415  0.02840  0.96199  1.0000
  H   H1581     1.0  0.72941  0.04201  0.81750  1.0000
  H   H1582     1.0  0.58751  0.23759  0.76645  1.0000
  H   H1583     1.0  0.60502  0.18906  0.06306  1.0000
  C   C896      1.0  0.52603  0.01093  0.93963  1.0000
  C   C897      1.0  0.61566  0.18726  0.04175  1.0000
  H   H1584     1.0  0.54603  0.13239  0.70010  1.0000
  H   H1585     1.0  0.71910  0.17384  0.79870  1.0000
  C   C898      1.0  0.57630  0.24086  0.78549  1.0000
  H   H1586     1.0  0.58687  0.23467  0.85778  1.0000
  H   H1587     1.0  0.71034  0.01862  0.84097  1.0000
  C   C899      1.0  0.58645  0.00521  0.12698  1.0000
  C   C900      1.0  0.74088  0.23929  0.27073  1.0000
  C   C901      1.0  0.56660  0.05241  0.04185  1.0000
  C   C902      1.0  0.50406  0.05856  0.52035  1.0000
  C   C903      1.0  0.55371  0.04322  0.01699  1.0000
  Fe  Fe105     1.0  0.50376  0.01260  0.73032  1.0000
  C   C904      1.0  0.59395  0.24441  0.84038  1.0000
  C   C905      1.0  0.54163  0.02639  0.06936  1.0000
  C   C906      1.0  0.70582  0.02560  0.86647  1.0000
  C   C907      1.0  0.56063  0.00788  0.86861  1.0000
  H   H1588     1.0  0.69491  0.18698  0.76274  1.0000
  H   H1589     1.0  0.60424  0.23688  0.82466  1.0000
  H   H1590     1.0  0.57839  0.04405  0.04645  1.0000
  H   H1591     1.0  0.56052  0.05563  0.06940  1.0000
  H   H1592     1.0  0.72181  0.24648  0.88988  1.0000
  H   H1593     1.0  0.54182  0.05186  0.01461  1.0000
  H   H1594     1.0  0.51254  0.23928  0.72867  1.0000
  H   H1595     1.0  0.50243  0.14591  0.61832  1.0000
  H   H1596     1.0  0.70900  0.01710  0.97908  1.0000
  C   C908      1.0  0.71460  0.19559  0.83740  1.0000
  H   H1597     1.0  0.72748  0.19558  0.85069  1.0000
  H   H1598     1.0  0.71545  0.23568  0.29749  1.0000
  H   H1599     1.0  0.58192  0.07543  0.04157  1.0000
  N   N52       1.0  0.65144  0.16378  0.10289  1.0000
  C   C909      1.0  0.64861  0.15195  0.13651  1.0000
  C   C910      1.0  0.66088  0.17972  0.11369  1.0000
  C   C911      1.0  0.63368  0.16958  0.08883  1.0000
  C   C912      1.0  0.66099  0.15449  0.07146  1.0000
  C   C913      1.0  0.67919  0.14630  0.07969  1.0000
  C   C914      1.0  0.63865  0.13526  0.12947  1.0000
  C   C915      1.0  0.63332  0.18513  0.06039  1.0000
  C   C916      1.0  0.67493  0.17742  0.14403  1.0000
  C   C917      1.0  0.68519  0.19387  0.14724  1.0000
  C   C918      1.0  0.68573  0.13495  0.04744  1.0000
  C   C919      1.0  0.63680  0.12427  0.16535  1.0000
  H   H1600     1.0  0.64136  0.15922  0.15890  1.0000
  H   H1601     1.0  0.66115  0.14765  0.14900  1.0000
  H   H1602     1.0  0.66692  0.18599  0.08837  1.0000
  H   H1603     1.0  0.65144  0.18964  0.12527  1.0000
  H   H1604     1.0  0.62478  0.17335  0.11260  1.0000
  H   H1605     1.0  0.62742  0.15871  0.07504  1.0000
  H   H1606     1.0  0.65284  0.14429  0.06026  1.0000
  H   H1607     1.0  0.66307  0.16349  0.04743  1.0000
  H   H1608     1.0  0.67908  0.13803  0.10539  1.0000
  H   H1609     1.0  0.68869  0.15665  0.08221  1.0000
  H   H1610     1.0  0.62531  0.13841  0.11957  1.0000
  H   H1611     1.0  0.64569  0.12713  0.10845  1.0000
  H   H1612     1.0  0.64339  0.18350  0.03806  1.0000
  H   H1613     1.0  0.63569  0.19742  0.07456  1.0000
  H   H1614     1.0  0.66856  0.17482  0.17175  1.0000
  H   H1615     1.0  0.68431  0.16658  0.13833  1.0000
  H   H1616     1.0  0.67635  0.20492  0.15539  1.0000
  H   H1617     1.0  0.69520  0.19193  0.16893  1.0000
  H   H1618     1.0  0.69186  0.19715  0.12018  1.0000
  H   H1619     1.0  0.67701  0.12396  0.04406  1.0000
  H   H1620     1.0  0.68625  0.14264  0.02079  1.0000
  H   H1621     1.0  0.69904  0.12961  0.05317  1.0000
  H   H1622     1.0  0.62940  0.13162  0.18724  1.0000
  H   H1623     1.0  0.62961  0.11245  0.15954  1.0000
  H   H1624     1.0  0.64983  0.12017  0.17594  1.0000
  H   H1625     1.0  0.57019  0.18139  0.62805  1.0000
  C   C920      1.0  0.53462  0.01965  0.00465  1.0000
  H   H1626     1.0  0.55187  0.03035  0.08855  1.0000
  H   H1627     1.0  0.54847  0.17060  0.67498  1.0000
  H   H1628     1.0  0.50911  0.05351  0.46251  1.0000
  C   C921      1.0  0.66164  0.24027  0.13235  1.0000
  H   H1629     1.0  0.55083  0.99975  0.85811  1.0000
  N   N53       1.0  0.71317  0.20990  0.80805  1.0000
  C   C922      1.0  0.72625  0.20720  0.77627  1.0000
  C   C923      1.0  0.69480  0.21167  0.79357  1.0000
  C   C924      1.0  0.71731  0.22672  0.82611  1.0000
  C   C925      1.0  0.50459  0.14504  0.64885  1.0000
  H   H1630     1.0  0.51797  0.06017  0.52683  1.0000
  H   H1631     1.0  0.68255  0.23219  0.53981  1.0000
  C   C926      1.0  0.70344  0.23412  0.85436  1.0000
  C   C927      1.0  0.69045  0.20068  0.75951  1.0000
  C   C928      1.0  0.67084  0.20105  0.75316  1.0000
  S   S214      1.0  0.50904  0.04633  0.32640  1.0000
  H   H1632     1.0  0.68654  0.22912  0.40076  1.0000
  H   H1633     1.0  0.72486  0.21807  0.75537  1.0000
  H   H1634     1.0  0.72370  0.19540  0.76064  1.0000
  H   H1635     1.0  0.68514  0.20901  0.81665  1.0000
  H   H1636     1.0  0.69180  0.22528  0.78405  1.0000
  C   C929      1.0  0.71780  0.00291  0.91099  1.0000
  H   H1637     1.0  0.72968  0.22525  0.84139  1.0000
  C   C930      1.0  0.64327  0.23962  0.80396  1.0000
  H   H1638     1.0  0.69375  0.03296  0.85809  1.0000
  Fe  Fe106     1.0  0.52830  0.01554  0.79601  1.0000
  H   H1639     1.0  0.58584  0.16483  0.64366  1.0000
  H   H1640     1.0  0.52032  0.01414  0.40551  1.0000
  C   C931      1.0  0.70092  0.22866  0.39622  1.0000
  H   H1641     1.0  0.70001  0.22442  0.87629  1.0000
  C   C932      1.0  0.72943  0.23309  0.30355  1.0000
  H   H1642     1.0  0.69687  0.20608  0.73381  1.0000
  C   C933      1.0  0.67127  0.00742  0.87110  1.0000
  H   H1643     1.0  0.66396  0.19469  0.77717  1.0000
  H   H1644     1.0  0.66562  0.21458  0.74972  1.0000
  H   H1645     1.0  0.56625  0.24646  0.76662  1.0000
  H   H1646     1.0  0.52840  0.01341  0.90925  1.0000
  H   H1647     1.0  0.51197  0.02132  0.11761  1.0000
  H   H1648     1.0  0.73276  0.06029  0.84644  1.0000
  H   H1649     1.0  0.70063  0.23533  0.08633  1.0000
  C   C934      1.0  0.53758  0.03070  0.43282  1.0000
  H   H1650     1.0  0.51466  0.24439  0.55608  1.0000
  H   H1651     1.0  0.66810  0.19393  0.72750  1.0000
  H   H1652     1.0  0.53590  0.11784  0.53563  1.0000
  C   C935      1.0  0.67362  0.23528  0.10366  1.0000
  C   C936      1.0  0.55372  0.14965  0.63434  1.0000
  H   H1653     1.0  0.55835  0.04235  0.39964  1.0000
  H   H1654     1.0  0.51080  0.03459  0.41569  1.0000
  C   C937      1.0  0.54813  0.11794  0.59000  1.0000
  C   C938      1.0  0.55932  0.16170  0.66574  1.0000
  H   H1655     1.0  0.53192  0.02124  0.14307  1.0000
  C   C939      1.0  0.54343  0.12563  0.67386  1.0000
  C   C940      1.0  0.70981  0.23656  0.42917  1.0000
  C   C941      1.0  0.54128  0.10844  0.55677  1.0000
  C   C942      1.0  0.57427  0.17298  0.65214  1.0000
  H   H1656     1.0  0.52769  0.08864  0.71984  1.0000
  H   H1657     1.0  0.70573  0.22919  0.45462  1.0000
  H   H1658     1.0  0.53099  0.00615  0.01102  1.0000
  C   C943      1.0  0.58125  0.01852  0.75794  1.0000
  H   H1659     1.0  0.55101  0.15800  0.60910  1.0000
  H   H1660     1.0  0.56547  0.14146  0.62707  1.0000
  H   H1661     1.0  0.55602  0.11884  0.66635  1.0000
  H   H1662     1.0  0.68214  0.03402  0.00016  1.0000
  C   C944      1.0  0.53365  0.12981  0.60796  1.0000
  C   C945      1.0  0.53769  0.09819  0.71194  1.0000
  H   H1663     1.0  0.55915  0.12568  0.57928  1.0000
  H   H1664     1.0  0.55307  0.10798  0.61029  1.0000
  H   H1665     1.0  0.56390  0.15399  0.69036  1.0000
  H   H1666     1.0  0.54898  0.09110  0.69865  1.0000
  C   C946      1.0  0.69374  0.04050  0.98812  1.0000
  C   C947      1.0  0.52996  0.11181  0.68480  1.0000
  H   H1667     1.0  0.52197  0.12188  0.61210  1.0000
  C   C948      1.0  0.57227  0.06948  0.02366  1.0000
  S   S215      1.0  0.52746  0.00076  0.30232  1.0000
  H   H1668     1.0  0.58419  0.02520  0.78406  1.0000
  C   C949      1.0  0.63319  0.23783  0.77178  1.0000
  C   C950      1.0  0.53985  0.17707  0.53932  1.0000
  H   H1669     1.0  0.70199  0.04415  0.01149  1.0000
  C   C951      1.0  0.57244  0.00122  0.89507  1.0000
  H   H1670     1.0  0.55752  0.20026  0.78412  1.0000
  S   S216      1.0  0.66589  0.22425  0.06385  1.0000
  C   C952      1.0  0.56137  0.21295  0.77197  1.0000
  N   N54       1.0  0.54883  0.02519  0.02974  1.0000
  H   H1671     1.0  0.55994  0.04291  0.98852  1.0000
  H   H1672     1.0  0.71939  0.23706  0.80434  1.0000
  H   H1673     1.0  0.61323  0.17573  0.02493  1.0000
  C   C953      1.0  0.74570  0.19323  0.91643  1.0000
  H   H1674     1.0  0.56089  0.07865  0.02055  1.0000
  H   H1675     1.0  0.55205  0.10067  0.54332  1.0000
  H   H1676     1.0  0.70414  0.23574  0.36974  1.0000
  H   H1677     1.0  0.64803  0.23752  0.12967  1.0000
  H   H1678     1.0  0.57260  0.01454  0.05391  1.0000
  C   C954      1.0  0.52530  0.24328  0.71673  1.0000
  C   C955      1.0  0.51905  0.02389  0.42786  1.0000
  Fe  Fe107     1.0  0.50569  0.02088  0.29586  1.0000
  H   H1679     1.0  0.51850  0.11799  0.69927  1.0000
  C   C956      1.0  0.68942  0.00003  0.88326  1.0000
  H   H1680     1.0  0.71556  0.03541  0.95107  1.0000
  H   H1681     1.0  0.57077  0.21053  0.74834  1.0000
  H   H1682     1.0  0.73160  0.03348  0.88467  1.0000
  H   H1683     1.0  0.73114  0.16416  0.85983  1.0000
  H   H1684     1.0  0.55223  0.01621  0.95533  1.0000
  H   H1685     1.0  0.53109  0.03671  0.07070  1.0000
  H   H1686     1.0  0.51235  0.01507  0.94655  1.0000
  H   H1687     1.0  0.72734  0.01157  0.92270  1.0000
  C   C957      1.0  0.57555  0.00009  0.76672  1.0000
  H   H1688     1.0  0.71443  0.15033  0.84463  1.0000
  H   H1689     1.0  0.52375  0.02978  0.50496  1.0000
  H   H1690     1.0  0.50222  0.13166  0.65852  1.0000
  H   H1691     1.0  0.52426  0.16348  0.64323  1.0000
  H   H1692     1.0  0.67255  0.01480  0.84421  1.0000
  H   H1693     1.0  0.54671  0.02016  0.44235  1.0000
  C   C958      1.0  0.52025  0.99981  0.47359  1.0000
  H   H1694     1.0  0.73710  0.23355  0.15353  1.0000
  H   H1695     1.0  0.73271  0.23963  0.32961  1.0000
  H   H1696     1.0  0.63193  0.24841  0.75155  1.0000
  H   H1697     1.0  0.53349  0.00284  0.48281  1.0000
  C   C959      1.0  0.61120  0.24512  0.90006  1.0000
  C   C960      1.0  0.69656  0.24756  0.14005  1.0000
  H   H1698     1.0  0.50754  0.23032  0.59369  1.0000
  H   H1699     1.0  0.54956  0.21991  0.76126  1.0000
  H   H1700     1.0  0.66293  0.24565  0.54203  1.0000
  C   C961      1.0  0.50337  0.24105  0.57447  1.0000
  C   C962      1.0  0.56975  0.22345  0.80189  1.0000
  C   C963      1.0  0.62796  0.24574  0.48490  1.0000
  C   C964      1.0  0.63601  0.24445  0.44901  1.0000
  H   H1701     1.0  0.56016  0.22560  0.82518  1.0000
  C   C965      1.0  0.67740  0.24581  0.54033  1.0000
  H   H1702     1.0  0.56323  0.00106  0.78350  1.0000
  C   C966      1.0  0.66702  0.24882  0.16452  1.0000
  H   H1703     1.0  0.53319  0.24804  0.73966  1.0000
  H   H1704     1.0  0.67786  0.24911  0.48081  1.0000
  H   H1705     1.0  0.73150  0.99959  0.85640  1.0000
  H   H1706     1.0  0.62135  0.29729  0.35029  1.0000
  H   H1707     1.0  0.67704  0.26896  0.50665  1.0000
  C   C967      1.0  0.50591  0.43978  0.68961  1.0000
  S   S217      1.0  0.56164  0.29311  0.65701  1.0000
  H   H1708     1.0  0.71012  0.25047  0.14255  1.0000
  H   H1709     1.0  0.72509  0.26157  0.25582  1.0000
  Fe  Fe108     1.0  0.66918  0.27414  0.34679  1.0000
  S   S218      1.0  0.67615  0.30139  0.35866  1.0000
  H   H1710     1.0  0.65756  0.25249  0.18606  1.0000
  Fe  Fe109     1.0  0.68222  0.27659  0.26332  1.0000
  S   S219      1.0  0.68928  0.30448  0.27049  1.0000
  H   H1711     1.0  0.70064  0.43470  0.37138  1.0000
  Fe  Fe110     1.0  0.70088  0.29542  0.32513  1.0000
  S   S220      1.0  0.72731  0.30600  0.33892  1.0000
  Fe  Fe111     1.0  0.66418  0.30839  0.30322  1.0000
  S   S221      1.0  0.64363  0.33061  0.29791  1.0000
  S   S222      1.0  0.69492  0.26762  0.31724  1.0000
  S   S223      1.0  0.65598  0.28113  0.29243  1.0000
  Fe  Fe112     1.0  0.61291  0.46605  0.32407  1.0000
  S   S224      1.0  0.61618  0.48296  0.27223  1.0000
  S   S225      1.0  0.59774  0.47871  0.37178  1.0000
  Fe  Fe113     1.0  0.63709  0.43682  0.29408  1.0000
  S   S226      1.0  0.64177  0.45201  0.24056  1.0000
  S   S227      1.0  0.65460  0.41234  0.30273  1.0000
  Fe  Fe114     1.0  0.64475  0.47533  0.27638  1.0000
  H   H1712     1.0  0.53537  0.39579  0.55169  1.0000
  Fe  Fe115     1.0  0.61284  0.45833  0.24128  1.0000
  S   S228      1.0  0.59627  0.45253  0.19067  1.0000
  S   S229      1.0  0.64160  0.45986  0.32968  1.0000
  S   S230      1.0  0.60793  0.44176  0.29328  1.0000
  H   H1713     1.0  0.60375  0.26188  0.78000  1.0000
  Fe  Fe116     1.0  0.60234  0.25005  0.59626  1.0000
  H   H1714     1.0  0.63932  0.42363  0.12787  1.0000
  Fe  Fe117     1.0  0.52191  0.47062  0.50646  1.0000
  S   S231      1.0  0.53843  0.44917  0.47950  1.0000
  S   S232      1.0  0.51837  0.47432  0.56823  1.0000
  C   C968      1.0  0.58241  0.46914  0.40267  1.0000
  C   C969      1.0  0.57556  0.45294  0.39658  1.0000
  C   C970      1.0  0.56237  0.44658  0.42086  1.0000
  C   C971      1.0  0.55589  0.45650  0.45093  1.0000
  C   C972      1.0  0.56313  0.47241  0.45742  1.0000
  C   C973      1.0  0.57627  0.47871  0.43338  1.0000
  H   H1715     1.0  0.58023  0.44547  0.37295  1.0000
  H   H1716     1.0  0.55690  0.43418  0.41583  1.0000
  H   H1717     1.0  0.55869  0.47990  0.48113  1.0000
  H   H1718     1.0  0.62405  0.33284  0.37732  1.0000
  C   C974      1.0  0.58155  0.46551  0.16299  1.0000
  C   C975      1.0  0.58024  0.48358  0.16508  1.0000
  H   H1719     1.0  0.71991  0.41555  0.45627  1.0000
  C   C976      1.0  0.55842  0.48510  0.11583  1.0000
  C   C977      1.0  0.55956  0.46704  0.11407  1.0000
  C   C978      1.0  0.57112  0.45735  0.13731  1.0000
  H   H1720     1.0  0.50500  0.47588  0.82502  1.0000
  C   C979      1.0  0.51233  0.25136  0.65396  1.0000
  H   H1721     1.0  0.73604  0.26638  0.43897  1.0000
  C   C980      1.0  0.54428  0.40734  0.62164  1.0000
  C   C981      1.0  0.64698  0.35325  0.30058  1.0000
  C   C982      1.0  0.63243  0.36480  0.30395  1.0000
  C   C983      1.0  0.63446  0.38288  0.30501  1.0000
  C   C984      1.0  0.65110  0.38967  0.30216  1.0000
  C   C985      1.0  0.66564  0.37809  0.29920  1.0000
  C   C986      1.0  0.66363  0.36002  0.29848  1.0000
  H   H1722     1.0  0.61949  0.35973  0.30591  1.0000
  H   H1723     1.0  0.62320  0.39154  0.30854  1.0000
  H   H1724     1.0  0.67859  0.38315  0.29734  1.0000
  H   H1725     1.0  0.67496  0.35134  0.29591  1.0000
  S   S233      1.0  0.52862  0.48955  0.97985  1.0000
  H   H1726     1.0  0.59042  0.49109  0.96975  1.0000
  C   C987      1.0  0.59827  0.29774  0.47470  1.0000
  C   C988      1.0  0.51312  0.47587  0.39805  1.0000
  C   C989      1.0  0.72760  0.46894  0.37509  1.0000
  H   H1727     1.0  0.73616  0.27003  0.36135  1.0000
  H   H1728     1.0  0.61982  0.36337  0.15403  1.0000
  C   C990      1.0  0.54454  0.30219  0.68572  1.0000
  C   C991      1.0  0.53893  0.29418  0.71912  1.0000
  C   C992      1.0  0.52550  0.30204  0.74124  1.0000
  H   H1729     1.0  0.54501  0.28201  0.72792  1.0000
  N   N55       1.0  0.60865  0.30144  0.40455  1.0000
  C   C993      1.0  0.60049  0.29017  0.43496  1.0000
  C   C994      1.0  0.61976  0.36493  0.18478  1.0000
  H   H1730     1.0  0.72268  0.43515  0.35678  1.0000
  H   H1731     1.0  0.59265  0.31110  0.47446  1.0000
  H   H1732     1.0  0.66228  0.40531  0.15450  1.0000
  H   H1733     1.0  0.73974  0.31956  0.20773  1.0000
  S   S234      1.0  0.57338  0.25572  0.59424  1.0000
  C   C995      1.0  0.53488  0.39052  0.63389  1.0000
  H   H1734     1.0  0.62721  0.42805  0.06549  1.0000
  C   C996      1.0  0.50944  0.39516  0.53035  1.0000
  H   H1735     1.0  0.57140  0.28674  0.77612  1.0000
  H   H1736     1.0  0.61429  0.26244  0.85287  1.0000
  H   H1737     1.0  0.72207  0.40940  0.40802  1.0000
  H   H1738     1.0  0.53988  0.28780  0.84115  1.0000
  C   C997      1.0  0.58554  0.32693  0.40822  1.0000
  H   H1739     1.0  0.53351  0.26863  0.86759  1.0000
  H   H1740     1.0  0.56682  0.43437  0.61445  1.0000
  C   C998      1.0  0.70848  0.46265  0.32425  1.0000
  N   N56       1.0  0.71077  0.46056  0.36595  1.0000
  H   H1741     1.0  0.61117  0.29801  0.48800  1.0000
  H   H1742     1.0  0.60627  0.36837  0.19440  1.0000
  N   N57       1.0  0.53323  0.42176  0.60388  1.0000
  C   C999      1.0  0.72895  0.31343  0.22378  1.0000
  C   C1000     1.0  0.69234  0.45449  0.30772  1.0000
  C   C1001     1.0  0.69389  0.45404  0.26507  1.0000
  H   H1743     1.0  0.61459  0.40841  0.25332  1.0000
  H   H1744     1.0  0.58449  0.40540  0.27628  1.0000
  H   H1745     1.0  0.61592  0.42313  0.12959  1.0000
  H   H1746     1.0  0.63432  0.37836  0.22612  1.0000
  H   H1747     1.0  0.68293  0.44851  0.41863  1.0000
  H   H1748     1.0  0.72035  0.45742  0.30915  1.0000
  H   H1749     1.0  0.54915  0.38535  0.68512  1.0000
  H   H1750     1.0  0.61648  0.40773  0.06925  1.0000
  C   C1002     1.0  0.52309  0.32599  0.69682  1.0000
  H   H1751     1.0  0.52246  0.39312  0.64938  1.0000
  H   H1752     1.0  0.71163  0.44573  0.43692  1.0000
  H   H1753     1.0  0.64260  0.28488  0.50772  1.0000
  C   C1003     1.0  0.53655  0.31814  0.67478  1.0000
  C   C1004     1.0  0.60339  0.25592  0.86783  1.0000
  H   H1754     1.0  0.64009  0.40808  0.06762  1.0000
  H   H1755     1.0  0.66058  0.48025  0.39324  1.0000
  H   H1756     1.0  0.62373  0.34793  0.23353  1.0000
  C   C1005     1.0  0.50692  0.49030  0.16885  1.0000
  C   C1006     1.0  0.71855  0.43719  0.41648  1.0000
  H   H1757     1.0  0.70718  0.47659  0.31587  1.0000
  H   H1758     1.0  0.70456  0.44482  0.25624  1.0000
  H   H1759     1.0  0.57826  0.48407  0.29337  1.0000
  H   H1760     1.0  0.70904  0.32167  0.41160  1.0000
  C   C1007     1.0  0.62918  0.39759  0.13953  1.0000
  H   H1761     1.0  0.59620  0.27733  0.81329  1.0000
  C   C1008     1.0  0.63290  0.32351  0.39224  1.0000
  H   H1762     1.0  0.51000  0.42628  0.57170  1.0000
  H   H1763     1.0  0.50929  0.49046  0.76381  1.0000
  C   C1009     1.0  0.54456  0.43222  0.57723  1.0000
  H   H1764     1.0  0.55886  0.37524  0.64398  1.0000
  C   C1010     1.0  0.55903  0.44264  0.59482  1.0000
  H   H1765     1.0  0.58759  0.28583  0.42609  1.0000
  H   H1766     1.0  0.55323  0.45390  0.61000  1.0000
  H   H1767     1.0  0.71640  0.31821  0.21186  1.0000
  C   C1011     1.0  0.56639  0.26150  0.83598  1.0000
  C   C1012     1.0  0.57132  0.44999  0.56462  1.0000
  C   C1013     1.0  0.61477  0.26552  0.32903  1.0000
  H   H1768     1.0  0.61658  0.27457  0.30476  1.0000
  H   H1769     1.0  0.54012  0.47085  0.38206  1.0000
  H   H1770     1.0  0.51797  0.44464  0.61938  1.0000
  H   H1771     1.0  0.53638  0.44157  0.56053  1.0000
  H   H1772     1.0  0.55126  0.42365  0.55637  1.0000
  C   C1014     1.0  0.58657  0.28656  0.49979  1.0000
  H   H1773     1.0  0.58621  0.29149  0.52873  1.0000
  H   H1774     1.0  0.55166  0.46051  0.09457  1.0000
  S   S235      1.0  0.50739  0.46797  0.04565  1.0000
  H   H1775     1.0  0.60019  0.39639  0.17859  1.0000
  H   H1776     1.0  0.53450  0.27495  0.62256  1.0000
  H   H1777     1.0  0.72978  0.46807  0.40572  1.0000
  H   H1778     1.0  0.66804  0.43262  0.18655  1.0000
  H   H1779     1.0  0.56479  0.33184  0.36826  1.0000
  H   H1780     1.0  0.57201  0.44340  0.13532  1.0000
  H   H1781     1.0  0.59437  0.26595  0.87995  1.0000
  C   C1015     1.0  0.59506  0.31270  0.38493  1.0000
  H   H1782     1.0  0.50912  0.48808  0.67633  1.0000
  H   H1783     1.0  0.56395  0.45863  0.54484  1.0000
  H   H1784     1.0  0.58133  0.45771  0.57775  1.0000
  H   H1785     1.0  0.57804  0.43942  0.54873  1.0000
  H   H1786     1.0  0.68590  0.41694  0.19044  1.0000
  H   H1787     1.0  0.70815  0.31953  0.46187  1.0000
  H   H1788     1.0  0.72545  0.29546  0.43306  1.0000
  H   H1789     1.0  0.71943  0.28824  0.23738  1.0000
  H   H1790     1.0  0.65368  0.34175  0.39041  1.0000
  H   H1791     1.0  0.55078  0.47033  0.31198  1.0000
  H   H1792     1.0  0.59988  0.29981  0.76155  1.0000
  C   C1016     1.0  0.74713  0.27788  0.36677  1.0000
  H   H1793     1.0  0.51107  0.49620  0.32456  1.0000
  C   C1017     1.0  0.52871  0.47820  0.37018  1.0000
  C   C1018     1.0  0.67211  0.41982  0.19891  1.0000
  H   H1794     1.0  0.56965  0.27449  0.84608  1.0000
  H   H1795     1.0  0.63746  0.42275  0.19113  1.0000
  C   C1019     1.0  0.52565  0.43386  0.63312  1.0000
  H   H1796     1.0  0.61581  0.33741  0.19337  1.0000
  H   H1797     1.0  0.65653  0.28260  0.44432  1.0000
  H   H1798     1.0  0.60727  0.38692  0.24605  1.0000
  C   C1020     1.0  0.62270  0.31201  0.42058  1.0000
  C   C1021     1.0  0.51755  0.31802  0.73036  1.0000
  C   C1022     1.0  0.73051  0.29371  0.22134  1.0000
  H   H1799     1.0  0.63236  0.30325  0.43485  1.0000
  N   N58       1.0  0.53340  0.49665  0.36065  1.0000
  H   H1800     1.0  0.68947  0.31434  0.43484  1.0000
  H   H1801     1.0  0.64568  0.37433  0.18370  1.0000
  H   H1802     1.0  0.53173  0.38301  0.60908  1.0000
  H   H1803     1.0  0.50208  0.49638  0.84765  1.0000
  H   H1804     1.0  0.55092  0.41226  0.64637  1.0000
  C   C1023     1.0  0.64847  0.27239  0.45524  1.0000
  C   C1024     1.0  0.50790  0.41790  0.90046  1.0000
  H   H1805     1.0  0.69069  0.25804  0.42812  1.0000
  H   H1806     1.0  0.69044  0.44101  0.31771  1.0000
  H   H1807     1.0  0.51517  0.45956  0.13291  1.0000
  C   C1025     1.0  0.70326  0.25661  0.50179  1.0000
  H   H1808     1.0  0.53613  0.43993  0.64843  1.0000
  H   H1809     1.0  0.67131  0.42047  0.22987  1.0000
  H   H1810     1.0  0.60085  0.31898  0.35938  1.0000
  H   H1811     1.0  0.51815  0.44815  0.40713  1.0000
  H   H1812     1.0  0.57780  0.39893  0.23088  1.0000
  H   H1813     1.0  0.70094  0.41604  0.42757  1.0000
  H   H1814     1.0  0.54085  0.32452  0.64911  1.0000
  H   H1815     1.0  0.55510  0.40308  0.60224  1.0000
  H   H1816     1.0  0.52875  0.41425  0.52347  1.0000
  C   C1026     1.0  0.64058  0.27360  0.49126  1.0000
  C   C1027     1.0  0.70997  0.24995  0.87375  1.0000
  H   H1817     1.0  0.50989  0.48344  0.19577  1.0000
  H   H1818     1.0  0.58823  0.49008  0.18445  1.0000
  H   H1819     1.0  0.58463  0.30469  0.37435  1.0000
  H   H1820     1.0  0.64008  0.31539  0.37152  1.0000
  C   C1028     1.0  0.64640  0.33394  0.41168  1.0000
  H   H1821     1.0  0.53311  0.25637  0.59543  1.0000
  C   C1029     1.0  0.66062  0.40566  0.18530  1.0000
  H   H1822     1.0  0.57649  0.32091  0.42893  1.0000
  C   C1030     1.0  0.56621  0.48700  0.27753  1.0000
  H   H1823     1.0  0.60375  0.26506  0.38445  1.0000
  H   H1824     1.0  0.64098  0.40796  0.22861  1.0000
  Fe  Fe118     1.0  0.52474  0.49067  0.04278  1.0000
  N   N59       1.0  0.50877  0.26453  0.62301  1.0000
  H   H1825     1.0  0.51950  0.49023  0.15275  1.0000
  H   H1826     1.0  0.66907  0.47644  0.43953  1.0000
  C   C1031     1.0  0.62796  0.41478  0.07817  1.0000
  C   C1032     1.0  0.66487  0.47012  0.41388  1.0000
  H   H1827     1.0  0.67471  0.45227  0.37282  1.0000
  C   C1033     1.0  0.52445  0.28064  0.56810  1.0000
  C   C1034     1.0  0.58190  0.27854  0.76299  1.0000
  H   H1828     1.0  0.70737  0.29043  0.40494  1.0000
  H   H1829     1.0  0.59300  0.27989  0.35233  1.0000
  C   C1035     1.0  0.58714  0.40679  0.24572  1.0000
  H   H1830     1.0  0.68051  0.46252  0.31498  1.0000
  C   C1036     1.0  0.71514  0.41838  0.42764  1.0000
  H   H1831     1.0  0.57629  0.27026  0.74186  1.0000
  H   H1832     1.0  0.54979  0.26949  0.78819  1.0000
  H   H1833     1.0  0.73367  0.25941  0.19394  1.0000
  H   H1834     1.0  0.64124  0.39077  0.12878  1.0000
  C   C1037     1.0  0.70393  0.31379  0.43558  1.0000
  H   H1835     1.0  0.61831  0.39026  0.12839  1.0000
  C   C1038     1.0  0.74002  0.25018  0.48866  1.0000
  H   H1836     1.0  0.51703  0.47884  0.42675  1.0000
  H   H1837     1.0  0.58299  0.34603  0.36256  1.0000
  C   C1039     1.0  0.68458  0.25257  0.16873  1.0000
  C   C1040     1.0  0.62802  0.41592  0.12073  1.0000
  C   C1041     1.0  0.52437  0.40507  0.54591  1.0000
  C   C1042     1.0  0.70347  0.28345  0.46458  1.0000
  H   H1838     1.0  0.56749  0.34896  0.40072  1.0000
  S   S236      1.0  0.69243  0.26317  0.20903  1.0000
  H   H1839     1.0  0.70041  0.47442  0.41430  1.0000
  H   H1840     1.0  0.72971  0.49034  0.33330  1.0000
  S   S237      1.0  0.60452  0.26188  0.65318  1.0000
  S   S238      1.0  0.65671  0.25510  0.38908  1.0000
  C   C1043     1.0  0.71104  0.29512  0.43257  1.0000
  C   C1044     1.0  0.71283  0.44151  0.37591  1.0000
  H   H1841     1.0  0.56833  0.48494  0.98072  1.0000
  C   C1045     1.0  0.72882  0.48842  0.36412  1.0000
  H   H1842     1.0  0.74439  0.49571  0.41108  1.0000
  H   H1843     1.0  0.53829  0.48661  0.28632  1.0000
  H   H1844     1.0  0.73277  0.43902  0.41874  1.0000
  H   H1845     1.0  0.73894  0.46191  0.36155  1.0000
  H   H1846     1.0  0.62936  0.28341  0.38662  1.0000
  C   C1046     1.0  0.74503  0.49616  0.38002  1.0000
  C   C1047     1.0  0.57454  0.33914  0.38328  1.0000
  H   H1847     1.0  0.72914  0.29047  0.19156  1.0000
  H   H1848     1.0  0.74840  0.29136  0.26629  1.0000
  C   C1048     1.0  0.53541  0.27435  0.83906  1.0000
  Fe  Fe119     1.0  0.50921  0.46812  0.98251  1.0000
  H   H1849     1.0  0.50987  0.40698  0.59880  1.0000
  H   H1850     1.0  0.58678  0.29851  0.72073  1.0000
  C   C1049     1.0  0.69590  0.46951  0.38730  1.0000
  H   H1851     1.0  0.53953  0.36670  0.66610  1.0000
  C   C1050     1.0  0.74789  0.26127  0.19731  1.0000
  C   C1051     1.0  0.56888  0.49328  0.14144  1.0000
  C   C1052     1.0  0.50723  0.45718  0.39898  1.0000
  H   H1852     1.0  0.57308  0.28692  0.48930  1.0000
  H   H1853     1.0  0.59474  0.33500  0.42275  1.0000
  C   C1053     1.0  0.57654  0.49329  0.96231  1.0000
  H   H1854     1.0  0.61745  0.32064  0.44274  1.0000
  C   C1054     1.0  0.60590  0.40067  0.23667  1.0000
  H   H1855     1.0  0.57500  0.48938  0.93295  1.0000
  C   C1055     1.0  0.61718  0.28968  0.37562  1.0000
  H   H1856     1.0  0.62764  0.25981  0.33721  1.0000
  H   H1857     1.0  0.65353  0.46207  0.42126  1.0000
  H   H1858     1.0  0.51056  0.28816  0.65400  1.0000
  N   N60       1.0  0.58165  0.25376  0.81366  1.0000
  H   H1859     1.0  0.51622  0.44631  0.70459  1.0000
  C   C1056     1.0  0.70500  0.25611  0.43179  1.0000
  H   H1860     1.0  0.70563  0.28992  0.49152  1.0000
  H   H1861     1.0  0.69131  0.48129  0.37149  1.0000
  H   H1862     1.0  0.52129  0.29576  0.76706  1.0000
  C   C1057     1.0  0.74613  0.29565  0.35845  1.0000
  H   H1863     1.0  0.69648  0.46710  0.25303  1.0000
  H   H1864     1.0  0.63831  0.34321  0.19434  1.0000
  C   C1058     1.0  0.51858  0.41520  0.58140  1.0000
  C   C1059     1.0  0.54860  0.26339  0.81630  1.0000
  H   H1865     1.0  0.65587  0.32516  0.42646  1.0000
  H   H1866     1.0  0.66568  0.39317  0.19747  1.0000
  H   H1867     1.0  0.71093  0.26223  0.40633  1.0000
  H   H1868     1.0  0.68149  0.44975  0.25376  1.0000
  C   C1060     1.0  0.59416  0.29076  0.74202  1.0000
  C   C1061     1.0  0.62477  0.34733  0.20259  1.0000
  C   C1062     1.0  0.54638  0.37879  0.65876  1.0000
  H   H1869     1.0  0.68913  0.28386  0.46076  1.0000
  H   H1870     1.0  0.56113  0.49106  0.35511  1.0000
  H   H1871     1.0  0.73722  0.25096  0.51922  1.0000
  C   C1063     1.0  0.67970  0.45873  0.39737  1.0000
  H   H1872     1.0  0.56615  0.47819  0.25345  1.0000
  H   H1873     1.0  0.64957  0.25167  0.80824  1.0000
  Fe  Fe120     1.0  0.57532  0.26633  0.65180  1.0000
  C   C1064     1.0  0.63031  0.26029  0.50648  1.0000
  H   H1874     1.0  0.51432  0.38742  0.50628  1.0000
  H   H1875     1.0  0.59168  0.27292  0.50086  1.0000
  H   H1876     1.0  0.51575  0.26867  0.70118  1.0000
  H   H1877     1.0  0.60804  0.41696  0.18766  1.0000
  H   H1878     1.0  0.60482  0.28329  0.72740  1.0000
  H   H1879     1.0  0.58505  0.42065  0.23745  1.0000
  C   C1065     1.0  0.64631  0.25774  0.43390  1.0000
  C   C1066     1.0  0.51397  0.42580  0.66428  1.0000
  N   N61       1.0  0.62838  0.39706  0.18172  1.0000
  C   C1067     1.0  0.64127  0.40899  0.19759  1.0000
  C   C1068     1.0  0.61026  0.40295  0.19435  1.0000
  C   C1069     1.0  0.63275  0.37882  0.19528  1.0000
  H   H1880     1.0  0.63994  0.34291  0.43195  1.0000
  S   S239      1.0  0.62120  0.26251  0.55268  1.0000
  C   C1070     1.0  0.60589  0.27490  0.36182  1.0000
  H   H1881     1.0  0.60868  0.27808  0.43941  1.0000
  H   H1882     1.0  0.73946  0.26545  0.29194  1.0000
  S   S240      1.0  0.51349  0.44201  0.95401  1.0000
  H   H1883     1.0  0.71730  0.49589  0.37508  1.0000
  H   H1884     1.0  0.52265  0.27492  0.82502  1.0000
  H   H1885     1.0  0.58161  0.49118  0.43844  1.0000
  H   H1886     1.0  0.50391  0.38623  0.55200  1.0000
  C   C1071     1.0  0.55013  0.49591  0.33748  1.0000
  H   H1887     1.0  0.52184  0.41686  0.68240  1.0000
  C   C1072     1.0  0.59171  0.26772  0.79336  1.0000
  H   H1888     1.0  0.50250  0.45362  0.37123  1.0000
  S   S241      1.0  0.66789  0.49285  0.26415  1.0000
  C   C1073     1.0  0.73030  0.26536  0.46776  1.0000
  C   C1074     1.0  0.73878  0.25912  0.26445  1.0000
  H   H1889     1.0  0.72920  0.31739  0.25342  1.0000
  H   H1890     1.0  0.51908  0.29363  0.57571  1.0000
  H   H1891     1.0  0.71298  0.26037  0.85292  1.0000
  H   H1892     1.0  0.51583  0.40923  0.91773  1.0000
  C   C1075     1.0  0.74809  0.28663  0.23716  1.0000
  H   H1893     1.0  0.73432  0.27720  0.48202  1.0000
  H   H1894     1.0  0.70758  0.26364  0.52657  1.0000
  H   H1895     1.0  0.51712  0.33827  0.68805  1.0000
  H   H1896     1.0  0.69969  0.25496  0.89350  1.0000
  H   H1897     1.0  0.52538  0.47138  0.34446  1.0000
  N   N62       1.0  0.71059  0.26495  0.46642  1.0000
  H   H1898     1.0  0.68197  0.25212  0.56566  1.0000
  C   C1076     1.0  0.54233  0.28327  0.54960  1.0000
  S   S242      1.0  0.54425  0.49811  0.08692  1.0000
  H   H1899     1.0  0.51606  0.27527  0.54682  1.0000
  C   C1077     1.0  0.68312  0.25576  0.50495  1.0000
  C   C1078     1.0  0.50470  0.43513  0.91146  1.0000
  H   H1900     1.0  0.50388  0.39866  0.85877  1.0000
  C   C1079     1.0  0.55019  0.48419  0.30286  1.0000
  H   H1901     1.0  0.50322  0.41872  0.65255  1.0000
  C   C1080     1.0  0.51099  0.49810  0.78922  1.0000
  H   H1902     1.0  0.52489  0.49698  0.79683  1.0000
  H   H1903     1.0  0.55134  0.28873  0.56971  1.0000
  S   S243      1.0  0.52648  0.49861  0.49453  1.0000
  H   H1904     1.0  0.54796  0.27080  0.53919  1.0000
  H   H1905     1.0  0.75142  0.27149  0.17622  1.0000
  N   N63       1.0  0.75126  0.26720  0.23644  1.0000
  H   H1906     1.0  0.53576  0.26184  0.67765  1.0000
  C   C1081     1.0  0.52581  0.26853  0.60328  1.0000
  H   H1907     1.0  0.60659  0.25485  0.32034  1.0000
  C   C1082     1.0  0.52269  0.25770  0.68723  1.0000
  H   H1908     1.0  0.54104  0.29249  0.52545  1.0000
  H   H1909     1.0  0.54636  0.49751  0.41329  1.0000
  H   H1910     1.0  0.61915  0.25338  0.91738  1.0000
  H   H1911     1.0  0.56382  0.25363  0.86192  1.0000
  H   H1912     1.0  0.54303  0.25048  0.81306  1.0000
  Fe  Fe121     1.0  0.69129  0.65824  0.72436  1.0000
  S   S244      1.0  0.71195  0.63709  0.73105  1.0000
  S   S245      1.0  0.66413  0.65432  0.75124  1.0000
  Fe  Fe122     1.0  0.71780  0.68342  0.69167  1.0000
  S   S246      1.0  0.74000  0.66345  0.69642  1.0000
  S   S247      1.0  0.72685  0.71026  0.67258  1.0000
  Fe  Fe123     1.0  0.72142  0.64489  0.67303  1.0000
  S   S248      1.0  0.72987  0.62175  0.63652  1.0000
  Fe  Fe124     1.0  0.72907  0.65720  0.75407  1.0000
  C   C1083     1.0  0.51831  0.50560  0.34077  1.0000
  S   S249      1.0  0.69965  0.66508  0.66488  1.0000
  S   S250      1.0  0.70790  0.67805  0.75068  1.0000
  H   H1913     1.0  0.69106  0.71903  0.64912  1.0000
  H   H1914     1.0  0.55473  0.52532  0.37612  1.0000
  C   C1084     1.0  0.57096  0.51238  0.96619  1.0000
  Fe  Fe125     1.0  0.73608  0.55284  0.37894  1.0000
  H   H1915     1.0  0.74119  0.59120  0.84263  1.0000
  S   S251      1.0  0.71239  0.53533  0.37811  1.0000
  H   H1916     1.0  0.70467  0.56288  0.51287  1.0000
  H   H1917     1.0  0.71481  0.58908  0.69030  1.0000
  H   H1918     1.0  0.57664  0.56176  0.01004  1.0000
  S   S252      1.0  0.73439  0.58180  0.36760  1.0000
  Fe  Fe126     1.0  0.53223  0.59986  0.70926  1.0000
  S   S253      1.0  0.51991  0.60908  0.76332  1.0000
  S   S254      1.0  0.51436  0.58594  0.67176  1.0000
  Fe  Fe127     1.0  0.56767  0.61567  0.72485  1.0000
  S   S255      1.0  0.55760  0.62540  0.78018  1.0000
  S   S256      1.0  0.59451  0.62029  0.69690  1.0000
  Fe  Fe128     1.0  0.54514  0.59933  0.78845  1.0000
  S   S257      1.0  0.54972  0.58038  0.83809  1.0000
  Fe  Fe129     1.0  0.53317  0.63413  0.74940  1.0000
  H   H1919     1.0  0.70988  0.60208  0.83576  1.0000
  S   S258      1.0  0.55683  0.58917  0.73459  1.0000
  S   S259      1.0  0.54383  0.62535  0.69386  1.0000
  H   H1920     1.0  0.70064  0.60650  0.55909  1.0000
  C   C1085     1.0  0.69928  0.57629  0.51640  1.0000
  H   H1921     1.0  0.55245  0.54389  0.43003  1.0000
  H   H1922     1.0  0.75120  0.67317  0.12693  1.0000
  H   H1923     1.0  0.68733  0.57796  0.49963  1.0000
  S   S260      1.0  0.53916  0.51686  0.59088  1.0000
  C   C1086     1.0  0.52152  0.56677  0.64953  1.0000
  H   H1924     1.0  0.52460  0.50605  0.41463  1.0000
  C   C1087     1.0  0.51479  0.54225  0.61146  1.0000
  C   C1088     1.0  0.53209  0.53606  0.61314  1.0000
  C   C1089     1.0  0.54404  0.54516  0.63340  1.0000
  C   C1090     1.0  0.53879  0.56051  0.65150  1.0000
  H   H1925     1.0  0.67972  0.51865  0.38592  1.0000
  H   H1926     1.0  0.57976  0.51989  0.94745  1.0000
  H   H1927     1.0  0.55745  0.54042  0.63477  1.0000
  H   H1928     1.0  0.54815  0.56757  0.66659  1.0000
  C   C1091     1.0  0.53537  0.56572  0.86116  1.0000
  C   C1092     1.0  0.51755  0.56963  0.86633  1.0000
  C   C1093     1.0  0.75074  0.67466  0.90269  1.0000
  H   H1929     1.0  0.70032  0.59660  0.72728  1.0000
  C   C1094     1.0  0.53189  0.53928  0.89985  1.0000
  C   C1095     1.0  0.54238  0.55033  0.87758  1.0000
  C   C1096     1.0  0.50631  0.53142  0.30282  1.0000
  H   H1930     1.0  0.53748  0.52755  0.91231  1.0000
  H   H1931     1.0  0.55608  0.54706  0.87329  1.0000
  H   H1932     1.0  0.56639  0.50056  0.26664  1.0000
  C   C1097     1.0  0.54747  0.53061  0.43280  1.0000
  H   H1933     1.0  0.69533  0.57739  0.70258  1.0000
  C   C1098     1.0  0.69986  0.52451  0.34496  1.0000
  C   C1099     1.0  0.70542  0.52226  0.30776  1.0000
  C   C1100     1.0  0.54640  0.53748  0.00965  1.0000
  H   H1934     1.0  0.51195  0.58146  0.85418  1.0000
  H   H1935     1.0  0.67522  0.59996  0.83954  1.0000
  C   C1101     1.0  0.68419  0.51703  0.35726  1.0000
  H   H1936     1.0  0.71743  0.52783  0.29780  1.0000
  H   H1937     1.0  0.57070  0.55155  0.73980  1.0000
  H   H1938     1.0  0.51286  0.69818  0.73674  1.0000
  H   H1939     1.0  0.53459  0.55275  0.05511  1.0000
  C   C1102     1.0  0.70346  0.64588  0.84641  1.0000
  C   C1103     1.0  0.50708  0.55861  0.88870  1.0000
  H   H1940     1.0  0.70192  0.67669  0.88691  1.0000
  H   H1941     1.0  0.68848  0.57976  0.63492  1.0000
  H   H1942     1.0  0.52994  0.52957  0.15590  1.0000
  H   H1943     1.0  0.51022  0.50673  0.64494  1.0000
  C   C1104     1.0  0.50470  0.55745  0.77780  1.0000
  H   H1944     1.0  0.74156  0.74101  0.64153  1.0000
  H   H1945     1.0  0.69194  0.60773  0.89041  1.0000
  H   H1946     1.0  0.53863  0.55423  0.73473  1.0000
  C   C1105     1.0  0.64489  0.64492  0.73528  1.0000
  C   C1106     1.0  0.64262  0.64112  0.69774  1.0000
  C   C1107     1.0  0.62702  0.63385  0.68657  1.0000
  C   C1108     1.0  0.61364  0.62993  0.71275  1.0000
  C   C1109     1.0  0.61595  0.63369  0.75030  1.0000
  C   C1110     1.0  0.63137  0.64134  0.76135  1.0000
  H   H1947     1.0  0.65278  0.64398  0.67730  1.0000
  H   H1948     1.0  0.62527  0.63123  0.65739  1.0000
  H   H1949     1.0  0.60593  0.63057  0.77090  1.0000
  H   H1950     1.0  0.63293  0.64426  0.79045  1.0000
  C   C1111     1.0  0.73254  0.61822  0.58751  1.0000
  H   H1951     1.0  0.54614  0.52047  0.23175  1.0000
  C   C1112     1.0  0.53124  0.52080  0.18074  1.0000
  C   C1113     1.0  0.73588  0.61068  0.50995  1.0000
  C   C1114     1.0  0.72946  0.62700  0.52199  1.0000
  C   C1115     1.0  0.72785  0.63079  0.56042  1.0000
  H   H1952     1.0  0.74574  0.50995  0.37072  1.0000
  H   H1953     1.0  0.72291  0.64340  0.56904  1.0000
  H   H1954     1.0  0.74563  0.72219  0.02805  1.0000
  C   C1116     1.0  0.71716  0.72821  0.64784  1.0000
  C   C1117     1.0  0.69935  0.72949  0.64045  1.0000
  H   H1955     1.0  0.67715  0.62234  0.95942  1.0000
  H   H1956     1.0  0.54770  0.53471  0.71436  1.0000
  H   H1957     1.0  0.53231  0.53299  0.38379  1.0000
  H   H1958     1.0  0.68153  0.66131  0.82344  1.0000
  H   H1959     1.0  0.56014  0.55153  0.78535  1.0000
  H   H1960     1.0  0.73596  0.67827  0.85199  1.0000
  H   H1961     1.0  0.66211  0.50205  0.34277  1.0000
  H   H1962     1.0  0.55602  0.56333  0.95906  1.0000
  C   C1118     1.0  0.72897  0.61488  0.86496  1.0000
  H   H1963     1.0  0.71015  0.64868  0.81904  1.0000
  H   H1964     1.0  0.57959  0.53651  0.13046  1.0000
  H   H1965     1.0  0.74698  0.60453  0.25211  1.0000
  C   C1119     1.0  0.50495  0.67217  0.72788  1.0000
  C   C1120     1.0  0.69546  0.51263  0.28344  1.0000
  H   H1966     1.0  0.74551  0.58552  0.52842  1.0000
  H   H1967     1.0  0.50764  0.52965  0.21042  1.0000
  Fe  Fe130     1.0  0.50484  0.50737  0.97607  1.0000
  H   H1968     1.0  0.67615  0.62489  0.88761  1.0000
  H   H1969     1.0  0.58669  0.51655  0.01276  1.0000
  C   C1121     1.0  0.50312  0.69037  0.72485  1.0000
  N   N64       1.0  0.51485  0.52737  0.75303  1.0000
  H   H1970     1.0  0.53222  0.52942  0.32358  1.0000
  H   H1971     1.0  0.73336  0.62789  0.87150  1.0000
  H   H1972     1.0  0.53212  0.53623  0.79506  1.0000
  H   H1973     1.0  0.54486  0.56573  0.01925  1.0000
  C   C1122     1.0  0.54476  0.54132  0.74107  1.0000
  C   C1123     1.0  0.72774  0.74195  0.63631  1.0000
  H   H1974     1.0  0.53961  0.73483  0.71109  1.0000
  C   C1124     1.0  0.53286  0.53024  0.76699  1.0000
  C   C1125     1.0  0.51644  0.51763  0.71698  1.0000
  H   H1975     1.0  0.51595  0.50904  0.22489  1.0000
  H   H1976     1.0  0.52521  0.50593  0.72030  1.0000
  N   N65       1.0  0.69805  0.62729  0.84837  1.0000
  C   C1126     1.0  0.74062  0.59814  0.53708  1.0000
  S   S261      1.0  0.73710  0.60661  0.46093  1.0000
  H   H1977     1.0  0.51093  0.54625  0.01056  1.0000
  C   C1127     1.0  0.69049  0.62204  0.88623  1.0000
  C   C1128     1.0  0.74466  0.60468  0.84844  1.0000
  H   H1978     1.0  0.71337  0.64834  0.86743  1.0000
  C   C1129     1.0  0.68841  0.65974  0.85034  1.0000
  H   H1979     1.0  0.50592  0.52357  0.81048  1.0000
  H   H1980     1.0  0.53988  0.52627  0.02346  1.0000
  H   H1981     1.0  0.57523  0.57138  0.90657  1.0000
  C   C1130     1.0  0.69221  0.74448  0.62241  1.0000
  H   H1982     1.0  0.67838  0.74544  0.61751  1.0000
  H   H1983     1.0  0.70713  0.57625  0.57342  1.0000
  Fe  Fe131     1.0  0.52059  0.50270  0.55541  1.0000
  H   H1984     1.0  0.59011  0.52099  0.07321  1.0000
  H   H1985     1.0  0.58749  0.55653  0.11014  1.0000
  S   S262      1.0  0.74740  0.55523  0.43661  1.0000
  H   H1986     1.0  0.72573  0.63682  0.50135  1.0000
  C   C1131     1.0  0.69786  0.63073  0.92097  1.0000
  C   C1132     1.0  0.66240  0.60687  0.78824  1.0000
  H   H1987     1.0  0.50667  0.54475  0.08770  1.0000
  N   N66       1.0  0.68054  0.60247  0.60193  1.0000
  C   C1133     1.0  0.68025  0.62187  0.60635  1.0000
  C   C1134     1.0  0.69152  0.59372  0.63197  1.0000
  C   C1135     1.0  0.68896  0.59857  0.56417  1.0000
  C   C1136     1.0  0.66241  0.59553  0.60219  1.0000
  C   C1137     1.0  0.65123  0.59793  0.63833  1.0000
  C   C1138     1.0  0.67041  0.63287  0.57627  1.0000
  C   C1139     1.0  0.69064  0.60170  0.67155  1.0000
  C   C1140     1.0  0.63220  0.59382  0.63226  1.0000
  C   C1141     1.0  0.67143  0.65219  0.58379  1.0000
  H   H1988     1.0  0.69390  0.62634  0.60649  1.0000
  H   H1989     1.0  0.67443  0.62568  0.63372  1.0000
  H   H1990     1.0  0.67993  0.60238  0.54128  1.0000
  H   H1991     1.0  0.65497  0.60114  0.57825  1.0000
  H   H1992     1.0  0.66297  0.58138  0.59740  1.0000
  H   H1993     1.0  0.65143  0.61134  0.64828  1.0000
  H   H1994     1.0  0.65609  0.58883  0.66050  1.0000
  H   H1995     1.0  0.67619  0.63074  0.54796  1.0000
  H   H1996     1.0  0.65642  0.62976  0.57639  1.0000
  H   H1997     1.0  0.68511  0.57017  0.56704  1.0000
  H   H1998     1.0  0.69651  0.61460  0.67064  1.0000
  H   H1999     1.0  0.67720  0.60352  0.68280  1.0000
  H   H2000     1.0  0.63115  0.58036  0.62258  1.0000
  H   H2001     1.0  0.62462  0.59511  0.65901  1.0000
  H   H2002     1.0  0.62629  0.60300  0.61140  1.0000
  H   H2003     1.0  0.66427  0.65985  0.56203  1.0000
  H   H2004     1.0  0.66548  0.65528  0.61157  1.0000
  H   H2005     1.0  0.68523  0.65609  0.58288  1.0000
  H   H2006     1.0  0.70910  0.58540  0.50535  1.0000
  C   C1142     1.0  0.69508  0.57943  0.55774  1.0000
  H   H2007     1.0  0.70559  0.59401  0.62355  1.0000
  C   C1143     1.0  0.70090  0.59042  0.69957  1.0000
  Fe  Fe132     1.0  0.74683  0.58396  0.42398  1.0000
  H   H2008     1.0  0.52836  0.51515  0.28662  1.0000
  H   H2009     1.0  0.69672  0.62858  0.98155  1.0000
  C   C1144     1.0  0.67421  0.50749  0.33291  1.0000
  H   H2010     1.0  0.54346  0.53639  0.97965  1.0000
  H   H2011     1.0  0.69649  0.60814  0.95854  1.0000
  C   C1145     1.0  0.58111  0.56703  0.93344  1.0000
  C   C1146     1.0  0.54325  0.52932  0.20766  1.0000
  H   H2012     1.0  0.67867  0.65599  0.87218  1.0000
  C   C1147     1.0  0.74534  0.68142  0.14926  1.0000
  C   C1148     1.0  0.56218  0.54409  0.75933  1.0000
  H   H2013     1.0  0.66523  0.61329  0.76072  1.0000
  H   H2014     1.0  0.65090  0.73885  0.56044  1.0000
  H   H2015     1.0  0.56823  0.50722  0.14297  1.0000
  H   H2016     1.0  0.70452  0.68181  0.83746  1.0000
  H   H2017     1.0  0.50963  0.54140  0.28121  1.0000
  H   H2018     1.0  0.74743  0.69526  0.14201  1.0000
  H   H2019     1.0  0.75110  0.66238  0.19207  1.0000
  H   H2020     1.0  0.56894  0.53149  0.76605  1.0000
  H   H2021     1.0  0.68421  0.68704  0.86162  1.0000
  C   C1149     1.0  0.51421  0.54354  0.90620  1.0000
  N   N67       1.0  0.57300  0.68181  0.70901  1.0000
  C   C1150     1.0  0.57201  0.66482  0.68947  1.0000
  C   C1151     1.0  0.57040  0.67880  0.75061  1.0000
  C   C1152     1.0  0.55784  0.69327  0.69589  1.0000
  C   C1153     1.0  0.58989  0.69079  0.70046  1.0000
  C   C1154     1.0  0.60642  0.67903  0.69261  1.0000
  C   C1155     1.0  0.57124  0.66625  0.64612  1.0000
  C   C1156     1.0  0.55486  0.71068  0.71618  1.0000
  C   C1157     1.0  0.58369  0.66634  0.77016  1.0000
  C   C1158     1.0  0.57895  0.66396  0.81168  1.0000
  C   C1159     1.0  0.62303  0.68930  0.69285  1.0000
  C   C1160     1.0  0.57736  0.64945  0.62747  1.0000
  C   C1161     1.0  0.54220  0.72286  0.69500  1.0000
  H   H2022     1.0  0.56022  0.65796  0.69954  1.0000
  H   H2023     1.0  0.58302  0.65585  0.69690  1.0000
  H   H2024     1.0  0.57089  0.69117  0.76565  1.0000
  H   H2025     1.0  0.55720  0.67378  0.75664  1.0000
  H   H2026     1.0  0.54542  0.68620  0.69881  1.0000
  H   H2027     1.0  0.55943  0.69654  0.66557  1.0000
  H   H2028     1.0  0.58861  0.69955  0.67541  1.0000
  H   H2029     1.0  0.59282  0.69950  0.72365  1.0000
  H   H2030     1.0  0.60576  0.67315  0.66472  1.0000
  H   H2031     1.0  0.60791  0.66826  0.71325  1.0000
  H   H2032     1.0  0.55756  0.66923  0.63789  1.0000
  H   H2033     1.0  0.57938  0.67678  0.63464  1.0000
  H   H2034     1.0  0.56727  0.71738  0.71899  1.0000
  H   H2035     1.0  0.54902  0.70833  0.74451  1.0000
  H   H2036     1.0  0.58395  0.65339  0.75761  1.0000
  H   H2037     1.0  0.59687  0.67170  0.76865  1.0000
  H   H2038     1.0  0.57968  0.67641  0.82630  1.0000
  H   H2039     1.0  0.56557  0.65909  0.81549  1.0000
  H   H2040     1.0  0.58824  0.65438  0.82469  1.0000
  H   H2041     1.0  0.63449  0.68059  0.68625  1.0000
  H   H2042     1.0  0.62252  0.70001  0.67160  1.0000
  H   H2043     1.0  0.62485  0.69467  0.72094  1.0000
  H   H2044     1.0  0.57584  0.65078  0.59676  1.0000
  H   H2045     1.0  0.59132  0.64648  0.63311  1.0000
  H   H2046     1.0  0.56954  0.63848  0.63795  1.0000
  C   C1162     1.0  0.58925  0.54220  0.11052  1.0000
  H   H2047     1.0  0.74468  0.68587  0.91591  1.0000
  H   H2048     1.0  0.52283  0.52566  0.69470  1.0000
  S   S263      1.0  0.52301  0.66250  0.75216  1.0000
  C   C1163     1.0  0.73889  0.60188  0.57551  1.0000
  C   C1164     1.0  0.69524  0.67739  0.85971  1.0000
  H   H2049     1.0  0.68885  0.59912  0.79763  1.0000
  H   H2050     1.0  0.72507  0.60806  0.89135  1.0000
  H   H2051     1.0  0.50547  0.53531  0.59605  1.0000
  H   H2052     1.0  0.68894  0.63072  0.79177  1.0000
  H   H2053     1.0  0.74598  0.68361  0.20876  1.0000
  C   C1165     1.0  0.50953  0.55756  0.62966  1.0000
  H   H2054     1.0  0.53722  0.54166  0.21792  1.0000
  H   H2055     1.0  0.69991  0.51099  0.25478  1.0000
  C   C1166     1.0  0.53668  0.50538  0.39695  1.0000
  C   C1167     1.0  0.71362  0.61574  0.83773  1.0000
  H   H2056     1.0  0.55743  0.51396  0.95647  1.0000
  H   H2057     1.0  0.59348  0.55967  0.92704  1.0000
  H   H2058     1.0  0.74941  0.61104  0.82212  1.0000
  H   H2059     1.0  0.71876  0.61965  0.80943  1.0000
  H   H2060     1.0  0.60253  0.53871  0.12052  1.0000
  H   H2061     1.0  0.65868  0.59339  0.78330  1.0000
  H   H2062     1.0  0.65120  0.61381  0.80217  1.0000
  C   C1168     1.0  0.69162  0.62185  0.95725  1.0000
  H   H2063     1.0  0.69339  0.64452  0.92204  1.0000
  H   H2064     1.0  0.51071  0.51633  0.12094  1.0000
  C   C1169     1.0  0.53693  0.55416  0.02443  1.0000
  C   C1170     1.0  0.56841  0.55563  0.95539  1.0000
  C   C1171     1.0  0.56841  0.53875  0.05727  1.0000
  H   H2065     1.0  0.55772  0.52203  0.44568  1.0000
  C   C1172     1.0  0.67983  0.50511  0.29586  1.0000
  H   H2066     1.0  0.67235  0.63324  0.82656  1.0000
  H   H2067     1.0  0.53787  0.50859  0.17182  1.0000
  H   H2068     1.0  0.59698  0.54123  0.05238  1.0000
  H   H2069     1.0  0.54783  0.72655  0.66716  1.0000
  H   H2070     1.0  0.74466  0.62179  0.19269  1.0000
  H   H2071     1.0  0.73741  0.73937  0.18648  1.0000
  H   H2072     1.0  0.71226  0.63045  0.92085  1.0000
  H   H2073     1.0  0.52110  0.56028  0.97588  1.0000
  C   C1173     1.0  0.51931  0.55757  0.00634  1.0000
  H   H2074     1.0  0.53571  0.53105  0.45155  1.0000
  C   C1174     1.0  0.51324  0.51721  0.19958  1.0000
  S   S264      1.0  0.50223  0.51018  0.03867  1.0000
  C   C1175     1.0  0.58718  0.53518  0.07137  1.0000
  N   N68       1.0  0.56579  0.53619  0.01602  1.0000
  C   C1176     1.0  0.54292  0.52419  0.39430  1.0000
  C   C1177     1.0  0.57577  0.54970  0.99388  1.0000
  H   H2075     1.0  0.56459  0.55226  0.06492  1.0000
  H   H2076     1.0  0.56567  0.54455  0.93792  1.0000
  C   C1178     1.0  0.52267  0.52056  0.31276  1.0000
  H   H2077     1.0  0.58955  0.54507  0.98921  1.0000
  C   C1179     1.0  0.57256  0.51813  0.00701  1.0000
  H   H2078     1.0  0.58391  0.57869  0.94947  1.0000
  H   H2079     1.0  0.55967  0.53034  0.07441  1.0000
  C   C1180     1.0  0.67845  0.60672  0.81269  1.0000
  C   C1181     1.0  0.50510  0.54436  0.74555  1.0000
  H   H2080     1.0  0.56594  0.50848  0.02558  1.0000
  C   C1182     1.0  0.74572  0.67038  0.86632  1.0000
  H   H2081     1.0  0.55578  0.53218  0.19299  1.0000
  C   C1183     1.0  0.68435  0.62538  0.81925  1.0000
  S   S265      1.0  0.74698  0.64917  0.80335  1.0000
  H   H2082     1.0  0.50851  0.51072  0.36167  1.0000
  H   H2083     1.0  0.55397  0.50897  0.32776  1.0000
  C   C1184     1.0  0.50495  0.51733  0.78293  1.0000
  H   H2084     1.0  0.51778  0.56279  0.78117  1.0000
  H   H2085     1.0  0.52961  0.71657  0.69112  1.0000
  H   H2086     1.0  0.74252  0.59202  0.59611  1.0000
  H   H2087     1.0  0.51045  0.55104  0.72005  1.0000
  H   H2088     1.0  0.65558  0.74704  0.51377  1.0000
  H   H2089     1.0  0.54007  0.51765  0.77126  1.0000
  H   H2090     1.0  0.51252  0.56901  0.01902  1.0000
  H   H2091     1.0  0.73111  0.67932  0.15064  1.0000
  H   H2092     1.0  0.50241  0.54467  0.15712  1.0000
  C   C1185     1.0  0.50228  0.50031  0.66722  1.0000
  Fe  Fe133     1.0  0.70544  0.80330  0.57698  1.0000
  S   S266      1.0  0.73342  0.81040  0.57774  1.0000
  S   S267      1.0  0.69293  0.77756  0.59200  1.0000
  Fe  Fe134     1.0  0.69380  0.83962  0.55036  1.0000
  S   S268      1.0  0.72136  0.84933  0.54923  1.0000
  S   S269      1.0  0.67115  0.85671  0.52821  1.0000
  Fe  Fe135     1.0  0.72917  0.82402  0.52174  1.0000
  C   C1186     1.0  0.72063  0.75684  0.61798  1.0000
  Fe  Fe136     1.0  0.72390  0.83521  0.60504  1.0000
  H   H2093     1.0  0.72352  0.77251  0.68786  1.0000
  S   S270      1.0  0.70152  0.81526  0.51961  1.0000
  S   S271      1.0  0.69591  0.82714  0.60764  1.0000
  C   C1187     1.0  0.54998  0.94899  0.85444  1.0000
  H   H2094     1.0  0.72658  0.89931  0.70982  1.0000
  Fe  Fe137     1.0  0.73692  0.92968  0.90018  1.0000
  S   S272      1.0  0.70920  0.93936  0.91604  1.0000
  H   H2095     1.0  0.57501  0.96871  0.38633  1.0000
  H   H2096     1.0  0.57654  0.96913  0.02276  1.0000
  Fe  Fe138     1.0  0.56545  0.86990  0.55186  1.0000
  S   S273      1.0  0.54434  0.85935  0.51661  1.0000
  S   S274      1.0  0.58982  0.85382  0.56911  1.0000
  Fe  Fe139     1.0  0.54317  0.90224  0.57119  1.0000
  S   S275      1.0  0.52063  0.89386  0.53822  1.0000
  C   C1188     1.0  0.70641  0.76777  0.33564  1.0000
  Fe  Fe140     1.0  0.52561  0.86711  0.56322  1.0000
  Fe  Fe141     1.0  0.51882  0.98034  0.76910  1.0000
  Fe  Fe142     1.0  0.54071  0.88691  0.49415  1.0000
  S   S276      1.0  0.53604  0.89284  0.43210  1.0000
  S   S277      1.0  0.54674  0.87623  0.59988  1.0000
  S   S278      1.0  0.56325  0.89669  0.52561  1.0000
  H   H2097     1.0  0.54878  0.95214  0.36189  1.0000
  H   H2098     1.0  0.53643  0.82190  0.50027  1.0000
  S   S279      1.0  0.52928  0.95290  0.76087  1.0000
  C   C1189     1.0  0.64262  0.76575  0.55088  1.0000
  C   C1190     1.0  0.59004  0.80823  0.49971  1.0000
  C   C1191     1.0  0.53762  0.93569  0.63977  1.0000
  C   C1192     1.0  0.54139  0.92420  0.66950  1.0000
  C   C1193     1.0  0.53874  0.92956  0.70663  1.0000
  C   C1194     1.0  0.53235  0.94641  0.71416  1.0000
  C   C1195     1.0  0.64876  0.78214  0.52917  1.0000
  H   H2099     1.0  0.72466  0.95912  0.97529  1.0000
  H   H2100     1.0  0.54656  0.91130  0.66385  1.0000
  H   H2101     1.0  0.54180  0.92070  0.72959  1.0000
  H   H2102     1.0  0.51780  0.96542  0.53894  1.0000
  C   C1196     1.0  0.52812  0.91327  0.41410  1.0000
  C   C1197     1.0  0.52368  0.92707  0.43750  1.0000
  H   H2103     1.0  0.72301  0.79795  0.76698  1.0000
  C   C1198     1.0  0.58269  0.94352  0.33643  1.0000
  C   C1199     1.0  0.51955  0.93158  0.36006  1.0000
  C   C1200     1.0  0.52598  0.91563  0.37530  1.0000
  H   H2104     1.0  0.58461  0.97505  0.30708  1.0000
  H   H2105     1.0  0.52789  0.99681  0.94545  1.0000
  H   H2106     1.0  0.52920  0.90500  0.35696  1.0000
  H   H2107     1.0  0.71343  0.79236  0.31277  1.0000
  C   C1201     1.0  0.64894  0.81219  0.47185  1.0000
  C   C1202     1.0  0.70075  0.95531  0.94713  1.0000
  C   C1203     1.0  0.71102  0.96295  0.97343  1.0000
  C   C1204     1.0  0.67561  0.97316  0.96895  1.0000
  C   C1205     1.0  0.68297  0.96028  0.94550  1.0000
  H   H2108     1.0  0.66195  0.97697  0.96710  1.0000
  H   H2109     1.0  0.67486  0.95432  0.92553  1.0000
  H   H2110     1.0  0.59458  0.94560  0.68942  1.0000
  C   C1206     1.0  0.73648  0.91641  0.02130  1.0000
  C   C1207     1.0  0.52530  0.87985  0.70064  1.0000
  H   H2111     1.0  0.53540  0.87079  0.68861  1.0000
  H   H2112     1.0  0.51366  0.95348  0.44062  1.0000
  H   H2113     1.0  0.50683  0.87468  0.47768  1.0000
  H   H2114     1.0  0.72000  0.98079  0.87302  1.0000
  C   C1208     1.0  0.74437  0.88428  0.74439  1.0000
  H   H2115     1.0  0.65958  0.77598  0.70554  1.0000
  C   C1209     1.0  0.64871  0.85757  0.54222  1.0000
  C   C1210     1.0  0.63643  0.86558  0.51819  1.0000
  C   C1211     1.0  0.61837  0.86529  0.52669  1.0000
  C   C1212     1.0  0.61237  0.85704  0.55953  1.0000
  C   C1213     1.0  0.62469  0.84963  0.58422  1.0000
  C   C1214     1.0  0.64274  0.84989  0.57571  1.0000
  H   H2116     1.0  0.64089  0.87169  0.49235  1.0000
  H   H2117     1.0  0.60909  0.87103  0.50736  1.0000
  H   H2118     1.0  0.62018  0.84344  0.60992  1.0000
  H   H2119     1.0  0.65202  0.84404  0.59484  1.0000
  C   C1215     1.0  0.56565  0.94925  0.82721  1.0000
  H   H2120     1.0  0.51771  0.93310  0.33033  1.0000
  S   S280      1.0  0.50775  0.96614  0.36631  1.0000
  H   H2121     1.0  0.69298  0.85175  0.74986  1.0000
  H   H2122     1.0  0.72182  0.90447  0.95804  1.0000
  H   H2123     1.0  0.72348  0.87646  0.66290  1.0000
  C   C1216     1.0  0.72146  0.76536  0.80187  1.0000
  H   H2124     1.0  0.74638  0.90735  0.00825  1.0000
  H   H2125     1.0  0.59608  0.95048  0.26413  1.0000
  C   C1217     1.0  0.65520  0.75032  0.54383  1.0000
  H   H2126     1.0  0.71413  0.99406  0.93458  1.0000
  C   C1218     1.0  0.51524  0.94542  0.38348  1.0000
  H   H2127     1.0  0.54760  0.95887  0.25195  1.0000
  H   H2128     1.0  0.65885  0.82736  0.42456  1.0000
  H   H2129     1.0  0.50866  0.81591  0.44180  1.0000
  C   C1219     1.0  0.65871  0.99286  0.86543  1.0000
  H   H2130     1.0  0.71038  0.89499  0.08711  1.0000
  C   C1220     1.0  0.62119  0.96013  0.87197  1.0000
  C   C1221     1.0  0.71201  0.81425  0.71031  1.0000
  H   H2131     1.0  0.71119  0.77029  0.36399  1.0000
  H   H2132     1.0  0.51388  0.84754  0.45939  1.0000
  C   C1222     1.0  0.50549  0.83899  0.47701  1.0000
  H   H2133     1.0  0.58155  0.82020  0.49890  1.0000
  H   H2134     1.0  0.74434  0.84664  0.35186  1.0000
  C   C1223     1.0  0.51719  0.94297  0.42225  1.0000
  H   H2135     1.0  0.70622  0.86815  0.96215  1.0000
  H   H2136     1.0  0.58588  0.98605  0.22896  1.0000
  C   C1224     1.0  0.53133  0.95255  0.64740  1.0000
  H   H2137     1.0  0.67526  0.93446  0.07056  1.0000
  H   H2138     1.0  0.72822  0.87313  0.94706  1.0000
  N   N69       1.0  0.58691  0.97044  0.79407  1.0000
  C   C1225     1.0  0.66981  0.76850  0.68966  1.0000
  C   C1226     1.0  0.58569  0.96295  0.75547  1.0000
  H   H2139     1.0  0.74628  0.79358  0.71948  1.0000
  C   C1227     1.0  0.57017  0.96806  0.81622  1.0000
  H   H2140     1.0  0.68720  0.76686  0.73526  1.0000
  H   H2141     1.0  0.59403  0.96735  0.87272  1.0000
  C   C1228     1.0  0.52416  0.97350  0.51685  1.0000
  C   C1229     1.0  0.59224  0.94389  0.75034  1.0000
  S   S281      1.0  0.74647  0.90155  0.77649  1.0000
  H   H2142     1.0  0.50540  0.90940  0.61185  1.0000
  H   H2143     1.0  0.60195  0.94847  0.81718  1.0000
  H   H2144     1.0  0.54558  0.97054  0.41744  1.0000
  H   H2145     1.0  0.52219  0.89347  0.64832  1.0000
  H   H2146     1.0  0.64194  0.76772  0.58146  1.0000
  H   H2147     1.0  0.57198  0.96409  0.74577  1.0000
  H   H2148     1.0  0.59346  0.97056  0.73453  1.0000
  H   H2149     1.0  0.61462  0.96504  0.79706  1.0000
  H   H2150     1.0  0.56869  0.98624  0.35483  1.0000
  H   H2151     1.0  0.57018  0.97561  0.84207  1.0000
  H   H2152     1.0  0.55884  0.97348  0.80038  1.0000
  H   H2153     1.0  0.57380  0.93833  0.70723  1.0000
  H   H2154     1.0  0.61896  0.94606  0.87545  1.0000
  H   H2155     1.0  0.66949  0.77262  0.65974  1.0000
  H   H2156     1.0  0.53638  0.97825  0.52822  1.0000
  H   H2157     1.0  0.60156  0.97061  0.20975  1.0000
  H   H2158     1.0  0.62956  0.76216  0.54178  1.0000
  C   C1230     1.0  0.59303  0.92142  0.38564  1.0000
  C   C1231     1.0  0.51191  0.98870  0.50557  1.0000
  H   H2159     1.0  0.53845  0.82730  0.45084  1.0000
  H   H2160     1.0  0.66857  0.75327  0.55233  1.0000
  C   C1232     1.0  0.58808  0.93761  0.71150  1.0000
  H   H2161     1.0  0.65638  0.98561  0.89220  1.0000
  H   H2162     1.0  0.59981  0.91332  0.36414  1.0000
  H   H2163     1.0  0.73774  0.93507  0.06740  1.0000
  H   H2164     1.0  0.64896  0.84012  0.46140  1.0000
  H   H2165     1.0  0.71998  0.83790  0.25040  1.0000
  S   S282      1.0  0.54882  0.98922  0.20145  1.0000
  H   H2166     1.0  0.71058  0.77581  0.27859  1.0000
  H   H2167     1.0  0.58967  0.99604  0.81677  1.0000
  C   C1233     1.0  0.70277  0.75835  0.61161  1.0000
  N   N70       1.0  0.63757  0.79840  0.53430  1.0000
  C   C1234     1.0  0.63492  0.80240  0.57517  1.0000
  C   C1235     1.0  0.64660  0.81327  0.51496  1.0000
  C   C1236     1.0  0.60760  0.81233  0.51592  1.0000
  C   C1237     1.0  0.65165  0.80292  0.59838  1.0000
  C   C1238     1.0  0.57564  0.96708  0.29135  1.0000
  C   C1239     1.0  0.64735  0.80765  0.63888  1.0000
  H   H2168     1.0  0.58340  0.79836  0.51744  1.0000
  H   H2169     1.0  0.62607  0.79303  0.58922  1.0000
  H   H2170     1.0  0.62809  0.81518  0.57824  1.0000
  H   H2171     1.0  0.63961  0.82571  0.52124  1.0000
  H   H2172     1.0  0.65989  0.81456  0.52596  1.0000
  H   H2173     1.0  0.60491  0.81760  0.54410  1.0000
  H   H2174     1.0  0.61325  0.82269  0.49793  1.0000
  H   H2175     1.0  0.66070  0.81259  0.58663  1.0000
  H   H2176     1.0  0.65853  0.79012  0.59912  1.0000
  C   C1240     1.0  0.69249  0.79048  0.70246  1.0000
  H   H2177     1.0  0.50836  0.96633  0.90572  1.0000
  H   H2178     1.0  0.64055  0.82056  0.64015  1.0000
  H   H2179     1.0  0.63899  0.79780  0.65258  1.0000
  H   H2180     1.0  0.65961  0.80815  0.65455  1.0000
  H   H2181     1.0  0.52747  0.96521  0.49261  1.0000
  H   H2182     1.0  0.55164  0.98872  0.04034  1.0000
  H   H2183     1.0  0.70162  0.79033  0.77081  1.0000
  H   H2184     1.0  0.71515  0.76058  0.74518  1.0000
  C   C1241     1.0  0.57719  0.93114  0.36924  1.0000
  H   H2185     1.0  0.60824  0.98349  0.85334  1.0000
  C   C1242     1.0  0.68779  0.77120  0.70548  1.0000
  H   H2186     1.0  0.56526  0.97645  0.28142  1.0000
  H   H2187     1.0  0.57165  0.98793  0.90498  1.0000
  H   H2188     1.0  0.68469  0.95549  0.07081  1.0000
  H   H2189     1.0  0.51700  0.82111  0.55985  1.0000
  H   H2190     1.0  0.56716  0.93282  0.27674  1.0000
  C   C1243     1.0  0.73075  0.83118  0.26571  1.0000
  H   H2191     1.0  0.65761  0.80096  0.46424  1.0000
  H   H2192     1.0  0.73100  0.88304  0.01114  1.0000
  H   H2193     1.0  0.59214  0.95262  0.34734  1.0000
  C   C1244     1.0  0.51369  0.88714  0.66953  1.0000
  H   H2194     1.0  0.57284  0.99407  0.73979  1.0000
  H   H2195     1.0  0.66249  0.78436  0.53674  1.0000
  H   H2196     1.0  0.70778  0.76499  0.81265  1.0000
  H   H2197     1.0  0.55304  0.95529  0.88095  1.0000
  H   H2198     1.0  0.71235  0.94407  0.04587  1.0000
  H   H2199     1.0  0.53029  0.92391  0.26504  1.0000
  H   H2200     1.0  0.51747  0.87263  0.72192  1.0000
  C   C1245     1.0  0.74635  0.80194  0.27777  1.0000
  H   H2201     1.0  0.53197  0.89041  0.71435  1.0000
  H   H2202     1.0  0.70990  0.88105  0.92028  1.0000
  H   H2203     1.0  0.69732  0.76279  0.69009  1.0000
  H   H2204     1.0  0.58204  0.98332  0.05945  1.0000
  C   C1246     1.0  0.55811  0.94057  0.29514  1.0000
  H   H2205     1.0  0.60255  0.99191  0.77563  1.0000
  C   C1247     1.0  0.73181  0.87402  0.68651  1.0000
  H   H2206     1.0  0.66406  0.98377  0.84410  1.0000
  H   H2207     1.0  0.56207  0.94224  0.80201  1.0000
  H   H2208     1.0  0.55669  0.99068  0.41848  1.0000
  C   C1248     1.0  0.59531  0.97531  0.23612  1.0000
  C   C1249     1.0  0.74107  0.85814  0.69003  1.0000
  H   H2209     1.0  0.50562  0.79140  0.55894  1.0000
  H   H2210     1.0  0.74308  0.83749  0.25753  1.0000
  C   C1250     1.0  0.73722  0.88583  0.08199  1.0000
  C   C1251     1.0  0.70319  0.93443  0.05747  1.0000
  H   H2211     1.0  0.50833  0.84195  0.50655  1.0000
  H   H2212     1.0  0.68094  0.94547  0.02704  1.0000
  H   H2213     1.0  0.70410  0.84976  0.70518  1.0000
  H   H2214     1.0  0.73579  0.76982  0.75073  1.0000
  H   H2215     1.0  0.57478  0.98126  0.14466  1.0000
  H   H2216     1.0  0.57718  0.95489  0.23630  1.0000
  S   S283      1.0  0.74009  0.84144  0.65629  1.0000
  H   H2217     1.0  0.60228  0.93065  0.39665  1.0000
  H   H2218     1.0  0.74176  0.97503  0.92185  1.0000
  C   C1252     1.0  0.70357  0.97558  0.99747  1.0000
  C   C1253     1.0  0.57866  0.98282  0.02956  1.0000
  C   C1254     1.0  0.68589  0.98091  0.99503  1.0000
  C   C1255     1.0  0.61993  0.79591  0.51793  1.0000
  H   H2219     1.0  0.68537  0.82504  0.71993  1.0000
  H   H2220     1.0  0.61276  0.78604  0.53468  1.0000
  H   H2221     1.0  0.70819  0.75373  0.32998  1.0000
  H   H2222     1.0  0.53243  0.95374  0.28917  1.0000
  C   C1256     1.0  0.52861  0.95787  0.68441  1.0000
  C   C1257     1.0  0.54314  0.94838  0.27104  1.0000
  H   H2223     1.0  0.59182  0.80347  0.47078  1.0000
  H   H2224     1.0  0.73248  0.87320  0.07306  1.0000
  H   H2225     1.0  0.62134  0.79053  0.48940  1.0000
  H   H2226     1.0  0.70863  0.88255  0.02559  1.0000
  H   H2227     1.0  0.53671  0.80505  0.46640  1.0000
  H   H2228     1.0  0.71157  0.98138  0.01784  1.0000
  H   H2229     1.0  0.63627  0.81099  0.45814  1.0000
  H   H2230     1.0  0.67035  0.82997  0.46717  1.0000
  H   H2231     1.0  0.69514  0.99342  0.85832  1.0000
  H   H2232     1.0  0.52463  0.94042  0.23058  1.0000
  S   S284      1.0  0.53999  0.92960  0.59266  1.0000
  C   C1258     1.0  0.68489  0.94292  0.05635  1.0000
  H   H2233     1.0  0.50359  0.92769  0.64005  1.0000
  C   C1259     1.0  0.65727  0.82841  0.45535  1.0000
  H   H2234     1.0  0.72895  0.76720  0.60897  1.0000
  H   H2235     1.0  0.69705  0.82027  0.76237  1.0000
  H   H2236     1.0  0.74775  0.85827  0.47508  1.0000
  H   H2237     1.0  0.71883  0.80676  0.26090  1.0000
  H   H2238     1.0  0.64949  0.77867  0.49920  1.0000
  C   C1260     1.0  0.74653  0.92680  0.04994  1.0000
  H   H2239     1.0  0.74431  0.80523  0.67586  1.0000
  H   H2240     1.0  0.69023  0.79519  0.67317  1.0000
  H   H2241     1.0  0.56819  0.92131  0.35994  1.0000
  H   H2242     1.0  0.53847  0.95583  0.84193  1.0000
  H   H2243     1.0  0.71111  0.81862  0.68051  1.0000
  H   H2244     1.0  0.50771  0.87599  0.65653  1.0000
  H   H2245     1.0  0.69958  0.89978  0.97050  1.0000
  H   H2246     1.0  0.59276  0.92393  0.70855  1.0000
  H   H2247     1.0  0.62316  0.96549  0.90004  1.0000
  H   H2248     1.0  0.60553  0.98038  0.25384  1.0000
  C   C1261     1.0  0.73361  0.88700  0.71326  1.0000
  H   H2249     1.0  0.59042  0.93547  0.31618  1.0000
  H   H2250     1.0  0.54556  0.92921  0.22731  1.0000
  H   H2251     1.0  0.60663  0.94281  0.75304  1.0000
  C   C1262     1.0  0.74680  0.83419  0.40639  1.0000
  C   C1263     1.0  0.69830  0.82521  0.73310  1.0000
  H   H2252     1.0  0.54522  0.96946  0.32994  1.0000
  H   H2253     1.0  0.52367  0.97088  0.68986  1.0000
  C   C1264     1.0  0.71394  0.78911  0.75378  1.0000
  H   H2254     1.0  0.66686  0.75455  0.69178  1.0000
  H   H2255     1.0  0.72549  0.91097  0.09504  1.0000
  S   S285      1.0  0.51776  0.99226  0.82615  1.0000
  C   C1265     1.0  0.56395  0.97483  0.37099  1.0000
  C   C1266     1.0  0.72287  0.90028  0.07615  1.0000
  C   C1267     1.0  0.55056  0.98147  0.39997  1.0000
  H   H2256     1.0  0.73510  0.84048  0.41786  1.0000
  H   H2257     1.0  0.57658  0.94215  0.84108  1.0000
  C   C1268     1.0  0.73185  0.81205  0.25575  1.0000
  C   C1269     1.0  0.71863  0.89107  0.01259  1.0000
  C   C1270     1.0  0.60552  0.96950  0.85403  1.0000
  H   H2258     1.0  0.57064  0.93837  0.39236  1.0000
  C   C1271     1.0  0.71450  0.87821  0.94903  1.0000
  C   C1272     1.0  0.72361  0.78684  0.68622  1.0000
  S   S286      1.0  0.73990  0.90145  0.88672  1.0000
  C   C1273     1.0  0.71331  0.89477  0.97162  1.0000
  N   N71       1.0  0.72087  0.90675  0.03626  1.0000
  C   C1274     1.0  0.53220  0.81859  0.47194  1.0000
  H   H2259     1.0  0.58631  0.93499  0.77130  1.0000
  H   H2260     1.0  0.63322  0.96203  0.85466  1.0000
  H   H2261     1.0  0.69284  0.91010  0.04085  1.0000
  C   C1275     1.0  0.53549  0.93456  0.24711  1.0000
  C   C1276     1.0  0.70438  0.91797  0.03362  1.0000
  C   C1277     1.0  0.58957  0.98967  0.78925  1.0000
  H   H2262     1.0  0.70606  0.93164  0.08721  1.0000
  H   H2263     1.0  0.73811  0.76012  0.30792  1.0000
  H   H2264     1.0  0.68733  0.98965  0.90472  1.0000
  H   H2265     1.0  0.73482  0.81143  0.22522  1.0000
  H   H2266     1.0  0.71976  0.79024  0.65701  1.0000
  H   H2267     1.0  0.55198  0.93095  0.31442  1.0000
  H   H2268     1.0  0.52516  0.92547  0.46740  1.0000
  H   H2269     1.0  0.68247  0.79720  0.72028  1.0000
  H   H2270     1.0  0.70258  0.92289  0.00439  1.0000
  H   H2271     1.0  0.52841  0.96153  0.62454  1.0000
  C   C1278     1.0  0.58604  0.96050  0.25643  1.0000
  S   S287      1.0  0.50572  0.97562  0.24905  1.0000
  C   C1279     1.0  0.60256  0.96274  0.81418  1.0000
  C   C1280     1.0  0.71611  0.77857  0.30600  1.0000
  H   H2272     1.0  0.73251  0.92543  0.99800  1.0000
  H   H2273     1.0  0.72809  0.78138  0.23163  1.0000
  H   H2274     1.0  0.50706  0.81104  0.49127  1.0000
  N   N72       1.0  0.56802  0.95331  0.31685  1.0000
  H   H2275     1.0  0.71578  0.84546  0.74802  1.0000
  H   H2276     1.0  0.58870  0.91277  0.40909  1.0000
  N   N73       1.0  0.71062  0.79480  0.71375  1.0000
  C   C1281     1.0  0.72195  0.77052  0.76036  1.0000
  C   C1282     1.0  0.55570  0.96196  0.34461  1.0000
  H   H2277     1.0  0.73053  0.88109  0.14091  1.0000
  H   H2278     1.0  0.52242  0.99133  0.44909  1.0000
  H   H2279     1.0  0.72823  0.83267  0.29619  1.0000
  H   H2280     1.0  0.54656  0.93539  0.86089  1.0000
  H   H2281     1.0  0.72504  0.81818  0.71926  1.0000
  H   H2282     1.0  0.50738  0.91119  0.69572  1.0000
  H   H2283     1.0  0.72870  0.77465  0.81826  1.0000
  H   H2284     1.0  0.72768  0.75225  0.80577  1.0000
  C   C1283     1.0  0.72788  0.99172  0.88153  1.0000
  C   C1284     1.0  0.74217  0.88379  0.12298  1.0000
  C   C1285     1.0  0.74471  0.98371  0.89749  1.0000
  Fe  Fe143     1.0  0.50629  0.98160  0.31063  1.0000
  C   C1286     1.0  0.70315  0.84418  0.73404  1.0000
  C   C1287     1.0  0.51234  0.82017  0.46980  1.0000
  C   C1288     1.0  0.50451  0.81847  0.57296  1.0000
  C   C1289     1.0  0.57471  0.99510  0.14835  1.0000
  H   H2285     1.0  0.74911  0.88859  0.06515  1.0000
  H   H2286     1.0  0.69226  0.77128  0.33519  1.0000
  H   H2287     1.0  0.74008  0.77877  0.33442  1.0000
  H   H2288     1.0  0.53944  0.98827  0.38591  1.0000
  C   C1290     1.0  0.74164  0.77697  0.23757  1.0000
  H   H2289     1.0  0.74825  0.89569  0.13245  1.0000
  H   H2290     1.0  0.50920  0.99636  0.53096  1.0000
  H   H2291     1.0  0.58975  0.98743  0.01200  1.0000
  S   S288      1.0  0.67711  0.99689  0.02571  1.0000
  C   C1291     1.0  0.56215  0.99383  0.02204  1.0000
  H   H2292     1.0  0.55861  0.99179  0.99262  1.0000
  Fe  Fe144     1.0  0.52561  0.99639  0.24061  1.0000
  C   C1292     1.0  0.73595  0.77442  0.30676  1.0000
  H   H2293     1.0  0.50529  0.93141  0.55681  1.0000
  C   C1293     1.0  0.74271  0.79240  0.68985  1.0000
  S   S289      1.0  0.75089  0.93781  0.84699  1.0000
  H   H2294     1.0  0.74563  0.80603  0.30746  1.0000
  H   H2295     1.0  0.74985  0.78353  0.21569  1.0000
  H   H2296     1.0  0.75179  0.87279  0.12622  1.0000
  N   N74       1.0  0.74696  0.78238  0.27578  1.0000
  S   S290      1.0  0.75133  0.81853  0.47767  1.0000
  H   H2297     1.0  0.73537  0.74983  0.25123  1.0000
  C   C1294     1.0  0.75183  0.85539  0.72112  1.0000
  H   H2298     1.0  0.75174  0.97589  0.87585  1.0000
  H   H2299     1.0  0.74327  0.76055  0.16932  1.0000
  H   H2300     1.0  0.72187  0.75735  0.19027  1.0000
  C   C1295     1.0  0.74297  0.75728  0.23004  1.0000
  C   C1296     1.0  0.73591  0.75346  0.19167  1.0000
  H   H2301     1.0  0.64600  0.99844  0.85589  1.0000
  H   H2302     1.0  0.59557  0.99914  0.10741  1.0000
  Fe  Fe145     1.0  0.86783  0.01685  0.77726  1.0000
  S   S291      1.0  0.86751  0.03671  0.82201  1.0000
  C   C1297     1.0  0.87039  0.07236  0.89105  1.0000
  Fe  Fe146     1.0  0.89441  0.03632  0.72792  1.0000
  S   S292      1.0  0.89562  0.05778  0.76913  1.0000
  S   S293      1.0  0.91129  0.03999  0.67475  1.0000
  Fe  Fe147     1.0  0.89656  0.03667  0.81306  1.0000
  S   S294      1.0  0.91546  0.04230  0.85833  1.0000
  Fe  Fe148     1.0  0.86667  0.05685  0.77530  1.0000
  S   S295      1.0  0.84866  0.08052  0.78671  1.0000
  S   S296      1.0  0.89737  0.01522  0.77182  1.0000
  S   S297      1.0  0.86492  0.03690  0.73047  1.0000
  H   H2303     1.0  0.91298  0.09347  0.77600  1.0000
  C   C1298     1.0  0.78457  0.22541  0.97687  1.0000
  C   C1299     1.0  0.98392  0.03833  0.86915  1.0000
  Fe  Fe149     1.0  0.85532  0.21921  0.83128  1.0000
  S   S298      1.0  0.84092  0.19526  0.84760  1.0000
  S   S299      1.0  0.87139  0.23525  0.87039  1.0000
  Fe  Fe150     1.0  0.83869  0.22198  0.75156  1.0000
  S   S300      1.0  0.82312  0.19823  0.76391  1.0000
  H   H2304     1.0  0.94302  0.22091  0.30011  1.0000
  Fe  Fe151     1.0  0.81741  0.20875  0.82142  1.0000
  S   S301      1.0  0.79075  0.21687  0.84698  1.0000
  Fe  Fe152     1.0  0.84778  0.18652  0.78883  1.0000
  S   S302      1.0  0.86223  0.16159  0.76986  1.0000
  S   S303      1.0  0.83163  0.23308  0.80766  1.0000
  S   S304      1.0  0.86363  0.20995  0.77385  1.0000
  Fe  Fe153     1.0  0.95457  0.22438  0.12343  1.0000
  S   S305      1.0  0.97623  0.20295  0.12419  1.0000
  H   H2305     1.0  0.87889  0.06967  0.91528  1.0000
  S   S306      1.0  0.90747  0.21962  0.02820  1.0000
  H   H2306     1.0  0.92750  0.06808  0.72559  1.0000
  S   S307      1.0  0.92605  0.21886  0.12728  1.0000
  C   C1300     1.0  0.95131  0.24145  0.26293  1.0000
  C   C1301     1.0  0.98898  0.01561  0.69118  1.0000
  C   C1302     1.0  0.83603  0.20125  0.94931  1.0000
  H   H2307     1.0  0.86511  0.15212  0.85092  1.0000
  C   C1303     1.0  0.87408  0.01468  0.90899  1.0000
  H   H2308     1.0  0.84640  0.07088  0.92496  1.0000
  C   C1304     1.0  0.89453  0.24135  0.97069  1.0000
  C   C1305     1.0  0.99467  0.17264  0.14175  1.0000
  C   C1306     1.0  0.88061  0.23062  0.91503  1.0000
  C   C1307     1.0  0.88254  0.21376  0.92987  1.0000
  C   C1308     1.0  0.89061  0.21073  0.96461  1.0000
  C   C1309     1.0  0.89688  0.22445  0.98508  1.0000
  H   H2309     1.0  0.96159  0.01670  0.70331  1.0000
  H   H2310     1.0  0.75796  0.22765  0.99869  1.0000
  H   H2311     1.0  0.87816  0.20301  0.91424  1.0000
  H   H2312     1.0  0.89225  0.19760  0.97549  1.0000
  C   C1310     1.0  0.77383  0.20723  0.87409  1.0000
  C   C1311     1.0  0.77439  0.18973  0.88504  1.0000
  H   H2313     1.0  0.99285  0.04770  0.85558  1.0000
  H   H2314     1.0  0.78550  0.18151  0.87702  1.0000
  H   H2315     1.0  0.96843  0.01710  0.85564  1.0000
  H   H2316     1.0  0.76105  0.23731  0.95284  1.0000
  H   H2317     1.0  0.81585  0.24629  0.99791  1.0000
  C   C1312     1.0  0.92382  0.00815  0.87685  1.0000
  H   H2318     1.0  0.94368  0.06081  0.69134  1.0000
  H   H2319     1.0  0.91443  0.00476  0.85657  1.0000
  H   H2320     1.0  0.75870  0.22704  0.13744  1.0000
  C   C1313     1.0  0.75807  0.24475  0.18369  1.0000
  C   C1314     1.0  0.98421  0.18896  0.19491  1.0000
  C   C1315     1.0  0.98543  0.18721  0.15609  1.0000
  C   C1316     1.0  0.94547  0.02457  0.49476  1.0000
  H   H2321     1.0  0.94861  0.20501  0.97375  1.0000
  H   H2322     1.0  0.99442  0.06346  0.26577  1.0000
  C   C1317     1.0  0.95803  0.21557  0.97444  1.0000
  H   H2323     1.0  0.86696  0.23536  0.66162  1.0000
  C   C1318     1.0  0.92782  0.02653  0.65344  1.0000
  C   C1319     1.0  0.93872  0.03368  0.62532  1.0000
  H   H2324     1.0  0.92392  0.07787  0.80689  1.0000
  H   H2325     1.0  0.99448  0.06384  0.21540  1.0000
  H   H2326     1.0  0.99037  0.00167  0.69925  1.0000
  H   H2327     1.0  0.78193  0.21226  0.96692  1.0000
  H   H2328     1.0  0.93681  0.04716  0.61707  1.0000
  H   H2329     1.0  0.75465  0.19028  0.73969  1.0000
  Fe  Fe154     1.0  0.92299  0.23343  0.07236  1.0000
  H   H2330     1.0  0.92681  0.09995  0.95060  1.0000
  C   C1320     1.0  0.92668  0.02557  0.88319  1.0000
  C   C1321     1.0  0.93912  0.02990  0.90912  1.0000
  C   C1322     1.0  0.94874  0.01688  0.92853  1.0000
  H   H2331     1.0  0.93349  0.03092  0.48326  1.0000
  H   H2332     1.0  0.96901  0.21255  0.95458  1.0000
  H   H2333     1.0  0.86809  0.18935  0.29683  1.0000
  H   H2334     1.0  0.87457  0.02124  0.93618  1.0000
  C   C1323     1.0  0.79704  0.23462  0.94862  1.0000
  H   H2335     1.0  0.93054  0.22178  0.21833  1.0000
  C   C1324     1.0  0.85269  0.10300  0.78135  1.0000
  C   C1325     1.0  0.84073  0.11510  0.79739  1.0000
  C   C1326     1.0  0.84344  0.13305  0.79441  1.0000
  C   C1327     1.0  0.85808  0.13914  0.77486  1.0000
  C   C1328     1.0  0.87003  0.12704  0.75877  1.0000
  C   C1329     1.0  0.86741  0.10907  0.76211  1.0000
  H   H2336     1.0  0.82929  0.11054  0.81232  1.0000
  H   H2337     1.0  0.83416  0.14215  0.80705  1.0000
  H   H2338     1.0  0.88141  0.13159  0.74363  1.0000
  H   H2339     1.0  0.87670  0.09995  0.74952  1.0000
  S   S308      1.0  0.95181  0.23757  0.06672  1.0000
  H   H2340     1.0  0.94575  0.08127  0.71354  1.0000
  H   H2341     1.0  0.76643  0.24078  0.50000  1.0000
  N   N75       1.0  0.84630  0.18346  0.64663  1.0000
  C   C1330     1.0  0.83047  0.19414  0.63439  1.0000
  C   C1331     1.0  0.84202  0.17265  0.68134  1.0000
  C   C1332     1.0  0.86001  0.19602  0.65655  1.0000
  C   C1333     1.0  0.85377  0.17220  0.61588  1.0000
  C   C1334     1.0  0.84124  0.15947  0.59893  1.0000
  C   C1335     1.0  0.83282  0.20549  0.59833  1.0000
  C   C1336     1.0  0.87677  0.18801  0.67451  1.0000
  C   C1337     1.0  0.82333  0.16564  0.68533  1.0000
  C   C1338     1.0  0.82187  0.15250  0.71773  1.0000
  C   C1339     1.0  0.84948  0.15102  0.56424  1.0000
  C   C1340     1.0  0.81575  0.21509  0.58833  1.0000
  C   C1341     1.0  0.88971  0.20200  0.68196  1.0000
  H   H2342     1.0  0.82591  0.20285  0.65739  1.0000
  H   H2343     1.0  0.81932  0.18591  0.62930  1.0000
  H   H2344     1.0  0.85158  0.16151  0.68434  1.0000
  H   H2345     1.0  0.84354  0.18033  0.70690  1.0000
  H   H2346     1.0  0.85434  0.20575  0.67640  1.0000
  H   H2347     1.0  0.86447  0.20347  0.63135  1.0000
  H   H2348     1.0  0.85945  0.18032  0.59285  1.0000
  H   H2349     1.0  0.86491  0.16398  0.62621  1.0000
  H   H2350     1.0  0.82882  0.16599  0.59043  1.0000
  H   H2351     1.0  0.83849  0.14888  0.61949  1.0000
  H   H2352     1.0  0.84263  0.21539  0.60187  1.0000
  H   H2353     1.0  0.83690  0.19748  0.57413  1.0000
  H   H2354     1.0  0.88352  0.17852  0.65592  1.0000
  H   H2355     1.0  0.87371  0.18139  0.70161  1.0000
  H   H2356     1.0  0.81383  0.17650  0.69120  1.0000
  H   H2357     1.0  0.81927  0.15932  0.65978  1.0000
  H   H2358     1.0  0.82477  0.15862  0.74450  1.0000
  H   H2359     1.0  0.80841  0.14773  0.71985  1.0000
  H   H2360     1.0  0.83105  0.14124  0.71332  1.0000
  H   H2361     1.0  0.85212  0.16096  0.54204  1.0000
  H   H2362     1.0  0.86187  0.14393  0.57128  1.0000
  H   H2363     1.0  0.84042  0.14163  0.55314  1.0000
  H   H2364     1.0  0.81082  0.22309  0.61201  1.0000
  H   H2365     1.0  0.81800  0.22383  0.56369  1.0000
  H   H2366     1.0  0.80571  0.20579  0.58133  1.0000
  H   H2367     1.0  0.90136  0.19605  0.69571  1.0000
  H   H2368     1.0  0.89399  0.20843  0.65534  1.0000
  H   H2369     1.0  0.88374  0.21192  0.70073  1.0000
  N   N76       1.0  0.92610  0.19865  0.25235  1.0000
  C   C1342     1.0  0.92360  0.18915  0.21662  1.0000
  C   C1343     1.0  0.90849  0.20491  0.26749  1.0000
  C   C1344     1.0  0.93641  0.21451  0.24245  1.0000
  C   C1345     1.0  0.93590  0.18786  0.28132  1.0000
  C   C1346     1.0  0.93308  0.16803  0.28246  1.0000
  C   C1347     1.0  0.94056  0.18448  0.19401  1.0000
  C   C1348     1.0  0.93034  0.00903  0.66352  1.0000
  C   C1349     1.0  0.89521  0.19101  0.27865  1.0000
  H   H2370     1.0  0.75450  0.23518  0.27691  1.0000
  C   C1350     1.0  0.94162  0.15932  0.31651  1.0000
  C   C1351     1.0  0.93737  0.17164  0.16337  1.0000
  H   H2371     1.0  0.91503  0.19710  0.19760  1.0000
  H   H2372     1.0  0.91661  0.17702  0.22196  1.0000
  H   H2373     1.0  0.90985  0.21244  0.29324  1.0000
  H   H2374     1.0  0.87206  0.20647  0.26290  1.0000
  C   C1352     1.0  0.96132  0.24800  0.96525  1.0000
  H   H2375     1.0  0.94986  0.21066  0.23292  1.0000
  H   H2376     1.0  0.95025  0.18920  0.27729  1.0000
  H   H2377     1.0  0.93283  0.19287  0.30975  1.0000
  H   H2378     1.0  0.93906  0.16185  0.25735  1.0000
  H   H2379     1.0  0.91915  0.16494  0.28336  1.0000
  H   H2380     1.0  0.94577  0.19626  0.18013  1.0000
  H   H2381     1.0  0.95078  0.17879  0.21235  1.0000
  H   H2382     1.0  0.76861  0.24801  0.99347  1.0000
  H   H2383     1.0  0.96436  0.23550  0.25610  1.0000
  H   H2384     1.0  0.89340  0.18180  0.25599  1.0000
  H   H2385     1.0  0.89952  0.18385  0.30423  1.0000
  H   H2386     1.0  0.98153  0.01181  0.76321  1.0000
  H   H2387     1.0  0.84827  0.22745  0.04276  1.0000
  H   H2388     1.0  0.99142  0.03012  0.88947  1.0000
  H   H2389     1.0  0.95586  0.16151  0.31594  1.0000
  H   H2390     1.0  0.93566  0.16444  0.34280  1.0000
  H   H2391     1.0  0.93977  0.14514  0.31621  1.0000
  H   H2392     1.0  0.93738  0.23453  0.98278  1.0000
  H   H2393     1.0  0.75878  0.23129  0.87687  1.0000
  C   C1353     1.0  0.84915  0.24019  0.02789  1.0000
  C   C1354     1.0  0.75765  0.20261  0.75306  1.0000
  C   C1355     1.0  0.94612  0.04024  0.75807  1.0000
  H   H2394     1.0  0.82080  0.22437  0.00926  1.0000
  C   C1356     1.0  0.84278  0.23905  0.98795  1.0000
  H   H2395     1.0  0.97340  0.04552  0.88482  1.0000
  C   C1357     1.0  0.97304  0.02394  0.71092  1.0000
  C   C1358     1.0  0.95222  0.05886  0.74896  1.0000
  H   H2396     1.0  0.92739  0.17703  0.14392  1.0000
  H   H2397     1.0  0.89875  0.12749  0.92844  1.0000
  N   N77       1.0  0.95926  0.02849  0.77784  1.0000
  C   C1359     1.0  0.87733  0.19946  0.28789  1.0000
  C   C1360     1.0  0.94161  0.06776  0.71800  1.0000
  C   C1361     1.0  0.90678  0.11564  0.92208  1.0000
  H   H2398     1.0  0.93388  0.04161  0.77543  1.0000
  H   H2399     1.0  0.94184  0.03453  0.73184  1.0000
  C   C1362     1.0  0.95057  0.01209  0.79054  1.0000
  C   C1363     1.0  0.97540  0.02443  0.75398  1.0000
  C   C1364     1.0  0.85807  0.24170  0.64229  1.0000
  H   H2400     1.0  0.97161  0.04949  0.80483  1.0000
  H   H2401     1.0  0.77145  0.20175  0.76186  1.0000
  H   H2402     1.0  0.83396  0.00416  0.84482  1.0000
  H   H2403     1.0  0.97119  0.03724  0.69899  1.0000
  H   H2404     1.0  0.95285  0.00390  0.53342  1.0000
  H   H2405     1.0  0.95063  0.06681  0.77433  1.0000
  H   H2406     1.0  0.96617  0.05888  0.74023  1.0000
  H   H2407     1.0  0.90221  0.21396  0.24675  1.0000
  C   C1365     1.0  0.99173  0.17612  0.21890  1.0000
  C   C1366     1.0  0.84066  0.24491  0.65337  1.0000
  H   H2408     1.0  0.94969  0.16914  0.14707  1.0000
  C   C1367     1.0  0.92159  0.09188  0.80044  1.0000
  H   H2409     1.0  0.97756  0.20025  0.20641  1.0000
  C   C1368     1.0  0.89593  0.09272  0.84634  1.0000
  H   H2410     1.0  0.99050  0.17755  0.24883  1.0000
  H   H2411     1.0  0.88471  0.01962  0.89047  1.0000
  S   S309      1.0  0.83193  0.23795  0.69791  1.0000
  H   H2412     1.0  0.95265  0.04214  0.82888  1.0000
  H   H2413     1.0  0.86035  0.09769  0.90512  1.0000
  H   H2414     1.0  0.86887  0.12715  0.91914  1.0000
  H   H2415     1.0  0.82988  0.17830  0.91834  1.0000
  C   C1369     1.0  0.83559  0.18163  0.94531  1.0000
  C   C1370     1.0  0.85263  0.06475  0.89999  1.0000
  H   H2416     1.0  0.81182  0.20597  0.91991  1.0000
  H   H2417     1.0  0.84489  0.20642  0.92717  1.0000
  H   H2418     1.0  0.82776  0.17576  0.96855  1.0000
  H   H2419     1.0  0.84908  0.17599  0.94639  1.0000
  H   H2420     1.0  0.84393  0.06672  0.87575  1.0000
  H   H2421     1.0  0.95830  0.02032  0.94853  1.0000
  H   H2422     1.0  0.87601  0.06539  0.86664  1.0000
  H   H2423     1.0  0.88788  0.09182  0.82097  1.0000
  C   C1371     1.0  0.75928  0.21770  0.88494  1.0000
  H   H2424     1.0  0.92577  0.23452  0.28049  1.0000
  H   H2425     1.0  0.87825  0.20875  0.31094  1.0000
  H   H2426     1.0  0.85428  0.05063  0.90585  1.0000
  H   H2427     1.0  0.87915  0.15458  0.89012  1.0000
  H   H2428     1.0  0.89962  0.07916  0.85475  1.0000
  C   C1372     1.0  0.95221  0.02361  0.60800  1.0000
  C   C1373     1.0  0.86852  0.09206  0.88201  1.0000
  H   H2429     1.0  0.86059  0.09373  0.85648  1.0000
  H   H2430     1.0  0.96062  0.02938  0.58682  1.0000
  H   H2431     1.0  0.96309  0.21592  0.00317  1.0000
  C   C1374     1.0  0.89487  0.10047  0.91356  1.0000
  H   H2432     1.0  0.90288  0.08816  0.91538  1.0000
  H   H2433     1.0  0.84150  0.20337  0.97712  1.0000
  H   H2434     1.0  0.76084  0.16921  0.91422  1.0000
  H   H2435     1.0  0.85138  0.22945  0.97346  1.0000
  H   H2436     1.0  0.86127  0.01796  0.89638  1.0000
  C   C1375     1.0  0.82531  0.23753  0.91718  1.0000
  H   H2437     1.0  0.93428  0.09765  0.79292  1.0000
  N   N78       1.0  0.88534  0.10153  0.87705  1.0000
  H   H2438     1.0  0.90955  0.10852  0.98110  1.0000
  H   H2439     1.0  0.88547  0.09971  0.93776  1.0000
  C   C1376     1.0  0.91334  0.10094  0.83434  1.0000
  H   H2440     1.0  0.99581  0.17115  0.11179  1.0000
  H   H2441     1.0  0.82086  0.23199  0.89073  1.0000
  H   H2442     1.0  0.91157  0.11483  0.82650  1.0000
  H   H2443     1.0  0.79026  0.22414  0.00503  1.0000
  S   S310      1.0  0.98205  0.00322  0.03438  1.0000
  C   C1377     1.0  0.76039  0.18280  0.90616  1.0000
  C   C1378     1.0  0.94881  0.23278  0.96358  1.0000
  H   H2444     1.0  0.93304  0.15915  0.17573  1.0000
  C   C1379     1.0  0.91793  0.11133  0.95607  1.0000
  C   C1380     1.0  0.96447  0.03761  0.81259  1.0000
  C   C1381     1.0  0.81754  0.20976  0.94678  1.0000
  H   H2445     1.0  0.87567  0.12000  0.83562  1.0000
  H   H2446     1.0  0.85359  0.12520  0.88232  1.0000
  H   H2447     1.0  0.80983  0.20324  0.96935  1.0000
  C   C1382     1.0  0.88072  0.11988  0.86447  1.0000
  H   H2448     1.0  0.86303  0.24381  0.02722  1.0000
  C   C1383     1.0  0.86675  0.12963  0.88890  1.0000
  H   H2449     1.0  0.98555  0.03408  0.75814  1.0000
  H   H2450     1.0  0.89238  0.12790  0.86219  1.0000
  H   H2451     1.0  0.93924  0.01537  0.80939  1.0000
  H   H2452     1.0  0.85577  0.15557  0.89674  1.0000
  H   H2453     1.0  0.92598  0.12253  0.96210  1.0000
  C   C1384     1.0  0.86677  0.14916  0.88115  1.0000
  C   C1385     1.0  0.97620  0.02688  0.84004  1.0000
  H   H2454     1.0  0.91564  0.11889  0.89834  1.0000
  H   H2455     1.0  0.98684  0.04508  0.24094  1.0000
  H   H2456     1.0  0.94137  0.04336  0.91418  1.0000
  H   H2457     1.0  0.92276  0.09932  0.85723  1.0000
  C   C1386     1.0  0.88653  0.24438  0.93587  1.0000
  H   H2458     1.0  0.79208  0.23251  0.92015  1.0000
  N   N79       1.0  0.81615  0.22919  0.95042  1.0000
  C   C1387     1.0  0.76700  0.23526  0.98062  1.0000
  C   C1388     1.0  0.93839  0.22758  0.27422  1.0000
  H   H2459     1.0  0.95224  0.03419  0.51120  1.0000
  H   H2460     1.0  0.75618  0.21350  0.73241  1.0000
  H   H2461     1.0  0.83950  0.23439  0.91698  1.0000
  C   C1389     1.0  0.82316  0.23459  0.98741  1.0000
  H   H2462     1.0  0.94651  0.24910  0.23836  1.0000
  S   S311      1.0  0.90174  0.24465  0.20387  1.0000
  H   H2463     1.0  0.98710  0.02011  0.82493  1.0000
  Fe  Fe155     1.0  0.92227  0.24461  0.15562  1.0000
  H   H2464     1.0  0.95428  0.02051  0.47124  1.0000
  C   C1390     1.0  0.00092  0.16151  0.20452  1.0000
  H   H2465     1.0  0.93177  0.01428  0.54215  1.0000
  H   H2466     1.0  0.98732  0.01655  0.66042  1.0000
  H   H2467     1.0  0.87360  0.24195  0.25785  1.0000
  H   H2468     1.0  0.94439  0.23137  0.93461  1.0000
  H   H2469     1.0  0.95959  0.00353  0.80705  1.0000
  H   H2470     1.0  0.93446  0.00766  0.74215  1.0000
  H   H2471     1.0  0.79522  0.24878  0.95310  1.0000
  C   C1391     1.0  0.99652  0.05540  0.24062  1.0000
  C   C1392     1.0  0.95494  0.00622  0.61865  1.0000
  H   H2472     1.0  0.87740  0.24370  0.59753  1.0000
  H   H2473     1.0  0.92174  0.00321  0.68423  1.0000
  H   H2474     1.0  0.00024  0.05342  0.37220  1.0000
  H   H2475     1.0  0.75803  0.23403  0.20467  1.0000
  H   H2476     1.0  0.98346  0.00249  0.36879  1.0000
  C   C1393     1.0  0.86398  0.24655  0.60589  1.0000
  H   H2477     1.0  0.96758  0.24736  0.99305  1.0000
  H   H2478     1.0  0.97186  0.24489  0.94436  1.0000
  C   C1394     1.0  0.94084  0.00911  0.52013  1.0000
  C   C1395     1.0  0.94406  0.00049  0.75969  1.0000
  H   H2479     1.0  0.77190  0.24784  0.17747  1.0000
  H   H2480     1.0  0.91985  0.00069  0.48697  1.0000
  H   H2481     1.0  0.00100  0.02230  0.69800  1.0000
  H   H2482     1.0  0.76352  0.24896  0.45306  1.0000
  H   H2483     1.0  0.96820  0.00025  0.21189  1.0000
  C   C1396     1.0  0.94583  0.99946  0.92232  1.0000
  Fe  Fe156     1.0  0.86394  0.46274  0.48646  1.0000
  S   S312      1.0  0.87818  0.44762  0.44121  1.0000
  H   H2484     1.0  0.93855  0.43226  0.75362  1.0000
  Fe  Fe157     1.0  0.89627  0.46159  0.53763  1.0000
  S   S313      1.0  0.91236  0.44610  0.49632  1.0000
  S   S314      1.0  0.90550  0.47517  0.58970  1.0000
  Fe  Fe158     1.0  0.90095  0.46418  0.45261  1.0000
  S   S315      1.0  0.91678  0.48163  0.41425  1.0000
  Fe  Fe159     1.0  0.88828  0.43042  0.48850  1.0000
  S   S316      1.0  0.89224  0.40079  0.48507  1.0000
  S   S317      1.0  0.88586  0.48040  0.49417  1.0000
  S   S318      1.0  0.87294  0.44468  0.53348  1.0000
  H   H2485     1.0  0.97822  0.41460  0.85039  1.0000
  H   H2486     1.0  0.86569  0.25721  0.31667  1.0000
  H   H2487     1.0  0.97899  0.44472  0.46794  1.0000
  S   S319      1.0  0.97937  0.47283  0.67032  1.0000
  H   H2488     1.0  0.80417  0.31360  0.54090  1.0000
  H   H2489     1.0  0.76782  0.26117  0.30743  1.0000
  S   S320      1.0  0.97403  0.45464  0.29653  1.0000
  H   H2490     1.0  0.76443  0.26381  0.49111  1.0000
  Fe  Fe160     1.0  0.84230  0.31196  0.45160  1.0000
  S   S321      1.0  0.86689  0.29562  0.45538  1.0000
  S   S322      1.0  0.83838  0.34007  0.47010  1.0000
  Fe  Fe161     1.0  0.82175  0.28161  0.42354  1.0000
  S   S323      1.0  0.84544  0.26322  0.42621  1.0000
  S   S324      1.0  0.79587  0.26989  0.40816  1.0000
  Fe  Fe162     1.0  0.85021  0.27499  0.48216  1.0000
  H   H2491     1.0  0.82163  0.26367  0.94105  1.0000
  Fe  Fe163     1.0  0.86017  0.28517  0.39927  1.0000
  S   S325      1.0  0.88269  0.28513  0.35532  1.0000
  S   S326      1.0  0.82583  0.29190  0.48090  1.0000
  S   S327      1.0  0.83628  0.30300  0.39380  1.0000
  H   H2492     1.0  0.00065  0.29284  0.96870  1.0000
  C   C1397     1.0  0.80734  0.49329  0.46525  1.0000
  Fe  Fe164     1.0  0.94664  0.26211  0.09815  1.0000
  S   S328      1.0  0.95503  0.28898  0.07732  1.0000
  H   H2493     1.0  0.87056  0.30615  0.63153  1.0000
  H   H2494     1.0  0.98367  0.45456  0.88256  1.0000
  H   H2495     1.0  0.79931  0.48337  0.47771  1.0000
  C   C1398     1.0  0.90721  0.26921  0.25841  1.0000
  C   C1399     1.0  0.90272  0.27780  0.29196  1.0000
  C   C1400     1.0  0.88769  0.27363  0.31332  1.0000
  H   H2496     1.0  0.77287  0.28267  0.29076  1.0000
  H   H2497     1.0  0.98607  0.45338  0.52312  1.0000
  H   H2498     1.0  0.84658  0.45860  0.59082  1.0000
  H   H2499     1.0  0.91093  0.28780  0.30141  1.0000
  C   C1401     1.0  0.92756  0.26342  0.91287  1.0000
  C   C1402     1.0  0.77690  0.28026  0.38913  1.0000
  H   H2500     1.0  0.85473  0.35207  0.55767  1.0000
  H   H2501     1.0  0.78685  0.30590  0.38618  1.0000
  C   C1403     1.0  0.97552  0.46355  0.86501  1.0000
  H   H2502     1.0  0.97335  0.46646  0.15630  1.0000
  H   H2503     1.0  0.99372  0.32395  0.12151  1.0000
  C   C1404     1.0  0.97989  0.36072  0.09930  1.0000
  C   C1405     1.0  0.95597  0.46248  0.47769  1.0000
  H   H2504     1.0  0.75995  0.31941  0.35918  1.0000
  H   H2505     1.0  0.96870  0.38509  0.86458  1.0000
  C   C1406     1.0  0.97533  0.29735  0.06155  1.0000
  C   C1407     1.0  0.97565  0.31457  0.04782  1.0000
  C   C1408     1.0  0.99132  0.32179  0.03451  1.0000
  H   H2506     1.0  0.99984  0.41827  0.78087  1.0000
  H   H2507     1.0  0.96364  0.32233  0.04708  1.0000
  H   H2508     1.0  0.99125  0.33486  0.02308  1.0000
  C   C1409     1.0  0.93305  0.47377  0.38279  1.0000
  C   C1410     1.0  0.93545  0.45610  0.37611  1.0000
  C   C1411     1.0  0.94822  0.45039  0.34988  1.0000
  C   C1412     1.0  0.95880  0.46227  0.33060  1.0000
  C   C1413     1.0  0.95670  0.47990  0.33806  1.0000
  C   C1414     1.0  0.94376  0.48563  0.36386  1.0000
  H   H2509     1.0  0.92722  0.44689  0.39051  1.0000
  H   H2510     1.0  0.94980  0.43673  0.34418  1.0000
  C   C1415     1.0  0.83739  0.36683  0.59289  1.0000
  C   C1416     1.0  0.85154  0.47067  0.60219  1.0000
  C   C1417     1.0  0.92659  0.47503  0.60984  1.0000
  C   C1418     1.0  0.93986  0.46293  0.60016  1.0000
  C   C1419     1.0  0.95596  0.46269  0.61852  1.0000
  C   C1420     1.0  0.95920  0.47468  0.64635  1.0000
  C   C1421     1.0  0.94611  0.48709  0.65525  1.0000
  C   C1422     1.0  0.92989  0.48714  0.63736  1.0000
  H   H2511     1.0  0.93754  0.45347  0.57925  1.0000
  H   H2512     1.0  0.96591  0.45296  0.61144  1.0000
  H   H2513     1.0  0.98677  0.39094  0.20646  1.0000
  C   C1423     1.0  0.82559  0.49059  0.46380  1.0000
  C   C1424     1.0  0.87689  0.38412  0.48233  1.0000
  C   C1425     1.0  0.88307  0.36675  0.48048  1.0000
  C   C1426     1.0  0.87149  0.35311  0.47725  1.0000
  C   C1427     1.0  0.85352  0.35665  0.47592  1.0000
  C   C1428     1.0  0.84730  0.37395  0.47862  1.0000
  C   C1429     1.0  0.85888  0.38761  0.48158  1.0000
  H   H2514     1.0  0.89695  0.36386  0.48134  1.0000
  H   H2515     1.0  0.87642  0.33988  0.47572  1.0000
  H   H2516     1.0  0.83342  0.37687  0.47783  1.0000
  H   H2517     1.0  0.85389  0.40086  0.48313  1.0000
  H   H2518     1.0  0.96510  0.46955  0.88303  1.0000
  H   H2519     1.0  0.87800  0.32615  0.58103  1.0000
  H   H2520     1.0  0.93164  0.25157  0.85851  1.0000
  H   H2521     1.0  0.86733  0.29536  0.53486  1.0000
  H   H2522     1.0  0.95404  0.42678  0.49158  1.0000
  H   H2523     1.0  0.98390  0.38371  0.06405  1.0000
  C   C1430     1.0  0.80524  0.30415  0.56472  1.0000
  H   H2524     1.0  0.95833  0.44457  0.84669  1.0000
  C   C1431     1.0  0.89332  0.30457  0.53198  1.0000
  S   S329      1.0  0.86079  0.25982  0.53384  1.0000
  C   C1432     1.0  0.77009  0.26354  0.24627  1.0000
  C   C1433     1.0  0.79462  0.26465  0.29239  1.0000
  H   H2525     1.0  0.95990  0.46367  0.81655  1.0000
  H   H2526     1.0  0.96577  0.31012  0.13757  1.0000
  H   H2527     1.0  0.84540  0.47265  0.63025  1.0000
  H   H2528     1.0  0.97683  0.30282  0.17942  1.0000
  H   H2529     1.0  0.95559  0.31355  0.18268  1.0000
  C   C1434     1.0  0.98179  0.46816  0.09775  1.0000
  H   H2530     1.0  0.83602  0.33561  0.62622  1.0000
  H   H2531     1.0  0.96751  0.34062  0.15630  1.0000
  H   H2532     1.0  0.93891  0.45314  0.69974  1.0000
  H   H2533     1.0  0.99224  0.26403  0.94790  1.0000
  C   C1435     1.0  0.83544  0.25860  0.59157  1.0000
  H   H2534     1.0  0.83813  0.26023  0.86211  1.0000
  C   C1436     1.0  0.99891  0.35968  0.17453  1.0000
  N   N80       1.0  0.96532  0.47933  0.48020  1.0000
  H   H2535     1.0  0.98679  0.41386  0.74196  1.0000
  H   H2536     1.0  0.96612  0.43658  0.72258  1.0000
  H   H2537     1.0  0.82525  0.36546  0.61008  1.0000
  C   C1437     1.0  0.93645  0.45769  0.72868  1.0000
  H   H2538     1.0  0.99266  0.46944  0.58026  1.0000
  H   H2539     1.0  0.95720  0.38482  0.82133  1.0000
  H   H2540     1.0  0.92621  0.27461  0.85637  1.0000
  C   C1438     1.0  0.97540  0.47981  0.51579  1.0000
  H   H2541     1.0  0.94488  0.26708  0.01584  1.0000
  H   H2542     1.0  0.96994  0.45605  0.74565  1.0000
  C   C1439     1.0  0.83689  0.26595  0.89022  1.0000
  C   C1440     1.0  0.86775  0.31893  0.56713  1.0000
  H   H2543     1.0  0.96871  0.48150  0.42029  1.0000
  H   H2544     1.0  0.86407  0.29067  0.69466  1.0000
  N   N81       1.0  0.95359  0.26601  0.95802  1.0000
  C   C1441     1.0  0.93971  0.26999  0.98750  1.0000
  S   S330      1.0  0.98658  0.49213  0.77404  1.0000
  C   C1442     1.0  0.96797  0.27859  0.96270  1.0000
  C   C1443     1.0  0.94689  0.26790  0.91867  1.0000
  H   H2545     1.0  0.84136  0.25015  0.04352  1.0000
  C   C1444     1.0  0.93256  0.28907  0.98772  1.0000
  Fe  Fe165     1.0  0.99362  0.48901  0.71267  1.0000
  H   H2546     1.0  0.97431  0.36873  0.12219  1.0000
  H   H2547     1.0  0.78788  0.49229  0.33483  1.0000
  H   H2548     1.0  0.83386  0.28004  0.88670  1.0000
  C   C1445     1.0  0.91546  0.29086  0.01026  1.0000
  C   C1446     1.0  0.00114  0.38859  0.20592  1.0000
  H   H2549     1.0  0.96669  0.47726  0.54047  1.0000
  H   H2550     1.0  0.96474  0.48914  0.32324  1.0000
  H   H2551     1.0  0.94370  0.46460  0.46193  1.0000
  H   H2552     1.0  0.75704  0.48908  0.37004  1.0000
  H   H2553     1.0  0.97213  0.27844  0.99238  1.0000
  H   H2554     1.0  0.96315  0.29209  0.95656  1.0000
  H   H2555     1.0  0.94810  0.28146  0.90782  1.0000
  H   H2556     1.0  0.80279  0.27204  0.27203  1.0000
  H   H2557     1.0  0.95181  0.45776  0.50610  1.0000
  H   H2558     1.0  0.84342  0.29580  0.71767  1.0000
  H   H2559     1.0  0.94208  0.29738  0.00087  1.0000
  H   H2560     1.0  0.93039  0.29430  0.95904  1.0000
  H   H2561     1.0  0.91875  0.27265  0.24238  1.0000
  H   H2562     1.0  0.00014  0.46734  0.49549  1.0000
  Fe  Fe166     1.0  0.99469  0.47183  0.27124  1.0000
  C   C1447     1.0  0.97741  0.37115  0.06288  1.0000
  H   H2563     1.0  0.98538  0.39964  0.81479  1.0000
  C   C1448     1.0  0.93710  0.49249  0.51194  1.0000
  H   H2564     1.0  0.86590  0.46902  0.60493  1.0000
  C   C1449     1.0  0.96573  0.44729  0.45735  1.0000
  H   H2565     1.0  0.99119  0.48381  0.03690  1.0000
  C   C1450     1.0  0.94465  0.44493  0.75702  1.0000
  H   H2566     1.0  0.91738  0.28627  0.03956  1.0000
  H   H2567     1.0  0.91101  0.30469  0.01068  1.0000
  H   H2568     1.0  0.98679  0.47153  0.44270  1.0000
  C   C1451     1.0  0.96826  0.31322  0.16700  1.0000
  C   C1452     1.0  0.76246  0.27024  0.38186  1.0000
  C   C1453     1.0  0.97662  0.33080  0.16872  1.0000
  H   H2569     1.0  0.82655  0.26490  0.57217  1.0000
  C   C1454     1.0  0.81945  0.30915  0.59109  1.0000
  H   H2570     1.0  0.80986  0.26050  0.89929  1.0000
  S   S331      1.0  0.83503  0.47129  0.48408  1.0000
  H   H2571     1.0  0.80807  0.29097  0.55397  1.0000
  C   C1455     1.0  0.75977  0.25105  0.48280  1.0000
  H   H2572     1.0  0.90312  0.30981  0.55053  1.0000
  H   H2573     1.0  0.92214  0.45885  0.73380  1.0000
  H   H2574     1.0  0.81509  0.32162  0.60341  1.0000
  C   C1456     1.0  0.83736  0.31042  0.57051  1.0000
  H   H2575     1.0  0.98907  0.45526  0.79522  1.0000
  C   C1457     1.0  0.97267  0.45885  0.13050  1.0000
  H   H2576     1.0  0.89856  0.29206  0.52091  1.0000
  C   C1458     1.0  0.96460  0.41843  0.79690  1.0000
  C   C1459     1.0  0.00150  0.47002  0.10492  1.0000
  C   C1460     1.0  0.84681  0.30843  0.66316  1.0000
  C   C1461     1.0  0.84308  0.34957  0.57566  1.0000
  H   H2577     1.0  0.85474  0.29169  0.61727  1.0000
  C   C1462     1.0  0.99096  0.28745  0.06199  1.0000
  C   C1463     1.0  0.95579  0.43057  0.46160  1.0000
  H   H2578     1.0  0.98372  0.47402  0.85339  1.0000
  H   H2579     1.0  0.83258  0.31044  0.66036  1.0000
  H   H2580     1.0  0.94113  0.44953  0.78531  1.0000
  H   H2581     1.0  0.84437  0.28119  0.67925  1.0000
  H   H2582     1.0  0.93003  0.48032  0.50995  1.0000
  H   H2583     1.0  0.95238  0.42356  0.81035  1.0000
  H   H2584     1.0  0.99466  0.44305  0.71269  1.0000
  C   C1464     1.0  0.96167  0.39331  0.84351  1.0000
  H   H2585     1.0  0.98134  0.27394  0.90823  1.0000
  C   C1465     1.0  0.99088  0.42443  0.76011  1.0000
  H   H2586     1.0  0.99097  0.27419  0.07239  1.0000
  H   H2587     1.0  0.94832  0.49640  0.67655  1.0000
  C   C1466     1.0  0.87726  0.26061  0.30068  1.0000
  H   H2588     1.0  0.98463  0.36213  0.17710  1.0000
  H   H2589     1.0  0.84097  0.29705  0.56146  1.0000
  H   H2590     1.0  0.95871  0.45741  0.12423  1.0000
  H   H2591     1.0  0.94192  0.47072  0.73120  1.0000
  H   H2592     1.0  0.96330  0.37386  0.05854  1.0000
  H   H2593     1.0  0.92854  0.26144  0.98548  1.0000
  C   C1467     1.0  0.84731  0.33556  0.60633  1.0000
  H   H2594     1.0  0.85831  0.34026  0.62262  1.0000
  N   N82       1.0  0.97511  0.43282  0.77951  1.0000
  H   H2595     1.0  0.94528  0.49535  0.45361  1.0000
  H   H2596     1.0  0.96317  0.41996  0.44714  1.0000
  H   H2597     1.0  0.94281  0.43222  0.44870  1.0000
  C   C1468     1.0  0.96467  0.44289  0.75027  1.0000
  C   C1469     1.0  0.99484  0.33050  0.14876  1.0000
  H   H2598     1.0  0.88498  0.25750  0.92490  1.0000
  H   H2599     1.0  0.91859  0.27357  0.92470  1.0000
  H   H2600     1.0  0.83238  0.34563  0.55781  1.0000
  H   H2601     1.0  0.97948  0.46095  0.07218  1.0000
  H   H2602     1.0  0.83558  0.31799  0.54394  1.0000
  H   H2603     1.0  0.97531  0.48120  0.09462  1.0000
  H   H2604     1.0  0.99092  0.43774  0.82709  1.0000
  H   H2605     1.0  0.77879  0.27028  0.22565  1.0000
  H   H2606     1.0  0.90965  0.25932  0.86827  1.0000
  H   H2607     1.0  0.97235  0.34882  0.09722  1.0000
  C   C1470     1.0  0.97389  0.40681  0.82693  1.0000
  N   N83       1.0  0.87733  0.35593  0.35539  1.0000
  C   C1471     1.0  0.86045  0.35631  0.37793  1.0000
  C   C1472     1.0  0.89187  0.34910  0.38000  1.0000
  C   C1473     1.0  0.88115  0.37449  0.34464  1.0000
  C   C1474     1.0  0.87649  0.34546  0.32034  1.0000
  C   C1475     1.0  0.86457  0.32959  0.32204  1.0000
  C   C1476     1.0  0.84466  0.36559  0.35870  1.0000
  C   C1477     1.0  0.89906  0.37751  0.32493  1.0000
  C   C1478     1.0  0.89077  0.33016  0.39467  1.0000
  C   C1479     1.0  0.90551  0.32545  0.42142  1.0000
  C   C1480     1.0  0.86789  0.31811  0.28823  1.0000
  C   C1481     1.0  0.82742  0.36080  0.37781  1.0000
  C   C1482     1.0  0.89994  0.39597  0.30878  1.0000
  H   H2608     1.0  0.86220  0.36320  0.40437  1.0000
  H   H2609     1.0  0.85667  0.34310  0.38688  1.0000
  H   H2610     1.0  0.90462  0.34943  0.36469  1.0000
  H   H2611     1.0  0.89294  0.35761  0.40451  1.0000
  H   H2612     1.0  0.88037  0.38274  0.36988  1.0000
  H   H2613     1.0  0.87108  0.37997  0.32543  1.0000
  H   H2614     1.0  0.87181  0.35373  0.29643  1.0000
  H   H2615     1.0  0.88985  0.34079  0.31158  1.0000
  H   H2616     1.0  0.85063  0.33387  0.32206  1.0000
  H   H2617     1.0  0.86644  0.32142  0.34746  1.0000
  H   H2618     1.0  0.84569  0.37986  0.36055  1.0000
  H   H2619     1.0  0.84416  0.36246  0.32871  1.0000
  H   H2620     1.0  0.90158  0.36837  0.30181  1.0000
  H   H2621     1.0  0.90972  0.37585  0.34527  1.0000
  H   H2622     1.0  0.87829  0.32787  0.40982  1.0000
  H   H2623     1.0  0.89238  0.32119  0.37103  1.0000
  H   H2624     1.0  0.91839  0.32658  0.40688  1.0000
  H   H2625     1.0  0.90491  0.33400  0.44592  1.0000
  H   H2626     1.0  0.90431  0.31183  0.43159  1.0000
  H   H2627     1.0  0.85920  0.30692  0.29026  1.0000
  H   H2628     1.0  0.86523  0.32548  0.26184  1.0000
  H   H2629     1.0  0.88158  0.31293  0.28756  1.0000
  H   H2630     1.0  0.82711  0.36473  0.40748  1.0000
  H   H2631     1.0  0.81641  0.36762  0.36344  1.0000
  H   H2632     1.0  0.82561  0.34663  0.37676  1.0000
  H   H2633     1.0  0.89771  0.40555  0.33122  1.0000
  H   H2634     1.0  0.91305  0.39794  0.29585  1.0000
  H   H2635     1.0  0.89005  0.39833  0.28694  1.0000
  H   H2636     1.0  0.87923  0.29236  0.57709  1.0000
  C   C1483     1.0  0.92361  0.26220  0.87141  1.0000
  H   H2637     1.0  0.83273  0.48605  0.57222  1.0000
  C   C1484     1.0  0.89675  0.25622  0.24574  1.0000
  C   C1485     1.0  0.84991  0.29308  0.69024  1.0000
  H   H2638     1.0  0.79250  0.30406  0.58007  1.0000
  H   H2639     1.0  0.95018  0.39970  0.85759  1.0000
  C   C1486     1.0  0.98148  0.44474  0.80859  1.0000
  H   H2640     1.0  0.98017  0.49304  0.51992  1.0000
  H   H2641     1.0  0.85364  0.48350  0.54838  1.0000
  H   H2642     1.0  0.90519  0.28331  0.99761  1.0000
  C   C1487     1.0  0.77587  0.29803  0.38084  1.0000
  C   C1488     1.0  0.87624  0.30158  0.55370  1.0000
  H   H2643     1.0  0.92413  0.25104  0.92661  1.0000
  C   C1489     1.0  0.96736  0.45388  0.83347  1.0000
  H   H2644     1.0  0.85177  0.32014  0.67618  1.0000
  S   S332      1.0  0.91740  0.25874  0.10077  1.0000
  C   C1490     1.0  0.85648  0.30540  0.62508  1.0000
  H   H2645     1.0  0.97874  0.44576  0.13546  1.0000
  H   H2646     1.0  0.94254  0.49296  0.54030  1.0000
  C   C1491     1.0  0.00120  0.47014  0.55475  1.0000
  H   H2647     1.0  0.86452  0.32645  0.54112  1.0000
  H   H2648     1.0  0.89116  0.31374  0.50803  1.0000
  H   H2649     1.0  0.97796  0.33377  0.19874  1.0000
  C   C1492     1.0  0.99093  0.46667  0.51979  1.0000
  H   H2650     1.0  0.96032  0.40983  0.77458  1.0000
  H   H2651     1.0  0.83480  0.37660  0.57020  1.0000
  H   H2652     1.0  0.99786  0.45869  0.01332  1.0000
  C   C1493     1.0  0.97674  0.48210  0.44571  1.0000
  H   H2653     1.0  0.84782  0.37161  0.61049  1.0000
  N   N84       1.0  0.85183  0.31756  0.59266  1.0000
  H   H2654     1.0  0.75866  0.29331  0.22123  1.0000
  H   H2655     1.0  0.82019  0.29890  0.61329  1.0000
  C   C1494     1.0  0.76058  0.30565  0.36552  1.0000
  H   H2656     1.0  0.96694  0.45037  0.42690  1.0000
  C   C1495     1.0  0.85269  0.25485  0.58006  1.0000
  C   C1496     1.0  0.98464  0.27566  0.93787  1.0000
  H   H2657     1.0  0.98283  0.36387  0.03866  1.0000
  H   H2658     1.0  0.79795  0.26845  0.32101  1.0000
  H   H2659     1.0  0.00068  0.42036  0.13496  1.0000
  C   C1497     1.0  0.82951  0.25371  0.62794  1.0000
  C   C1498     1.0  0.88181  0.25195  0.26726  1.0000
  C   C1499     1.0  0.99662  0.29098  0.93955  1.0000
  H   H2660     1.0  0.98998  0.30308  0.92903  1.0000
  C   C1500     1.0  0.77526  0.26865  0.28604  1.0000
  H   H2661     1.0  0.81605  0.25641  0.63615  1.0000
  H   H2662     1.0  0.76324  0.25643  0.38750  1.0000
  C   C1501     1.0  0.82239  0.25750  0.91338  1.0000
  H   H2663     1.0  0.84487  0.25177  0.97380  1.0000
  H   H2664     1.0  0.95522  0.25989  0.89932  1.0000
  H   H2665     1.0  0.91977  0.49657  0.64515  1.0000
  C   C1502     1.0  0.95170  0.49397  0.48118  1.0000
  H   H2666     1.0  0.99971  0.44259  0.05091  1.0000
  H   H2667     1.0  0.84953  0.26420  0.90449  1.0000
  C   C1503     1.0  0.84705  0.48592  0.57576  1.0000
  H   H2668     1.0  0.89887  0.25206  0.98640  1.0000
  H   H2669     1.0  0.95259  0.25044  0.28636  1.0000
  C   C1504     1.0  0.99932  0.35570  0.10533  1.0000
  H   H2670     1.0  0.80871  0.49800  0.35213  1.0000
  H   H2671     1.0  0.77381  0.24962  0.24406  1.0000
  H   H2672     1.0  0.79774  0.25057  0.28978  1.0000
  S   S333      1.0  0.00185  0.46997  0.21023  1.0000
  H   H2673     1.0  0.00171  0.47911  0.12847  1.0000
  C   C1505     1.0  0.98658  0.49927  0.44294  1.0000
  H   H2674     1.0  0.99026  0.49895  0.38216  1.0000
  S   S334      1.0  0.95122  0.24941  0.15497  1.0000
  Fe  Fe167     1.0  0.78827  0.66270  0.01546  1.0000
  S   S335      1.0  0.81581  0.67188  0.01919  1.0000
  H   H2675     1.0  0.82325  0.52016  0.58193  1.0000
  Fe  Fe168     1.0  0.78883  0.64796  0.09756  1.0000
  S   S336      1.0  0.81619  0.65620  0.10610  1.0000
  S   S337      1.0  0.77760  0.59171  0.29433  1.0000
  Fe  Fe169     1.0  0.80802  0.68129  0.07684  1.0000
  S   S338      1.0  0.81779  0.70743  0.09520  1.0000
  Fe  Fe170     1.0  0.82220  0.64632  0.04827  1.0000
  S   S339      1.0  0.84606  0.62809  0.03759  1.0000
  S   S340      1.0  0.79500  0.63638  0.04116  1.0000
  S   S341      1.0  0.77379  0.58280  0.39801  1.0000
  Fe  Fe171     1.0  0.77368  0.55384  0.40673  1.0000
  S   S342      1.0  0.80076  0.54273  0.42279  1.0000
  Fe  Fe172     1.0  0.99079  0.62614  0.01899  1.0000
  S   S343      1.0  0.97117  0.63043  0.06544  1.0000
  H   H2676     1.0  0.99823  0.60241  0.20124  1.0000
  Fe  Fe173     1.0  0.97273  0.59331  0.99309  1.0000
  S   S344      1.0  0.95173  0.59591  0.03817  1.0000
  H   H2677     1.0  0.98495  0.53696  0.20846  1.0000
  Fe  Fe174     1.0  0.95083  0.62439  0.02399  1.0000
  S   S345      1.0  0.92736  0.64350  0.02007  1.0000
  Fe  Fe175     1.0  0.97359  0.60164  0.07579  1.0000
  S   S346      1.0  0.97468  0.59066  0.13492  1.0000
  S   S347      1.0  0.97043  0.62154  0.97598  1.0000
  H   H2678     1.0  0.80416  0.69741  0.95573  1.0000
  H   H2679     1.0  0.78892  0.50904  0.36878  1.0000
  S   S348      1.0  0.98516  0.54428  0.79134  1.0000
  H   H2680     1.0  0.91755  0.50741  0.48066  1.0000
  H   H2681     1.0  0.99063  0.53005  0.32680  1.0000
  C   C1506     1.0  0.82778  0.56321  0.34516  1.0000
  C   C1507     1.0  0.82592  0.53693  0.53275  1.0000
  C   C1508     1.0  0.97672  0.56188  0.91333  1.0000
  N   N85       1.0  0.78223  0.67807  0.22375  1.0000
  C   C1509     1.0  0.79562  0.50319  0.34396  1.0000
  C   C1510     1.0  0.98225  0.55063  0.83871  1.0000
  C   C1511     1.0  0.97829  0.56817  0.84631  1.0000
  C   C1512     1.0  0.97566  0.57380  0.88335  1.0000
  H   H2682     1.0  0.82565  0.59130  0.35049  1.0000
  H   H2683     1.0  0.84505  0.53661  0.61220  1.0000
  H   H2684     1.0  0.97725  0.57745  0.82328  1.0000
  H   H2685     1.0  0.97257  0.58730  0.88861  1.0000
  C   C1513     1.0  0.98168  0.56879  0.14055  1.0000
  C   C1514     1.0  0.98016  0.56054  0.17584  1.0000
  C   C1515     1.0  0.98629  0.54330  0.18133  1.0000
  H   H2686     1.0  0.76533  0.73432  0.93362  1.0000
  H   H2687     1.0  0.99504  0.50056  0.46731  1.0000
  H   H2688     1.0  0.85933  0.52397  0.24851  1.0000
  H   H2689     1.0  0.77299  0.71470  0.30685  1.0000
  C   C1516     1.0  0.78304  0.65993  0.28597  1.0000
  H   H2690     1.0  0.80225  0.54920  0.51095  1.0000
  C   C1517     1.0  0.99392  0.53425  0.15140  1.0000
  H   H2691     1.0  0.75544  0.60424  0.86860  1.0000
  C   C1518     1.0  0.76380  0.70238  0.25717  1.0000
  C   C1519     1.0  0.79801  0.54829  0.26697  1.0000
  H   H2692     1.0  0.81647  0.57365  0.29513  1.0000
  H   H2693     1.0  0.81078  0.69824  0.19562  1.0000
  C   C1520     1.0  0.80967  0.52201  0.43641  1.0000
  H   H2694     1.0  0.95781  0.50653  0.48574  1.0000
  C   C1521     1.0  0.76577  0.71829  0.28110  1.0000
  S   S349      1.0  0.76953  0.67109  0.96778  1.0000
  H   H2695     1.0  0.78309  0.69963  0.00451  1.0000
  C   C1522     1.0  0.83937  0.73271  0.01740  1.0000
  H   H2696     1.0  0.78280  0.71456  0.12823  1.0000
  C   C1523     1.0  0.86862  0.63289  0.03477  1.0000
  C   C1524     1.0  0.87431  0.64969  0.02786  1.0000
  C   C1525     1.0  0.89230  0.65270  0.02367  1.0000
  C   C1526     1.0  0.90486  0.63903  0.02681  1.0000
  C   C1527     1.0  0.89920  0.62229  0.03445  1.0000
  C   C1528     1.0  0.88120  0.61923  0.03805  1.0000
  H   H2697     1.0  0.86482  0.66032  0.02513  1.0000
  H   H2698     1.0  0.89649  0.66571  0.01784  1.0000
  H   H2699     1.0  0.90866  0.61170  0.03771  1.0000
  H   H2700     1.0  0.87698  0.60622  0.04378  1.0000
  C   C1529     1.0  0.77238  0.62384  0.18368  1.0000
  C   C1530     1.0  0.77499  0.60420  0.25197  1.0000
  C   C1531     1.0  0.78998  0.60982  0.23232  1.0000
  C   C1532     1.0  0.78873  0.61950  0.19839  1.0000
  H   H2701     1.0  0.80270  0.60662  0.24338  1.0000
  H   H2702     1.0  0.80039  0.62359  0.18364  1.0000
  C   C1533     1.0  0.79066  0.72563  0.13237  1.0000
  C   C1534     1.0  0.80793  0.72544  0.11890  1.0000
  H   H2703     1.0  0.81179  0.71577  0.93011  1.0000
  H   H2704     1.0  0.78684  0.70553  0.22398  1.0000
  C   C1535     1.0  0.80146  0.56093  0.23339  1.0000
  H   H2705     1.0  0.78373  0.52131  0.30541  1.0000
  H   H2706     1.0  0.80082  0.56633  0.32855  1.0000
  H   H2707     1.0  0.81265  0.55614  0.21581  1.0000
  C   C1536     1.0  0.78695  0.70827  0.91336  1.0000
  H   H2708     1.0  0.83048  0.51362  0.27068  1.0000
  H   H2709     1.0  0.95868  0.65958  0.98023  1.0000
  C   C1537     1.0  0.82788  0.51915  0.43422  1.0000
  C   C1538     1.0  0.77440  0.66387  0.24782  1.0000
  H   H2710     1.0  0.98076  0.65826  0.96165  1.0000
  C   C1539     1.0  0.78180  0.69523  0.24311  1.0000
  C   C1540     1.0  0.75330  0.67639  0.18686  1.0000
  H   H2711     1.0  0.92989  0.52006  0.51198  1.0000
  C   C1541     1.0  0.77373  0.72171  0.03541  1.0000
  C   C1542     1.0  0.79719  0.51669  0.31219  1.0000
  H   H2712     1.0  0.77533  0.69259  0.17334  1.0000
  C   C1543     1.0  0.98429  0.70690  0.05154  1.0000
  H   H2713     1.0  0.80560  0.68391  0.15924  1.0000
  H   H2714     1.0  0.77487  0.65156  0.23220  1.0000
  H   H2715     1.0  0.88046  0.55981  0.59627  1.0000
  H   H2716     1.0  0.78501  0.72062  0.89731  1.0000
  H   H2717     1.0  0.98119  0.53495  0.92866  1.0000
  C   C1544     1.0  0.82981  0.54173  0.27617  1.0000
  H   H2718     1.0  0.96718  0.67721  0.95187  1.0000
  H   H2719     1.0  0.84005  0.53965  0.29743  1.0000
  H   H2720     1.0  0.87244  0.52456  0.63348  1.0000
  C   C1545     1.0  0.79939  0.50883  0.45130  1.0000
  H   H2721     1.0  0.77412  0.73604  0.03388  1.0000
  C   C1546     1.0  0.98341  0.53875  0.86875  1.0000
  C   C1547     1.0  0.75538  0.71670  0.04789  1.0000
  H   H2722     1.0  0.95112  0.68069  0.02964  1.0000
  C   C1548     1.0  0.81364  0.56279  0.31491  1.0000
  S   S350      1.0  0.99471  0.59758  0.03215  1.0000
  H   H2723     1.0  0.82827  0.50960  0.53903  1.0000
  H   H2724     1.0  0.98023  0.66476  0.02903  1.0000
  C   C1549     1.0  0.81786  0.74010  0.12418  1.0000
  H   H2725     1.0  0.00089  0.53539  0.09266  1.0000
  C   C1550     1.0  0.85507  0.53453  0.58948  1.0000
  H   H2726     1.0  0.85451  0.54668  0.57240  1.0000
  C   C1551     1.0  0.77124  0.65028  0.90422  1.0000
  H   H2727     1.0  0.78574  0.55281  0.28159  1.0000
  N   N86       1.0  0.85068  0.51914  0.56679  1.0000
  H   H2728     1.0  0.88339  0.52775  0.58907  1.0000
  H   H2729     1.0  0.78395  0.69303  0.86386  1.0000
  H   H2730     1.0  0.80214  0.65934  0.20536  1.0000
  S   S351      1.0  0.99688  0.50079  0.27102  1.0000
  C   C1552     1.0  0.76617  0.64596  0.86791  1.0000
  N   N87       1.0  0.79420  0.72191  0.97677  1.0000
  C   C1553     1.0  0.78560  0.56275  0.20843  1.0000
  C   C1554     1.0  0.87312  0.53321  0.60824  1.0000
  H   H2731     1.0  0.97661  0.54838  0.33878  1.0000
  H   H2732     1.0  0.89139  0.54934  0.63512  1.0000
  H   H2733     1.0  0.87875  0.53977  0.52978  1.0000
  H   H2734     1.0  0.99797  0.60327  0.25148  1.0000
  H   H2735     1.0  0.95196  0.66515  0.08210  1.0000
  H   H2736     1.0  0.99011  0.56578  0.08322  1.0000
  N   N88       1.0  0.91270  0.58765  0.93417  1.0000
  C   C1555     1.0  0.91229  0.57330  0.90632  1.0000
  C   C1556     1.0  0.89450  0.59531  0.94170  1.0000
  C   C1557     1.0  0.92359  0.60176  0.91674  1.0000
  C   C1558     1.0  0.92105  0.58168  0.97019  1.0000
  C   C1559     1.0  0.91325  0.56572  0.99042  1.0000
  C   C1560     1.0  0.93022  0.56473  0.89507  1.0000
  C   C1561     1.0  0.92442  0.61858  0.93936  1.0000
  C   C1562     1.0  0.87900  0.58302  0.94017  1.0000
  C   C1563     1.0  0.86212  0.59182  0.95502  1.0000
  C   C1564     1.0  0.92396  0.56000  0.02426  1.0000
  C   C1565     1.0  0.92809  0.54925  0.87004  1.0000
  C   C1566     1.0  0.93385  0.63262  0.91682  1.0000
  H   H2737     1.0  0.90612  0.57830  0.88015  1.0000
  H   H2738     1.0  0.90396  0.56272  0.91671  1.0000
  H   H2739     1.0  0.89379  0.60167  0.96934  1.0000
  H   H2740     1.0  0.89131  0.60588  0.92092  1.0000
  H   H2741     1.0  0.91877  0.60541  0.88837  1.0000
  H   H2742     1.0  0.93739  0.59713  0.91272  1.0000
  H   H2743     1.0  0.93528  0.57901  0.96563  1.0000
  H   H2744     1.0  0.92021  0.59222  0.99078  1.0000
  H   H2745     1.0  0.91302  0.55448  0.97183  1.0000
  H   H2746     1.0  0.89990  0.56900  0.00109  1.0000
  H   H2747     1.0  0.93833  0.57401  0.87897  1.0000
  H   H2748     1.0  0.93742  0.55997  0.91998  1.0000
  H   H2749     1.0  0.93170  0.61593  0.96535  1.0000
  H   H2750     1.0  0.91129  0.62401  0.94719  1.0000
  H   H2751     1.0  0.87689  0.57952  0.91072  1.0000
  H   H2752     1.0  0.88124  0.57089  0.95662  1.0000
  H   H2753     1.0  0.85911  0.60403  0.93902  1.0000
  H   H2754     1.0  0.85110  0.58307  0.95230  1.0000
  H   H2755     1.0  0.86321  0.59486  0.98504  1.0000
  H   H2756     1.0  0.93776  0.55701  0.01576  1.0000
  H   H2757     1.0  0.92351  0.57029  0.04544  1.0000
  H   H2758     1.0  0.91849  0.54816  0.03744  1.0000
  H   H2759     1.0  0.92122  0.55333  0.84414  1.0000
  H   H2760     1.0  0.94117  0.54369  0.86190  1.0000
  H   H2761     1.0  0.92071  0.53903  0.88510  1.0000
  H   H2762     1.0  0.94716  0.62796  0.90818  1.0000
  H   H2763     1.0  0.92641  0.63653  0.89158  1.0000
  H   H2764     1.0  0.93498  0.64420  0.93430  1.0000
  H   H2765     1.0  0.80864  0.67264  0.24215  1.0000
  H   H2766     1.0  0.75583  0.70664  0.23299  1.0000
  H   H2767     1.0  0.84555  0.50508  0.61889  1.0000
  H   H2768     1.0  0.75933  0.65216  0.31603  1.0000
  H   H2769     1.0  0.88804  0.52004  0.47725  1.0000
  H   H2770     1.0  0.78280  0.71701  0.05739  1.0000
  C   C1567     1.0  0.96309  0.68818  0.02512  1.0000
  H   H2771     1.0  0.79803  0.74365  0.93866  1.0000
  S   S352      1.0  0.76254  0.54956  0.35016  1.0000
  C   C1568     1.0  0.80113  0.67283  0.21597  1.0000
  H   H2772     1.0  0.84244  0.72052  0.03345  1.0000
  H   H2773     1.0  0.88290  0.54203  0.46233  1.0000
  C   C1569     1.0  0.84804  0.52420  0.22962  1.0000
  H   H2774     1.0  0.97372  0.65314  0.12950  1.0000
  C   C1570     1.0  0.98046  0.54432  0.90574  1.0000
  N   N89       1.0  0.96779  0.69730  0.06016  1.0000
  C   C1571     1.0  0.99514  0.54238  0.11599  1.0000
  H   H2775     1.0  0.79609  0.68197  0.90014  1.0000
  H   H2776     1.0  0.86890  0.55662  0.64057  1.0000
  C   C1572     1.0  0.80920  0.72253  0.00325  1.0000
  Fe  Fe176     1.0  0.76166  0.57877  0.34247  1.0000
  C   C1573     1.0  0.85284  0.50318  0.59185  1.0000
  H   H2777     1.0  0.79083  0.69468  0.26699  1.0000
  S   S353      1.0  0.78034  0.67378  0.07167  1.0000
  H   H2778     1.0  0.94511  0.68124  0.11591  1.0000
  H   H2779     1.0  0.85596  0.50915  0.51157  1.0000
  C   C1574     1.0  0.77026  0.74404  0.95243  1.0000
  C   C1575     1.0  0.00101  0.55515  0.31111  1.0000
  H   H2780     1.0  0.80299  0.51020  0.28741  1.0000
  H   H2781     1.0  0.98634  0.52522  0.86341  1.0000
  H   H2782     1.0  0.98916  0.68184  0.00002  1.0000
  C   C1576     1.0  0.97139  0.68474  0.09215  1.0000
  H   H2783     1.0  0.77168  0.63460  0.29423  1.0000
  C   C1577     1.0  0.95628  0.67319  0.10514  1.0000
  H   H2784     1.0  0.83188  0.66480  0.17766  1.0000
  H   H2785     1.0  0.83700  0.68090  0.21111  1.0000
  H   H2786     1.0  0.85821  0.54359  0.50829  1.0000
  H   H2787     1.0  0.77225  0.63477  0.85467  1.0000
  H   H2788     1.0  0.76776  0.71269  0.98024  1.0000
  H   H2789     1.0  0.83007  0.54915  0.54465  1.0000
  H   H2790     1.0  0.79491  0.53589  0.25426  1.0000
  C   C1578     1.0  0.78953  0.74012  0.96316  1.0000
  H   H2791     1.0  0.80425  0.57406  0.24259  1.0000
  C   C1579     1.0  0.86243  0.51699  0.53254  1.0000
  H   H2792     1.0  0.78113  0.64245  0.91838  1.0000
  H   H2793     1.0  0.91332  0.50603  0.53044  1.0000
  H   H2794     1.0  0.80005  0.53795  0.34732  1.0000
  C   C1580     1.0  0.83042  0.67873  0.18443  1.0000
  N   N90       1.0  0.81242  0.54588  0.29487  1.0000
  C   C1581     1.0  0.83088  0.52534  0.25218  1.0000
  C   C1582     1.0  0.86884  0.53379  0.51270  1.0000
  H   H2795     1.0  0.81217  0.70941  0.01552  1.0000
  H   H2796     1.0  0.83125  0.74011  0.11399  1.0000
  C   C1583     1.0  0.79377  0.69470  0.88565  1.0000
  H   H2797     1.0  0.83121  0.53585  0.50374  1.0000
  H   H2798     1.0  0.97411  0.56750  0.19889  1.0000
  C   C1584     1.0  0.80012  0.71055  0.94474  1.0000
  H   H2799     1.0  0.78819  0.57222  0.18526  1.0000
  C   C1585     1.0  0.87736  0.53002  0.47458  1.0000
  C   C1586     1.0  0.82542  0.57942  0.36860  1.0000
  H   H2800     1.0  0.81284  0.57924  0.38460  1.0000
  H   H2801     1.0  0.83608  0.57980  0.38890  1.0000
  C   C1587     1.0  0.77939  0.71340  0.99776  1.0000
  H   H2802     1.0  0.77397  0.56762  0.22467  1.0000
  C   C1588     1.0  0.83175  0.52073  0.55620  1.0000
  S   S354      1.0  0.76983  0.63656  0.14166  1.0000
  H   H2803     1.0  0.80090  0.52625  0.51961  1.0000
  C   C1589     1.0  0.87874  0.55087  0.62077  1.0000
  H   H2804     1.0  0.80557  0.73085  0.02740  1.0000
  C   C1590     1.0  0.99818  0.49993  0.40755  1.0000
  H   H2805     1.0  0.77420  0.70399  0.92449  1.0000
  H   H2806     1.0  0.82003  0.52672  0.33753  1.0000
  H   H2807     1.0  0.82736  0.55182  0.36454  1.0000
  C   C1591     1.0  0.80606  0.53835  0.53038  1.0000
  H   H2808     1.0  0.83409  0.55302  0.25875  1.0000
  C   C1592     1.0  0.80798  0.53211  0.32417  1.0000
  C   C1593     1.0  0.82655  0.72940  0.98659  1.0000
  C   C1594     1.0  0.76354  0.66467  0.92203  1.0000
  H   H2809     1.0  0.83699  0.68639  0.16184  1.0000
  C   C1595     1.0  0.81118  0.68451  0.18743  1.0000
  H   H2810     1.0  0.83300  0.71969  0.96796  1.0000
  H   H2811     1.0  0.80610  0.69878  0.87177  1.0000
  H   H2812     1.0  0.78539  0.51084  0.45332  1.0000
  H   H2813     1.0  0.80000  0.54091  0.55830  1.0000
  C   C1596     1.0  0.92367  0.50747  0.50843  1.0000
  H   H2814     1.0  0.84096  0.56345  0.33171  1.0000
  C   C1597     1.0  0.78348  0.74029  0.15083  1.0000
  H   H2815     1.0  0.95372  0.71288  0.10148  1.0000
  H   H2816     1.0  0.78376  0.67180  0.30252  1.0000
  H   H2817     1.0  0.83384  0.74255  0.03693  1.0000
  H   H2818     1.0  0.95997  0.69798  0.00269  1.0000
  H   H2819     1.0  0.84976  0.50139  0.44539  1.0000
  C   C1598     1.0  0.97703  0.67531  0.00856  1.0000
  S   S355      1.0  0.97319  0.56800  0.96064  1.0000
  H   H2820     1.0  0.84898  0.53540  0.20968  1.0000
  H   H2821     1.0  0.97859  0.54186  0.29079  1.0000
  H   H2822     1.0  0.79637  0.65414  0.28177  1.0000
  C   C1599     1.0  0.97043  0.66712  0.97344  1.0000
  H   H2823     1.0  0.86759  0.52546  0.45512  1.0000
  C   C1600     1.0  0.98905  0.55960  0.11056  1.0000
  C   C1601     1.0  0.98580  0.54309  0.31709  1.0000
  H   H2824     1.0  0.83596  0.52922  0.42264  1.0000
  H   H2825     1.0  0.99565  0.52115  0.01210  1.0000
  H   H2826     1.0  0.75674  0.69271  0.27449  1.0000
  H   H2827     1.0  0.78274  0.55012  0.19625  1.0000
  H   H2828     1.0  0.96462  0.66852  0.16249  1.0000
  H   H2829     1.0  0.00149  0.57323  0.22946  1.0000
  C   C1602     1.0  0.77316  0.67966  0.18666  1.0000
  H   H2830     1.0  0.76035  0.66658  0.25386  1.0000
  H   H2831     1.0  0.87450  0.50932  0.53972  1.0000
  H   H2832     1.0  0.99658  0.71017  0.10562  1.0000
  H   H2833     1.0  0.95122  0.65206  0.14462  1.0000
  H   H2834     1.0  0.98014  0.72669  0.09549  1.0000
  H   H2835     1.0  0.77903  0.67014  0.16661  1.0000
  H   H2836     1.0  0.97510  0.69181  0.11727  1.0000
  H   H2837     1.0  0.82014  0.52515  0.23215  1.0000
  H   H2838     1.0  0.77288  0.72845  0.26514  1.0000
  H   H2839     1.0  0.93101  0.69302  0.06916  1.0000
  H   H2840     1.0  0.84870  0.51212  0.21339  1.0000
  H   H2841     1.0  0.85169  0.73753  0.00482  1.0000
  H   H2842     1.0  0.99549  0.56824  0.30386  1.0000
  C   C1603     1.0  0.83578  0.50348  0.44744  1.0000
  H   H2843     1.0  0.99019  0.50390  0.98160  1.0000
  C   C1604     1.0  0.93449  0.70637  0.06092  1.0000
  H   H2844     1.0  0.98285  0.67616  0.08534  1.0000
  C   C1605     1.0  0.75739  0.61845  0.20361  1.0000
  H   H2845     1.0  0.97734  0.51061  0.44132  1.0000
  H   H2846     1.0  0.77934  0.64387  0.33607  1.0000
  H   H2847     1.0  0.93284  0.70785  0.03021  1.0000
  H   H2848     1.0  0.99487  0.62346  0.89976  1.0000
  H   H2849     1.0  0.95583  0.72324  0.05691  1.0000
  H   H2850     1.0  0.75444  0.70239  0.04932  1.0000
  C   C1606     1.0  0.77267  0.64687  0.30938  1.0000
  C   C1607     1.0  0.95350  0.71045  0.07092  1.0000
  H   H2851     1.0  0.76166  0.74416  0.97781  1.0000
  Fe  Fe177     1.0  0.99703  0.51898  0.76740  1.0000
  H   H2852     1.0  0.82434  0.74169  0.97048  1.0000
  C   C1608     1.0  0.75865  0.60866  0.23740  1.0000
  C   C1609     1.0  0.96186  0.66101  0.13737  1.0000
  H   H2853     1.0  0.77012  0.74027  0.16097  1.0000
  C   C1610     1.0  0.75336  0.65592  0.84859  1.0000
  H   H2854     1.0  0.98266  0.71512  0.02571  1.0000
  C   C1611     1.0  0.99074  0.71843  0.08299  1.0000
  H   H2855     1.0  0.99547  0.69771  0.04564  1.0000
  C   C1612     1.0  0.92128  0.71881  0.07982  1.0000
  H   H2856     1.0  0.92386  0.73243  0.07150  1.0000
  H   H2857     1.0  0.99743  0.50013  0.06708  1.0000
  H   H2858     1.0  0.90791  0.71590  0.07125  1.0000
  H   H2859     1.0  0.92183  0.71727  0.11073  1.0000
  H   H2860     1.0  0.75229  0.72187  0.07607  1.0000
  H   H2861     1.0  0.86678  0.50088  0.59907  1.0000
  S   S356      1.0  0.00196  0.51663  0.70483  1.0000
  H   H2862     1.0  0.75268  0.72368  0.28951  1.0000
  H   H2863     1.0  0.94192  0.49933  0.36891  1.0000
  C   C1613     1.0  0.00110  0.51076  0.99377  1.0000
  H   H2864     1.0  0.99934  0.74007  0.04769  1.0000
  S   S357      1.0  0.78095  0.90738  0.86579  1.0000
  C   C1614     1.0  0.76559  0.77589  0.28105  1.0000
  Fe  Fe178     1.0  0.77553  0.93556  0.87993  1.0000
  S   S358      1.0  0.79402  0.95826  0.88408  1.0000
  Fe  Fe179     1.0  0.76490  0.90138  0.91861  1.0000
  S   S359      1.0  0.76866  0.87828  0.96040  1.0000
  Fe  Fe180     1.0  0.79055  0.82670  0.25353  1.0000
  S   S360      1.0  0.80886  0.80336  0.24628  1.0000
  S   S361      1.0  0.77336  0.83492  0.30507  1.0000
  Fe  Fe181     1.0  0.79571  0.83846  0.16917  1.0000
  S   S362      1.0  0.81374  0.81548  0.15727  1.0000
  S   S363      1.0  0.79166  0.86252  0.13013  1.0000
  Fe  Fe182     1.0  0.79528  0.79938  0.19206  1.0000
  S   S364      1.0  0.78359  0.77321  0.17916  1.0000
  Fe  Fe183     1.0  0.82615  0.82122  0.21201  1.0000
  S   S365      1.0  0.85605  0.82029  0.20763  1.0000
  S   S366      1.0  0.77616  0.82207  0.20048  1.0000
  S   S367      1.0  0.80889  0.84475  0.22275  1.0000
  Fe  Fe184     1.0  0.94379  0.86642  0.25777  1.0000
  S   S368      1.0  0.96667  0.85617  0.29117  1.0000
  S   S369      1.0  0.91531  0.86453  0.27767  1.0000
  Fe  Fe185     1.0  0.96744  0.88241  0.19828  1.0000
  H   H2865     1.0  0.99886  0.86975  0.12798  1.0000
  S   S370      1.0  0.96467  0.89636  0.14235  1.0000
  Fe  Fe186     1.0  0.97897  0.84804  0.23592  1.0000
  C   C1615     1.0  0.75678  0.82289  0.42918  1.0000
  Fe  Fe187     1.0  0.97838  0.88214  0.27964  1.0000
  H   H2866     1.0  0.75686  0.87560  0.52811  1.0000
  S   S371      1.0  0.95509  0.85649  0.20373  1.0000
  S   S372      1.0  0.95468  0.89306  0.25037  1.0000
  H   H2867     1.0  0.88880  0.97989  0.60091  1.0000
  H   H2868     1.0  0.95505  0.77829  0.27755  1.0000
  H   H2869     1.0  0.80060  0.77235  0.29670  1.0000
  H   H2870     1.0  0.78871  0.78963  0.57826  1.0000
  H   H2871     1.0  0.97940  0.93016  0.98024  1.0000
  C   C1616     1.0  0.93861  0.83631  0.36163  1.0000
  H   H2872     1.0  0.91584  0.94101  0.94554  1.0000
  N   N91       1.0  0.78131  0.85095  0.56795  1.0000
  Fe  Fe188     1.0  0.98084  0.98872  0.98060  1.0000
  C   C1617     1.0  0.97412  0.91661  0.13505  1.0000
  C   C1618     1.0  0.97041  0.92629  0.10236  1.0000
  C   C1619     1.0  0.97791  0.94240  0.09549  1.0000
  C   C1620     1.0  0.98924  0.94887  0.12124  1.0000
  H   H2873     1.0  0.78750  0.83422  0.61577  1.0000
  C   C1621     1.0  0.98564  0.92297  0.16057  1.0000
  H   H2874     1.0  0.75315  0.94794  0.01122  1.0000
  H   H2875     1.0  0.79576  0.86533  0.63026  1.0000
  H   H2876     1.0  0.76625  0.76154  0.28442  1.0000
  C   C1622     1.0  0.96979  0.92764  0.39631  1.0000
  C   C1623     1.0  0.97317  0.91503  0.36889  1.0000
  H   H2877     1.0  0.93452  0.95855  0.27235  1.0000
  C   C1624     1.0  0.99324  0.93904  0.15354  1.0000
  C   C1625     1.0  0.75338  0.86826  0.74823  1.0000
  H   H2878     1.0  0.95654  0.93026  0.40610  1.0000
  H   H2879     1.0  0.96258  0.90805  0.35779  1.0000
  H   H2880     1.0  0.80559  0.83508  0.51596  1.0000
  C   C1626     1.0  0.97745  0.98994  0.20164  1.0000
  C   C1627     1.0  0.78176  0.88725  0.02971  1.0000
  C   C1628     1.0  0.82913  0.96705  0.79781  1.0000
  H   H2881     1.0  0.92501  0.77433  0.29595  1.0000
  C   C1629     1.0  0.78671  0.88337  0.06694  1.0000
  C   C1630     1.0  0.87203  0.83334  0.22675  1.0000
  C   C1631     1.0  0.88909  0.83247  0.21145  1.0000
  C   C1632     1.0  0.90238  0.84221  0.22618  1.0000
  C   C1633     1.0  0.89881  0.85278  0.25677  1.0000
  C   C1634     1.0  0.88173  0.85372  0.27201  1.0000
  C   C1635     1.0  0.86839  0.84410  0.25706  1.0000
  H   H2882     1.0  0.89206  0.82419  0.18800  1.0000
  H   H2883     1.0  0.91544  0.84140  0.21410  1.0000
  H   H2884     1.0  0.87882  0.86182  0.29576  1.0000
  H   H2885     1.0  0.85537  0.84480  0.26935  1.0000
  N   N92       1.0  0.97043  0.95738  0.28656  1.0000
  H   H2886     1.0  0.80220  0.85655  0.49748  1.0000
  H   H2887     1.0  0.95711  0.80300  0.24752  1.0000
  H   H2888     1.0  0.81850  0.76595  0.14616  1.0000
  C   C1636     1.0  0.80957  0.96778  0.85258  1.0000
  C   C1637     1.0  0.81610  0.95940  0.82067  1.0000
  H   H2889     1.0  0.75754  0.84489  0.54095  1.0000
  C   C1638     1.0  0.81616  0.98399  0.86096  1.0000
  C   C1639     1.0  0.97529  0.99106  0.36567  1.0000
  H   H2890     1.0  0.96600  0.94739  0.57443  1.0000
  C   C1640     1.0  0.77559  0.87427  0.00740  1.0000
  C   C1641     1.0  0.78574  0.86645  0.08244  1.0000
  C   C1642     1.0  0.77973  0.85346  0.06001  1.0000
  C   C1643     1.0  0.77467  0.85736  0.02290  1.0000
  H   H2891     1.0  0.77885  0.84040  0.07131  1.0000
  H   H2892     1.0  0.86498  0.99066  0.86129  1.0000
  C   C1644     1.0  0.77202  0.81500  0.41334  1.0000
  C   C1645     1.0  0.77722  0.81832  0.37562  1.0000
  C   C1646     1.0  0.76733  0.82976  0.35292  1.0000
  H   H2893     1.0  0.77996  0.80629  0.43050  1.0000
  H   H2894     1.0  0.78909  0.81229  0.36440  1.0000
  H   H2895     1.0  0.81124  0.94694  0.81383  1.0000
  H   H2896     1.0  0.76653  0.94583  0.05181  1.0000
  H   H2897     1.0  0.96093  0.81104  0.18094  1.0000
  C   C1647     1.0  0.99024  0.91150  0.35588  1.0000
  H   H2898     1.0  0.79042  0.80179  0.62033  1.0000
  H   H2899     1.0  0.83427  0.84300  0.54052  1.0000
  H   H2900     1.0  0.93547  0.83831  0.39171  1.0000
  H   H2901     1.0  0.77894  0.87536  0.51005  1.0000
  H   H2902     1.0  0.75905  0.86307  0.59702  1.0000
  C   C1648     1.0  0.82768  0.85111  0.51866  1.0000
  H   H2903     1.0  0.77618  0.84090  0.51317  1.0000
  C   C1649     1.0  0.87635  0.99512  0.91517  1.0000
  H   H2904     1.0  0.83732  0.92276  0.92107  1.0000
  H   H2905     1.0  0.76173  0.88594  0.64935  1.0000
  C   C1650     1.0  0.76017  0.86522  0.47340  1.0000
  H   H2906     1.0  0.83419  0.96031  0.77349  1.0000
  C   C1651     1.0  0.93828  0.94787  0.29217  1.0000
  H   H2907     1.0  0.93534  0.94413  0.55008  1.0000
  C   C1652     1.0  0.77044  0.85021  0.53351  1.0000
  H   H2908     1.0  0.78044  0.81597  0.54236  1.0000
  H   H2909     1.0  0.97469  0.94994  0.07059  1.0000
  H   H2910     1.0  0.75910  0.84321  0.72430  1.0000
  H   H2911     1.0  0.95352  0.97363  0.32160  1.0000
  C   C1653     1.0  0.79340  0.75500  0.15591  1.0000
  S   S373      1.0  0.99215  0.87334  0.22625  1.0000
  H   H2912     1.0  0.93528  0.95206  0.32118  1.0000
  H   H2913     1.0  0.75387  0.91783  0.06901  1.0000
  H   H2914     1.0  0.92872  0.92819  0.25586  1.0000
  H   H2915     1.0  0.87333  0.78857  0.31786  1.0000
  C   C1654     1.0  0.78008  0.83398  0.58953  1.0000
  H   H2916     1.0  0.98902  0.99617  0.18872  1.0000
  H   H2917     1.0  0.94467  0.97639  0.79287  1.0000
  C   C1655     1.0  0.75567  0.77963  0.67120  1.0000
  C   C1656     1.0  0.80011  0.85504  0.55899  1.0000
  H   H2918     1.0  0.86965  0.80668  0.28569  1.0000
  H   H2919     1.0  0.97647  0.99342  0.30610  1.0000
  H   H2920     1.0  0.76952  0.79990  0.59890  1.0000
  H   H2921     1.0  0.99475  0.92120  0.03828  1.0000
  H   H2922     1.0  0.92672  0.99038  0.57280  1.0000
  C   C1657     1.0  0.96695  0.96776  0.32139  1.0000
  S   S374      1.0  0.85329  0.99140  0.77797  1.0000
  H   H2923     1.0  0.99863  0.95940  0.28504  1.0000
  C   C1658     1.0  0.87630  0.98556  0.87766  1.0000
  C   C1659     1.0  0.76814  0.76181  0.93305  1.0000
  H   H2924     1.0  0.92462  0.96102  0.59359  1.0000
  H   H2925     1.0  0.90758  0.98344  0.62888  1.0000
  H   H2926     1.0  0.94927  0.79130  0.18598  1.0000
  H   H2927     1.0  0.91296  0.93634  0.28985  1.0000
  H   H2928     1.0  0.99291  0.97890  0.32647  1.0000
  C   C1660     1.0  0.87472  0.79307  0.28826  1.0000
  H   H2929     1.0  0.77370  0.77895  0.25563  1.0000
  H   H2930     1.0  0.86566  0.99109  0.93444  1.0000
  C   C1661     1.0  0.81067  0.75479  0.14247  1.0000
  C   C1662     1.0  0.96728  0.96831  0.25151  1.0000
  C   C1663     1.0  0.95093  0.78155  0.30656  1.0000
  C   C1664     1.0  0.93225  0.99484  0.49795  1.0000
  H   H2931     1.0  0.75765  0.87800  0.45933  1.0000
  H   H2932     1.0  0.94892  0.75424  0.32270  1.0000
  C   C1665     1.0  0.83574  0.98324  0.80621  1.0000
  H   H2933     1.0  0.93026  0.92148  0.30452  1.0000
  C   C1666     1.0  0.93523  0.98461  0.77665  1.0000
  S   S375      1.0  0.98377  0.99638  0.48582  1.0000
  H   H2934     1.0  0.96156  0.92138  0.08245  1.0000
  N   N93       1.0  0.87624  0.96601  0.88011  1.0000
  C   C1667     1.0  0.85942  0.96073  0.89925  1.0000
  H   H2935     1.0  0.91488  0.82352  0.35368  1.0000
  C   C1668     1.0  0.87629  0.95942  0.84067  1.0000
  C   C1669     1.0  0.89234  0.95868  0.89915  1.0000
  C   C1670     1.0  0.89123  0.95603  0.94232  1.0000
  C   C1671     1.0  0.85533  0.94128  0.89718  1.0000
  C   C1672     1.0  0.89118  0.96555  0.81393  1.0000
  H   H2936     1.0  0.95293  0.83407  0.35826  1.0000
  H   H2937     1.0  0.76718  0.78324  0.34069  1.0000
  C   C1673     1.0  0.90933  0.95256  0.95838  1.0000
  C   C1674     1.0  0.84047  0.93655  0.92433  1.0000
  C   C1675     1.0  0.89142  0.95582  0.77724  1.0000
  H   H2938     1.0  0.84421  0.93842  0.95369  1.0000
  H   H2939     1.0  0.99969  0.90023  0.02198  1.0000
  H   H2940     1.0  0.88806  0.98998  0.86217  1.0000
  Fe  Fe189     1.0  0.75527  0.90925  0.83527  1.0000
  H   H2941     1.0  0.86375  0.96302  0.82719  1.0000
  H   H2942     1.0  0.87716  0.94501  0.84097  1.0000
  H   H2943     1.0  0.89631  0.94574  0.88804  1.0000
  H   H2944     1.0  0.90360  0.96696  0.89222  1.0000
  H   H2945     1.0  0.88323  0.94472  0.94979  1.0000
  H   H2946     1.0  0.78028  0.88359  0.67900  1.0000
  H   H2947     1.0  0.85105  0.93836  0.86862  1.0000
  H   H2948     1.0  0.86695  0.93287  0.90353  1.0000
  H   H2949     1.0  0.90409  0.96351  0.82689  1.0000
  H   H2950     1.0  0.83286  0.84702  0.49086  1.0000
  S   S376      1.0  0.95737  0.98274  0.94651  1.0000
  C   C1676     1.0  0.80799  0.84884  0.52093  1.0000
  S   S377      1.0  0.97224  0.99304  0.59945  1.0000
  H   H2951     1.0  0.88920  0.97949  0.80645  1.0000
  H   H2952     1.0  0.96114  0.93333  0.31064  1.0000
  H   H2953     1.0  0.90815  0.95016  0.98906  1.0000
  C   C1677     1.0  0.77519  0.78328  0.31454  1.0000
  H   H2954     1.0  0.91760  0.96394  0.95330  1.0000
  S   S378      1.0  0.76101  0.92925  0.93436  1.0000
  H   H2955     1.0  0.94586  0.98553  0.65477  1.0000
  H   H2956     1.0  0.82856  0.94466  0.91833  1.0000
  H   H2957     1.0  0.90176  0.96085  0.75811  1.0000
  H   H2958     1.0  0.89409  0.94175  0.78235  1.0000
  H   H2959     1.0  0.87870  0.95778  0.76329  1.0000
  N   N94       1.0  0.85623  0.87654  0.15708  1.0000
  C   C1678     1.0  0.85642  0.86058  0.13356  1.0000
  C   C1679     1.0  0.87430  0.87876  0.17163  1.0000
  C   C1680     1.0  0.84417  0.87331  0.19044  1.0000
  C   C1681     1.0  0.84970  0.89270  0.13634  1.0000
  C   C1682     1.0  0.85363  0.89386  0.09352  1.0000
  C   C1683     1.0  0.83822  0.85471  0.12226  1.0000
  C   C1684     1.0  0.84421  0.88682  0.22181  1.0000
  C   C1685     1.0  0.88910  0.88175  0.14227  1.0000
  C   C1686     1.0  0.90685  0.88179  0.16077  1.0000
  C   C1687     1.0  0.84883  0.91189  0.07761  1.0000
  C   C1688     1.0  0.83956  0.84172  0.09075  1.0000
  C   C1689     1.0  0.82923  0.88422  0.25009  1.0000
  H   H2960     1.0  0.86279  0.84939  0.14885  1.0000
  H   H2961     1.0  0.86448  0.86225  0.10771  1.0000
  H   H2962     1.0  0.87449  0.89014  0.18998  1.0000
  H   H2963     1.0  0.87817  0.86731  0.18944  1.0000
  H   H2964     1.0  0.84721  0.86037  0.20357  1.0000
  H   H2965     1.0  0.83043  0.87279  0.18135  1.0000
  H   H2966     1.0  0.83524  0.89433  0.13943  1.0000
  H   H2967     1.0  0.85484  0.90440  0.14919  1.0000
  H   H2968     1.0  0.84584  0.88452  0.07863  1.0000
  H   H2969     1.0  0.86749  0.89094  0.08634  1.0000
  H   H2970     1.0  0.83168  0.84829  0.14660  1.0000
  H   H2971     1.0  0.82970  0.86583  0.11321  1.0000
  H   H2972     1.0  0.84295  0.90020  0.21001  1.0000
  H   H2973     1.0  0.85647  0.88540  0.23761  1.0000
  H   H2974     1.0  0.88988  0.87155  0.12102  1.0000
  H   H2975     1.0  0.88712  0.89462  0.12836  1.0000
  H   H2976     1.0  0.91016  0.86889  0.17349  1.0000
  H   H2977     1.0  0.91716  0.88484  0.13952  1.0000
  H   H2978     1.0  0.90691  0.89167  0.18281  1.0000
  H   H2979     1.0  0.85136  0.91224  0.04690  1.0000
  H   H2980     1.0  0.83476  0.91511  0.08294  1.0000
  H   H2981     1.0  0.85677  0.92182  0.09034  1.0000
  H   H2982     1.0  0.82628  0.83771  0.08396  1.0000
  H   H2983     1.0  0.84556  0.84765  0.06519  1.0000
  H   H2984     1.0  0.84741  0.83003  0.09955  1.0000
  H   H2985     1.0  0.83041  0.87115  0.26361  1.0000
  H   H2986     1.0  0.82963  0.89403  0.27218  1.0000
  H   H2987     1.0  0.81645  0.88571  0.23623  1.0000
  H   H2988     1.0  0.92413  0.98854  0.79543  1.0000
  C   C1690     1.0  0.91767  0.96754  0.49464  1.0000
  H   H2989     1.0  0.76999  0.84717  0.00602  1.0000
  C   C1691     1.0  0.90098  0.97381  0.61214  1.0000
  C   C1692     1.0  0.94604  0.96883  0.52781  1.0000
  C   C1693     1.0  0.94608  0.94872  0.53176  1.0000
  C   C1694     1.0  0.92520  0.96454  0.45445  1.0000
  H   H2990     1.0  0.98674  0.92317  0.26683  1.0000
  H   H2991     1.0  0.78234  0.89454  0.63407  1.0000
  H   H2992     1.0  0.77589  0.76219  0.90641  1.0000
  C   C1695     1.0  0.91668  0.94950  0.43595  1.0000
  H   H2993     1.0  0.95929  0.93516  0.26147  1.0000
  C   C1696     1.0  0.95582  0.76582  0.33137  1.0000
  H   H2994     1.0  0.91503  0.95473  0.50773  1.0000
  H   H2995     1.0  0.97854  0.98156  0.38846  1.0000
  N   N95       1.0  0.92882  0.97802  0.51905  1.0000
  H   H2996     1.0  0.77870  0.79683  0.30805  1.0000
  H   H2997     1.0  0.90454  0.97400  0.49173  1.0000
  H   H2998     1.0  0.95611  0.97168  0.50581  1.0000
  H   H2999     1.0  0.95130  0.97395  0.55381  1.0000
  H   H3000     1.0  0.94464  0.94288  0.50404  1.0000
  C   C1697     1.0  0.82906  0.99173  0.83787  1.0000
  H   H3001     1.0  0.92279  0.97636  0.43672  1.0000
  H   H3002     1.0  0.93948  0.96181  0.45443  1.0000
  C   C1698     1.0  0.91302  0.96732  0.58035  1.0000
  C   C1699     1.0  0.79209  0.77289  0.32225  1.0000
  H   H3003     1.0  0.90588  0.95761  0.56515  1.0000
  H   H3004     1.0  0.80187  0.86929  0.55888  1.0000
  C   C1700     1.0  0.97896  0.98305  0.32746  1.0000
  H   H3005     1.0  0.96219  0.92712  0.55263  1.0000
  Fe  Fe190     1.0  0.99626  0.97009  0.47717  1.0000
  H   H3006     1.0  0.90235  0.95187  0.43474  1.0000
  H   H3007     1.0  0.92204  0.94813  0.40699  1.0000
  H   H3008     1.0  0.91953  0.93719  0.45167  1.0000
  H   H3009     1.0  0.93125  0.98166  0.89127  1.0000
  S   S379      1.0  0.00107  0.96704  0.53851  1.0000
  C   C1701     1.0  0.77608  0.88369  0.64949  1.0000
  N   N96       1.0  0.92468  0.80225  0.28958  1.0000
  C   C1702     1.0  0.93269  0.81788  0.30582  1.0000
  C   C1703     1.0  0.92822  0.80179  0.24777  1.0000
  C   C1704     1.0  0.90516  0.80404  0.29644  1.0000
  C   C1705     1.0  0.93104  0.78560  0.30846  1.0000
  C   C1706     1.0  0.92898  0.82078  0.34809  1.0000
  C   C1707     1.0  0.89378  0.79157  0.27490  1.0000
  C   C1708     1.0  0.94580  0.80880  0.23271  1.0000
  C   C1709     1.0  0.94850  0.80543  0.19103  1.0000
  C   C1710     1.0  0.92691  0.93251  0.28515  1.0000
  H   H3010     1.0  0.96770  0.95901  0.34665  1.0000
  H   H3011     1.0  0.92799  0.82979  0.29050  1.0000
  H   H3012     1.0  0.94705  0.81761  0.30151  1.0000
  H   H3013     1.0  0.92696  0.78841  0.23749  1.0000
  H   H3014     1.0  0.91823  0.80985  0.23275  1.0000
  H   H3015     1.0  0.90036  0.81746  0.28909  1.0000
  H   H3016     1.0  0.90187  0.80208  0.32668  1.0000
  H   H3017     1.0  0.92662  0.78514  0.33829  1.0000
  H   H3018     1.0  0.95849  0.79249  0.31596  1.0000
  H   H3019     1.0  0.95250  0.76843  0.36115  1.0000
  H   H3020     1.0  0.93332  0.80934  0.36515  1.0000
  H   H3021     1.0  0.89822  0.77787  0.27884  1.0000
  H   H3022     1.0  0.89410  0.79475  0.24447  1.0000
  H   H3023     1.0  0.94589  0.82302  0.23622  1.0000
  H   H3024     1.0  0.93771  0.81161  0.17480  1.0000
  H   H3025     1.0  0.93457  0.84827  0.34575  1.0000
  H   H3026     1.0  0.83074  0.86490  0.52225  1.0000
  H   H3027     1.0  0.77441  0.87788  0.57849  1.0000
  H   H3028     1.0  0.85887  0.96429  0.92905  1.0000
  H   H3029     1.0  0.93021  0.97680  0.75390  1.0000
  C   C1711     1.0  0.98342  0.93678  0.41132  1.0000
  H   H3030     1.0  0.94093  0.99239  0.47307  1.0000
  S   S380      1.0  0.97827  0.95277  0.44525  1.0000
  C   C1712     1.0  0.95791  0.94270  0.28759  1.0000
  H   H3031     1.0  0.81124  0.99060  0.88557  1.0000
  C   C1713     1.0  0.78694  0.81752  0.56933  1.0000
  C   C1714     1.0  0.78369  0.80126  0.59330  1.0000
  Fe  Fe191     1.0  0.99005  0.99397  0.54670  1.0000
  H   H3032     1.0  0.98955  0.92608  0.93526  1.0000
  C   C1715     1.0  0.77332  0.86494  0.59253  1.0000
  H   H3033     1.0  0.78923  0.75950  0.33182  1.0000
  H   H3034     1.0  0.86666  0.78497  0.27079  1.0000
  H   H3035     1.0  0.76626  0.83194  0.59839  1.0000
  H   H3036     1.0  0.80864  0.84971  0.58154  1.0000
  H   H3037     1.0  0.79924  0.77918  0.34453  1.0000
  H   H3038     1.0  0.80123  0.81799  0.56451  1.0000
  H   H3039     1.0  0.98882  0.91537  0.18543  1.0000
  H   H3040     1.0  0.97400  0.94336  0.52719  1.0000
  H   H3041     1.0  0.84816  0.96806  0.88667  1.0000
  H   H3042     1.0  0.79127  0.89358  0.08391  1.0000
  H   H3043     1.0  0.88522  0.96733  0.95669  1.0000
  H   H3044     1.0  0.95663  0.97820  0.25677  1.0000
  H   H3045     1.0  0.99093  0.94325  0.31589  1.0000
  H   H3046     1.0  0.78267  0.90027  0.01832  1.0000
  S   S381      1.0  0.99064  0.82024  0.23266  1.0000
  H   H3047     1.0  0.77655  0.85594  0.65074  1.0000
  H   H3048     1.0  0.88909  0.99273  0.92873  1.0000
  C   C1716     1.0  0.91875  0.98252  0.55455  1.0000
  H   H3049     1.0  0.76176  0.86591  0.77179  1.0000
  H   H3050     1.0  0.89745  0.96279  0.63097  1.0000
  C   C1717     1.0  0.96312  0.94129  0.54759  1.0000
  H   H3051     1.0  0.96243  0.96027  0.22876  1.0000
  H   H3052     1.0  0.75421  0.76447  0.92658  1.0000
  H   H3053     1.0  0.79234  0.74969  0.98484  1.0000
  H   H3054     1.0  0.98795  0.93953  0.23103  1.0000
  H   H3055     1.0  0.76913  0.78413  0.67402  1.0000
  C   C1718     1.0  0.78132  0.86641  0.63172  1.0000
  C   C1719     1.0  0.98866  0.94943  0.28794  1.0000
  H   H3056     1.0  0.75487  0.76656  0.68462  1.0000
  S   S382      1.0  0.99511  0.96511  0.00390  1.0000
  H   H3057     1.0  0.75677  0.75248  0.23009  1.0000
  H   H3058     1.0  0.77241  0.77213  0.95147  1.0000
  C   C1720     1.0  0.93336  0.99513  0.89640  1.0000
  H   H3059     1.0  0.97008  0.76296  0.32878  1.0000
  H   H3060     1.0  0.75869  0.80716  0.26601  1.0000
  C   C1721     1.0  0.76696  0.86778  0.51256  1.0000
  H   H3061     1.0  0.95514  0.99555  0.74203  1.0000
  H   H3062     1.0  0.99279  0.96827  0.22187  1.0000
  H   H3063     1.0  0.96139  0.99539  0.36881  1.0000
  H   H3064     1.0  0.90694  0.99072  0.54766  1.0000
  C   C1722     1.0  0.00050  0.93315  0.39856  1.0000
  H   H3065     1.0  0.75346  0.99392  0.90617  1.0000
  H   H3066     1.0  0.98981  0.98540  0.25430  1.0000
  H   H3067     1.0  0.75299  0.77876  0.64099  1.0000
  H   H3068     1.0  0.76970  0.93065  0.01475  1.0000
  S   S383      1.0  0.99529  0.89643  0.31998  1.0000
  S   S384      1.0  0.99854  0.96918  0.11403  1.0000
  H   H3069     1.0  0.98256  0.90815  0.96446  1.0000
  H   H3070     1.0  0.76986  0.85769  0.45618  1.0000
  H   H3071     1.0  0.97120  0.98260  0.17957  1.0000
  Fe  Fe192     1.0  0.99855  0.98046  0.05507  1.0000
  C   C1723     1.0  0.98832  0.92112  0.96457  1.0000
  H   H3072     1.0  0.99316  0.89386  0.08410  1.0000
  C   C1724     1.0  0.99301  0.93543  0.25857  1.0000
  C   C1725     1.0  0.75976  0.93850  0.03057  1.0000
  C   C1726     1.0  0.98310  0.97775  0.23375  1.0000
  C   C1727     1.0  0.75210  0.83766  0.36878  1.0000
  C   C1728     1.0  0.94391  0.99900  0.64644  1.0000
