data_image0
_chemical_formula_structural       Fe2S2HC2S2FeSCFeS2FeSFeS3FeS2FeSHFeHFeS4CSFeS2FeS2FeSFeS3HC4HCH2C6H4C3H3C4HC7H4C6H5CHC7H5C2H11NCH5CH4CH8CHCHCHNH2C2H6C2H3CH2C2SH6NC3HC3HCH5C3H7CSHC3NH4CH4CH2SHCH4CH2CHCHCH2C2H5NC3H2CHC2HC2H24C2HFeC4HCHCHCH2CH3SH2SH8NCHCH2CH2CHNCHC3H2CHCHCH2CH3C2H5CHFeH4CHC2H4CH5CH4CH4CH2CHC4H9CH3CHC2HC3H4C2HFeS2FeS2FeSFeS3HSHSCFe2S2FeSHFeS2FeSFeS3FeSCFeS2FeHFeS3C7H4C6H4C2H2C2HC6H4C5H3C7H5C3H7C2H5C3H3SH5C2H5C2H8C2H4CSFeHCH2C3NH4CHC3H5NHC2HCNC8HC3H19CH4CH2NC4H2CH4C2H4SHNC12H19CSH4CH8CHC2H5CH2C3H2CH12CHCHCSH3CHSCH3CH5C2H5CH5CHSH5CH3CFeH3CH11CH3NHCH2C2H3FeS2FeS2FeSFeS2HFeS2FeS2FeSFeS3HC6H4C2H2C2HC6H7CH2C2H2CHC3HCH5C2H2C2H2C2H3CHNH6C3H5NC8H3CH16C2H3C4H3CH7CNH2CHCHCH2SHC2H4CH2NH2CH2CH3C2HC5H2CH5CH2CHNH3C2H5NH2C2HC2H3C2H2CH3CH2CH2CH4SCH6CH3CH5C2H8FeSHFeS2FeHFeS3CFeS2FeS2FeSFeS3H5CHC6H4C6H6CNH2C3H5CH2C3H5C3H8NC8HC3H17CH5CH5C3H8CHCH3C3H3CHCH3CH4C3H2C2HCHCHCHCH3CH2SH10CH3C3H2CHSH2CHCHNCH2CNC2H2C3HC3H3CH2CH4CHCHCHCH2C3H5CHCH2CH3C2HNHCHCH2FeS2FeSCFeSFeS2FeS2FeS2FeSFeS3C6H2CH3SH4C6H4C6H4CHCH5CH3C2HCH3CH2C3NH3CHNHC2H2CH9C2H3CH2CNHC2HCHC4HCH8C2H9CH4C2HCNC4HCH3C2H10CH6CH8C2H2CHCNCHC4H2CHCH4CH2CH5CH2CH2NCH9C2SHCH5CHCHCH3CH4CH4CH3C3H3CH2CH4FeS2FeS2FeSFeS2FeS2FeS2FeSFeS3H2C2H4C3HC2HNH2C2HCH2C6H3C2HC4H3C6H5CHCH2C2H3CH2C2H3NCHNHCH7CH3CHCH4NC8HC2H5CH3CH7C3H5CHC4H4CHCH2C2NHC3NCHCH5CH3C2HCH8C2H19CH9CH2CH2C2HCHCH4C3HCH2CHCH3CH7CH5CHCHCH3C3HCH4CHCNH6CSHFeS2FeSFeSFeS3HCSHSCFe2SHFeS2FeS2FeSFeS3FeS2FeS2FeSFeHS2H3CHC7H4C6H4CH2C6H4C2HC4NCH2C6H2CHC4H2CHCH3CH3CH5CH3C2H2CH17C2H2CHCSHC5H9CHNC12H18CH12NHC2H3C2HCSCHSH7CH3C2H4CHC2H2SCH5CH3CH3C2H2NC12H20NCH5CH7CH3CHCHFeS2CHFeHS2FeS2FeS2FeSFeS3FeS2FeSHFeHFeS3CHFeS2FeS2Fe2S3H2C4H3C6H5FeC6H4C6H7C7H4C2HCH2CHC3H2CH3C3H8CHSCH3CHCH2CSH2C3H3SH3SHNC2HCH2CH3C3HCH4C3HNC12H29C2H6CH2CNH2CHC3H2CHCH7C2H2CH2CHCH11CH2CH4CHSH5NH4FeHNHC4HC3HC2H12CHC4HC3H3SHC2HCH5CH13CH5FeH3CHCHCHC2H2NHSH3CFeHCHCH4CH2CHFeSH2FeS2FeS2FeSFeCS2FeS2CHFeSCSCHFeSFeSCSC2FeS2FeS2FeSFeCS2C6H4C6H4C6H4C3HC6H4C6HCH2C6H12NC3H5CH3CHCH2NH3CHNHCH2C2H6CNC8H7CH9CH5SHCH3SHCH3CHC2HCH2CH2CH9CH6SCH4CH5C2H3C3NCHC4H3CH4CH3CHCH2SH8C2HCHCH4CH2CH4CH3CH2CH3NH3CH6CH2C5H2NH2C4H2SH2CH2SHCH2CH2CHC2H7C2H2CH2C4H3SH5CH2FeCHSH2FeH12CH2CH8SH3CSHFeSH2SCFeS2FeS2FeSFeS3C2FeSHFeS2FeS2FeSFe2S2H2FeS2FeSHSC3H2C6H4C6H4C6H4C6H4C6H4C6H9CHC2H3CHCH3CHCSCHC2H11CHCH5NCH2CH3CH2C3H4CHCH7CH10SHNHCH3NC10H26CHCHNC12H28C3H6C3H3CH4CH3C2H8NC7H6CHFeH3CH2CH2CH4CSHSHC2HCS2H2SFeHCSHCH2CH2CH3CNH2Fe3S2FeS2Fe2S3CFeS2FeS2FeSFeS3HC2HCHCHC6H4C6H4C6H4C3HCH3C2H9C2H2CH3CH7C2HCH6CH6C2H4CH3C4H11C5H3CNH2C2HNH2C2H2CH4C3H2C2HCH2CH7C2H2SHCH2CH3C3HC3NCH7CH4N2C2H3CSCH8CH2CH3CHC3H2CH4C3H2C3H5CHNHCH2C3HCH8CH3SFeS2FeSHFeSFeS3CFeS2FeS2FeSFeS3C2HCH3C6H4C6H4C2H2C3H2C2SH2CHC7H6C2H4C2HCH3CHCH3CH5CH3NH10SH6C2HCHC2H4CH2C2H4CH8CH3CH2CH3C3HC2HNH5CH2NC10HCH11CH12CH4NHCH2CH3CH6CHCHCNH2CH2CH2CH4CHCH2C2H2C2H5C2FeS2FeS2FeSFeS2FeS2FeS2FeSFeHS2HC6H3C6H7CHC6H4C6H3CHC5H10CH2CH8CH3C2HCHCH4CHCHCHCHNCH4CH6CH6NC6HSCHCH13C3HCH3C3H7C2H2CHSNCHCHCH5CH2CHCH11C2H4CHCH10CHC3H2SCHCFeSFeS2FeSFeS3FeS2FeS2FeSFeS3H8C3HC2H4C6H4C6H4C6H3C7H7CH2CH2NH2CH15CH2CHC2HSCH2CH2CH2NC12H32CH2CHC3HC2HCH2C2H2C2H2CHSCH4CHC3H8C2H3CHCNH4NHCHCH3CHC2H3CHNCHC3HCH3C2H3NH3CH2CH4CH3CH2CH5CHCHCH2CH2C4H3C2H3NHS2CSFeSFeSCSFeS2FeS2Fe2S3CH3FeS2FeS2FeSFeS3FeS2C2HFeSHS2CH3C7H4C6H4C6H4C6H4C6HCH2C6H5CSNHC4H7CHC2H8NC12H28NC2H4C3HC2H7CH3C2H7CH2C2HCH3NH2C2H2CH3CH2CH4CH5CHCHCSHCH2NCHFeH3NCHC2SC3HCHCH2SH5CHCH5CH4FeH11CHC3HCH6CH4C2H3C2NCH2SHC3HCHCH4C2HCHCH9CH2CH5CHCHCHCH3CH11C2H2CHSH4C2HFeH2SCH3CHSH2FeS2FeS2FeSFeS3H2FeS3FeSHSFeSFeSFeHSHSFeS2FeS2FeSFeS2C6H4C8H2C6H4C6H4C6H4C2HC6H4CH4NC11H26FeH3CHC2H3C2HCH3C2HSH3NC5HC3HC2H6SH7CH3CH2C2HCH3NCH8CH2C2H3SFeNH6FeHCH4NC3H14CH2CHCSCH4CH2CHCHCH6CH4C2HCH3CH2CHCH8CH2C3FeH3CH4C2H3C3H4C2NHCHSHCNHC2HCH8CHC4H13C2H2
_chemical_formula_sum              "Fe192 S384 H3072 C1728 N96"
_cell_length_a       66.2764
_cell_length_b       59.4408
_cell_length_c       57.1256
_cell_angle_alpha    88.6924
_cell_angle_beta     89.6742
_cell_angle_gamma    88.8352

_space_group_name_H-M_alt    "P 1"
_space_group_IT_number       1

loop_
  _space_group_symop_operation_xyz
  'x, y, z'

loop_
  _atom_site_type_symbol
  _atom_site_label
  _atom_site_symmetry_multiplicity
  _atom_site_fract_x
  _atom_site_fract_y
  _atom_site_fract_z
  _atom_site_occupancy
  Fe  Fe1       1.0  0.03104  0.12861  0.48793  1.0000
  Fe  Fe2       1.0  0.06789  0.13953  0.45726  1.0000
  S   S1        1.0  0.08973  0.13025  0.48575  1.0000
  S   S2        1.0  0.07512  0.15431  0.42137  1.0000
  H   H1        1.0  0.03173  0.18902  0.34099  1.0000
  C   C1        1.0  0.13886  0.42660  0.39904  1.0000
  C   C2        1.0  0.06767  0.18818  0.03639  1.0000
  S   S3        1.0  0.04954  0.10858  0.46282  1.0000
  S   S4        1.0  0.04754  0.16061  0.47982  1.0000
  Fe  Fe3       1.0  0.21055  0.18557  0.31681  1.0000
  S   S5        1.0  0.19324  0.21123  0.29449  1.0000
  C   C3        1.0  0.11408  0.11809  0.02422  1.0000
  Fe  Fe4       1.0  0.17310  0.17847  0.34839  1.0000
  S   S6        1.0  0.15371  0.20375  0.32848  1.0000
  S   S7        1.0  0.16484  0.15927  0.38188  1.0000
  Fe  Fe5       1.0  0.16686  0.18774  0.29595  1.0000
  S   S8        1.0  0.14914  0.17320  0.26493  1.0000
  Fe  Fe6       1.0  0.18153  0.22532  0.32868  1.0000
  S   S9        1.0  0.18221  0.26354  0.33483  1.0000
  S   S10       1.0  0.18503  0.16112  0.31633  1.0000
  S   S11       1.0  0.19989  0.20091  0.35049  1.0000
  Fe  Fe7       1.0  0.19530  0.40975  0.42017  1.0000
  S   S12       1.0  0.22336  0.38765  0.42512  1.0000
  S   S13       1.0  0.19074  0.43269  0.38720  1.0000
  Fe  Fe8       1.0  0.17515  0.38963  0.46494  1.0000
  S   S14       1.0  0.20162  0.36669  0.47262  1.0000
  H   H2        1.0  0.05157  0.17417  0.32567  1.0000
  Fe  Fe9       1.0  0.22147  0.39618  0.46359  1.0000
  H   H3        1.0  0.13645  0.46834  0.41447  1.0000
  Fe  Fe10      1.0  0.20162  0.35954  0.43371  1.0000
  S   S15       1.0  0.20425  0.32203  0.42420  1.0000
  S   S16       1.0  0.19465  0.41971  0.45779  1.0000
  S   S17       1.0  0.17389  0.38102  0.42675  1.0000
  S   S18       1.0  0.10550  0.48148  0.07571  1.0000
  C   C4        1.0  0.19336  0.13133  0.12009  1.0000
  S   S19       1.0  0.05152  0.37129  0.01784  1.0000
  Fe  Fe11      1.0  0.07287  0.18016  0.15126  1.0000
  S   S20       1.0  0.07308  0.14320  0.14347  1.0000
  S   S21       1.0  0.08636  0.19900  0.18228  1.0000
  Fe  Fe12      1.0  0.05330  0.19233  0.10347  1.0000
  S   S22       1.0  0.05241  0.15602  0.09282  1.0000
  S   S23       1.0  0.04057  0.21926  0.07806  1.0000
  Fe  Fe13      1.0  0.04106  0.14890  0.12976  1.0000
  S   S24       1.0  0.01622  0.12253  0.13802  1.0000
  Fe  Fe14      1.0  0.08405  0.15326  0.10709  1.0000
  S   S25       1.0  0.11446  0.14140  0.09134  1.0000
  S   S26       1.0  0.04041  0.18552  0.13959  1.0000
  S   S27       1.0  0.08521  0.18993  0.11570  1.0000
  H   H4        1.0  0.19428  0.13946  0.15638  1.0000
  C   C5        1.0  0.14889  0.12234  0.03519  1.0000
  C   C6        1.0  0.14238  0.13019  0.05724  1.0000
  C   C7        1.0  0.12170  0.13197  0.06296  1.0000
  C   C8        1.0  0.10757  0.12610  0.04618  1.0000
  H   H5        1.0  0.15112  0.41644  0.35375  1.0000
  C   C9        1.0  0.24474  0.29239  0.36601  1.0000
  H   H6        1.0  0.15348  0.13466  0.07003  1.0000
  H   H7        1.0  0.09163  0.12724  0.05029  1.0000
  C   C10       1.0  0.06725  0.28519  0.04838  1.0000
  C   C11       1.0  0.07852  0.27143  0.06414  1.0000
  C   C12       1.0  0.07095  0.25080  0.07280  1.0000
  C   C13       1.0  0.05188  0.24381  0.06595  1.0000
  C   C14       1.0  0.04086  0.25726  0.04974  1.0000
  C   C15       1.0  0.04849  0.27779  0.04094  1.0000
  H   H8        1.0  0.09305  0.27699  0.06999  1.0000
  H   H9        1.0  0.07961  0.24064  0.08523  1.0000
  H   H10       1.0  0.02612  0.25199  0.04425  1.0000
  H   H11       1.0  0.03966  0.28813  0.02881  1.0000
  C   C16       1.0  0.10107  0.46405  0.05166  1.0000
  C   C17       1.0  0.09227  0.44298  0.05555  1.0000
  C   C18       1.0  0.08873  0.42861  0.03679  1.0000
  H   H12       1.0  0.15545  0.20086  0.13237  1.0000
  H   H13       1.0  0.08819  0.43771  0.07318  1.0000
  H   H14       1.0  0.08198  0.41239  0.04001  1.0000
  C   C19       1.0  0.10229  0.40085  0.43194  1.0000
  C   C20       1.0  0.18251  0.46099  0.38046  1.0000
  C   C21       1.0  0.18173  0.47781  0.39720  1.0000
  C   C22       1.0  0.11979  0.41738  0.43555  1.0000
  H   H15       1.0  0.18657  0.47391  0.41489  1.0000
  C   C23       1.0  0.12881  0.12826  0.14921  1.0000
  C   C24       1.0  0.10315  0.19144  0.20586  1.0000
  C   C25       1.0  0.10809  0.16904  0.21182  1.0000
  C   C26       1.0  0.12205  0.16391  0.22993  1.0000
  C   C27       1.0  0.13111  0.18100  0.24271  1.0000
  C   C28       1.0  0.12595  0.20342  0.23698  1.0000
  C   C29       1.0  0.11212  0.20856  0.21870  1.0000
  H   H16       1.0  0.10106  0.15565  0.20253  1.0000
  H   H17       1.0  0.12572  0.14649  0.23426  1.0000
  H   H18       1.0  0.13270  0.21682  0.24654  1.0000
  H   H19       1.0  0.10842  0.22597  0.21442  1.0000
  C   C30       1.0  0.18700  0.27955  0.36032  1.0000
  C   C31       1.0  0.18775  0.30320  0.35823  1.0000
  C   C32       1.0  0.19232  0.31652  0.37766  1.0000
  C   C33       1.0  0.19645  0.30636  0.39952  1.0000
  C   C34       1.0  0.19549  0.28271  0.40166  1.0000
  C   C35       1.0  0.19059  0.26944  0.38232  1.0000
  H   H20       1.0  0.18494  0.31129  0.34138  1.0000
  H   H21       1.0  0.19308  0.33462  0.37559  1.0000
  H   H22       1.0  0.19863  0.27459  0.41842  1.0000
  H   H23       1.0  0.18975  0.25138  0.38434  1.0000
  H   H24       1.0  0.12996  0.17319  0.13928  1.0000
  C   C36       1.0  0.10284  0.38179  0.45038  1.0000
  H   H25       1.0  0.13767  0.23559  0.14252  1.0000
  C   C37       1.0  0.10394  0.44231  0.40489  1.0000
  C   C38       1.0  0.10009  0.15516  0.41046  1.0000
  C   C39       1.0  0.11602  0.14389  0.42196  1.0000
  C   C40       1.0  0.13577  0.14520  0.41291  1.0000
  C   C41       1.0  0.13974  0.15773  0.39229  1.0000
  C   C42       1.0  0.12379  0.16901  0.38080  1.0000
  C   C43       1.0  0.10404  0.16769  0.38985  1.0000
  H   H26       1.0  0.11315  0.13408  0.43776  1.0000
  H   H27       1.0  0.14804  0.13645  0.42188  1.0000
  H   H28       1.0  0.12668  0.17871  0.36494  1.0000
  H   H29       1.0  0.09180  0.17645  0.38084  1.0000
  H   H30       1.0  0.12413  0.22165  0.16588  1.0000
  C   C44       1.0  0.16710  0.15510  0.14106  1.0000
  C   C45       1.0  0.22537  0.25739  0.28739  1.0000
  H   H31       1.0  0.11963  0.22506  0.40971  1.0000
  H   H32       1.0  0.14870  0.20429  0.44624  1.0000
  H   H33       1.0  0.11611  0.24289  0.46636  1.0000
  H   H34       1.0  0.21611  0.49456  0.35654  1.0000
  H   H35       1.0  0.17751  0.45401  0.34410  1.0000
  H   H36       1.0  0.13614  0.19659  0.01485  1.0000
  H   H37       1.0  0.01195  0.30177  0.19090  1.0000
  H   H38       1.0  0.14028  0.43335  0.00720  1.0000
  H   H39       1.0  0.01892  0.34105  0.07517  1.0000
  H   H40       1.0  0.13231  0.03507  0.45132  1.0000
  H   H41       1.0  0.10834  0.18538  0.48780  1.0000
  N   N1        1.0  0.01994  0.13918  0.39161  1.0000
  C   C46       1.0  0.13476  0.11593  0.01861  1.0000
  H   H42       1.0  0.13312  0.24209  0.42998  1.0000
  H   H43       1.0  0.10299  0.11317  0.01159  1.0000
  H   H44       1.0  0.18236  0.12652  0.10654  1.0000
  H   H45       1.0  0.17360  0.43548  0.49883  1.0000
  H   H46       1.0  0.17117  0.46947  0.46546  1.0000
  C   C47       1.0  0.05916  0.21295  0.45158  1.0000
  H   H47       1.0  0.00760  0.09161  0.45716  1.0000
  H   H48       1.0  0.05675  0.08462  0.41425  1.0000
  H   H49       1.0  0.22654  0.42511  0.04323  1.0000
  H   H50       1.0  0.13383  0.40717  0.43887  1.0000
  C   C48       1.0  0.16053  0.45376  0.08702  1.0000
  H   H51       1.0  0.06483  0.20655  0.03744  1.0000
  H   H52       1.0  0.02334  0.43658  0.01369  1.0000
  H   H53       1.0  0.21234  0.22209  0.39537  1.0000
  H   H54       1.0  0.19187  0.01398  0.48251  1.0000
  H   H55       1.0  0.14223  0.19407  0.05326  1.0000
  H   H56       1.0  0.08756  0.40994  0.43373  1.0000
  H   H57       1.0  0.11842  0.21920  0.09124  1.0000
  H   H58       1.0  0.17494  0.44465  0.09065  1.0000
  C   C49       1.0  0.03771  0.44570  0.01139  1.0000
  H   H59       1.0  0.09648  0.22643  0.43747  1.0000
  C   C50       1.0  0.05335  0.48434  0.00812  1.0000
  H   H60       1.0  0.09703  0.20367  0.06122  1.0000
  C   C51       1.0  0.12942  0.20526  0.05851  1.0000
  H   H61       1.0  0.04824  0.43970  0.02533  1.0000
  N   N2        1.0  0.12350  0.43504  0.41651  1.0000
  H   H62       1.0  0.13162  0.14374  0.49316  1.0000
  H   H63       1.0  0.04380  0.29184  0.17010  1.0000
  C   C52       1.0  0.11797  0.10730  0.15818  1.0000
  C   C53       1.0  0.17046  0.48894  0.35096  1.0000
  H   H64       1.0  0.04245  0.33780  0.09071  1.0000
  H   H65       1.0  0.02935  0.32469  0.18974  1.0000
  H   H66       1.0  0.03853  0.06304  0.40972  1.0000
  H   H67       1.0  0.17533  0.11943  0.14873  1.0000
  H   H68       1.0  0.14858  0.17015  0.46602  1.0000
  H   H69       1.0  0.22915  0.45139  0.02688  1.0000
  C   C54       1.0  0.18259  0.13539  0.14341  1.0000
  C   C55       1.0  0.03380  0.47106  0.01311  1.0000
  H   H70       1.0  0.05043  0.07650  0.38487  1.0000
  H   H71       1.0  0.14490  0.47733  0.46867  1.0000
  H   H72       1.0  0.05658  0.18570  0.35389  1.0000
  C   C56       1.0  0.13199  0.45550  0.42791  1.0000
  H   H73       1.0  0.01731  0.00704  0.38579  1.0000
  H   H74       1.0  0.10782  0.11151  0.17308  1.0000
  C   C57       1.0  0.10281  0.45631  0.01008  1.0000
  C   C58       1.0  0.03875  0.15524  0.35490  1.0000
  S   S28       1.0  0.07636  0.06287  0.49594  1.0000
  H   H75       1.0  0.02786  0.47420  0.03095  1.0000
  H   H76       1.0  0.17233  0.02146  0.44729  1.0000
  H   H77       1.0  0.05253  0.14428  0.35568  1.0000
  H   H78       1.0  0.11704  0.14043  0.14312  1.0000
  H   H79       1.0  0.22284  0.24618  0.35791  1.0000
  H   H80       1.0  0.12574  0.16942  0.01942  1.0000
  N   N3        1.0  0.15357  0.15904  0.16192  1.0000
  C   C59       1.0  0.14178  0.13837  0.16868  1.0000
  C   C60       1.0  0.16547  0.16697  0.18270  1.0000
  C   C61       1.0  0.13856  0.17754  0.15515  1.0000
  H   H81       1.0  0.00758  0.13185  0.42633  1.0000
  C   C62       1.0  0.14758  0.20104  0.14957  1.0000
  C   C63       1.0  0.17345  0.14886  0.20057  1.0000
  C   C64       1.0  0.18791  0.15902  0.21801  1.0000
  H   H82       1.0  0.15789  0.15260  0.12508  1.0000
  C   C65       1.0  0.13109  0.21936  0.14834  1.0000
  H   H83       1.0  0.13162  0.14217  0.18368  1.0000
  H   H84       1.0  0.15182  0.12448  0.17514  1.0000
  H   H85       1.0  0.17858  0.17702  0.17661  1.0000
  H   H86       1.0  0.15601  0.17860  0.19351  1.0000
  H   H87       1.0  0.12711  0.17953  0.16926  1.0000
  C   C66       1.0  0.13311  0.22567  0.42113  1.0000
  C   C67       1.0  0.23767  0.24611  0.30712  1.0000
  C   C68       1.0  0.10553  0.46074  0.38527  1.0000
  H   H88       1.0  0.15849  0.20616  0.16297  1.0000
  H   H89       1.0  0.16062  0.14184  0.21080  1.0000
  H   H90       1.0  0.18148  0.13478  0.19195  1.0000
  H   H91       1.0  0.20179  0.16488  0.20898  1.0000
  H   H92       1.0  0.18054  0.17342  0.22700  1.0000
  H   H93       1.0  0.19226  0.14614  0.23156  1.0000
  H   H94       1.0  0.16402  0.44625  0.43202  1.0000
  C   C69       1.0  0.18176  0.00584  0.44821  1.0000
  S   S29       1.0  0.07682  0.31184  0.03950  1.0000
  H   H95       1.0  0.11916  0.21492  0.13583  1.0000
  C   C70       1.0  0.11684  0.22557  0.50034  1.0000
  C   C71       1.0  0.17688  0.46679  0.35729  1.0000
  C   C72       1.0  0.00423  0.16797  0.42003  1.0000
  N   N4        1.0  0.16738  0.45388  0.04203  1.0000
  H   H96       1.0  0.11612  0.45545  0.37124  1.0000
  H   H97       1.0  0.17604  0.17035  0.13698  1.0000
  H   H98       1.0  0.14385  0.44054  0.38718  1.0000
  H   H99       1.0  0.02742  0.14736  0.34364  1.0000
  C   C73       1.0  0.09397  0.43524  0.01395  1.0000
  H   H100      1.0  0.09527  0.23109  0.03348  1.0000
  H   H101      1.0  0.09642  0.42787  0.39696  1.0000
  H   H102      1.0  0.15280  0.42082  0.40818  1.0000
  H   H103      1.0  0.11621  0.42545  0.45256  1.0000
  C   C74       1.0  0.13310  0.20575  0.43920  1.0000
  H   H104      1.0  0.16133  0.41967  0.05365  1.0000
  H   H105      1.0  0.13931  0.43669  0.04879  1.0000
  S   S30       1.0  0.14639  0.39439  0.48711  1.0000
  H   H106      1.0  0.01496  0.09011  0.39153  1.0000
  C   C75       1.0  0.15682  0.47258  0.45585  1.0000
  H   H107      1.0  0.07040  0.18148  0.05439  1.0000
  H   H108      1.0  0.00495  0.29594  0.14087  1.0000
  H   H109      1.0  0.16573  0.22593  0.41520  1.0000
  H   H110      1.0  0.23984  0.13270  0.31695  1.0000
  C   C76       1.0  0.02915  0.03430  0.48136  1.0000
  H   H111      1.0  0.12023  0.46366  0.43909  1.0000
  H   H112      1.0  0.16850  0.48198  0.10875  1.0000
  C   C77       1.0  0.03216  0.30205  0.16057  1.0000
  H   H113      1.0  0.04015  0.03102  0.44577  1.0000
  C   C78       1.0  0.15161  0.22445  0.40502  1.0000
  H   H114      1.0  0.09313  0.44866  0.41836  1.0000
  C   C79       1.0  0.04499  0.17745  0.34322  1.0000
  H   H115      1.0  0.20465  0.11738  0.12227  1.0000
  H   H116      1.0  0.08256  0.23688  0.13476  1.0000
  C   C80       1.0  0.13256  0.40668  0.38392  1.0000
  C   C81       1.0  0.14854  0.40147  0.36531  1.0000
  H   H117      1.0  0.11818  0.41030  0.37467  1.0000
  H   H118      1.0  0.16304  0.39621  0.37367  1.0000
  H   H119      1.0  0.14349  0.38746  0.35437  1.0000
  H   H120      1.0  0.13116  0.39127  0.39507  1.0000
  H   H121      1.0  0.21176  0.49652  0.27924  1.0000
  N   N5        1.0  0.02884  0.27628  0.12468  1.0000
  C   C82       1.0  0.03651  0.29395  0.10759  1.0000
  C   C83       1.0  0.04580  0.26007  0.13173  1.0000
  C   C84       1.0  0.24362  0.26346  0.32559  1.0000
  H   H122      1.0  0.00784  0.32527  0.17058  1.0000
  H   H123      1.0  0.15897  0.03440  0.48154  1.0000
  C   C85       1.0  0.15474  0.43294  0.04174  1.0000
  H   H124      1.0  0.23971  0.32155  0.38757  1.0000
  C   C86       1.0  0.06730  0.26974  0.13398  1.0000
  C   C87       1.0  0.08186  0.25243  0.14516  1.0000
  H   H125      1.0  0.12507  0.05281  0.47527  1.0000
  C   C88       1.0  0.07904  0.21208  0.46506  1.0000
  C   C89       1.0  0.08502  0.46553  0.37389  1.0000
  H   H126      1.0  0.04350  0.28559  0.09223  1.0000
  H   H127      1.0  0.04881  0.30375  0.11519  1.0000
  H   H128      1.0  0.04200  0.25108  0.14848  1.0000
  H   H129      1.0  0.04761  0.24663  0.11855  1.0000
  H   H130      1.0  0.15902  0.48678  0.44317  1.0000
  H   H131      1.0  0.03721  0.32022  0.06613  1.0000
  H   H132      1.0  0.01972  0.17376  0.37860  1.0000
  H   H133      1.0  0.03586  0.18093  0.03955  1.0000
  H   H134      1.0  0.23381  0.20306  0.39238  1.0000
  H   H135      1.0  0.13950  0.23000  0.47380  1.0000
  H   H136      1.0  0.14163  0.47807  0.10552  1.0000
  H   H137      1.0  0.23055  0.21926  0.41849  1.0000
  H   H138      1.0  0.11067  0.47686  0.39236  1.0000
  H   H139      1.0  0.04155  0.05899  0.45681  1.0000
  H   H140      1.0  0.07336  0.27422  0.11635  1.0000
  H   H141      1.0  0.06753  0.28507  0.14453  1.0000
  H   H142      1.0  0.09725  0.25943  0.14585  1.0000
  H   H143      1.0  0.07700  0.24802  0.16331  1.0000
  H   H144      1.0  0.24222  0.30304  0.35001  1.0000
  H   H145      1.0  0.22225  0.24492  0.27377  1.0000
  H   H146      1.0  0.17174  0.48138  0.06584  1.0000
  H   H147      1.0  0.14530  0.21422  0.08994  1.0000
  H   H148      1.0  0.23993  0.14396  0.01544  1.0000
  H   H149      1.0  0.07855  0.19745  0.47739  1.0000
  C   C90       1.0  0.24056  0.48192  0.37753  1.0000
  C   C91       1.0  0.12234  0.18668  0.01211  1.0000
  H   H150      1.0  0.02021  0.01882  0.48002  1.0000
  Fe  Fe15      1.0  0.06505  0.33672  0.01108  1.0000
  C   C92       1.0  0.23857  0.23996  0.36114  1.0000
  C   C93       1.0  0.03455  0.11935  0.39113  1.0000
  C   C94       1.0  0.03027  0.15899  0.37992  1.0000
  C   C95       1.0  0.13045  0.20745  0.08505  1.0000
  H   H151      1.0  0.14610  0.47519  0.06066  1.0000
  C   C96       1.0  0.13986  0.17729  0.48090  1.0000
  H   H152      1.0  0.16482  0.12078  0.03123  1.0000
  C   C97       1.0  0.02727  0.09696  0.40218  1.0000
  H   H153      1.0  0.23885  0.22247  0.35449  1.0000
  C   C98       1.0  0.04862  0.17727  0.02742  1.0000
  H   H154      1.0  0.11317  0.48676  0.02567  1.0000
  H   H155      1.0  0.03032  0.14644  0.42648  1.0000
  C   C99       1.0  0.14506  0.02484  0.48514  1.0000
  H   H156      1.0  0.03859  0.11511  0.37284  1.0000
  H   H157      1.0  0.04894  0.12375  0.39976  1.0000
  H   H158      1.0  0.04306  0.16454  0.39080  1.0000
  S   S31       1.0  0.24506  0.18174  0.31106  1.0000
  H   H159      1.0  0.23383  0.27144  0.27910  1.0000
  H   H160      1.0  0.22943  0.27286  0.33007  1.0000
  S   S32       1.0  0.24392  0.41164  0.48943  1.0000
  H   H161      1.0  0.04423  0.02941  0.48828  1.0000
  H   H162      1.0  0.05082  0.15872  0.02666  1.0000
  H   H163      1.0  0.01391  0.27307  0.15831  1.0000
  H   H164      1.0  0.19804  0.01625  0.41683  1.0000
  H   H165      1.0  0.04633  0.21407  0.46412  1.0000
  H   H166      1.0  0.07939  0.45019  0.36553  1.0000
  H   H167      1.0  0.20979  0.02415  0.44374  1.0000
  H   H168      1.0  0.08997  0.16471  0.02334  1.0000
  N   N6        1.0  0.10452  0.19688  0.02498  1.0000
  C   C100      1.0  0.22863  0.21958  0.39919  1.0000
  H   H169      1.0  0.02707  0.06761  0.49536  1.0000
  C   C101      1.0  0.15648  0.46931  0.10753  1.0000
  H   H170      1.0  0.14845  0.19150  0.48779  1.0000
  H   H171      1.0  0.07963  0.22782  0.47508  1.0000
  C   C102      1.0  0.10634  0.47064  0.02884  1.0000
  H   H172      1.0  0.13829  0.12326  0.13405  1.0000
  H   H173      1.0  0.05849  0.22791  0.43957  1.0000
  C   C103      1.0  0.12806  0.03512  0.47015  1.0000
  H   H174      1.0  0.14825  0.44132  0.08704  1.0000
  N   N7        1.0  0.11787  0.20734  0.45899  1.0000
  C   C104      1.0  0.02066  0.31136  0.09805  1.0000
  H   H175      1.0  0.19226  0.43676  0.05977  1.0000
  C   C105      1.0  0.09728  0.21055  0.44810  1.0000
  C   C106      1.0  0.00090  0.13432  0.37826  1.0000
  C   C107      1.0  0.10140  0.22152  0.01834  1.0000
  H   H176      1.0  0.12902  0.09400  0.16386  1.0000
  H   H177      1.0  0.15207  0.20832  0.39554  1.0000
  C   C108      1.0  0.03216  0.04374  0.45654  1.0000
  H   H178      1.0  0.10113  0.22015  0.50309  1.0000
  C   C109      1.0  0.01900  0.28651  0.14592  1.0000
  H   H179      1.0  0.01341  0.32070  0.11255  1.0000
  C   C110      1.0  0.03048  0.32862  0.08157  1.0000
  H   H180      1.0  0.09453  0.19672  0.43573  1.0000
  H   H181      1.0  0.20133  0.14667  0.11399  1.0000
  C   C111      1.0  0.15106  0.45128  0.44319  1.0000
  H   H182      1.0  0.10865  0.10061  0.14391  1.0000
  H   H183      1.0  0.13081  0.19015  0.42920  1.0000
  H   H184      1.0  0.10278  0.39317  0.41450  1.0000
  C   C112      1.0  0.16128  0.46719  0.06332  1.0000
  C   C113      1.0  0.12293  0.22710  0.47399  1.0000
  H   H185      1.0  0.99923  0.27384  0.10885  1.0000
  H   H186      1.0  0.00452  0.12316  0.36334  1.0000
  H   H187      1.0  0.02196  0.09912  0.42036  1.0000
  H   H188      1.0  0.15090  0.23848  0.39183  1.0000
  H   H189      1.0  0.11616  0.22936  0.01423  1.0000
  C   C114      1.0  0.01585  0.14527  0.41676  1.0000
  H   H190      1.0  0.14884  0.43791  0.45674  1.0000
  Fe  Fe16      1.0  0.06980  0.10070  0.49365  1.0000
  H   H191      1.0  0.16618  0.49301  0.33310  1.0000
  H   H192      1.0  0.12873  0.19073  0.09386  1.0000
  H   H193      1.0  0.10921  0.17723  0.05699  1.0000
  H   H194      1.0  0.23015  0.28492  0.37099  1.0000
  C   C115      1.0  0.13868  0.15899  0.50005  1.0000
  H   H195      1.0  0.13154  0.22221  0.05043  1.0000
  C   C116      1.0  0.08619  0.18294  0.02063  1.0000
  C   C117      1.0  0.11858  0.18515  0.47241  1.0000
  H   H196      1.0  0.10173  0.38864  0.46830  1.0000
  H   H197      1.0  0.22863  0.23252  0.31532  1.0000
  H   H198      1.0  0.05750  0.19750  0.44124  1.0000
  H   H199      1.0  0.23100  0.46896  0.38615  1.0000
  C   C118      1.0  0.04434  0.07926  0.40276  1.0000
  H   H200      1.0  0.05539  0.48729  0.05577  1.0000
  H   H201      1.0  0.21073  0.26398  0.29419  1.0000
  H   H202      1.0  0.15618  0.45927  0.12416  1.0000
  H   H203      1.0  0.04462  0.18416  0.00978  1.0000
  H   H204      1.0  0.11394  0.02561  0.47274  1.0000
  C   C119      1.0  0.10914  0.19514  0.05088  1.0000
  H   H205      1.0  0.11711  0.37173  0.44894  1.0000
  H   H206      1.0  0.08998  0.37044  0.44778  1.0000
  H   H207      1.0  0.11266  0.17154  0.46143  1.0000
  H   H208      1.0  0.01802  0.22926  0.12824  1.0000
  C   C120      1.0  0.01947  0.31414  0.17904  1.0000
  H   H209      1.0  0.01856  0.25819  0.09464  1.0000
  H   H210      1.0  0.06528  0.47726  0.01988  1.0000
  H   H211      1.0  0.14097  0.02731  0.50379  1.0000
  H   H212      1.0  0.03952  0.31516  0.14960  1.0000
  C   C121      1.0  0.01294  0.26318  0.11221  1.0000
  H   H213      1.0  0.00885  0.30305  0.08785  1.0000
  H   H214      1.0  0.01488  0.18211  0.41804  1.0000
  C   C122      1.0  0.20144  0.01063  0.43510  1.0000
  H   H215      1.0  0.23549  0.25460  0.39606  1.0000
  C   C123      1.0  0.18957  0.44801  0.04428  1.0000
  C   C124      1.0  0.00545  0.24150  0.12501  1.0000
  C   C125      1.0  0.01835  0.05183  0.49713  1.0000
  C   C126      1.0  0.24091  0.23864  0.38824  1.0000
  H   H216      1.0  0.00618  0.16739  0.45809  1.0000
  H   H217      1.0  0.19830  0.46336  0.04784  1.0000
  H   H218      1.0  0.12651  0.40100  0.03056  1.0000
  H   H219      1.0  0.08238  0.26249  0.00750  1.0000
  H   H220      1.0  0.01739  0.04804  0.44833  1.0000
  H   H221      1.0  0.02075  0.00811  0.41699  1.0000
  H   H222      1.0  0.08655  0.47893  0.36014  1.0000
  H   H223      1.0  0.07386  0.47140  0.38710  1.0000
  H   H224      1.0  0.00342  0.05611  0.48918  1.0000
  C   C127      1.0  0.16303  0.46844  0.02057  1.0000
  H   H225      1.0  0.15116  0.38730  0.02995  1.0000
  H   H226      1.0  0.14652  0.47173  0.01922  1.0000
  H   H227      1.0  0.18982  0.49000  0.02158  1.0000
  C   C128      1.0  0.17322  0.49166  0.01956  1.0000
  H   H228      1.0  0.10861  0.26105  0.50406  1.0000
  C   C129      1.0  0.22264  0.43431  0.02666  1.0000
  C   C130      1.0  0.19975  0.43589  0.02351  1.0000
  H   H229      1.0  0.19434  0.41839  0.02275  1.0000
  C   C131      1.0  0.14819  0.99930  0.48067  1.0000
  C   C132      1.0  0.15077  0.42234  0.01761  1.0000
  C   C133      1.0  0.14090  0.39943  0.02061  1.0000
  H   H230      1.0  0.16464  0.42007  0.00708  1.0000
  H   H231      1.0  0.08225  0.01559  0.50429  1.0000
  H   H232      1.0  0.19693  0.44479  0.00657  1.0000
  H   H233      1.0  0.22957  0.42507  0.01185  1.0000
  C   C134      1.0  0.18588  0.99874  0.47414  1.0000
  C   C135      1.0  0.24240  0.15228  0.99808  1.0000
  H   H234      1.0  0.02217  0.08641  0.54811  1.0000
  Fe  Fe17      1.0  0.05958  0.28967  0.60362  1.0000
  S   S33       1.0  0.05663  0.32361  0.58545  1.0000
  S   S34       1.0  0.04512  0.25995  0.58566  1.0000
  Fe  Fe18      1.0  0.07810  0.31017  0.64822  1.0000
  S   S35       1.0  0.07621  0.34521  0.63219  1.0000
  S   S36       1.0  0.08627  0.30060  0.68662  1.0000
  Fe  Fe19      1.0  0.04470  0.33633  0.62012  1.0000
  S   S37       1.0  0.01708  0.36097  0.62417  1.0000
  Fe  Fe20      1.0  0.08802  0.32942  0.59882  1.0000
  S   S38       1.0  0.11665  0.33798  0.57747  1.0000
  S   S39       1.0  0.04620  0.30216  0.63748  1.0000
  S   S40       1.0  0.09132  0.29465  0.61568  1.0000
  H   H235      1.0  0.20536  0.01665  0.84228  1.0000
  S   S41       1.0  0.04310  0.32950  0.98243  1.0000
  H   H236      1.0  0.05349  0.37226  0.71710  1.0000
  S   S42       1.0  0.05246  0.38006  0.96062  1.0000
  C   C136      1.0  0.13874  0.17219  0.97508  1.0000
  Fe  Fe21      1.0  0.03118  0.36509  0.98704  1.0000
  Fe  Fe22      1.0  0.06625  0.34522  0.95830  1.0000
  S   S43       1.0  0.07374  0.32961  0.92314  1.0000
  S   S44       1.0  0.08883  0.35068  0.98651  1.0000
  Fe  Fe23      1.0  0.21334  0.30464  0.81961  1.0000
  S   S45       1.0  0.19868  0.27879  0.79695  1.0000
  H   H237      1.0  0.19855  0.44478  0.50675  1.0000
  Fe  Fe24      1.0  0.17347  0.31213  0.84644  1.0000
  S   S46       1.0  0.15626  0.28762  0.82530  1.0000
  S   S47       1.0  0.16164  0.33088  0.87818  1.0000
  Fe  Fe25      1.0  0.18410  0.26519  0.83007  1.0000
  S   S48       1.0  0.17990  0.22733  0.83762  1.0000
  Fe  Fe26      1.0  0.17203  0.30295  0.79374  1.0000
  S   S49       1.0  0.16027  0.31529  0.75744  1.0000
  S   S50       1.0  0.20045  0.28908  0.85277  1.0000
  S   S51       1.0  0.18748  0.32939  0.81488  1.0000
  Fe  Fe27      1.0  0.17112  0.09966  0.96940  1.0000
  S   S52       1.0  0.20122  0.11649  0.97180  1.0000
  C   C137      1.0  0.02096  0.34499  0.72617  1.0000
  Fe  Fe28      1.0  0.18289  0.07602  0.92299  1.0000
  S   S53       1.0  0.21350  0.09212  0.92217  1.0000
  S   S54       1.0  0.16836  0.05518  0.89383  1.0000
  Fe  Fe29      1.0  0.21523  0.08329  0.96095  1.0000
  H   H238      1.0  0.14387  0.37504  0.59183  1.0000
  Fe  Fe30      1.0  0.19773  0.12428  0.93302  1.0000
  S   S55       1.0  0.20668  0.16021  0.92199  1.0000
  S   S56       1.0  0.18514  0.06563  0.96111  1.0000
  S   S57       1.0  0.16709  0.10912  0.93122  1.0000
  C   C138      1.0  0.21779  0.37554  0.77229  1.0000
  C   C139      1.0  0.19952  0.17836  0.89798  1.0000
  C   C140      1.0  0.20569  0.20091  0.89774  1.0000
  C   C141      1.0  0.20028  0.21601  0.87924  1.0000
  C   C142      1.0  0.18858  0.20874  0.86064  1.0000
  C   C143      1.0  0.18274  0.18607  0.86069  1.0000
  C   C144      1.0  0.18814  0.17098  0.87920  1.0000
  H   H239      1.0  0.21466  0.20680  0.91204  1.0000
  H   H240      1.0  0.20503  0.23331  0.87945  1.0000
  H   H241      1.0  0.17377  0.18017  0.84639  1.0000
  H   H242      1.0  0.18344  0.15366  0.87894  1.0000
  C   C145      1.0  0.09858  0.32755  0.91166  1.0000
  C   C146      1.0  0.10147  0.32106  0.88833  1.0000
  C   C147      1.0  0.12086  0.32102  0.87803  1.0000
  C   C148      1.0  0.13746  0.32772  0.89098  1.0000
  C   C149      1.0  0.13464  0.33352  0.91448  1.0000
  C   C150      1.0  0.11532  0.33329  0.92484  1.0000
  H   H243      1.0  0.08859  0.31651  0.87802  1.0000
  H   H244      1.0  0.12285  0.31658  0.85989  1.0000
  H   H245      1.0  0.14745  0.33856  0.92463  1.0000
  H   H246      1.0  0.11335  0.33804  0.94287  1.0000
  C   C151      1.0  0.16972  0.02722  0.88264  1.0000
  C   C152      1.0  0.18497  0.01163  0.88898  1.0000
  H   H247      1.0  0.19663  0.01650  0.90091  1.0000
  H   H248      1.0  0.18701  0.01420  0.95950  1.0000
  C   C153      1.0  0.02423  0.30371  0.53571  1.0000
  C   C154      1.0  0.00487  0.28920  0.67863  1.0000
  H   H249      1.0  0.13708  0.17086  0.95585  1.0000
  C   C155      1.0  0.10725  0.30463  0.70578  1.0000
  C   C156      1.0  0.12265  0.31976  0.70050  1.0000
  C   C157      1.0  0.13843  0.32296  0.71663  1.0000
  C   C158      1.0  0.13944  0.31082  0.73814  1.0000
  C   C159      1.0  0.12403  0.29571  0.74343  1.0000
  C   C160      1.0  0.10804  0.29280  0.72747  1.0000
  H   H250      1.0  0.12227  0.32921  0.68409  1.0000
  H   H251      1.0  0.14994  0.33501  0.71237  1.0000
  H   H252      1.0  0.12441  0.28623  0.75981  1.0000
  H   H253      1.0  0.09625  0.28110  0.73189  1.0000
  C   C161      1.0  0.22931  0.41351  0.55577  1.0000
  C   C162      1.0  0.11940  0.38359  0.52248  1.0000
  C   C163      1.0  0.11227  0.37120  0.54217  1.0000
  C   C164      1.0  0.12328  0.35251  0.55087  1.0000
  C   C165      1.0  0.14121  0.34611  0.53917  1.0000
  H   H254      1.0  0.00114  0.37878  0.93972  1.0000
  H   H255      1.0  0.13388  0.01273  0.77535  1.0000
  H   H256      1.0  0.09859  0.37653  0.55106  1.0000
  C   C166      1.0  0.21744  0.34113  0.74675  1.0000
  C   C167      1.0  0.07281  0.20006  0.54533  1.0000
  C   C168      1.0  0.08542  0.21515  0.55663  1.0000
  C   C169      1.0  0.07730  0.23379  0.56868  1.0000
  C   C170      1.0  0.05639  0.23742  0.56978  1.0000
  C   C171      1.0  0.04379  0.22244  0.55827  1.0000
  C   C172      1.0  0.05192  0.20395  0.54602  1.0000
  H   H257      1.0  0.10158  0.21226  0.55633  1.0000
  H   H258      1.0  0.08720  0.24508  0.57748  1.0000
  H   H259      1.0  0.02761  0.22501  0.55905  1.0000
  H   H260      1.0  0.04202  0.19248  0.53749  1.0000
  H   H261      1.0  0.01438  0.30089  0.71168  1.0000
  C   C173      1.0  0.17640  0.37128  0.58668  1.0000
  C   C174      1.0  0.11804  0.04581  0.54599  1.0000
  C   C175      1.0  0.11816  0.02214  0.54588  1.0000
  H   H262      1.0  0.24352  0.26817  0.78298  1.0000
  H   H263      1.0  0.12816  0.05431  0.55748  1.0000
  H   H264      1.0  0.08178  0.25164  0.93161  1.0000
  H   H265      1.0  0.21381  0.33474  0.51209  1.0000
  H   H266      1.0  0.13391  0.37585  0.94118  1.0000
  H   H267      1.0  0.18921  0.43604  0.54936  1.0000
  H   H268      1.0  0.08912  0.37526  0.70376  1.0000
  C   C176      1.0  0.20890  0.02598  0.82574  1.0000
  C   C177      1.0  0.03145  0.32507  0.76425  1.0000
  H   H269      1.0  0.07464  0.46803  0.89861  1.0000
  H   H270      1.0  0.05068  0.30395  0.51316  1.0000
  H   H271      1.0  0.23835  0.15966  0.88183  1.0000
  H   H272      1.0  0.14988  0.33170  0.54569  1.0000
  H   H273      1.0  0.11515  0.24648  0.53099  1.0000
  C   C178      1.0  0.08014  0.36038  0.69936  1.0000
  C   C179      1.0  0.21373  0.30808  0.72166  1.0000
  C   C180      1.0  0.12723  0.03342  0.94180  1.0000
  H   H274      1.0  0.18986  0.01330  0.75226  1.0000
  H   H275      1.0  0.01340  0.09270  0.51893  1.0000
  H   H276      1.0  0.12251  0.03182  0.92328  1.0000
  S   S58       1.0  0.14187  0.10477  0.99088  1.0000
  H   H277      1.0  0.16587  0.42504  0.53916  1.0000
  H   H278      1.0  0.13350  0.40610  0.94438  1.0000
  H   H279      1.0  0.24381  0.35909  0.82628  1.0000
  H   H280      1.0  0.14292  0.03225  0.86180  1.0000
  H   H281      1.0  0.01657  0.37362  0.67330  1.0000
  C   C181      1.0  0.03739  0.04102  0.56067  1.0000
  C   C182      1.0  0.05768  0.36669  0.69929  1.0000
  H   H282      1.0  0.23577  0.36764  0.54339  1.0000
  H   H283      1.0  0.16433  0.38386  0.55380  1.0000
  H   H284      1.0  0.16174  0.35284  0.51025  1.0000
  H   H285      1.0  0.02921  0.36732  0.87121  1.0000
  H   H286      1.0  0.20519  0.29672  0.73384  1.0000
  C   C183      1.0  0.03665  0.04555  0.53384  1.0000
  C   C184      1.0  0.04449  0.34694  0.69139  1.0000
  H   H287      1.0  0.03868  0.36267  0.90048  1.0000
  H   H288      1.0  0.15409  0.02760  0.96224  1.0000
  H   H289      1.0  0.08330  0.34686  0.71266  1.0000
  H   H290      1.0  0.08508  0.35445  0.68193  1.0000
  H   H291      1.0  0.05194  0.33925  0.73918  1.0000
  H   H292      1.0  0.22205  0.29691  0.70935  1.0000
  H   H293      1.0  0.05210  0.33084  0.69660  1.0000
  H   H294      1.0  0.01603  0.29271  0.52375  1.0000
  C   C185      1.0  0.17505  0.01285  0.76160  1.0000
  C   C186      1.0  0.17036  0.03755  0.76862  1.0000
  H   H295      1.0  0.21935  0.38646  0.57913  1.0000
  H   H296      1.0  0.17547  0.49444  0.98146  1.0000
  H   H297      1.0  0.04883  0.32749  0.53236  1.0000
  H   H298      1.0  0.22728  0.38552  0.78401  1.0000
  C   C187      1.0  0.16676  0.05269  0.74699  1.0000
  S   S59       1.0  0.09011  0.41779  0.98977  1.0000
  Fe  Fe31      1.0  0.07344  0.38448  0.99098  1.0000
  H   H299      1.0  0.23637  0.40452  0.54103  1.0000
  C   C188      1.0  0.01124  0.32997  0.68755  1.0000
  H   H300      1.0  0.02169  0.38419  0.70138  1.0000
  H   H301      1.0  0.20640  0.40681  0.52010  1.0000
  C   C189      1.0  0.00153  0.06137  0.53408  1.0000
  C   C190      1.0  0.06388  0.45819  0.88829  1.0000
  C   C191      1.0  0.05883  0.04359  0.56986  1.0000
  N   N8        1.0  0.22844  0.32169  0.73540  1.0000
  H   H302      1.0  0.18323  0.04449  0.77825  1.0000
  H   H303      1.0  0.15693  0.03908  0.78006  1.0000
  H   H304      1.0  0.19955  0.04171  0.82484  1.0000
  H   H305      1.0  0.00551  0.01739  0.54432  1.0000
  C   C192      1.0  0.22296  0.36393  0.53177  1.0000
  H   H306      1.0  0.17237  0.40500  0.57279  1.0000
  C   C193      1.0  0.13744  0.37731  0.51096  1.0000
  C   C194      1.0  0.18261  0.00398  0.80407  1.0000
  C   C195      1.0  0.09219  0.04777  0.51594  1.0000
  H   H307      1.0  0.14578  0.16180  0.91374  1.0000
  H   H308      1.0  0.17224  0.01337  0.51577  1.0000
  H   H309      1.0  0.18017  0.05235  0.73523  1.0000
  H   H310      1.0  0.15335  0.04715  0.73723  1.0000
  H   H311      1.0  0.16396  0.07031  0.75245  1.0000
  N   N9        1.0  0.02287  0.34777  0.69985  1.0000
  H   H312      1.0  0.10103  0.26900  0.94415  1.0000
  C   C196      1.0  0.00958  0.32036  0.54812  1.0000
  C   C197      1.0  0.11903  0.24823  0.51210  1.0000
  H   H313      1.0  0.10555  0.00171  0.79981  1.0000
  C   C198      1.0  0.17681  0.38832  0.56571  1.0000
  N   N10       1.0  0.09213  0.39932  0.88997  1.0000
  C   C199      1.0  0.10011  0.40020  0.86512  1.0000
  C   C200      1.0  0.08409  0.42221  0.89716  1.0000
  C   C201      1.0  0.10964  0.39293  0.90578  1.0000
  C   C202      1.0  0.07619  0.38178  0.89323  1.0000
  C   C203      1.0  0.05692  0.38484  0.87831  1.0000
  C   C204      1.0  0.10971  0.37805  0.85573  1.0000
  C   C205      1.0  0.10512  0.39251  0.93251  1.0000
  C   C206      1.0  0.07453  0.43770  0.87777  1.0000
  H   H314      1.0  0.24064  0.33865  0.51350  1.0000
  C   C207      1.0  0.04312  0.36471  0.88176  1.0000
  C   C208      1.0  0.11605  0.38086  0.83008  1.0000
  C   C209      1.0  0.12461  0.39057  0.94665  1.0000
  H   H315      1.0  0.11175  0.41344  0.86343  1.0000
  H   H316      1.0  0.08808  0.40531  0.85257  1.0000
  H   H317      1.0  0.07282  0.42030  0.91161  1.0000
  H   H318      1.0  0.09641  0.43234  0.90462  1.0000
  H   H319      1.0  0.12243  0.40448  0.90236  1.0000
  H   H320      1.0  0.11551  0.37577  0.90198  1.0000
  H   H321      1.0  0.08268  0.36483  0.89004  1.0000
  H   H322      1.0  0.07091  0.38106  0.91172  1.0000
  H   H323      1.0  0.06051  0.38636  0.85939  1.0000
  H   H324      1.0  0.04822  0.39993  0.88393  1.0000
  H   H325      1.0  0.12353  0.37304  0.86558  1.0000
  H   H326      1.0  0.09892  0.36405  0.85675  1.0000
  H   H327      1.0  0.09587  0.37773  0.93732  1.0000
  H   H328      1.0  0.09688  0.40785  0.93821  1.0000
  H   H329      1.0  0.08652  0.44396  0.86573  1.0000
  H   H330      1.0  0.06339  0.42886  0.86717  1.0000
  H   H331      1.0  0.08126  0.18455  0.00215  1.0000
  H   H332      1.0  0.07588  0.25668  0.97781  1.0000
  H   H333      1.0  0.05087  0.34897  0.87609  1.0000
  C   C210      1.0  0.00789  0.02170  0.52547  1.0000
  H   H334      1.0  0.24490  0.12057  0.98117  1.0000
  H   H335      1.0  0.12728  0.39439  0.82799  1.0000
  H   H336      1.0  0.12311  0.36489  0.82401  1.0000
  H   H337      1.0  0.10274  0.38491  0.81890  1.0000
  C   C211      1.0  0.20492  0.01136  0.80465  1.0000
  H   H338      1.0  0.24327  0.36314  0.75282  1.0000
  H   H339      1.0  0.23985  0.42843  0.58795  1.0000
  N   N11       1.0  0.19652  0.38993  0.55229  1.0000
  C   C212      1.0  0.20277  0.36643  0.54528  1.0000
  C   C213      1.0  0.21218  0.39995  0.56794  1.0000
  C   C214      1.0  0.23033  0.35596  0.76263  1.0000
  C   C215      1.0  0.12882  0.05855  0.94639  1.0000
  H   H340      1.0  0.09084  0.21827  0.98174  1.0000
  H   H341      1.0  0.18245  0.39490  0.51839  1.0000
  C   C216      1.0  0.09214  0.02410  0.51603  1.0000
  H   H342      1.0  0.20465  0.35517  0.56094  1.0000
  H   H343      1.0  0.19065  0.35900  0.53464  1.0000
  H   H344      1.0  0.20498  0.41172  0.58054  1.0000
  H   H345      1.0  0.17334  0.31497  0.68261  1.0000
  C   C217      1.0  0.00083  0.29380  0.57948  1.0000
  C   C218      1.0  0.13742  0.00180  0.79086  1.0000
  H   H346      1.0  0.07108  0.22320  0.00250  1.0000
  H   H347      1.0  0.01025  0.27158  0.68183  1.0000
  H   H348      1.0  0.01309  0.30194  0.58935  1.0000
  H   H349      1.0  0.23256  0.27255  0.74148  1.0000
  S   S60       1.0  0.08390  0.17650  0.53098  1.0000
  H   H350      1.0  0.00133  0.25184  0.60399  1.0000
  N   N12       1.0  0.13308  0.23786  0.88965  1.0000
  C   C219      1.0  0.12887  0.25027  0.86680  1.0000
  C   C220      1.0  0.15320  0.24515  0.89881  1.0000
  C   C221      1.0  0.13500  0.21307  0.88446  1.0000
  C   C222      1.0  0.11660  0.24116  0.90777  1.0000
  C   C223      1.0  0.10454  0.26384  0.90681  1.0000
  C   C224      1.0  0.11077  0.24166  0.85265  1.0000
  C   C225      1.0  0.14228  0.19744  0.90501  1.0000
  C   C226      1.0  0.15516  0.27034  0.90443  1.0000
  C   C227      1.0  0.17649  0.27534  0.91260  1.0000
  C   C228      1.0  0.09139  0.26654  0.92863  1.0000
  C   C229      1.0  0.10371  0.25900  0.83414  1.0000
  C   C230      1.0  0.13838  0.17271  0.90013  1.0000
  H   H351      1.0  0.14233  0.24907  0.85506  1.0000
  H   H352      1.0  0.12658  0.26858  0.86942  1.0000
  H   H353      1.0  0.15716  0.23583  0.91529  1.0000
  H   H354      1.0  0.16528  0.24095  0.88594  1.0000
  H   H355      1.0  0.14557  0.21036  0.86948  1.0000
  H   H356      1.0  0.12025  0.20657  0.87867  1.0000
  H   H357      1.0  0.10504  0.22787  0.90653  1.0000
  H   H358      1.0  0.12294  0.23893  0.92571  1.0000
  H   H359      1.0  0.09439  0.26466  0.89143  1.0000
  H   H360      1.0  0.11447  0.27849  0.90547  1.0000
  H   H361      1.0  0.11537  0.22610  0.84340  1.0000
  H   H362      1.0  0.09780  0.23753  0.86421  1.0000
  H   H363      1.0  0.13456  0.20169  0.92165  1.0000
  H   H364      1.0  0.15880  0.19911  0.90744  1.0000
  H   H365      1.0  0.15208  0.28120  0.88880  1.0000
  H   H366      1.0  0.14482  0.27503  0.91891  1.0000
  H   H367      1.0  0.17776  0.29367  0.91556  1.0000
  H   H368      1.0  0.17995  0.26606  0.92924  1.0000
  H   H369      1.0  0.18781  0.27045  0.89915  1.0000
  C   C231      1.0  0.01394  0.37042  0.69237  1.0000
  S   S61       1.0  0.05035  0.11965  0.51933  1.0000
  H   H370      1.0  0.08133  0.28157  0.92644  1.0000
  H   H371      1.0  0.09088  0.25225  0.82424  1.0000
  H   H372      1.0  0.09861  0.27486  0.84248  1.0000
  H   H373      1.0  0.11612  0.26269  0.82157  1.0000
  C   C232      1.0  0.10507  0.05859  0.53114  1.0000
  H   H374      1.0  0.12193  0.16949  0.90040  1.0000
  H   H375      1.0  0.03354  0.30179  0.68898  1.0000
  H   H376      1.0  0.15712  0.36184  0.61604  1.0000
  H   H377      1.0  0.20922  0.02080  0.78849  1.0000
  H   H378      1.0  0.17625  0.45947  0.51706  1.0000
  H   H379      1.0  0.04501  0.34703  0.67187  1.0000
  H   H380      1.0  0.15814  0.02634  0.93162  1.0000
  H   H381      1.0  0.13479  0.25411  0.51054  1.0000
  C   C233      1.0  0.03744  0.33027  0.73886  1.0000
  H   H382      1.0  0.05906  0.04061  0.58912  1.0000
  C   C234      1.0  0.24599  0.32923  0.72041  1.0000
  C   C235      1.0  0.04002  0.31628  0.52116  1.0000
  H   H383      1.0  0.03275  0.02359  0.56508  1.0000
  H   H384      1.0  0.03253  0.29298  0.54871  1.0000
  H   H385      1.0  0.20475  0.36915  0.78261  1.0000
  H   H386      1.0  0.17293  0.01818  0.81005  1.0000
  H   H387      1.0  0.00925  0.44929  0.96796  1.0000
  C   C236      1.0  0.14772  0.02087  0.94588  1.0000
  H   H388      1.0  0.04395  0.06196  0.53005  1.0000
  H   H389      1.0  0.10696  0.46155  0.99247  1.0000
  C   C237      1.0  0.15793  0.37533  0.60230  1.0000
  C   C238      1.0  0.22629  0.33980  0.52361  1.0000
  C   C239      1.0  0.01739  0.30517  0.69302  1.0000
  H   H390      1.0  0.21022  0.35258  0.73356  1.0000
  H   H391      1.0  0.01748  0.31504  0.76496  1.0000
  C   C240      1.0  0.10503  0.01133  0.53094  1.0000
  H   H392      1.0  0.05540  0.38132  0.68702  1.0000
  H   H393      1.0  0.05120  0.45284  0.89981  1.0000
  H   H394      1.0  0.20465  0.33462  0.75762  1.0000
  H   H395      1.0  0.22505  0.03058  0.82603  1.0000
  H   H396      1.0  0.10526  0.07679  0.53124  1.0000
  H   H397      1.0  0.00798  0.27900  0.57094  1.0000
  H   H398      1.0  0.05839  0.47983  0.99020  1.0000
  H   H399      1.0  0.01915  0.00896  0.51928  1.0000
  H   H400      1.0  0.11528  0.02655  0.95343  1.0000
  H   H401      1.0  0.12085  0.38829  0.96550  1.0000
  H   H402      1.0  0.12020  0.20190  0.97689  1.0000
  H   H403      1.0  0.24086  0.14778  0.95010  1.0000
  C   C241      1.0  0.08683  0.22742  0.99779  1.0000
  H   H404      1.0  0.04043  0.31407  0.73021  1.0000
  C   C242      1.0  0.18206  0.42731  0.53470  1.0000
  H   H405      1.0  0.22345  0.37520  0.51613  1.0000
  C   C243      1.0  0.00208  0.44502  0.95116  1.0000
  S   S62       1.0  0.13558  0.00682  0.56382  1.0000
  H   H406      1.0  0.00437  0.33278  0.53462  1.0000
  H   H407      1.0  0.15884  0.39182  0.61095  1.0000
  H   H408      1.0  0.13988  0.15486  0.98271  1.0000
  C   C244      1.0  0.19242  0.40406  0.53044  1.0000
  H   H409      1.0  0.14038  0.06624  0.93474  1.0000
  S   S63       1.0  0.24745  0.31099  0.81404  1.0000
  C   C245      1.0  0.15484  0.02044  0.86687  1.0000
  H   H410      1.0  0.24731  0.13212  0.91355  1.0000
  H   H411      1.0  0.18617  0.32919  0.71985  1.0000
  H   H412      1.0  0.02742  0.05289  0.57024  1.0000
  C   C246      1.0  0.14808  0.35817  0.51915  1.0000
  H   H413      1.0  0.19012  0.37246  0.59759  1.0000
  H   H414      1.0  0.01866  0.33031  0.56040  1.0000
  H   H415      1.0  0.21216  0.38673  0.75782  1.0000
  H   H416      1.0  0.17540  0.35385  0.58017  1.0000
  H   H417      1.0  0.02896  0.34088  0.77395  1.0000
  C   C247      1.0  0.19704  0.32114  0.70766  1.0000
  C   C248      1.0  0.24142  0.34658  0.70046  1.0000
  H   H418      1.0  0.04425  0.44142  0.99405  1.0000
  H   H419      1.0  0.04695  0.03278  0.52597  1.0000
  H   H420      1.0  0.14467  0.16803  0.88281  1.0000
  H   H421      1.0  0.00334  0.42651  0.94926  1.0000
  H   H422      1.0  0.06931  0.03119  0.56170  1.0000
  C   C249      1.0  0.00899  0.08574  0.53629  1.0000
  H   H423      1.0  0.01233  0.33281  0.66823  1.0000
  H   H424      1.0  0.19519  0.29671  0.67975  1.0000
  H   H425      1.0  0.22334  0.42980  0.54858  1.0000
  H   H426      1.0  0.23408  0.33810  0.68577  1.0000
  H   H427      1.0  0.10211  0.25792  0.98607  1.0000
  C   C250      1.0  0.18512  0.30526  0.69251  1.0000
  H   H428      1.0  0.22729  0.32790  0.53885  1.0000
  S   S64       1.0  0.24474  0.06488  0.97284  1.0000
  H   H429      1.0  0.00594  0.33804  0.73084  1.0000
  H   H430      1.0  0.20304  0.33458  0.69616  1.0000
  H   H431      1.0  0.11099  0.39833  0.51632  1.0000
  H   H432      1.0  0.02119  0.36165  0.73472  1.0000
  H   H433      1.0  0.23175  0.36079  0.70633  1.0000
  C   C251      1.0  0.08688  0.25265  0.99195  1.0000
  H   H434      1.0  0.13291  0.06134  0.96492  1.0000
  H   H435      1.0  0.19991  0.01310  0.54454  1.0000
  H   H436      1.0  0.17748  0.29242  0.70370  1.0000
  C   C252      1.0  0.18276  0.44265  0.51294  1.0000
  Fe  Fe32      1.0  0.06847  0.15022  0.50895  1.0000
  H   H437      1.0  0.22745  0.15700  0.99051  1.0000
  H   H438      1.0  0.04373  0.31510  0.77300  1.0000
  H   H439      1.0  0.06433  0.06084  0.56601  1.0000
  C   C253      1.0  0.12050  0.18488  0.98522  1.0000
  H   H440      1.0  0.11411  0.06719  0.94287  1.0000
  H   H441      1.0  0.10690  0.17564  0.98018  1.0000
  H   H442      1.0  0.22542  0.30403  0.76876  1.0000
  H   H443      1.0  0.16398  0.00822  0.74799  1.0000
  H   H444      1.0  0.00634  0.29324  0.65966  1.0000
  H   H445      1.0  0.12669  0.21318  0.50987  1.0000
  H   H446      1.0  0.12977  0.16506  0.51529  1.0000
  H   H447      1.0  0.02193  0.47573  0.00020  1.0000
  H   H448      1.0  0.05766  0.46925  0.87403  1.0000
  H   H449      1.0  0.23614  0.34607  0.77790  1.0000
  H   H450      1.0  0.15293  0.18110  0.97864  1.0000
  C   C254      1.0  0.23698  0.30671  0.75485  1.0000
  H   H451      1.0  0.13681  0.00156  0.98301  1.0000
  H   H452      1.0  0.14110  0.01242  0.80586  1.0000
  H   H453      1.0  0.00958  0.27403  0.62247  1.0000
  N   N13       1.0  0.01608  0.04508  0.52267  1.0000
  H   H454      1.0  0.03271  0.32647  0.50692  1.0000
  C   C255      1.0  0.24501  0.28305  0.74774  1.0000
  H   H455      1.0  0.15411  0.15430  0.50612  1.0000
  H   H456      1.0  0.01036  0.45311  0.93636  1.0000
  C   C256      1.0  0.24602  0.41874  0.57304  1.0000
  C   C257      1.0  0.15504  0.99848  0.85775  1.0000
  H   H457      1.0  0.17516  0.99864  0.98294  1.0000
  H   H458      1.0  0.13747  0.39264  0.00317  1.0000
  H   H459      1.0  0.16716  0.45972  0.00425  1.0000
  Fe  Fe33      1.0  0.15428  0.54590  0.05650  1.0000
  S   S65       1.0  0.14661  0.52719  0.09018  1.0000
  S   S66       1.0  0.18779  0.54157  0.04580  1.0000
  Fe  Fe34      1.0  0.10993  0.56290  0.05135  1.0000
  S   S67       1.0  0.09979  0.54622  0.08494  1.0000
  S   S68       1.0  0.08978  0.58233  0.02526  1.0000
  Fe  Fe35      1.0  0.12893  0.55808  0.10057  1.0000
  S   S69       1.0  0.13402  0.57745  0.13446  1.0000
  Fe  Fe36      1.0  0.11830  0.51667  0.07206  1.0000
  S   S70       1.0  0.13770  0.57735  0.06756  1.0000
  S   S71       1.0  0.12719  0.53270  0.03778  1.0000
  H   H460      1.0  0.00832  0.73525  0.37775  1.0000
  Fe  Fe37      1.0  0.12174  0.59611  0.31840  1.0000
  S   S72       1.0  0.12357  0.55901  0.31102  1.0000
  S   S73       1.0  0.09246  0.60992  0.33620  1.0000
  Fe  Fe38      1.0  0.16733  0.60169  0.30449  1.0000
  S   S74       1.0  0.17095  0.56490  0.29601  1.0000
  S   S75       1.0  0.19386  0.62532  0.29557  1.0000
  Fe  Fe39      1.0  0.14073  0.56904  0.27811  1.0000
  S   S76       1.0  0.13225  0.55119  0.24424  1.0000
  Fe  Fe40      1.0  0.15354  0.55779  0.32941  1.0000
  S   S77       1.0  0.16258  0.53438  0.36078  1.0000
  S   S78       1.0  0.13770  0.60617  0.28475  1.0000
  S   S79       1.0  0.15113  0.59462  0.33862  1.0000
  H   H461      1.0  0.07061  0.56074  0.31833  1.0000
  C   C258      1.0  0.02679  0.63821  0.32609  1.0000
  C   C259      1.0  0.03303  0.62803  0.34728  1.0000
  C   C260      1.0  0.05307  0.61961  0.34995  1.0000
  C   C261      1.0  0.06720  0.62069  0.33142  1.0000
  C   C262      1.0  0.06095  0.63075  0.31017  1.0000
  C   C263      1.0  0.04096  0.63938  0.30756  1.0000
  H   H462      1.0  0.02236  0.62631  0.36154  1.0000
  H   H463      1.0  0.05759  0.61189  0.36648  1.0000
  H   H464      1.0  0.07162  0.63219  0.29588  1.0000
  H   H465      1.0  0.03646  0.64722  0.29108  1.0000
  C   C264      1.0  0.06321  0.58703  0.02674  1.0000
  C   C265      1.0  0.05152  0.57879  0.04539  1.0000
  H   H466      1.0  0.15063  0.96133  0.45374  1.0000
  H   H467      1.0  0.07163  0.51122  0.05466  1.0000
  C   C266      1.0  0.21435  0.89882  0.49706  1.0000
  C   C267      1.0  0.22538  0.54806  0.02586  1.0000
  H   H468      1.0  0.19288  0.56958  0.34401  1.0000
  C   C268      1.0  0.13408  0.56942  0.16484  1.0000
  C   C269      1.0  0.13944  0.58539  0.18148  1.0000
  C   C270      1.0  0.13945  0.58001  0.20573  1.0000
  C   C271      1.0  0.13381  0.55861  0.21377  1.0000
  C   C272      1.0  0.12840  0.54267  0.19714  1.0000
  C   C273      1.0  0.12869  0.54793  0.17287  1.0000
  H   H469      1.0  0.14368  0.60206  0.17556  1.0000
  H   H470      1.0  0.14376  0.59243  0.21819  1.0000
  H   H471      1.0  0.12397  0.52607  0.20308  1.0000
  H   H472      1.0  0.12451  0.53544  0.16040  1.0000
  H   H473      1.0  0.21114  0.99518  0.43448  1.0000
  H   H474      1.0  0.19458  0.70018  0.35437  1.0000
  H   H475      1.0  0.08349  0.50999  0.01846  1.0000
  C   C274      1.0  0.21320  0.53117  0.32793  1.0000
  H   H476      1.0  0.99940  0.70014  0.30802  1.0000
  H   H477      1.0  0.20457  0.67171  0.10143  1.0000
  C   C275      1.0  0.16621  0.62298  0.03824  1.0000
  C   C276      1.0  0.22721  0.50154  0.36869  1.0000
  H   H478      1.0  0.19653  0.72404  0.33455  1.0000
  H   H479      1.0  0.20893  0.58811  0.12324  1.0000
  C   C277      1.0  0.23517  0.89859  0.49132  1.0000
  H   H480      1.0  0.20443  0.88753  0.48829  1.0000
  C   C278      1.0  0.06015  0.68665  0.35237  1.0000
  C   C279      1.0  0.21750  0.63405  0.30725  1.0000
  C   C280      1.0  0.22239  0.63164  0.33101  1.0000
  H   H481      1.0  0.06037  0.70251  0.38638  1.0000
  C   C281      1.0  0.23163  0.64441  0.29213  1.0000
  H   H482      1.0  0.21150  0.62455  0.34307  1.0000
  H   H483      1.0  0.04130  0.66302  0.39008  1.0000
  H   H484      1.0  0.21525  0.57695  0.06604  1.0000
  H   H485      1.0  0.21516  0.63529  0.08298  1.0000
  H   H486      1.0  0.00719  0.69825  0.39787  1.0000
  C   C282      1.0  0.02528  0.66831  0.39202  1.0000
  C   C283      1.0  0.05350  0.59889  0.00825  1.0000
  H   H487      1.0  0.04933  0.73754  0.40317  1.0000
  H   H488      1.0  0.18137  0.58765  0.06497  1.0000
  C   C284      1.0  0.08286  0.68221  0.35448  1.0000
  C   C285      1.0  0.02082  0.71745  0.32980  1.0000
  H   H489      1.0  0.21529  0.58551  0.34738  1.0000
  H   H490      1.0  0.15593  0.95732  0.49851  1.0000
  C   C286      1.0  0.16785  0.96406  0.48661  1.0000
  C   C287      1.0  0.19554  0.58539  0.37716  1.0000
  H   H491      1.0  0.05598  0.54842  0.29556  1.0000
  H   H492      1.0  0.04726  0.53271  0.07919  1.0000
  H   H493      1.0  0.05704  0.69173  0.33391  1.0000
  C   C288      1.0  0.24256  0.55489  0.33271  1.0000
  H   H494      1.0  0.19701  0.72798  0.36594  1.0000
  N   N14       1.0  0.22810  0.53950  0.34544  1.0000
  H   H495      1.0  0.05880  0.56980  0.05980  1.0000
  H   H496      1.0  0.13093  0.94346  0.00924  1.0000
  H   H497      1.0  0.00057  0.98231  0.44364  1.0000
  H   H498      1.0  0.06418  0.87676  0.49471  1.0000
  H   H499      1.0  0.03084  0.50867  0.08037  1.0000
  H   H500      1.0  0.17046  0.60845  0.08297  1.0000
  C   C289      1.0  0.20836  0.62496  0.09738  1.0000
  C   C290      1.0  0.07067  0.55607  0.29959  1.0000
  C   C291      1.0  0.05272  0.70538  0.36922  1.0000
  H   H501      1.0  0.22672  0.55571  0.37905  1.0000
  H   H502      1.0  0.22049  0.62291  0.11069  1.0000
  H   H503      1.0  0.17682  0.92074  0.46991  1.0000
  H   H504      1.0  0.20726  0.59003  0.38990  1.0000
  H   H505      1.0  0.07287  0.53688  0.01318  1.0000
  N   N15       1.0  0.07637  0.59070  0.24081  1.0000
  C   C292      1.0  0.07640  0.57109  0.25811  1.0000
  C   C293      1.0  0.07916  0.58249  0.21604  1.0000
  C   C294      1.0  0.09426  0.60498  0.24639  1.0000
  C   C295      1.0  0.05753  0.60527  0.24279  1.0000
  C   C296      1.0  0.03712  0.59320  0.24152  1.0000
  C   C297      1.0  0.07386  0.57712  0.28426  1.0000
  C   C298      1.0  0.09820  0.62508  0.22918  1.0000
  C   C299      1.0  0.06999  0.55952  0.21005  1.0000
  H   H506      1.0  0.18760  0.60103  0.37098  1.0000
  H   H507      1.0  0.16202  0.60633  0.03154  1.0000
  H   H508      1.0  0.19797  0.61565  0.03938  1.0000
  C   C300      1.0  0.11680  0.63802  0.23631  1.0000
  H   H509      1.0  0.09075  0.56113  0.25646  1.0000
  H   H510      1.0  0.06438  0.55908  0.25421  1.0000
  H   H511      1.0  0.07344  0.59538  0.20313  1.0000
  H   H512      1.0  0.09553  0.58031  0.21183  1.0000
  H   H513      1.0  0.10830  0.59430  0.24698  1.0000
  H   H514      1.0  0.09263  0.61227  0.26408  1.0000
  H   H515      1.0  0.05773  0.61493  0.25926  1.0000
  H   H516      1.0  0.05712  0.61837  0.22858  1.0000
  H   H517      1.0  0.03629  0.57875  0.25405  1.0000
  H   H518      1.0  0.03466  0.58733  0.22350  1.0000
  H   H519      1.0  0.08755  0.58543  0.29064  1.0000
  H   H520      1.0  0.06064  0.58844  0.28707  1.0000
  H   H521      1.0  0.08527  0.63720  0.22904  1.0000
  H   H522      1.0  0.10084  0.61928  0.21106  1.0000
  H   H523      1.0  0.07896  0.54566  0.21865  1.0000
  H   H524      1.0  0.05415  0.55817  0.21598  1.0000
  C   C301      1.0  0.21658  0.55169  0.36432  1.0000
  C   C302      1.0  0.19927  0.57376  0.01190  1.0000
  H   H525      1.0  0.06090  0.56839  0.17429  1.0000
  H   H526      1.0  0.01830  0.63801  0.41212  1.0000
  H   H527      1.0  0.01052  0.95932  0.42811  1.0000
  C   C303      1.0  0.02064  0.59365  0.02663  1.0000
  C   C304      1.0  0.20534  0.50828  0.29228  1.0000
  C   C305      1.0  0.19896  0.66176  0.11675  1.0000
  C   C306      1.0  0.24116  0.63903  0.33934  1.0000
  H   H528      1.0  0.11910  0.65241  0.22392  1.0000
  H   H529      1.0  0.11485  0.64469  0.25422  1.0000
  H   H530      1.0  0.13050  0.62697  0.23584  1.0000
  C   C307      1.0  0.02329  0.69415  0.39381  1.0000
  H   H531      1.0  0.24104  0.88723  0.47828  1.0000
  H   H532      1.0  0.05922  0.72128  0.36208  1.0000
  H   H533      1.0  0.22431  0.60417  0.06042  1.0000
  H   H534      1.0  0.05264  0.67048  0.35562  1.0000
  H   H535      1.0  0.00161  0.66156  0.41795  1.0000
  H   H536      1.0  0.02761  0.51153  0.03611  1.0000
  H   H537      1.0  0.08764  0.66912  0.34188  1.0000
  C   C308      1.0  0.18435  0.60422  0.07277  1.0000
  N   N16       1.0  0.05168  0.50959  0.01026  1.0000
  H   H538      1.0  0.15957  0.92232  0.44569  1.0000
  H   H539      1.0  0.04393  0.53455  0.03578  1.0000
  C   C309      1.0  0.23982  0.55895  0.01145  1.0000
  H   H540      1.0  0.18229  0.95620  0.49283  1.0000
  C   C310      1.0  0.19321  0.56244  0.10439  1.0000
  H   H541      1.0  0.08670  0.67589  0.37239  1.0000
  C   C311      1.0  0.20513  0.57351  0.35630  1.0000
  H   H542      1.0  0.03514  0.77310  0.41927  1.0000
  H   H543      1.0  0.18525  0.63018  0.12481  1.0000
  S   S80       1.0  0.00167  0.64956  0.32160  1.0000
  H   H544      1.0  0.03090  0.74359  0.36348  1.0000
  C   C312      1.0  0.01819  0.70170  0.35166  1.0000
  C   C313      1.0  0.20503  0.55541  0.02628  1.0000
  H   H545      1.0  0.24345  0.78060  0.34290  1.0000
  H   H546      1.0  0.01634  0.66227  0.37720  1.0000
  H   H547      1.0  0.09132  0.69778  0.35046  1.0000
  H   H548      1.0  0.18954  0.63832  0.05756  1.0000
  C   C314      1.0  0.23996  0.52025  0.35670  1.0000
  H   H549      1.0  0.03657  0.72323  0.32799  1.0000
  H   H550      1.0  0.14533  0.99645  0.46189  1.0000
  N   N17       1.0  0.20243  0.60228  0.08866  1.0000
  H   H551      1.0  0.03202  0.69837  0.40962  1.0000
  H   H552      1.0  0.03864  0.77570  0.38801  1.0000
  C   C315      1.0  0.23935  0.58686  0.08894  1.0000
  H   H553      1.0  0.00678  0.91373  0.49602  1.0000
  H   H554      1.0  0.02371  0.60937  0.09257  1.0000
  C   C316      1.0  0.01764  0.99679  0.40230  1.0000
  H   H555      1.0  0.01346  0.63166  0.11016  1.0000
  H   H556      1.0  0.18647  0.67147  0.12510  1.0000
  H   H557      1.0  0.08299  0.54345  0.29680  1.0000
  C   C317      1.0  0.03300  0.74156  0.40106  1.0000
  C   C318      1.0  0.18893  0.54904  0.12697  1.0000
  H   H558      1.0  0.17373  0.99287  0.43857  1.0000
  C   C319      1.0  0.01034  0.61488  0.10297  1.0000
  C   C320      1.0  0.07059  0.55570  0.18367  1.0000
  C   C321      1.0  0.19124  0.63906  0.10903  1.0000
  C   C322      1.0  0.01520  0.70594  0.30717  1.0000
  C   C323      1.0  0.23555  0.73642  0.34837  1.0000
  H   H559      1.0  0.20636  0.55423  0.09576  1.0000
  H   H560      1.0  0.18304  0.59389  0.11811  1.0000
  C   C324      1.0  0.02501  0.73240  0.37773  1.0000
  H   H561      1.0  0.22904  0.70514  0.36822  1.0000
  H   H562      1.0  0.17495  0.51280  0.40401  1.0000
  H   H563      1.0  0.02542  0.69124  0.30410  1.0000
  H   H564      1.0  0.17988  0.56106  0.09293  1.0000
  H   H565      1.0  0.22737  0.74662  0.33469  1.0000
  C   C325      1.0  0.03035  0.58200  0.04527  1.0000
  H   H566      1.0  0.18371  0.57953  0.01175  1.0000
  H   H567      1.0  0.20617  0.54564  0.31817  1.0000
  C   C326      1.0  0.21986  0.59244  0.07492  1.0000
  H   H568      1.0  0.02171  0.68422  0.34650  1.0000
  N   N18       1.0  0.03014  0.70802  0.37285  1.0000
  H   H569      1.0  0.18435  0.57436  0.38599  1.0000
  H   H570      1.0  0.01085  0.73261  0.33155  1.0000
  H   H571      1.0  0.02145  0.57530  0.05963  1.0000
  C   C327      1.0  0.05568  0.50595  0.05529  1.0000
  C   C328      1.0  0.22474  0.71350  0.35136  1.0000
  H   H572      1.0  0.21130  0.65934  0.12971  1.0000
  H   H573      1.0  0.24465  0.63701  0.35774  1.0000
  H   H574      1.0  0.23260  0.74547  0.36496  1.0000
  H   H575      1.0  0.00811  0.60254  0.11760  1.0000
  H   H576      1.0  0.01049  0.93920  0.46180  1.0000
  N   N19       1.0  0.16836  0.98939  0.48815  1.0000
  H   H577      1.0  0.20209  0.54928  0.13889  1.0000
  H   H578      1.0  0.02078  0.61496  0.26575  1.0000
  C   C329      1.0  0.04376  0.51597  0.03405  1.0000
  C   C330      1.0  0.01959  0.60928  0.24741  1.0000
  H   H579      1.0  0.21891  0.50822  0.38404  1.0000
  C   C331      1.0  0.18602  0.62118  0.05179  1.0000
  C   C332      1.0  0.02990  0.76708  0.40211  1.0000
  H   H580      1.0  0.02458  0.73416  0.41614  1.0000
  H   H581      1.0  0.17854  0.64251  0.09682  1.0000
  H   H582      1.0  0.22801  0.49926  0.31748  1.0000
  C   C333      1.0  0.16968  0.50577  0.36772  1.0000
  C   C334      1.0  0.01753  0.65654  0.41431  1.0000
  H   H583      1.0  0.17777  0.95789  0.45063  1.0000
  H   H584      1.0  0.17545  0.55609  0.13609  1.0000
  C   C335      1.0  0.16259  0.92879  0.46339  1.0000
  H   H585      1.0  0.24583  0.60240  0.09590  1.0000
  H   H586      1.0  0.20496  0.54061  0.37229  1.0000
  H   H587      1.0  0.19877  0.98639  0.47434  1.0000
  C   C336      1.0  0.19709  0.58748  0.10954  1.0000
  H   H588      1.0  0.22805  0.64662  0.27376  1.0000
  H   H589      1.0  0.01662  0.71797  0.29212  1.0000
  C   C337      1.0  0.20181  0.71675  0.35157  1.0000
  H   H590      1.0  0.08627  0.55685  0.17686  1.0000
  H   H591      1.0  0.15382  0.62940  0.04962  1.0000
  C   C338      1.0  0.16455  0.95438  0.46203  1.0000
  H   H592      1.0  0.05566  0.50676  0.09318  1.0000
  H   H593      1.0  0.16791  0.63480  0.02304  1.0000
  H   H594      1.0  0.03002  0.98398  0.40099  1.0000
  H   H595      1.0  0.12496  0.97276  0.01380  1.0000
  S   S81       1.0  0.02233  0.86538  0.49726  1.0000
  C   C339      1.0  0.22181  0.51499  0.30925  1.0000
  H   H596      1.0  0.23392  0.52309  0.29881  1.0000
  H   H597      1.0  0.01943  0.62421  0.23535  1.0000
  H   H598      1.0  0.18590  0.53128  0.12275  1.0000
  H   H599      1.0  0.22863  0.70157  0.33739  1.0000
  H   H600      1.0  0.01364  0.77170  0.40025  1.0000
  H   H601      1.0  0.23009  0.53390  0.03688  1.0000
  C   C340      1.0  0.07247  0.51923  0.00706  1.0000
  H   H602      1.0  0.13573  0.99047  0.49010  1.0000
  H   H603      1.0  0.14998  0.92391  0.47523  1.0000
  H   H604      1.0  0.20038  0.52278  0.33691  1.0000
  C   C341      1.0  0.17529  0.49996  0.39088  1.0000
  H   H605      1.0  0.16703  0.50242  0.03357  1.0000
  H   H606      1.0  0.23745  0.71517  0.30359  1.0000
  H   H607      1.0  0.02696  0.66078  0.42954  1.0000
  H   H608      1.0  0.19293  0.49971  0.30186  1.0000
  H   H609      1.0  0.23423  0.56712  0.32104  1.0000
  C   C342      1.0  0.04671  0.51408  0.07837  1.0000
  C   C343      1.0  0.03236  0.60222  0.00819  1.0000
  H   H610      1.0  0.23643  0.57500  0.10378  1.0000
  H   H611      1.0  0.00176  0.70163  0.35598  1.0000
  H   H612      1.0  0.06497  0.53867  0.17998  1.0000
  H   H613      1.0  0.00506  0.60050  0.24565  1.0000
  H   H614      1.0  0.19908  0.52333  0.28275  1.0000
  H   H615      1.0  0.02540  0.55040  0.00590  1.0000
  H   H616      1.0  0.24828  0.57928  0.36058  1.0000
  H   H617      1.0  0.18625  0.79719  0.86875  1.0000
  Fe  Fe41      1.0  0.15800  0.92660  0.54881  1.0000
  S   S82       1.0  0.16630  0.95114  0.57619  1.0000
  H   H618      1.0  0.11296  0.51565  0.99134  1.0000
  Fe  Fe42      1.0  0.11349  0.92478  0.56632  1.0000
  S   S83       1.0  0.11951  0.94963  0.59462  1.0000
  S   S84       1.0  0.08109  0.91210  0.56964  1.0000
  Fe  Fe43      1.0  0.13673  0.96861  0.56689  1.0000
  H   H619      1.0  0.10497  0.99314  0.53068  1.0000
  Fe  Fe44      1.0  0.14817  0.93006  0.60171  1.0000
  S   S85       1.0  0.16059  0.91610  0.63679  1.0000
  S   S86       1.0  0.12915  0.94523  0.53804  1.0000
  S   S87       1.0  0.14151  0.90414  0.57474  1.0000
  C   C344      1.0  0.21946  0.92780  0.52515  1.0000
  Fe  Fe45      1.0  0.16756  0.88245  0.80855  1.0000
  S   S88       1.0  0.17363  0.91785  0.79565  1.0000
  S   S89       1.0  0.18902  0.85137  0.80617  1.0000
  Fe  Fe46      1.0  0.12289  0.89435  0.82162  1.0000
  S   S90       1.0  0.12661  0.93065  0.81017  1.0000
  S   S91       1.0  0.09439  0.88097  0.84083  1.0000
  Fe  Fe47      1.0  0.14303  0.91680  0.77848  1.0000
  S   S92       1.0  0.13405  0.93361  0.74321  1.0000
  Fe  Fe48      1.0  0.15689  0.92958  0.82802  1.0000
  S   S93       1.0  0.17188  0.95506  0.85244  1.0000
  S   S94       1.0  0.13778  0.88064  0.78920  1.0000
  S   S95       1.0  0.15236  0.89400  0.84168  1.0000
  H   H620      1.0  0.10553  0.84212  0.81630  1.0000
  H   H621      1.0  0.22927  0.83347  0.59180  1.0000
  H   H622      1.0  0.21874  0.87902  0.54668  1.0000
  H   H623      1.0  0.17974  0.97465  0.73737  1.0000
  H   H624      1.0  0.23585  0.90550  0.58888  1.0000
  C   C345      1.0  0.05854  0.88250  0.51140  1.0000
  H   H625      1.0  0.24787  0.80532  0.87916  1.0000
  C   C346      1.0  0.03234  0.84799  0.82691  1.0000
  C   C347      1.0  0.04530  0.85386  0.80813  1.0000
  C   C348      1.0  0.06394  0.86449  0.81189  1.0000
  C   C349      1.0  0.07027  0.86904  0.83465  1.0000
  C   C350      1.0  0.05734  0.86314  0.85343  1.0000
  C   C351      1.0  0.03853  0.85287  0.84964  1.0000
  H   H626      1.0  0.04080  0.85026  0.79046  1.0000
  H   H627      1.0  0.07343  0.86905  0.79719  1.0000
  H   H628      1.0  0.06190  0.86653  0.87113  1.0000
  H   H629      1.0  0.02892  0.84849  0.86434  1.0000
  C   C352      1.0  0.15298  0.92138  0.66623  1.0000
  C   C353      1.0  0.13921  0.93861  0.67190  1.0000
  C   C354      1.0  0.13361  0.94203  0.69549  1.0000
  C   C355      1.0  0.14177  0.92844  0.71379  1.0000
  C   C356      1.0  0.15563  0.91132  0.70813  1.0000
  C   C357      1.0  0.16116  0.90783  0.68453  1.0000
  H   H630      1.0  0.13302  0.94943  0.65815  1.0000
  H   H631      1.0  0.12295  0.95540  0.69962  1.0000
  H   H632      1.0  0.16210  0.90074  0.72194  1.0000
  H   H633      1.0  0.17189  0.89452  0.68044  1.0000
  H   H634      1.0  0.05743  0.78907  0.81405  1.0000
  H   H635      1.0  0.14056  0.86433  0.61586  1.0000
  C   C358      1.0  0.22496  0.86992  0.56240  1.0000
  N   N20       1.0  0.21466  0.87853  0.58418  1.0000
  H   H636      1.0  0.15563  0.97173  0.79877  1.0000
  H   H637      1.0  0.02190  0.51228  0.99501  1.0000
  C   C359      1.0  0.06485  0.90001  0.54875  1.0000
  C   C360      1.0  0.11815  0.98938  0.79731  1.0000
  C   C361      1.0  0.13511  0.96189  0.92280  1.0000
  H   H638      1.0  0.19388  0.83979  0.57419  1.0000
  H   H639      1.0  0.13174  0.83734  0.89395  1.0000
  H   H640      1.0  0.09519  0.83231  0.75248  1.0000
  H   H641      1.0  0.21368  0.93922  0.53813  1.0000
  H   H642      1.0  0.04921  0.55351  0.99113  1.0000
  C   C362      1.0  0.11666  0.82085  0.85261  1.0000
  H   H643      1.0  0.07965  0.96794  0.62012  1.0000
  H   H644      1.0  0.10011  0.85418  0.77287  1.0000
  C   C363      1.0  0.22620  0.86240  0.82586  1.0000
  C   C364      1.0  0.21545  0.84754  0.81219  1.0000
  C   C365      1.0  0.22580  0.82842  0.80360  1.0000
  H   H645      1.0  0.12135  0.86107  0.87728  1.0000
  H   H646      1.0  0.21859  0.87713  0.83272  1.0000
  H   H647      1.0  0.21778  0.81683  0.79290  1.0000
  H   H648      1.0  0.04491  0.79930  0.83982  1.0000
  H   H649      1.0  0.21024  0.98170  0.95173  1.0000
  C   C366      1.0  0.05891  0.79089  0.83327  1.0000
  C   C367      1.0  0.12557  0.95639  0.89934  1.0000
  C   C368      1.0  0.08124  0.51892  0.98181  1.0000
  H   H650      1.0  0.21611  0.91194  0.56875  1.0000
  H   H651      1.0  0.07707  0.80784  0.85806  1.0000
  H   H652      1.0  0.16848  0.77646  0.80525  1.0000
  H   H653      1.0  0.14762  0.80595  0.82539  1.0000
  H   H654      1.0  0.11719  0.86479  0.59981  1.0000
  H   H655      1.0  0.02051  0.57103  0.96911  1.0000
  H   H656      1.0  0.13648  0.78369  0.84216  1.0000
  H   H657      1.0  0.10039  0.77974  0.84416  1.0000
  N   N21       1.0  0.08431  0.90248  0.64952  1.0000
  C   C369      1.0  0.09322  0.88464  0.63394  1.0000
  C   C370      1.0  0.06185  0.89911  0.65128  1.0000
  C   C371      1.0  0.08901  0.92528  0.63900  1.0000
  C   C372      1.0  0.09315  0.90095  0.67382  1.0000
  C   C373      1.0  0.09272  0.87750  0.68624  1.0000
  C   C374      1.0  0.11654  0.88394  0.63195  1.0000
  C   C375      1.0  0.07889  0.94577  0.65110  1.0000
  C   C376      1.0  0.04983  0.90297  0.62818  1.0000
  H   H658      1.0  0.22385  0.76308  0.83405  1.0000
  C   C377      1.0  0.10273  0.87818  0.71028  1.0000
  C   C378      1.0  0.12387  0.86394  0.61762  1.0000
  C   C379      1.0  0.08450  0.96785  0.63872  1.0000
  H   H659      1.0  0.08767  0.88713  0.61569  1.0000
  H   H660      1.0  0.08800  0.86764  0.63949  1.0000
  H   H661      1.0  0.05870  0.88162  0.65738  1.0000
  H   H662      1.0  0.05503  0.91005  0.66491  1.0000
  H   H663      1.0  0.08512  0.92611  0.62005  1.0000
  H   H664      1.0  0.10554  0.92806  0.63952  1.0000
  H   H665      1.0  0.10903  0.90665  0.67365  1.0000
  H   H666      1.0  0.08504  0.91274  0.68564  1.0000
  H   H667      1.0  0.10100  0.86461  0.67601  1.0000
  H   H668      1.0  0.07697  0.87199  0.68892  1.0000
  H   H669      1.0  0.12179  0.89945  0.62290  1.0000
  H   H670      1.0  0.12392  0.88249  0.64929  1.0000
  H   H671      1.0  0.08388  0.94678  0.66954  1.0000
  H   H672      1.0  0.06221  0.94479  0.65086  1.0000
  H   H673      1.0  0.05180  0.92021  0.62080  1.0000
  H   H674      1.0  0.05474  0.89080  0.61475  1.0000
  H   H675      1.0  0.17565  0.98957  0.92997  1.0000
  C   C380      1.0  0.11320  0.82660  0.80997  1.0000
  H   H676      1.0  0.01909  0.90250  0.61545  1.0000
  H   H677      1.0  0.09485  0.89055  0.72162  1.0000
  H   H678      1.0  0.10213  0.86133  0.71899  1.0000
  H   H679      1.0  0.11881  0.88289  0.70845  1.0000
  H   H680      1.0  0.11972  0.84785  0.62646  1.0000
  C   C381      1.0  0.23135  0.77321  0.84757  1.0000
  H   H681      1.0  0.10106  0.97031  0.63946  1.0000
  H   H682      1.0  0.19164  0.91703  0.60137  1.0000
  H   H683      1.0  0.12272  0.76918  0.80293  1.0000
  H   H684      1.0  0.06033  0.77399  0.84187  1.0000
  H   H685      1.0  0.09463  0.78520  0.81452  1.0000
  C   C382      1.0  0.22198  0.84095  0.60738  1.0000
  C   C383      1.0  0.07710  0.80518  0.83886  1.0000
  C   C384      1.0  0.13537  0.98872  0.96922  1.0000
  H   H686      1.0  0.20676  0.76217  0.87067  1.0000
  H   H687      1.0  0.10556  0.80318  0.78156  1.0000
  H   H688      1.0  0.17621  0.52080  0.99637  1.0000
  H   H689      1.0  0.13790  0.84694  0.84103  1.0000
  H   H690      1.0  0.14233  0.95192  0.96896  1.0000
  H   H691      1.0  0.10349  0.83256  0.85501  1.0000
  H   H692      1.0  0.12066  0.83672  0.76209  1.0000
  H   H693      1.0  0.07501  0.82179  0.83006  1.0000
  C   C385      1.0  0.21445  0.77807  0.86582  1.0000
  H   H694      1.0  0.08485  0.82000  0.79174  1.0000
  C   C386      1.0  0.04441  0.89690  0.55466  1.0000
  H   H695      1.0  0.20646  0.93612  0.75802  1.0000
  H   H696      1.0  0.23523  0.78942  0.83863  1.0000
  H   H697      1.0  0.18595  0.89077  0.57048  1.0000
  C   C387      1.0  0.03813  0.87927  0.51733  1.0000
  C   C388      1.0  0.07181  0.89290  0.52691  1.0000
  C   C389      1.0  0.02725  0.89983  0.63226  1.0000
  H   H698      1.0  0.06239  0.60543  0.99377  1.0000
  H   H699      1.0  0.20540  0.81119  0.85170  1.0000
  H   H700      1.0  0.21472  0.95848  0.73831  1.0000
  C   C390      1.0  0.20806  0.91664  0.60483  1.0000
  H   H701      1.0  0.15012  0.95334  0.92342  1.0000
  C   C391      1.0  0.24031  0.92729  0.51971  1.0000
  H   H702      1.0  0.23243  0.81304  0.62964  1.0000
  H   H703      1.0  0.21064  0.90922  0.62256  1.0000
  H   H704      1.0  0.17072  0.84006  0.54135  1.0000
  C   C392      1.0  0.21947  0.90322  0.58570  1.0000
  H   H705      1.0  0.14941  0.82414  0.85794  1.0000
  H   H706      1.0  0.13659  0.79159  0.78851  1.0000
  H   H707      1.0  0.22645  0.83838  0.64521  1.0000
  H   H708      1.0  0.14822  0.85799  0.88103  1.0000
  C   C393      1.0  0.19201  0.87674  0.58189  1.0000
  C   C394      1.0  0.23329  0.83169  0.62890  1.0000
  C   C395      1.0  0.20218  0.98321  0.96875  1.0000
  H   H709      1.0  0.23779  0.87229  0.61025  1.0000
  H   H710      1.0  0.07688  0.98219  0.64751  1.0000
  C   C396      1.0  0.21492  0.94103  0.60508  1.0000
  C   C397      1.0  0.18525  0.98971  0.87971  1.0000
  H   H711      1.0  0.19197  0.78806  0.83950  1.0000
  C   C398      1.0  0.18347  0.85441  0.57249  1.0000
  H   H712      1.0  0.04175  0.51269  0.97426  1.0000
  C   C399      1.0  0.16905  0.50404  0.99630  1.0000
  H   H713      1.0  0.02429  0.88249  0.63892  1.0000
  C   C400      1.0  0.03109  0.88673  0.53902  1.0000
  H   H714      1.0  0.23410  0.73237  0.86892  1.0000
  C   C401      1.0  0.13671  0.98763  0.92561  1.0000
  H   H715      1.0  0.16445  0.86931  0.54491  1.0000
  H   H716      1.0  0.11394  0.97779  0.78321  1.0000
  H   H717      1.0  0.20591  0.95043  0.61826  1.0000
  C   C402      1.0  0.14131  0.96589  0.98138  1.0000
  H   H718      1.0  0.07224  0.53011  0.96988  1.0000
  H   H719      1.0  0.02514  0.61124  0.99374  1.0000
  S   S96       1.0  0.00925  0.83373  0.82088  1.0000
  H   H720      1.0  0.18459  0.87948  0.59919  1.0000
  H   H721      1.0  0.17145  0.95188  0.75608  1.0000
  H   H722      1.0  0.20624  0.83513  0.60907  1.0000
  H   H723      1.0  0.20518  0.98288  0.77091  1.0000
  H   H724      1.0  0.13497  0.96267  0.88456  1.0000
  H   H725      1.0  0.18667  0.96600  0.53038  1.0000
  H   H726      1.0  0.12442  0.93786  0.89782  1.0000
  H   H727      1.0  0.02130  0.91220  0.64498  1.0000
  H   H728      1.0  0.12516  0.95476  0.93662  1.0000
  H   H729      1.0  0.19677  0.93831  0.72864  1.0000
  C   C403      1.0  0.10288  0.52728  0.98113  1.0000
  H   H730      1.0  0.03882  0.90232  0.57147  1.0000
  H   H731      1.0  0.15256  0.50669  0.99374  1.0000
  H   H732      1.0  0.23112  0.94176  0.60981  1.0000
  C   C404      1.0  0.02375  0.55263  0.96844  1.0000
  C   C405      1.0  0.20168  0.94815  0.74384  1.0000
  C   C406      1.0  0.18987  0.98383  0.52580  1.0000
  H   H733      1.0  0.19890  0.96614  0.97594  1.0000
  H   H734      1.0  0.01546  0.88436  0.54387  1.0000
  C   C407      1.0  0.17033  0.98291  0.86400  1.0000
  H   H735      1.0  0.11891  0.98853  0.96535  1.0000
  S   S97       1.0  0.18004  0.91176  0.52152  1.0000
  H   H736      1.0  0.16992  0.85000  0.58309  1.0000
  H   H737      1.0  0.11017  0.96402  0.89788  1.0000
  C   C408      1.0  0.17114  0.99486  0.51363  1.0000
  H   H738      1.0  0.10842  0.52802  0.96276  1.0000
  C   C409      1.0  0.19856  0.79460  0.85576  1.0000
  H   H739      1.0  0.21298  0.87249  0.62162  1.0000
  N   N22       1.0  0.11515  0.80906  0.82950  1.0000
  C   C410      1.0  0.13573  0.83510  0.85608  1.0000
  H   H740      1.0  0.15491  0.75409  0.82015  1.0000
  H   H741      1.0  0.15570  0.75573  0.78861  1.0000
  C   C411      1.0  0.13568  0.78053  0.80438  1.0000
  N   N23       1.0  0.14706  0.99545  0.94740  1.0000
  C   C412      1.0  0.10128  0.82007  0.78785  1.0000
  C   C413      1.0  0.17669  0.85639  0.54693  1.0000
  H   H742      1.0  0.18939  0.86093  0.53513  1.0000
  H   H743      1.0  0.12843  0.83226  0.80431  1.0000
  C   C414      1.0  0.13420  0.79501  0.82651  1.0000
  C   C415      1.0  0.09728  0.79371  0.83125  1.0000
  C   C416      1.0  0.15489  0.76583  0.80473  1.0000
  H   H744      1.0  0.11600  0.80841  0.86749  1.0000
  C   C417      1.0  0.18268  0.99708  0.96564  1.0000
  C   C418      1.0  0.10456  0.83689  0.76763  1.0000
  C   C419      1.0  0.13408  0.84866  0.87847  1.0000
  H   H745      1.0  0.21258  0.94937  0.58767  1.0000
  H   H746      1.0  0.15624  0.96705  0.98990  1.0000
  H   H747      1.0  0.16927  0.96804  0.94993  1.0000
  C   C420      1.0  0.03463  0.54478  0.99076  1.0000
  H   H748      1.0  0.19151  0.96376  0.78903  1.0000
  H   H749      1.0  0.19724  0.97795  0.88466  1.0000
  C   C421      1.0  0.15485  0.98515  0.78479  1.0000
  H   H750      1.0  0.14969  0.97676  0.76876  1.0000
  H   H751      1.0  0.14334  0.99359  0.84591  1.0000
  H   H752      1.0  0.12023  0.97963  0.81396  1.0000
  H   H753      1.0  0.22172  0.85203  0.55950  1.0000
  C   C422      1.0  0.18416  0.96314  0.75210  1.0000
  H   H754      1.0  0.22025  0.78522  0.88209  1.0000
  C   C423      1.0  0.20633  0.91323  0.51419  1.0000
  H   H755      1.0  0.08747  0.89506  0.52212  1.0000
  C   C424      1.0  0.22217  0.86697  0.60636  1.0000
  H   H756      1.0  0.03334  0.54936  0.95284  1.0000
  C   C425      1.0  0.18982  0.97627  0.77426  1.0000
  H   H757      1.0  0.10360  0.54446  0.98839  1.0000
  H   H758      1.0  0.15764  0.98977  0.52406  1.0000
  C   C426      1.0  0.16857  0.98658  0.94744  1.0000
  C   C427      1.0  0.23409  0.57737  0.99709  1.0000
  C   C428      1.0  0.19493  0.99567  0.54844  1.0000
  H   H759      1.0  0.00925  0.54388  0.96667  1.0000
  H   H760      1.0  0.20732  0.98632  0.55765  1.0000
  H   H761      1.0  0.11091  0.95710  0.99269  1.0000
  H   H762      1.0  0.23841  0.75235  0.89064  1.0000
  H   H763      1.0  0.21223  0.99169  0.98116  1.0000
  C   C429      1.0  0.12605  0.95949  0.00043  1.0000
  H   H764      1.0  0.18157  0.99642  0.56025  1.0000
  C   C430      1.0  0.03730  0.51878  0.99188  1.0000
  H   H765      1.0  0.14449  0.99458  0.90975  1.0000
  H   H766      1.0  0.12092  0.99425  0.92476  1.0000
  C   C431      1.0  0.24652  0.82434  0.80838  1.0000
  H   H767      1.0  0.08143  0.50169  0.97479  1.0000
  H   H768      1.0  0.18109  0.99076  0.81802  1.0000
  H   H769      1.0  0.20342  0.98423  0.51434  1.0000
  C   C432      1.0  0.21369  0.58464  0.99749  1.0000
  C   C433      1.0  0.24555  0.74423  0.87533  1.0000
  H   H770      1.0  0.24551  0.70200  0.89819  1.0000
  N   N24       1.0  0.17545  0.99515  0.78105  1.0000
  H   H771      1.0  0.21503  0.99624  0.80624  1.0000
  C   C434      1.0  0.24682  0.85806  0.83102  1.0000
  H   H772      1.0  0.20900  0.59879  0.98643  1.0000
  C   C435      1.0  0.24822  0.87232  0.56128  1.0000
  H   H773      1.0  0.24778  0.76878  0.80578  1.0000
  H   H774      1.0  0.41329  0.12846  0.10918  1.0000
  Fe  Fe49      1.0  0.39807  0.06926  0.04661  1.0000
  S   S98       1.0  0.40692  0.04764  0.07751  1.0000
  S   S99       1.0  0.41992  0.09074  0.02482  1.0000
  Fe  Fe50      1.0  0.35245  0.05885  0.05262  1.0000
  S   S100      1.0  0.35878  0.03597  0.08431  1.0000
  C   C436      1.0  0.45085  0.12152  0.12591  1.0000
  Fe  Fe51      1.0  0.38007  0.06227  0.09665  1.0000
  S   S101      1.0  0.38427  0.07878  0.13252  1.0000
  Fe  Fe52      1.0  0.38536  0.02270  0.06303  1.0000
  S   S102      1.0  0.37253  0.08581  0.06628  1.0000
  S   S103      1.0  0.37773  0.04372  0.03070  1.0000
  Fe  Fe53      1.0  0.36881  0.04836  0.32899  1.0000
  S   S104      1.0  0.36408  0.08429  0.34003  1.0000
  S   S105      1.0  0.37160  0.02292  0.36025  1.0000
  Fe  Fe54      1.0  0.37045  0.06401  0.27647  1.0000
  S   S106      1.0  0.36577  0.10063  0.28496  1.0000
  S   S107      1.0  0.36922  0.04859  0.23988  1.0000
  Fe  Fe55      1.0  0.38869  0.09337  0.31398  1.0000
  S   S108      1.0  0.41282  0.11820  0.32647  1.0000
  Fe  Fe56      1.0  0.34183  0.08871  0.31050  1.0000
  S   S109      1.0  0.30796  0.09771  0.31500  1.0000
  S   S110      1.0  0.39438  0.05727  0.30418  1.0000
  S   S111      1.0  0.34555  0.05231  0.30074  1.0000
  C   C437      1.0  0.29083  0.12138  0.31277  1.0000
  C   C438      1.0  0.29727  0.14350  0.30923  1.0000
  C   C439      1.0  0.28305  0.16161  0.30853  1.0000
  C   C440      1.0  0.26221  0.15801  0.31155  1.0000
  C   C441      1.0  0.43080  0.03870  0.36176  1.0000
  C   C442      1.0  0.26995  0.11775  0.31518  1.0000
  H   H775      1.0  0.31320  0.14669  0.30724  1.0000
  H   H776      1.0  0.46609  0.06548  0.13065  1.0000
  C   C443      1.0  0.39683  0.40500  0.47670  1.0000
  H   H777      1.0  0.26465  0.10077  0.31758  1.0000
  H   H778      1.0  0.44011  0.02357  0.36662  1.0000
  H   H779      1.0  0.46986  0.03619  0.00958  1.0000
  S   S112      1.0  0.49169  0.37254  0.49121  1.0000
  H   H780      1.0  0.42791  0.02553  0.31582  1.0000
  H   H781      1.0  0.27430  0.03452  0.39159  1.0000
  H   H782      1.0  0.28825  0.17858  0.30572  1.0000
  H   H783      1.0  0.29481  0.00935  0.43716  1.0000
  C   C444      1.0  0.48208  0.12763  0.33616  1.0000
  C   C445      1.0  0.46782  0.14222  0.34628  1.0000
  C   C446      1.0  0.44688  0.13902  0.34307  1.0000
  C   C447      1.0  0.43967  0.12120  0.32974  1.0000
  C   C448      1.0  0.45394  0.10665  0.31952  1.0000
  C   C449      1.0  0.47489  0.10979  0.32281  1.0000
  H   H784      1.0  0.47292  0.15605  0.35655  1.0000
  H   H785      1.0  0.43615  0.15054  0.35100  1.0000
  H   H786      1.0  0.44886  0.09307  0.30889  1.0000
  H   H787      1.0  0.38987  0.42216  0.47604  1.0000
  C   C450      1.0  0.38071  0.06952  0.16225  1.0000
  C   C451      1.0  0.38647  0.08369  0.18041  1.0000
  C   C452      1.0  0.38343  0.07747  0.20421  1.0000
  C   C453      1.0  0.37435  0.05705  0.21022  1.0000
  C   C454      1.0  0.36875  0.04284  0.19205  1.0000
  C   C455      1.0  0.37195  0.04895  0.16827  1.0000
  H   H788      1.0  0.39330  0.09961  0.17605  1.0000
  H   H789      1.0  0.38811  0.08845  0.21789  1.0000
  H   H790      1.0  0.36181  0.02695  0.19639  1.0000
  H   H791      1.0  0.36742  0.03782  0.15460  1.0000
  C   C456      1.0  0.28248  0.10688  0.20671  1.0000
  H   H792      1.0  0.44952  0.04017  0.30442  1.0000
  C   C457      1.0  0.43039  0.32291  0.48917  1.0000
  H   H793      1.0  0.48856  0.46402  0.50280  1.0000
  H   H794      1.0  0.45045  0.06351  0.05000  1.0000
  H   H795      1.0  0.44274  0.01882  0.41160  1.0000
  H   H796      1.0  0.30277  0.06704  0.21921  1.0000
  H   H797      1.0  0.44343  0.02877  0.03640  1.0000
  C   C458      1.0  0.47907  0.08536  0.38997  1.0000
  H   H798      1.0  0.27513  0.11335  0.36463  1.0000
  H   H799      1.0  0.31474  0.08992  0.14314  1.0000
  H   H800      1.0  0.25135  0.11882  0.20444  1.0000
  C   C459      1.0  0.45809  0.07501  0.03822  1.0000
  C   C460      1.0  0.44676  0.09029  0.02445  1.0000
  H   H801      1.0  0.42427  0.47177  0.47265  1.0000
  C   C461      1.0  0.41519  0.12010  0.09213  1.0000
  H   H802      1.0  0.26427  0.10510  0.39257  1.0000
  H   H803      1.0  0.41350  0.40654  0.47638  1.0000
  H   H804      1.0  0.32176  0.08279  0.26488  1.0000
  C   C462      1.0  0.26591  0.12446  0.21158  1.0000
  H   H805      1.0  0.26960  0.14091  0.20315  1.0000
  H   H806      1.0  0.47598  0.14774  0.28574  1.0000
  C   C463      1.0  0.25577  0.13587  0.31478  1.0000
  C   C464      1.0  0.28461  0.22902  0.35998  1.0000
  C   C465      1.0  0.30315  0.21682  0.34996  1.0000
  N   N25       1.0  0.45283  0.00554  0.00958  1.0000
  H   H807      1.0  0.44900  0.07925  0.15098  1.0000
  H   H808      1.0  0.31251  0.00698  0.35615  1.0000
  H   H809      1.0  0.48865  0.07181  0.38233  1.0000
  C   C466      1.0  0.41489  0.46968  0.48869  1.0000
  H   H810      1.0  0.28769  0.05011  0.25460  1.0000
  N   N26       1.0  0.45019  0.10482  0.10634  1.0000
  H   H811      1.0  0.26064  0.06622  0.37941  1.0000
  C   C467      1.0  0.39908  0.36841  0.50052  1.0000
  C   C468      1.0  0.44298  0.03197  0.32032  1.0000
  H   H812      1.0  0.43732  0.11965  0.13743  1.0000
  H   H813      1.0  0.41269  0.45147  0.49238  1.0000
  C   C469      1.0  0.48960  0.09029  0.02239  1.0000
  H   H814      1.0  0.47960  0.13435  0.09188  1.0000
  H   H815      1.0  0.42333  0.30717  0.48346  1.0000
  H   H816      1.0  0.39331  0.32371  0.50276  1.0000
  H   H817      1.0  0.37199  0.15144  0.22192  1.0000
  H   H818      1.0  0.29008  0.24176  0.37216  1.0000
  H   H819      1.0  0.27582  0.21619  0.36981  1.0000
  H   H820      1.0  0.29849  0.20323  0.33821  1.0000
  H   H821      1.0  0.31283  0.22876  0.34003  1.0000
  H   H822      1.0  0.31216  0.20904  0.36446  1.0000
  C   C470      1.0  0.44732  0.01070  0.03460  1.0000
  C   C471      1.0  0.44002  0.08347  0.11432  1.0000
  H   H823      1.0  0.46969  0.08457  0.08443  1.0000
  H   H824      1.0  0.28154  0.24976  0.32832  1.0000
  H   H825      1.0  0.47368  0.10349  0.14817  1.0000
  C   C472      1.0  0.27154  0.23976  0.34017  1.0000
  H   H826      1.0  0.25270  0.09399  0.01310  1.0000
  H   H827      1.0  0.31442  0.00846  0.40014  1.0000
  C   C473      1.0  0.30127  0.05549  0.26412  1.0000
  N   N27       1.0  0.32029  0.09751  0.21544  1.0000
  H   H828      1.0  0.47533  0.11985  0.06514  1.0000
  C   C474      1.0  0.32693  0.09295  0.19054  1.0000
  C   C475      1.0  0.33787  0.10738  0.22819  1.0000
  H   H829      1.0  0.48478  0.10181  0.38342  1.0000
  C   C476      1.0  0.31508  0.07579  0.22808  1.0000
  H   H830      1.0  0.27772  0.09089  0.21519  1.0000
  C   C477      1.0  0.34806  0.12786  0.21595  1.0000
  C   C478      1.0  0.31656  0.07357  0.17771  1.0000
  C   C479      1.0  0.32128  0.07438  0.15147  1.0000
  C   C480      1.0  0.47080  0.09879  0.09667  1.0000
  H   H831      1.0  0.46841  0.17669  0.28057  1.0000
  C   C481      1.0  0.29983  0.07036  0.02266  1.0000
  H   H832      1.0  0.40671  0.12745  0.05586  1.0000
  H   H833      1.0  0.42380  0.00489  0.39489  1.0000
  H   H834      1.0  0.32553  0.10857  0.17946  1.0000
  H   H835      1.0  0.34325  0.08816  0.19005  1.0000
  H   H836      1.0  0.34986  0.09425  0.23129  1.0000
  H   H837      1.0  0.30690  0.12974  0.20515  1.0000
  H   H838      1.0  0.26593  0.31543  0.38141  1.0000
  H   H839      1.0  0.42450  0.08720  0.12069  1.0000
  C   C482      1.0  0.30874  0.07788  0.25413  1.0000
  C   C483      1.0  0.46684  0.13554  0.16306  1.0000
  H   H840      1.0  0.48564  0.09837  0.31478  1.0000
  H   H841      1.0  0.29214  0.00008  0.38466  1.0000
  H   H842      1.0  0.33703  0.14180  0.21256  1.0000
  H   H843      1.0  0.35507  0.12308  0.19903  1.0000
  H   H844      1.0  0.32228  0.05709  0.18486  1.0000
  H   H845      1.0  0.29998  0.07400  0.17982  1.0000
  H   H846      1.0  0.35839  0.14313  0.24802  1.0000
  H   H847      1.0  0.31470  0.05960  0.14297  1.0000
  H   H848      1.0  0.28325  0.10493  0.18747  1.0000
  C   C484      1.0  0.36473  0.13708  0.23119  1.0000
  H   H849      1.0  0.41974  0.03977  0.01290  1.0000
  H   H850      1.0  0.44644  0.03805  0.15375  1.0000
  H   H851      1.0  0.28249  0.09676  0.03909  1.0000
  H   H852      1.0  0.25161  0.48773  0.39052  1.0000
  C   C485      1.0  0.26094  0.27383  0.36110  1.0000
  C   C486      1.0  0.41666  0.00826  0.43121  1.0000
  H   H853      1.0  0.44974  0.13912  0.11878  1.0000
  C   C487      1.0  0.45521  0.00971  0.07796  1.0000
  N   N28       1.0  0.30130  0.04884  0.37643  1.0000
  C   C488      1.0  0.32382  0.04933  0.38021  1.0000
  C   C489      1.0  0.29680  0.04015  0.35235  1.0000
  C   C490      1.0  0.29341  0.07287  0.37743  1.0000
  C   C491      1.0  0.29070  0.03525  0.39531  1.0000
  H   H854      1.0  0.31329  0.04225  0.26289  1.0000
  C   C492      1.0  0.33079  0.05950  0.40353  1.0000
  H   H855      1.0  0.41588  0.03236  0.35611  1.0000
  H   H856      1.0  0.44430  0.13114  0.08016  1.0000
  H   H857      1.0  0.30057  0.02411  0.30701  1.0000
  C   C493      1.0  0.40543  0.13532  0.07327  1.0000
  C   C494      1.0  0.35365  0.05725  0.40636  1.0000
  H   H858      1.0  0.29715  0.05754  0.28283  1.0000
  H   H859      1.0  0.33104  0.05905  0.36560  1.0000
  H   H860      1.0  0.33078  0.03229  0.37932  1.0000
  H   H861      1.0  0.28085  0.03470  0.35147  1.0000
  H   H862      1.0  0.29829  0.05393  0.33888  1.0000
  H   H863      1.0  0.30296  0.08413  0.36626  1.0000
  H   H864      1.0  0.29442  0.07923  0.39554  1.0000
  H   H865      1.0  0.29155  0.04381  0.41238  1.0000
  H   H866      1.0  0.26653  0.22518  0.32992  1.0000
  H   H867      1.0  0.29637  0.09050  0.25635  1.0000
  C   C495      1.0  0.28273  0.08466  0.02523  1.0000
  H   H868      1.0  0.32691  0.07773  0.40399  1.0000
  H   H869      1.0  0.32378  0.05084  0.41882  1.0000
  H   H870      1.0  0.43986  0.03697  0.12322  1.0000
  H   H871      1.0  0.48324  0.16911  0.30597  1.0000
  H   H872      1.0  0.32581  0.02731  0.33903  1.0000
  H   H873      1.0  0.42311  0.05082  0.14369  1.0000
  C   C496      1.0  0.44133  0.04902  0.33994  1.0000
  H   H874      1.0  0.33312  0.11299  0.24589  1.0000
  H   H875      1.0  0.43812  0.10373  0.07118  1.0000
  H   H876      1.0  0.40667  0.10422  0.09278  1.0000
  H   H877      1.0  0.37647  0.12391  0.23491  1.0000
  H   H878      1.0  0.38915  0.13788  0.07738  1.0000
  H   H879      1.0  0.35831  0.03924  0.40788  1.0000
  H   H880      1.0  0.36150  0.06512  0.39113  1.0000
  H   H881      1.0  0.35834  0.06574  0.42250  1.0000
  C   C497      1.0  0.42628  0.01746  0.40866  1.0000
  C   C498      1.0  0.48166  0.11800  0.08310  1.0000
  H   H882      1.0  0.43841  0.07216  0.09920  1.0000
  H   H883      1.0  0.48102  0.09221  0.11062  1.0000
  C   C499      1.0  0.29779  0.01041  0.39907  1.0000
  H   H884      1.0  0.32822  0.06378  0.22742  1.0000
  C   C500      1.0  0.43919  0.04756  0.13899  1.0000
  N   N29       1.0  0.42796  0.05377  0.38251  1.0000
  C   C501      1.0  0.41472  0.07370  0.37542  1.0000
  H   H885      1.0  0.44727  0.06233  0.41157  1.0000
  C   C502      1.0  0.41666  0.04052  0.40113  1.0000
  C   C503      1.0  0.27123  0.07712  0.36956  1.0000
  C   C504      1.0  0.45709  0.08299  0.38265  1.0000
  C   C505      1.0  0.40732  0.08860  0.39589  1.0000
  H   H886      1.0  0.44705  0.32068  0.48788  1.0000
  H   H887      1.0  0.31327  0.37823  0.49524  1.0000
  C   C506      1.0  0.43775  0.11500  0.08649  1.0000
  H   H888      1.0  0.46356  0.15326  0.15748  1.0000
  C   C507      1.0  0.40061  0.11209  0.38735  1.0000
  H   H889      1.0  0.25214  0.29824  0.40248  1.0000
  H   H890      1.0  0.40102  0.06790  0.36627  1.0000
  H   H891      1.0  0.42234  0.08460  0.36227  1.0000
  H   H892      1.0  0.27348  0.28217  0.35139  1.0000
  C   C508      1.0  0.26962  0.40956  0.49923  1.0000
  H   H893      1.0  0.40099  0.03723  0.39522  1.0000
  H   H894      1.0  0.41496  0.05048  0.41731  1.0000
  C   C509      1.0  0.44813  0.06054  0.39221  1.0000
  H   H895      1.0  0.26956  0.07393  0.35061  1.0000
  H   H896      1.0  0.44852  0.09766  0.38951  1.0000
  H   H897      1.0  0.45658  0.08444  0.36339  1.0000
  H   H898      1.0  0.39421  0.08065  0.40473  1.0000
  H   H899      1.0  0.41922  0.09046  0.40924  1.0000
  C   C510      1.0  0.46985  0.12073  0.14174  1.0000
  H   H900      1.0  0.39988  0.47781  0.48551  1.0000
  H   H901      1.0  0.43282  0.06395  0.33305  1.0000
  C   C511      1.0  0.30309  0.11457  0.21588  1.0000
  H   H902      1.0  0.45962  0.04689  0.38950  1.0000
  H   H903      1.0  0.26766  0.26839  0.37805  1.0000
  N   N30       1.0  0.25361  0.25406  0.34758  1.0000
  C   C512      1.0  0.31059  0.02083  0.34321  1.0000
  H   H904      1.0  0.41361  0.12127  0.37971  1.0000
  H   H905      1.0  0.38866  0.11105  0.37391  1.0000
  H   H906      1.0  0.39452  0.12183  0.40226  1.0000
  H   H907      1.0  0.48043  0.08470  0.40935  1.0000
  H   H908      1.0  0.45295  0.01753  0.32567  1.0000
  H   H909      1.0  0.45033  0.02758  0.07970  1.0000
  H   H910      1.0  0.28732  0.00322  0.32446  1.0000
  H   H911      1.0  0.41269  0.15199  0.07250  1.0000
  H   H912      1.0  0.45207  0.39255  0.48776  1.0000
  C   C513      1.0  0.47935  0.07483  0.03696  1.0000
  C   C514      1.0  0.28307  0.39247  0.49227  1.0000
  S   S113      1.0  0.32062  0.07288  0.04246  1.0000
  H   H913      1.0  0.39434  0.35977  0.48438  1.0000
  C   C515      1.0  0.48078  0.16545  0.28722  1.0000
  H   H914      1.0  0.30079  0.12094  0.23391  1.0000
  H   H915      1.0  0.47643  0.01714  0.05080  1.0000
  H   H916      1.0  0.45697  0.05369  0.34414  1.0000
  H   H917      1.0  0.45420  0.12930  0.17414  1.0000
  H   H918      1.0  0.48794  0.06277  0.04752  1.0000
  C   C516      1.0  0.26464  0.10155  0.37357  1.0000
  H   H919      1.0  0.39197  0.39595  0.46096  1.0000
  C   C517      1.0  0.45009  0.06972  0.13453  1.0000
  H   H920      1.0  0.27803  0.37995  0.48028  1.0000
  C   C518      1.0  0.30311  0.39153  0.50084  1.0000
  H   H921      1.0  0.42579  0.33699  0.47716  1.0000
  H   H922      1.0  0.33783  0.07391  0.14831  1.0000
  H   H923      1.0  0.25358  0.27589  0.31660  1.0000
  C   C519      1.0  0.25115  0.30779  0.38556  1.0000
  H   H924      1.0  0.25673  0.23585  0.39373  1.0000
  H   H925      1.0  0.43345  0.00155  0.03982  1.0000
  H   H926      1.0  0.41576  0.37005  0.49918  1.0000
  H   H927      1.0  0.37321  0.39263  0.49880  1.0000
  C   C520      1.0  0.38995  0.39264  0.49900  1.0000
  H   H928      1.0  0.24875  0.47399  0.36273  1.0000
  H   H929      1.0  0.25128  0.23848  0.29881  1.0000
  H   H930      1.0  0.45370  0.46711  0.49921  1.0000
  H   H931      1.0  0.49680  0.16644  0.25443  1.0000
  C   C521      1.0  0.26579  0.08323  0.01036  1.0000
  H   H932      1.0  0.26400  0.12669  0.23075  1.0000
  H   H933      1.0  0.48312  0.12708  0.13189  1.0000
  H   H934      1.0  0.48079  0.13509  0.17377  1.0000
  C   C522      1.0  0.47830  0.10594  0.00903  1.0000
  C   C523      1.0  0.30220  0.01090  0.32093  1.0000
  C   C524      1.0  0.45700  0.10581  0.00996  1.0000
  H   H935      1.0  0.41956  0.01953  0.44602  1.0000
  H   H936      1.0  0.49429  0.00210  0.02253  1.0000
  H   H937      1.0  0.46705  0.00580  0.09118  1.0000
  C   C525      1.0  0.46360  0.00564  0.05339  1.0000
  H   H938      1.0  0.40012  0.00660  0.42902  1.0000
  H   H939      1.0  0.44214  0.99872  0.08169  1.0000
  C   C526      1.0  0.28916  0.00033  0.42177  1.0000
  H   H940      1.0  0.37037  0.99978  0.40522  1.0000
  H   H941      1.0  0.27240  0.00119  0.42162  1.0000
  H   H942      1.0  0.49823  0.33834  0.41769  1.0000
  H   H943      1.0  0.24927  0.10468  0.36635  1.0000
  Fe  Fe57      1.0  0.35546  0.42757  0.54989  1.0000
  S   S114      1.0  0.34711  0.45824  0.57050  1.0000
  S   S115      1.0  0.33573  0.40551  0.52662  1.0000
  Fe  Fe58      1.0  0.40027  0.42935  0.56588  1.0000
  S   S116      1.0  0.39451  0.46001  0.58771  1.0000
  S   S117      1.0  0.43258  0.41508  0.56766  1.0000
  Fe  Fe59      1.0  0.36618  0.44275  0.59992  1.0000
  S   S118      1.0  0.35301  0.43829  0.63722  1.0000
  Fe  Fe60      1.0  0.37634  0.47290  0.55688  1.0000
  S   S119      1.0  0.37301  0.41124  0.57985  1.0000
  S   S120      1.0  0.38358  0.44313  0.53455  1.0000
  Fe  Fe61      1.0  0.39264  0.39248  0.81852  1.0000
  S   S121      1.0  0.39785  0.42851  0.80777  1.0000
  S   S122      1.0  0.41829  0.36561  0.82518  1.0000
  Fe  Fe62      1.0  0.34572  0.39902  0.81241  1.0000
  S   S123      1.0  0.34925  0.43540  0.80055  1.0000
  S   S124      1.0  0.31204  0.39062  0.81834  1.0000
  Fe  Fe63      1.0  0.37554  0.42295  0.77872  1.0000
  S   S125      1.0  0.38676  0.43554  0.74253  1.0000
  Fe  Fe64      1.0  0.37093  0.43808  0.83039  1.0000
  S   S126      1.0  0.37183  0.46611  0.85793  1.0000
  S   S127      1.0  0.37090  0.38653  0.78864  1.0000
  S   S128      1.0  0.36692  0.40209  0.84300  1.0000
  H   H944      1.0  0.29994  0.42517  0.84986  1.0000
  H   H945      1.0  0.27655  0.17207  0.90867  1.0000
  C   C527      1.0  0.29668  0.42475  0.52340  1.0000
  C   C528      1.0  0.41091  0.04159  0.97711  1.0000
  H   H946      1.0  0.43982  0.46143  0.56088  1.0000
  H   H947      1.0  0.29193  0.16066  0.94155  1.0000
  H   H948      1.0  0.33399  0.48076  0.72378  1.0000
  H   H949      1.0  0.48932  0.24989  0.84173  1.0000
  C   C529      1.0  0.29438  0.36816  0.81681  1.0000
  C   C530      1.0  0.30000  0.34634  0.81025  1.0000
  C   C531      1.0  0.28545  0.32924  0.80954  1.0000
  H   H950      1.0  0.27821  0.07011  0.89969  1.0000
  C   C532      1.0  0.25938  0.35539  0.82177  1.0000
  C   C533      1.0  0.27393  0.37251  0.82248  1.0000
  H   H951      1.0  0.31557  0.34259  0.80584  1.0000
  N   N31       1.0  0.48755  0.29890  0.89479  1.0000
  H   H952      1.0  0.26928  0.38926  0.82752  1.0000
  H   H953      1.0  0.28191  0.48982  0.92892  1.0000
  C   C534      1.0  0.40285  0.36489  0.54315  1.0000
  C   C535      1.0  0.47588  0.38530  0.51251  1.0000
  H   H954      1.0  0.26018  0.25358  0.76316  1.0000
  C   C536      1.0  0.48140  0.28336  0.91482  1.0000
  H   H955      1.0  0.38079  0.48250  0.73157  1.0000
  H   H956      1.0  0.33412  0.40548  0.90379  1.0000
  C   C537      1.0  0.36362  0.48931  0.77186  1.0000
  C   C538      1.0  0.47637  0.33988  0.83035  1.0000
  C   C539      1.0  0.45539  0.34279  0.82607  1.0000
  C   C540      1.0  0.44518  0.36343  0.83013  1.0000
  C   C541      1.0  0.45652  0.38118  0.83853  1.0000
  C   C542      1.0  0.47743  0.37813  0.84323  1.0000
  H   H957      1.0  0.43937  0.04844  0.99296  1.0000
  H   H958      1.0  0.44699  0.32885  0.81959  1.0000
  H   H959      1.0  0.44910  0.39717  0.84191  1.0000
  C   C543      1.0  0.29867  0.48887  0.92880  1.0000
  C   C544      1.0  0.26145  0.16439  0.90830  1.0000
  H   H960      1.0  0.46349  0.36343  0.75521  1.0000
  C   C545      1.0  0.44342  0.40328  0.52235  1.0000
  C   C546      1.0  0.44906  0.40431  0.54583  1.0000
  C   C547      1.0  0.46835  0.39629  0.55244  1.0000
  C   C548      1.0  0.48175  0.38693  0.53587  1.0000
  H   H961      1.0  0.36686  0.42176  0.88938  1.0000
  H   H962      1.0  0.47291  0.39708  0.57055  1.0000
  H   H963      1.0  0.42173  0.41290  0.67061  1.0000
  C   C549      1.0  0.36315  0.43691  0.66617  1.0000
  C   C550      1.0  0.38203  0.44549  0.67161  1.0000
  C   C551      1.0  0.38888  0.44498  0.69502  1.0000
  C   C552      1.0  0.37725  0.43543  0.71328  1.0000
  C   C553      1.0  0.35844  0.42671  0.70784  1.0000
  C   C554      1.0  0.35139  0.42768  0.68452  1.0000
  H   H964      1.0  0.39118  0.45288  0.65783  1.0000
  H   H965      1.0  0.40335  0.45203  0.69896  1.0000
  H   H966      1.0  0.34923  0.41935  0.72158  1.0000
  H   H967      1.0  0.33672  0.42111  0.68059  1.0000
  H   H968      1.0  0.46163  0.42820  0.80392  1.0000
  C   C555      1.0  0.41369  0.36182  0.58574  1.0000
  H   H969      1.0  0.41134  0.34200  0.74028  1.0000
  C   C556      1.0  0.31014  0.40768  0.51641  1.0000
  H   H970      1.0  0.41905  0.36827  0.54007  1.0000
  H   H971      1.0  0.39793  0.03020  0.97947  1.0000
  C   C557      1.0  0.26504  0.33353  0.81537  1.0000
  C   C558      1.0  0.31177  0.45067  0.75026  1.0000
  H   H972      1.0  0.42886  0.40988  0.51699  1.0000
  H   H973      1.0  0.28783  0.36376  0.89381  1.0000
  H   H974      1.0  0.41729  0.32789  0.79182  1.0000
  C   C559      1.0  0.45458  0.42839  0.78631  1.0000
  H   H975      1.0  0.40137  0.39853  0.68520  1.0000
  H   H976      1.0  0.27308  0.10400  0.96243  1.0000
  C   C560      1.0  0.40837  0.32977  0.77548  1.0000
  C   C561      1.0  0.25384  0.13612  0.98209  1.0000
  H   H977      1.0  0.42041  0.36781  0.71557  1.0000
  H   H978      1.0  0.37014  0.47191  0.77110  1.0000
  H   H979      1.0  0.33314  0.13227  0.94690  1.0000
  N   N32       1.0  0.27022  0.13400  0.94025  1.0000
  C   C562      1.0  0.44503  0.47879  0.55687  1.0000
  H   H980      1.0  0.49423  0.35577  0.90384  1.0000
  N   N33       1.0  0.35398  0.49592  0.74874  1.0000
  H   H981      1.0  0.28975  0.08078  0.93898  1.0000
  C   C563      1.0  0.41803  0.39877  0.68286  1.0000
  H   H982      1.0  0.24973  0.31500  0.76359  1.0000
  H   H983      1.0  0.26648  0.43898  0.52043  1.0000
  H   H984      1.0  0.47032  0.47884  0.58216  1.0000
  H   H985      1.0  0.44589  0.41553  0.74407  1.0000
  H   H986      1.0  0.48322  0.23957  0.93488  1.0000
  H   H987      1.0  0.33394  0.13553  0.97813  1.0000
  H   H988      1.0  0.40451  0.31272  0.76960  1.0000
  C   C564      1.0  0.28144  0.09355  0.92798  1.0000
  H   H989      1.0  0.43460  0.33190  0.75385  1.0000
  H   H990      1.0  0.45052  0.30608  0.86557  1.0000
  H   H991      1.0  0.46988  0.32678  0.90847  1.0000
  C   C565      1.0  0.26841  0.08073  0.91097  1.0000
  H   H992      1.0  0.33090  0.32443  0.54882  1.0000
  C   C566      1.0  0.34040  0.47724  0.74144  1.0000
  H   H993      1.0  0.47108  0.27032  0.90836  1.0000
  H   H994      1.0  0.33651  0.35353  0.55358  1.0000
  H   H995      1.0  0.33004  0.34449  0.52463  1.0000
  H   H996      1.0  0.39411  0.33918  0.77930  1.0000
  N   N34       1.0  0.30441  0.44043  0.88347  1.0000
  C   C567      1.0  0.29312  0.42229  0.89667  1.0000
  C   C568      1.0  0.29962  0.46298  0.89413  1.0000
  C   C569      1.0  0.29638  0.44123  0.85873  1.0000
  C   C570      1.0  0.32694  0.43598  0.88276  1.0000
  C   C571      1.0  0.33657  0.42387  0.90454  1.0000
  C   C572      1.0  0.25651  0.14650  0.95711  1.0000
  C   C573      1.0  0.30466  0.45993  0.84217  1.0000
  C   C574      1.0  0.30623  0.46617  0.91975  1.0000
  H   H997      1.0  0.49093  0.35734  0.71573  1.0000
  C   C575      1.0  0.43463  0.01162  0.99470  1.0000
  C   C576      1.0  0.29672  0.45749  0.81731  1.0000
  H   H998      1.0  0.27687  0.42726  0.89836  1.0000
  H   H999      1.0  0.29841  0.42033  0.91496  1.0000
  H   H1000     1.0  0.30729  0.47670  0.88424  1.0000
  H   H1001     1.0  0.28311  0.46681  0.89293  1.0000
  H   H1002     1.0  0.27959  0.44298  0.85890  1.0000
  C   C577      1.0  0.35756  0.48945  0.86960  1.0000
  H   H1003     1.0  0.33123  0.42554  0.86748  1.0000
  H   H1004     1.0  0.33484  0.45207  0.87962  1.0000
  H   H1005     1.0  0.32229  0.43604  0.75293  1.0000
  C   C578      1.0  0.26090  0.35657  0.69065  1.0000
  H   H1006     1.0  0.42021  0.32463  0.88034  1.0000
  H   H1007     1.0  0.32711  0.15934  0.95950  1.0000
  H   H1008     1.0  0.32139  0.45900  0.84147  1.0000
  H   H1009     1.0  0.29971  0.47689  0.84788  1.0000
  H   H1010     1.0  0.30027  0.45291  0.93168  1.0000
  H   H1011     1.0  0.32297  0.46622  0.92073  1.0000
  H   H1012     1.0  0.29819  0.44789  0.76135  1.0000
  C   C579      1.0  0.42449  0.32785  0.51451  1.0000
  C   C580      1.0  0.33811  0.33957  0.54103  1.0000
  C   C581      1.0  0.48869  0.28646  0.87203  1.0000
  H   H1013     1.0  0.41416  0.47945  0.52438  1.0000
  H   H1014     1.0  0.41737  0.03971  0.95927  1.0000
  H   H1015     1.0  0.27996  0.45751  0.81727  1.0000
  H   H1016     1.0  0.35842  0.48482  0.69803  1.0000
  H   H1017     1.0  0.29751  0.14276  0.97968  1.0000
  C   C582      1.0  0.42569  0.36606  0.76382  1.0000
  H   H1018     1.0  0.43883  0.39820  0.79424  1.0000
  C   C583      1.0  0.48761  0.35742  0.83939  1.0000
  C   C584      1.0  0.45560  0.48754  0.57902  1.0000
  C   C585      1.0  0.29389  0.39871  0.88539  1.0000
  C   C586      1.0  0.42204  0.38387  0.72475  1.0000
  H   H1019     1.0  0.44533  0.29567  0.89490  1.0000
  H   H1020     1.0  0.25802  0.33611  0.73159  1.0000
  H   H1021     1.0  0.28296  0.04103  0.97609  1.0000
  H   H1022     1.0  0.47636  0.43884  0.51275  1.0000
  C   C587      1.0  0.47654  0.46512  0.53917  1.0000
  H   H1023     1.0  0.38500  0.35242  0.57289  1.0000
  C   C588      1.0  0.30367  0.13428  0.96404  1.0000
  H   H1024     1.0  0.42320  0.38277  0.67491  1.0000
  H   H1025     1.0  0.36765  0.32918  0.55264  1.0000
  C   C589      1.0  0.47185  0.31755  0.89188  1.0000
  C   C590      1.0  0.42487  0.48061  0.50950  1.0000
  N   N35       1.0  0.45747  0.47906  0.53460  1.0000
  H   H1026     1.0  0.46690  0.38600  0.73508  1.0000
  C   C591      1.0  0.49058  0.25277  0.94510  1.0000
  C   C592      1.0  0.45049  0.31040  0.88439  1.0000
  C   C593      1.0  0.45815  0.35560  0.71880  1.0000
  N   N36       1.0  0.43571  0.38106  0.74570  1.0000
  C   C594      1.0  0.49194  0.00912  0.00465  1.0000
  H   H1027     1.0  0.45566  0.36485  0.70194  1.0000
  C   C595      1.0  0.42052  0.34196  0.75641  1.0000
  H   H1028     1.0  0.45052  0.49014  0.61643  1.0000
  H   H1029     1.0  0.47384  0.27932  0.86773  1.0000
  H   H1030     1.0  0.49248  0.29841  0.85741  1.0000
  H   H1031     1.0  0.40841  0.37925  0.58933  1.0000
  H   H1032     1.0  0.29870  0.37886  0.91751  1.0000
  C   C596      1.0  0.29166  0.14195  0.94197  1.0000
  H   H1033     1.0  0.44692  0.34214  0.71995  1.0000
  H   H1034     1.0  0.44093  0.43955  0.78673  1.0000
  H   H1035     1.0  0.35231  0.48845  0.78620  1.0000
  C   C597      1.0  0.44891  0.40447  0.78010  1.0000
  C   C598      1.0  0.45653  0.37199  0.73958  1.0000
  H   H1036     1.0  0.40594  0.33387  0.56519  1.0000
  C   C599      1.0  0.26270  0.13909  0.91573  1.0000
  H   H1037     1.0  0.43982  0.46558  0.60382  1.0000
  H   H1038     1.0  0.42259  0.41196  0.75908  1.0000
  H   H1039     1.0  0.40641  0.38854  0.73054  1.0000
  H   H1040     1.0  0.39474  0.40243  0.51409  1.0000
  H   H1041     1.0  0.47701  0.33031  0.87869  1.0000
  H   H1042     1.0  0.34938  0.46132  0.74005  1.0000
  H   H1043     1.0  0.25659  0.28427  0.73374  1.0000
  H   H1044     1.0  0.46556  0.43528  0.77340  1.0000
  C   C600      1.0  0.43776  0.40399  0.75631  1.0000
  C   C601      1.0  0.26565  0.06751  0.99246  1.0000
  H   H1045     1.0  0.30707  0.45158  0.73161  1.0000
  H   H1046     1.0  0.33011  0.42965  0.92127  1.0000
  H   H1047     1.0  0.39608  0.38182  0.54627  1.0000
  H   H1048     1.0  0.48381  0.32399  0.82676  1.0000
  H   H1049     1.0  0.47354  0.45143  0.55240  1.0000
  H   H1050     1.0  0.30253  0.44159  0.80964  1.0000
  H   H1051     1.0  0.36584  0.41786  0.92070  1.0000
  H   H1052     1.0  0.41156  0.37438  0.77025  1.0000
  H   H1053     1.0  0.41236  0.35165  0.60220  1.0000
  H   H1054     1.0  0.32599  0.47059  0.77579  1.0000
  H   H1055     1.0  0.25770  0.42898  0.56404  1.0000
  H   H1056     1.0  0.26769  0.27988  0.77527  1.0000
  H   H1057     1.0  0.39705  0.31936  0.53270  1.0000
  H   H1058     1.0  0.44499  0.40172  0.70338  1.0000
  H   H1059     1.0  0.42985  0.36208  0.58043  1.0000
  H   H1060     1.0  0.47230  0.29267  0.92806  1.0000
  H   H1061     1.0  0.43554  0.36364  0.77938  1.0000
  H   H1062     1.0  0.46290  0.39390  0.78002  1.0000
  H   H1063     1.0  0.30350  0.11579  0.96697  1.0000
  C   C602      1.0  0.40121  0.33087  0.51801  1.0000
  H   H1064     1.0  0.26835  0.13154  0.99050  1.0000
  H   H1065     1.0  0.37509  0.48971  0.90128  1.0000
  H   H1066     1.0  0.48833  0.47563  0.54706  1.0000
  H   H1067     1.0  0.36244  0.44563  0.90785  1.0000
  H   H1068     1.0  0.29009  0.31246  0.80455  1.0000
  H   H1069     1.0  0.42410  0.41896  0.71263  1.0000
  H   H1070     1.0  0.27242  0.13063  0.90252  1.0000
  H   H1071     1.0  0.29309  0.10266  0.91787  1.0000
  H   H1072     1.0  0.36549  0.37042  0.53351  1.0000
  C   C603      1.0  0.44262  0.48381  0.60089  1.0000
  H   H1073     1.0  0.31048  0.48631  0.75504  1.0000
  H   H1074     1.0  0.30059  0.13698  0.92632  1.0000
  C   C604      1.0  0.26865  0.10894  0.94436  1.0000
  H   H1075     1.0  0.43315  0.33372  0.90605  1.0000
  H   H1076     1.0  0.30915  0.39452  0.87844  1.0000
  C   C605      1.0  0.42844  0.40199  0.70633  1.0000
  C   C606      1.0  0.32185  0.47245  0.75716  1.0000
  H   H1077     1.0  0.42796  0.49307  0.59914  1.0000
  C   C607      1.0  0.35930  0.42751  0.90561  1.0000
  H   H1078     1.0  0.25337  0.40293  0.57973  1.0000
  C   C608      1.0  0.47042  0.01946  0.00117  1.0000
  H   H1079     1.0  0.27116  0.34308  0.68409  1.0000
  H   H1080     1.0  0.43326  0.34236  0.52021  1.0000
  H   H1081     1.0  0.48205  0.33403  0.73372  1.0000
  H   H1082     1.0  0.49647  0.38059  0.54125  1.0000
  C   C609      1.0  0.28279  0.05332  0.98978  1.0000
  C   C610      1.0  0.43504  0.32962  0.88728  1.0000
  C   C611      1.0  0.32580  0.14082  0.96190  1.0000
  H   H1083     1.0  0.43989  0.34492  0.87740  1.0000
  C   C612      1.0  0.40087  0.35163  0.56667  1.0000
  H   H1084     1.0  0.42174  0.00071  0.99960  1.0000
  H   H1085     1.0  0.25799  0.06950  0.92082  1.0000
  C   C613      1.0  0.27662  0.42562  0.51492  1.0000
  H   H1086     1.0  0.28317  0.39840  0.87050  1.0000
  C   C614      1.0  0.25468  0.27046  0.76858  1.0000
  H   H1087     1.0  0.25118  0.17396  0.92002  1.0000
  H   H1088     1.0  0.30178  0.47188  0.80623  1.0000
  H   H1089     1.0  0.40529  0.05923  0.97887  1.0000
  C   C615      1.0  0.28782  0.38015  0.90280  1.0000
  H   H1090     1.0  0.48578  0.39194  0.85014  1.0000
  H   H1091     1.0  0.30171  0.43732  0.53533  1.0000
  H   H1092     1.0  0.25729  0.36841  0.67587  1.0000
  H   H1093     1.0  0.25121  0.16773  0.00061  1.0000
  H   H1094     1.0  0.48595  0.11793  0.99774  1.0000
  H   H1095     1.0  0.25942  0.09248  0.89960  1.0000
  H   H1096     1.0  0.43107  0.48926  0.55478  1.0000
  C   C616      1.0  0.47910  0.34443  0.71764  1.0000
  H   H1097     1.0  0.38984  0.48278  0.80940  1.0000
  H   H1098     1.0  0.33757  0.49455  0.84037  1.0000
  H   H1099     1.0  0.26135  0.16422  0.95879  1.0000
  H   H1100     1.0  0.46919  0.02341  0.98206  1.0000
  H   H1101     1.0  0.25252  0.10411  0.94359  1.0000
  C   C617      1.0  0.37072  0.49774  0.73070  1.0000
  H   H1102     1.0  0.44151  0.45090  0.52123  1.0000
  C   C618      1.0  0.42692  0.03645  0.99572  1.0000
  H   H1103     1.0  0.48004  0.33329  0.70230  1.0000
  C   C619      1.0  0.48625  0.45267  0.51814  1.0000
  H   H1104     1.0  0.47956  0.25996  0.95776  1.0000
  H   H1105     1.0  0.27240  0.38355  0.90978  1.0000
  H   H1106     1.0  0.30408  0.49110  0.94695  1.0000
  C   C620      1.0  0.44509  0.46851  0.51581  1.0000
  C   C621      1.0  0.36267  0.49760  0.89176  1.0000
  C   C622      1.0  0.45667  0.39360  0.50584  1.0000
  H   H1107     1.0  0.42986  0.31330  0.52555  1.0000
  C   C623      1.0  0.37063  0.35507  0.52414  1.0000
  H   H1108     1.0  0.26394  0.15948  0.87062  1.0000
  H   H1109     1.0  0.25175  0.18559  0.87882  1.0000
  H   H1110     1.0  0.39423  0.49521  0.69041  1.0000
  H   H1111     1.0  0.49623  0.32237  0.93309  1.0000
  C   C624      1.0  0.36041  0.33445  0.53598  1.0000
  H   H1112     1.0  0.36121  0.31992  0.52408  1.0000
  C   C625      1.0  0.25341  0.16737  0.88336  1.0000
  N   N37       1.0  0.39344  0.35454  0.52199  1.0000
  H   H1113     1.0  0.25331  0.31458  0.71182  1.0000
  H   H1114     1.0  0.31263  0.04354  0.00239  1.0000
  H   H1115     1.0  0.26877  0.36601  0.70434  1.0000
  H   H1116     1.0  0.44840  0.11782  0.99933  1.0000
  H   H1117     1.0  0.43789  0.00839  0.97594  1.0000
  H   H1118     1.0  0.36348  0.35657  0.50652  1.0000
  C   C626      1.0  0.29972  0.05470  0.00469  1.0000
  S   S129      1.0  0.27512  0.91213  0.49774  1.0000
  H   H1119     1.0  0.25282  0.73356  0.26893  1.0000
  Fe  Fe65      1.0  0.43330  0.66227  0.08862  1.0000
  S   S130      1.0  0.42177  0.68976  0.11212  1.0000
  S   S131      1.0  0.41570  0.65787  0.05432  1.0000
  Fe  Fe66      1.0  0.47351  0.65631  0.11742  1.0000
  S   S132      1.0  0.46384  0.68357  0.14216  1.0000
  Fe  Fe67      1.0  0.43290  0.66811  0.14245  1.0000
  S   S133      1.0  0.41449  0.65749  0.17542  1.0000
  Fe  Fe68      1.0  0.45331  0.70315  0.10975  1.0000
  S   S134      1.0  0.45922  0.74097  0.10556  1.0000
  S   S135      1.0  0.44302  0.63961  0.11897  1.0000
  S   S136      1.0  0.46441  0.67685  0.08502  1.0000
  H   H1120     1.0  0.28172  0.72432  0.38692  1.0000
  C   C627      1.0  0.36165  0.99001  0.39337  1.0000
  S   S137      1.0  0.46991  0.65442  0.47076  1.0000
  H   H1121     1.0  0.40854  0.71741  0.26144  1.0000
  S   S138      1.0  0.45031  0.60426  0.47705  1.0000
  C   C628      1.0  0.40787  0.57794  0.44591  1.0000
  Fe  Fe69      1.0  0.48167  0.61857  0.47413  1.0000
  Fe  Fe70      1.0  0.43908  0.64035  0.47691  1.0000
  S   S139      1.0  0.41000  0.65635  0.46232  1.0000
  H   H1122     1.0  0.41900  0.58568  0.43371  1.0000
  Fe  Fe71      1.0  0.34211  0.69157  0.29079  1.0000
  S   S140      1.0  0.33637  0.65907  0.31073  1.0000
  S   S141      1.0  0.35318  0.69801  0.25262  1.0000
  Fe  Fe72      1.0  0.33084  0.72037  0.33426  1.0000
  S   S142      1.0  0.32502  0.68969  0.35696  1.0000
  S   S143      1.0  0.33065  0.75791  0.34360  1.0000
  Fe  Fe73      1.0  0.35294  0.67472  0.34053  1.0000
  S   S144      1.0  0.37874  0.65420  0.35709  1.0000
  Fe  Fe74      1.0  0.30845  0.67609  0.32569  1.0000
  S   S145      1.0  0.27892  0.65794  0.33591  1.0000
  S   S146      1.0  0.36006  0.70617  0.31992  1.0000
  S   S147      1.0  0.31293  0.70782  0.30381  1.0000
  Fe  Fe75      1.0  0.32447  0.90725  0.42843  1.0000
  S   S148      1.0  0.29379  0.89119  0.43298  1.0000
  S   S149      1.0  0.32889  0.93160  0.39643  1.0000
  Fe  Fe76      1.0  0.34241  0.87856  0.47014  1.0000
  S   S150      1.0  0.31282  0.86184  0.47728  1.0000
  S   S151      1.0  0.37255  0.86533  0.48595  1.0000
  Fe  Fe77      1.0  0.31085  0.85800  0.43806  1.0000
  S   S152      1.0  0.30239  0.82233  0.42688  1.0000
  Fe  Fe78      1.0  0.29794  0.89608  0.47171  1.0000
  H   H1123     1.0  0.36783  0.57911  0.46379  1.0000
  S   S153      1.0  0.34086  0.87353  0.43105  1.0000
  S   S154      1.0  0.32806  0.91346  0.46704  1.0000
  H   H1124     1.0  0.37072  0.63594  0.28431  1.0000
  H   H1125     1.0  0.39691  0.53532  0.50194  1.0000
  H   H1126     1.0  0.38529  0.61037  0.28912  1.0000
  C   C629      1.0  0.26840  0.79866  0.35650  1.0000
  H   H1127     1.0  0.25495  0.72092  0.38849  1.0000
  C   C630      1.0  0.26908  0.71408  0.38068  1.0000
  C   C631      1.0  0.32330  0.77525  0.36746  1.0000
  C   C632      1.0  0.31311  0.76685  0.38722  1.0000
  C   C633      1.0  0.30681  0.78151  0.40511  1.0000
  C   C634      1.0  0.31092  0.80469  0.40379  1.0000
  C   C635      1.0  0.32142  0.81302  0.38423  1.0000
  C   C636      1.0  0.32750  0.79840  0.36620  1.0000
  H   H1128     1.0  0.30997  0.74911  0.38862  1.0000
  H   H1129     1.0  0.29872  0.77485  0.42015  1.0000
  H   H1130     1.0  0.32451  0.83080  0.38276  1.0000
  H   H1131     1.0  0.33530  0.80516  0.35098  1.0000
  C   C637      1.0  0.40226  0.65635  0.43267  1.0000
  C   C638      1.0  0.41155  0.64240  0.41625  1.0000
  C   C639      1.0  0.40416  0.64201  0.39318  1.0000
  C   C640      1.0  0.38756  0.65565  0.38624  1.0000
  C   C641      1.0  0.37844  0.66983  0.40258  1.0000
  C   C642      1.0  0.38575  0.67011  0.42569  1.0000
  H   H1132     1.0  0.42425  0.63171  0.42140  1.0000
  H   H1133     1.0  0.41129  0.63097  0.38066  1.0000
  H   H1134     1.0  0.36571  0.68046  0.39744  1.0000
  H   H1135     1.0  0.37863  0.68113  0.43821  1.0000
  C   C643      1.0  0.34108  0.95701  0.38690  1.0000
  H   H1136     1.0  0.46009  0.64731  0.22889  1.0000
  H   H1137     1.0  0.39285  0.59419  0.10666  1.0000
  C   C644      1.0  0.39815  0.66956  0.19718  1.0000
  C   C645      1.0  0.39202  0.69226  0.19666  1.0000
  C   C646      1.0  0.37860  0.70067  0.21394  1.0000
  C   C647      1.0  0.37121  0.68668  0.23221  1.0000
  C   C648      1.0  0.37744  0.66401  0.23277  1.0000
  C   C649      1.0  0.39073  0.65557  0.21542  1.0000
  H   H1138     1.0  0.39743  0.70332  0.18280  1.0000
  H   H1139     1.0  0.37378  0.71817  0.21304  1.0000
  H   H1140     1.0  0.37149  0.65281  0.24612  1.0000
  H   H1141     1.0  0.39513  0.63794  0.21599  1.0000
  C   C650      1.0  0.44410  0.66013  0.25927  1.0000
  C   C651      1.0  0.36886  0.60942  0.02420  1.0000
  H   H1142     1.0  0.32670  0.80986  0.47037  1.0000
  C   C652      1.0  0.38673  0.64493  0.02302  1.0000
  C   C653      1.0  0.39755  0.63887  0.04347  1.0000
  C   C654      1.0  0.39385  0.61799  0.05428  1.0000
  C   C655      1.0  0.37962  0.60340  0.04471  1.0000
  N   N38       1.0  0.42054  0.67906  0.29064  1.0000
  C   C656      1.0  0.47300  0.50792  0.50506  1.0000
  H   H1143     1.0  0.40228  0.61287  0.06970  1.0000
  H   H1144     1.0  0.39347  0.73797  0.48265  1.0000
  C   C657      1.0  0.46595  0.78691  0.03942  1.0000
  C   C658      1.0  0.46814  0.76334  0.03787  1.0000
  C   C659      1.0  0.46536  0.74900  0.05765  1.0000
  C   C660      1.0  0.46089  0.75809  0.07952  1.0000
  C   C661      1.0  0.45885  0.78165  0.08112  1.0000
  C   C662      1.0  0.46110  0.79596  0.06119  1.0000
  H   H1145     1.0  0.47205  0.75611  0.02121  1.0000
  H   H1146     1.0  0.46717  0.73097  0.05611  1.0000
  C   C663      1.0  0.35971  0.99733  0.36981  1.0000
  H   H1147     1.0  0.45942  0.81401  0.06277  1.0000
  C   C664      1.0  0.35241  0.97011  0.40188  1.0000
  C   C665      1.0  0.40504  0.96703  0.04447  1.0000
  C   C666      1.0  0.41764  0.94850  0.05059  1.0000
  C   C667      1.0  0.42278  0.93197  0.03411  1.0000
  H   H1148     1.0  0.42326  0.94675  0.06830  1.0000
  H   H1149     1.0  0.43215  0.91759  0.03922  1.0000
  C   C668      1.0  0.41511  0.93368  0.01138  1.0000
  H   H1150     1.0  0.35410  0.96485  0.42003  1.0000
  C   C669      1.0  0.25540  0.64909  0.32415  1.0000
  H   H1151     1.0  0.41557  0.63223  0.29750  1.0000
  H   H1152     1.0  0.46907  0.98791  0.05304  1.0000
  H   H1153     1.0  0.43702  0.69497  0.26193  1.0000
  C   C670      1.0  0.39784  0.96906  0.02154  1.0000
  H   H1154     1.0  0.27325  0.68999  0.40949  1.0000
  H   H1155     1.0  0.25888  0.58701  0.05795  1.0000
  H   H1156     1.0  0.45871  0.66280  0.26817  1.0000
  C   C671      1.0  0.45672  0.98051  0.00784  1.0000
  H   H1157     1.0  0.26085  0.69980  0.30953  1.0000
  H   H1158     1.0  0.26948  0.57278  0.08339  1.0000
  H   H1159     1.0  0.45335  0.64404  0.34427  1.0000
  H   H1160     1.0  0.37707  0.58719  0.05309  1.0000
  H   H1161     1.0  0.38971  0.79391  0.03759  1.0000
  C   C672      1.0  0.47443  0.53326  0.50012  1.0000
  H   H1162     1.0  0.27799  0.73805  0.31300  1.0000
  H   H1163     1.0  0.26108  0.65946  0.28844  1.0000
  H   H1164     1.0  0.44178  0.65920  0.36794  1.0000
  C   C673      1.0  0.43629  0.67021  0.30775  1.0000
  C   C674      1.0  0.39585  0.59650  0.45818  1.0000
  H   H1165     1.0  0.43878  0.64322  0.26446  1.0000
  H   H1166     1.0  0.28663  0.68267  0.38311  1.0000
  C   C675      1.0  0.27010  0.58394  0.33336  1.0000
  H   H1167     1.0  0.45554  0.78892  0.09794  1.0000
  H   H1168     1.0  0.43443  0.65601  0.22328  1.0000
  H   H1169     1.0  0.31274  0.99760  0.31454  1.0000
  H   H1170     1.0  0.41036  0.84776  0.50353  1.0000
  H   H1171     1.0  0.26693  0.55696  0.35868  1.0000
  H   H1172     1.0  0.26165  0.69950  0.34749  1.0000
  H   H1173     1.0  0.26540  0.75673  0.37194  1.0000
  H   H1174     1.0  0.40659  0.60683  0.46782  1.0000
  H   H1175     1.0  0.41710  0.68836  0.01176  1.0000
  H   H1176     1.0  0.34790  0.67052  0.19358  1.0000
  H   H1177     1.0  0.45359  0.67690  0.22666  1.0000
  H   H1178     1.0  0.27994  0.57398  0.32148  1.0000
  H   H1179     1.0  0.31905  0.60866  0.09241  1.0000
  H   H1180     1.0  0.25002  0.52660  0.37049  1.0000
  H   H1181     1.0  0.29402  0.98236  0.42355  1.0000
  H   H1182     1.0  0.26065  0.59594  0.32275  1.0000
  H   H1183     1.0  0.35080  0.61645  0.46453  1.0000
  C   C676      1.0  0.38380  0.62835  0.29385  1.0000
  C   C677      1.0  0.39004  0.73597  0.50161  1.0000
  H   H1184     1.0  0.41391  0.74992  0.28717  1.0000
  H   H1185     1.0  0.46480  0.50070  0.49024  1.0000
  C   C678      1.0  0.25984  0.71812  0.27694  1.0000
  H   H1186     1.0  0.41613  0.67910  0.25300  1.0000
  C   C679      1.0  0.42877  0.67913  0.26581  1.0000
  S   S155      1.0  0.47244  0.87573  0.00944  1.0000
  H   H1187     1.0  0.47036  0.97505  0.01772  1.0000
  C   C680      1.0  0.26771  0.75612  0.35265  1.0000
  C   C681      1.0  0.41567  0.70318  0.29693  1.0000
  C   C682      1.0  0.40211  0.71691  0.27941  1.0000
  C   C683      1.0  0.39923  0.74124  0.28707  1.0000
  C   C684      1.0  0.42950  0.66800  0.33374  1.0000
  H   H1188     1.0  0.40770  0.70389  0.31409  1.0000
  H   H1189     1.0  0.42332  0.68403  0.34053  1.0000
  H   H1190     1.0  0.38699  0.70956  0.27856  1.0000
  H   H1191     1.0  0.44981  0.68106  0.30683  1.0000
  H   H1192     1.0  0.38987  0.67292  0.27996  1.0000
  H   H1193     1.0  0.38898  0.75039  0.27462  1.0000
  H   H1194     1.0  0.25008  0.55952  0.06697  1.0000
  H   H1195     1.0  0.25538  0.55310  0.01142  1.0000
  H   H1196     1.0  0.35217  0.66640  0.46327  1.0000
  C   C685      1.0  0.26017  0.77925  0.34254  1.0000
  H   H1197     1.0  0.39767  0.56735  0.43568  1.0000
  N   N39       1.0  0.37559  0.80431  0.42459  1.0000
  C   C686      1.0  0.36661  0.78324  0.41506  1.0000
  C   C687      1.0  0.36151  0.81355  0.44312  1.0000
  C   C688      1.0  0.37624  0.82178  0.40492  1.0000
  C   C689      1.0  0.39665  0.80047  0.43404  1.0000
  C   C690      1.0  0.40154  0.77714  0.44568  1.0000
  C   C691      1.0  0.37711  0.77351  0.39300  1.0000
  C   C692      1.0  0.38666  0.84427  0.41045  1.0000
  C   C693      1.0  0.35790  0.79853  0.46518  1.0000
  C   C694      1.0  0.34102  0.80836  0.48037  1.0000
  C   C695      1.0  0.42154  0.77737  0.45887  1.0000
  C   C696      1.0  0.37223  0.74871  0.38991  1.0000
  C   C697      1.0  0.38487  0.86098  0.38977  1.0000
  H   H1198     1.0  0.35052  0.78642  0.41041  1.0000
  H   H1199     1.0  0.36612  0.76961  0.42857  1.0000
  H   H1200     1.0  0.36708  0.82958  0.44996  1.0000
  H   H1201     1.0  0.34651  0.81781  0.43524  1.0000
  H   H1202     1.0  0.36067  0.82578  0.39855  1.0000
  H   H1203     1.0  0.38466  0.81525  0.38956  1.0000
  H   H1204     1.0  0.40803  0.80242  0.41973  1.0000
  H   H1205     1.0  0.40013  0.81379  0.44679  1.0000
  H   H1206     1.0  0.40291  0.76409  0.43213  1.0000
  H   H1207     1.0  0.38973  0.77172  0.45814  1.0000
  H   H1208     1.0  0.37166  0.78288  0.37711  1.0000
  H   H1209     1.0  0.39374  0.77504  0.39378  1.0000
  H   H1210     1.0  0.40297  0.84134  0.41395  1.0000
  H   H1211     1.0  0.38004  0.85261  0.42587  1.0000
  H   H1212     1.0  0.35340  0.78132  0.46075  1.0000
  H   H1213     1.0  0.37174  0.79775  0.47605  1.0000
  H   H1214     1.0  0.25966  0.67925  0.38499  1.0000
  H   H1215     1.0  0.32900  0.65083  0.46458  1.0000
  C   C698      1.0  0.36150  0.62252  0.47789  1.0000
  H   H1216     1.0  0.42053  0.78923  0.47360  1.0000
  H   H1217     1.0  0.42515  0.76025  0.46609  1.0000
  H   H1218     1.0  0.43401  0.78243  0.44691  1.0000
  H   H1219     1.0  0.37872  0.74279  0.37311  1.0000
  H   H1220     1.0  0.37873  0.73819  0.40442  1.0000
  H   H1221     1.0  0.35565  0.74642  0.38943  1.0000
  H   H1222     1.0  0.36875  0.86497  0.38592  1.0000
  H   H1223     1.0  0.39235  0.87690  0.39413  1.0000
  H   H1224     1.0  0.39224  0.85403  0.37391  1.0000
  H   H1225     1.0  0.25032  0.51230  0.34375  1.0000
  H   H1226     1.0  0.28442  0.71407  0.34717  1.0000
  H   H1227     1.0  0.34068  0.58759  0.49141  1.0000
  N   N40       1.0  0.25792  0.73560  0.34286  1.0000
  H   H1228     1.0  0.43084  0.77014  0.01753  1.0000
  C   C699      1.0  0.26156  0.73619  0.31671  1.0000
  C   C700      1.0  0.41055  0.79762  0.00806  1.0000
  H   H1229     1.0  0.32973  0.64939  0.18676  1.0000
  H   H1230     1.0  0.26549  0.78170  0.32421  1.0000
  H   H1231     1.0  0.33231  0.60743  0.06479  1.0000
  C   C701      1.0  0.34856  0.98413  0.35478  1.0000
  C   C702      1.0  0.25042  0.65180  0.30044  1.0000
  H   H1232     1.0  0.34718  0.98909  0.33653  1.0000
  C   C703      1.0  0.33924  0.96428  0.36330  1.0000
  S   S156      1.0  0.46950  0.80392  0.01358  1.0000
  C   C704      1.0  0.25414  0.71589  0.30285  1.0000
  H   H1233     1.0  0.28512  0.79875  0.35534  1.0000
  S   S157      1.0  0.35130  0.59017  0.01264  1.0000
  H   H1234     1.0  0.48295  0.53638  0.48360  1.0000
  H   H1235     1.0  0.39959  0.82176  0.03332  1.0000
  H   H1236     1.0  0.39229  0.74185  0.30480  1.0000
  H   H1237     1.0  0.41785  0.65495  0.33567  1.0000
  H   H1238     1.0  0.41624  0.56719  0.45889  1.0000
  H   H1239     1.0  0.39804  0.58299  0.13560  1.0000
  H   H1240     1.0  0.44189  0.65318  0.30312  1.0000
  C   C705      1.0  0.40130  0.66597  0.29244  1.0000
  H   H1241     1.0  0.40588  0.63822  0.26841  1.0000
  H   H1242     1.0  0.42006  0.72823  0.02033  1.0000
  H   H1243     1.0  0.33842  0.79717  0.49585  1.0000
  C   C706      1.0  0.40320  0.64055  0.28740  1.0000
  C   C707      1.0  0.40338  0.80349  0.03270  1.0000
  H   H1244     1.0  0.34515  0.82524  0.48652  1.0000
  H   H1245     1.0  0.27985  0.59388  0.34485  1.0000
  H   H1246     1.0  0.33067  0.95432  0.35141  1.0000
  H   H1247     1.0  0.28439  0.75516  0.34990  1.0000
  C   C708      1.0  0.37960  0.58661  0.47492  1.0000
  H   H1248     1.0  0.27647  0.71877  0.27469  1.0000
  C   C709      1.0  0.25684  0.56844  0.34832  1.0000
  C   C710      1.0  0.25539  0.57590  0.07331  1.0000
  H   H1249     1.0  0.45912  0.54104  0.49817  1.0000
  H   H1250     1.0  0.25438  0.70330  0.26750  1.0000
  S   S158      1.0  0.39868  0.98695  0.06618  1.0000
  C   C711      1.0  0.44829  0.66019  0.23293  1.0000
  H   H1251     1.0  0.39417  0.66804  0.30997  1.0000
  H   H1252     1.0  0.38939  0.66099  0.01445  1.0000
  H   H1253     1.0  0.41263  0.60592  0.12406  1.0000
  H   H1254     1.0  0.42324  0.99135  0.43557  1.0000
  H   H1255     1.0  0.32218  0.67869  0.18735  1.0000
  C   C712      1.0  0.44713  0.66069  0.34950  1.0000
  H   H1256     1.0  0.40506  0.76277  0.01596  1.0000
  H   H1257     1.0  0.37360  0.63118  0.46788  1.0000
  H   H1258     1.0  0.38861  0.60720  0.44427  1.0000
  C   C713      1.0  0.27236  0.69001  0.39009  1.0000
  H   H1259     1.0  0.38808  0.98318  0.01662  1.0000
  H   H1260     1.0  0.38086  0.62914  0.31297  1.0000
  H   H1261     1.0  0.42986  0.71268  0.29897  1.0000
  C   C714      1.0  0.26849  0.71514  0.35349  1.0000
  C   C715      1.0  0.37248  0.63036  0.01348  1.0000
  H   H1262     1.0  0.41549  0.79964  0.04566  1.0000
  H   H1263     1.0  0.45925  0.67332  0.34864  1.0000
  N   N41       1.0  0.36177  0.65144  0.12391  1.0000
  C   C716      1.0  0.38128  0.63812  0.12133  1.0000
  C   C717      1.0  0.36430  0.67466  0.11310  1.0000
  C   C718      1.0  0.35811  0.65432  0.14985  1.0000
  C   C719      1.0  0.34392  0.63985  0.11341  1.0000
  C   C720      1.0  0.34820  0.62513  0.09165  1.0000
  C   C721      1.0  0.38212  0.61524  0.13511  1.0000
  C   C722      1.0  0.33985  0.66963  0.15668  1.0000
  C   C723      1.0  0.36780  0.67595  0.08633  1.0000
  C   C724      1.0  0.37203  0.69998  0.07786  1.0000
  C   C725      1.0  0.32866  0.61828  0.07992  1.0000
  C   C726      1.0  0.39737  0.59865  0.12463  1.0000
  C   C727      1.0  0.33463  0.66681  0.18267  1.0000
  H   H1264     1.0  0.39422  0.64809  0.12750  1.0000
  H   H1265     1.0  0.38489  0.63503  0.10270  1.0000
  H   H1266     1.0  0.35062  0.68534  0.11603  1.0000
  H   H1267     1.0  0.37697  0.68326  0.12177  1.0000
  H   H1268     1.0  0.37173  0.66129  0.15822  1.0000
  H   H1269     1.0  0.35572  0.63771  0.15871  1.0000
  H   H1270     1.0  0.33668  0.62848  0.12661  1.0000
  H   H1271     1.0  0.33195  0.65251  0.10859  1.0000
  H   H1272     1.0  0.35650  0.60942  0.09684  1.0000
  H   H1273     1.0  0.35744  0.63381  0.07822  1.0000
  H   H1274     1.0  0.38663  0.61817  0.15351  1.0000
  H   H1275     1.0  0.36722  0.60709  0.13559  1.0000
  H   H1276     1.0  0.32624  0.66576  0.14643  1.0000
  H   H1277     1.0  0.34355  0.68761  0.15362  1.0000
  H   H1278     1.0  0.38078  0.66526  0.08116  1.0000
  H   H1279     1.0  0.35411  0.67065  0.07701  1.0000
  H   H1280     1.0  0.38569  0.70642  0.08640  1.0000
  H   H1281     1.0  0.37475  0.70014  0.05865  1.0000
  H   H1282     1.0  0.35897  0.71135  0.08165  1.0000
  H   H1283     1.0  0.32017  0.63338  0.07323  1.0000
  N   N42       1.0  0.37007  0.60280  0.49200  1.0000
  C   C728      1.0  0.35083  0.64143  0.49176  1.0000
  H   H1284     1.0  0.44424  0.97112  0.01647  1.0000
  H   H1285     1.0  0.36212  0.65049  0.50208  1.0000
  H   H1286     1.0  0.26381  0.79727  0.37521  1.0000
  H   H1287     1.0  0.26250  0.81495  0.34919  1.0000
  H   H1288     1.0  0.49057  0.71180  0.16932  1.0000
  C   C729      1.0  0.34079  0.65878  0.47519  1.0000
  H   H1289     1.0  0.25395  0.75116  0.30845  1.0000
  H   H1290     1.0  0.38700  0.57226  0.48456  1.0000
  H   H1291     1.0  0.33357  0.67241  0.48549  1.0000
  H   H1292     1.0  0.25245  0.54508  0.32071  1.0000
  H   H1293     1.0  0.42289  0.56494  0.50391  1.0000
  H   H1294     1.0  0.49796  0.72212  0.12785  1.0000
  H   H1295     1.0  0.39427  0.62499  0.50101  1.0000
  C   C730      1.0  0.41701  0.77246  0.00670  1.0000
  H   H1296     1.0  0.37346  0.73435  0.50380  1.0000
  H   H1297     1.0  0.36035  0.55464  0.50242  1.0000
  H   H1298     1.0  0.42711  0.49856  0.50472  1.0000
  C   C731      1.0  0.24840  0.91264  0.50283  1.0000
  H   H1299     1.0  0.33893  0.63487  0.50359  1.0000
  C   C732      1.0  0.35294  0.59079  0.50414  1.0000
  H   H1300     1.0  0.46042  0.93612  0.99365  1.0000
  Fe  Fe79      1.0  0.45678  0.85520  0.94770  1.0000
  S   S159      1.0  0.43747  0.84974  0.97944  1.0000
  S   S160      1.0  0.44902  0.84663  0.91037  1.0000
  C   C733      1.0  0.41788  0.72372  0.00174  1.0000
  H   H1301     1.0  0.38754  0.90273  0.89932  1.0000
  Fe  Fe80      1.0  0.44452  0.88551  0.98857  1.0000
  H   H1302     1.0  0.38569  0.62525  0.88654  1.0000
  S   S161      1.0  0.48570  0.84387  0.96487  1.0000
  S   S162      1.0  0.46199  0.89120  0.95542  1.0000
  Fe  Fe81      1.0  0.32540  0.75967  0.83225  1.0000
  S   S163      1.0  0.31853  0.78731  0.85708  1.0000
  S   S164      1.0  0.31482  0.72343  0.83782  1.0000
  Fe  Fe82      1.0  0.34760  0.79190  0.79779  1.0000
  S   S165      1.0  0.34204  0.82177  0.82125  1.0000
  S   S166      1.0  0.36027  0.79016  0.75995  1.0000
  Fe  Fe83      1.0  0.35060  0.79766  0.85096  1.0000
  S   S167      1.0  0.36520  0.80261  0.88653  1.0000
  Fe  Fe84      1.0  0.31013  0.80918  0.82582  1.0000
  S   S168      1.0  0.28323  0.83435  0.82996  1.0000
  S   S169      1.0  0.35799  0.76858  0.82748  1.0000
  S   S170      1.0  0.31514  0.78076  0.80093  1.0000
  Fe  Fe85      1.0  0.31840  0.57421  0.93285  1.0000
  S   S171      1.0  0.29239  0.59957  0.92930  1.0000
  S   S172      1.0  0.32175  0.55001  0.90139  1.0000
  Fe  Fe86      1.0  0.33042  0.59364  0.98052  1.0000
  S   S173      1.0  0.30515  0.61934  0.97969  1.0000
  H   H1303     1.0  0.37885  0.92580  0.93146  1.0000
  Fe  Fe87      1.0  0.28522  0.59172  0.96738  1.0000
  H   H1304     1.0  0.34056  0.62781  0.87403  1.0000
  Fe  Fe88      1.0  0.31380  0.62551  0.94186  1.0000
  S   S174      1.0  0.31652  0.66321  0.93221  1.0000
  S   S175      1.0  0.30998  0.56509  0.97038  1.0000
  S   S176      1.0  0.34036  0.60100  0.94331  1.0000
  C   C734      1.0  0.25729  0.85972  0.54056  1.0000
  H   H1305     1.0  0.39750  0.87598  0.95847  1.0000
  Fe  Fe89      1.0  0.44552  0.81734  0.65777  1.0000
  S   S177      1.0  0.45216  0.84868  0.63606  1.0000
  S   S178      1.0  0.43571  0.82135  0.69630  1.0000
  Fe  Fe90      1.0  0.45589  0.78685  0.61611  1.0000
  S   S179      1.0  0.46271  0.81615  0.59194  1.0000
  S   S180      1.0  0.45291  0.74971  0.60741  1.0000
  Fe  Fe91      1.0  0.47991  0.82991  0.62295  1.0000
  Fe  Fe92      1.0  0.43476  0.83262  0.60704  1.0000
  S   S181      1.0  0.40651  0.84940  0.59033  1.0000
  S   S182      1.0  0.47422  0.79941  0.64621  1.0000
  S   S183      1.0  0.42705  0.80250  0.62960  1.0000
  H   H1306     1.0  0.34654  0.54313  0.54058  1.0000
  H   H1307     1.0  0.48117  0.71284  0.66947  1.0000
  C   C735      1.0  0.40917  0.84842  0.54135  1.0000
  C   C736      1.0  0.39763  0.85400  0.56106  1.0000
  C   C737      1.0  0.37819  0.86349  0.55762  1.0000
  C   C738      1.0  0.37024  0.86708  0.53488  1.0000
  H   H1308     1.0  0.37853  0.74703  0.54452  1.0000
  H   H1309     1.0  0.36914  0.86807  0.57265  1.0000
  H   H1310     1.0  0.47320  0.78254  0.94668  1.0000
  C   C739      1.0  0.47459  0.70511  0.54675  1.0000
  C   C740      1.0  0.48134  0.72734  0.54832  1.0000
  C   C741      1.0  0.47434  0.74148  0.56625  1.0000
  C   C742      1.0  0.46091  0.73336  0.58324  1.0000
  C   C743      1.0  0.45401  0.71123  0.58158  1.0000
  C   C744      1.0  0.46063  0.69725  0.56331  1.0000
  H   H1311     1.0  0.44368  0.70471  0.59467  1.0000
  H   H1312     1.0  0.45542  0.68015  0.56244  1.0000
  H   H1313     1.0  0.38318  0.69838  0.84588  1.0000
  H   H1314     1.0  0.36696  0.77600  0.56827  1.0000
  H   H1315     1.0  0.49467  0.99526  0.99226  1.0000
  Fe  Fe93      1.0  0.46662  0.83995  0.99778  1.0000
  C   C745      1.0  0.38174  0.79872  0.74297  1.0000
  C   C746      1.0  0.38449  0.79006  0.72036  1.0000
  C   C747      1.0  0.40094  0.79651  0.70598  1.0000
  C   C748      1.0  0.41477  0.81214  0.71379  1.0000
  C   C749      1.0  0.41198  0.82090  0.73634  1.0000
  C   C750      1.0  0.39566  0.81424  0.75085  1.0000
  H   H1316     1.0  0.37393  0.77799  0.71405  1.0000
  H   H1317     1.0  0.40306  0.78912  0.68902  1.0000
  H   H1318     1.0  0.42258  0.83289  0.74273  1.0000
  H   H1319     1.0  0.39381  0.82116  0.76810  1.0000
  C   C751      1.0  0.31481  0.70710  0.86435  1.0000
  C   C752      1.0  0.31096  0.68392  0.86353  1.0000
  C   C753      1.0  0.31099  0.67027  0.88410  1.0000
  C   C754      1.0  0.31469  0.67972  0.90583  1.0000
  C   C755      1.0  0.31810  0.70300  0.90669  1.0000
  C   C756      1.0  0.31826  0.71661  0.88610  1.0000
  H   H1320     1.0  0.30814  0.67640  0.84682  1.0000
  H   H1321     1.0  0.30827  0.65243  0.88313  1.0000
  H   H1322     1.0  0.32093  0.71053  0.92339  1.0000
  H   H1323     1.0  0.32113  0.73442  0.88706  1.0000
  H   H1324     1.0  0.43134  0.54878  0.57683  1.0000
  H   H1325     1.0  0.45579  0.80501  0.93831  1.0000
  H   H1326     1.0  0.39491  0.50053  0.76974  1.0000
  C   C757      1.0  0.37906  0.61663  0.53383  1.0000
  C   C758      1.0  0.42586  0.83407  0.90379  1.0000
  C   C759      1.0  0.41974  0.83282  0.88035  1.0000
  C   C760      1.0  0.40124  0.82311  0.87464  1.0000
  C   C761      1.0  0.38881  0.81448  0.89238  1.0000
  C   C762      1.0  0.39501  0.81563  0.91580  1.0000
  C   C763      1.0  0.41345  0.82537  0.92150  1.0000
  H   H1327     1.0  0.42932  0.83946  0.86655  1.0000
  H   H1328     1.0  0.39659  0.82233  0.85655  1.0000
  H   H1329     1.0  0.38535  0.80920  0.92961  1.0000
  H   H1330     1.0  0.41802  0.82623  0.93956  1.0000
  C   C764      1.0  0.34253  0.51817  0.74945  1.0000
  C   C765      1.0  0.33592  0.52658  0.88980  1.0000
  H   H1331     1.0  0.49470  0.78133  0.59504  1.0000
  C   C766      1.0  0.39921  0.52540  0.53833  1.0000
  H   H1332     1.0  0.37664  0.50882  0.67051  1.0000
  H   H1333     1.0  0.39814  0.78091  0.96107  1.0000
  C   C767      1.0  0.42867  0.55917  0.54056  1.0000
  H   H1334     1.0  0.41331  0.91319  0.93240  1.0000
  C   C768      1.0  0.36403  0.50092  0.70479  1.0000
  C   C769      1.0  0.25718  0.83899  0.82240  1.0000
  C   C770      1.0  0.35195  0.51590  0.90181  1.0000
  H   H1335     1.0  0.46744  0.98304  0.97110  1.0000
  H   H1336     1.0  0.46529  0.78352  0.53103  1.0000
  C   C771      1.0  0.26569  0.77794  0.86393  1.0000
  H   H1337     1.0  0.41046  0.79449  0.52943  1.0000
  H   H1338     1.0  0.40953  0.61604  0.54813  1.0000
  H   H1339     1.0  0.32741  0.55986  0.76363  1.0000
  C   C772      1.0  0.46890  0.94823  0.98244  1.0000
  C   C773      1.0  0.27749  0.80600  0.89356  1.0000
  C   C774      1.0  0.39420  0.75298  0.54162  1.0000
  H   H1340     1.0  0.35286  0.60639  0.89224  1.0000
  H   H1341     1.0  0.33881  0.80171  0.55251  1.0000
  H   H1342     1.0  0.38213  0.66250  0.96337  1.0000
  H   H1343     1.0  0.34428  0.88342  0.93331  1.0000
  H   H1344     1.0  0.28024  0.76919  0.86805  1.0000
  H   H1345     1.0  0.37377  0.64624  0.86767  1.0000
  H   H1346     1.0  0.27051  0.71929  0.87107  1.0000
  H   H1347     1.0  0.25021  0.73352  0.83213  1.0000
  C   C775      1.0  0.38321  0.87125  0.94987  1.0000
  H   H1348     1.0  0.36021  0.70566  0.89206  1.0000
  S   S184      1.0  0.41934  0.91231  0.99056  1.0000
  C   C776      1.0  0.39753  0.75626  0.51482  1.0000
  H   H1349     1.0  0.38202  0.79977  0.57419  1.0000
  H   H1350     1.0  0.32293  0.51063  0.78033  1.0000
  H   H1351     1.0  0.48466  0.94899  0.98880  1.0000
  C   C777      1.0  0.36763  0.66830  0.95549  1.0000
  H   H1352     1.0  0.41384  0.75781  0.51078  1.0000
  C   C778      1.0  0.33079  0.51840  0.86764  1.0000
  H   H1353     1.0  0.42115  0.88407  0.93210  1.0000
  H   H1354     1.0  0.25553  0.86551  0.57742  1.0000
  C   C779      1.0  0.39938  0.65439  0.92115  1.0000
  S   S185      1.0  0.44666  0.58064  0.54316  1.0000
  H   H1355     1.0  0.32757  0.55850  0.52393  1.0000
  H   H1356     1.0  0.38044  0.81036  0.53055  1.0000
  C   C780      1.0  0.43584  0.77830  0.97032  1.0000
  C   C781      1.0  0.40923  0.52905  0.55932  1.0000
  C   C782      1.0  0.35699  0.88382  0.92064  1.0000
  H   H1357     1.0  0.37669  0.83031  0.97337  1.0000
  H   H1358     1.0  0.26933  0.78996  0.84941  1.0000
  H   H1359     1.0  0.28964  0.79438  0.90010  1.0000
  S   S186      1.0  0.25149  0.59200  0.97841  1.0000
  H   H1360     1.0  0.36500  0.84201  0.99908  1.0000
  H   H1361     1.0  0.39093  0.63055  0.56562  1.0000
  H   H1362     1.0  0.40147  0.72449  0.99802  1.0000
  S   S187      1.0  0.48503  0.68756  0.52479  1.0000
  H   H1363     1.0  0.30452  0.50292  0.91771  1.0000
  N   N43       1.0  0.42059  0.76343  0.98243  1.0000
  C   C783      1.0  0.42394  0.54579  0.56039  1.0000
  C   C784      1.0  0.37911  0.75103  0.93569  1.0000
  H   H1364     1.0  0.47151  0.73807  0.65509  1.0000
  C   C785      1.0  0.35559  0.93936  0.96995  1.0000
  H   H1365     1.0  0.35311  0.86214  0.96351  1.0000
  H   H1366     1.0  0.27024  0.70350  0.91087  1.0000
  C   C786      1.0  0.36834  0.86590  0.97007  1.0000
  H   H1367     1.0  0.36216  0.71742  0.85066  1.0000
  H   H1368     1.0  0.25428  0.80997  0.80107  1.0000
  H   H1369     1.0  0.43193  0.73191  0.96827  1.0000
  C   C787      1.0  0.38093  0.50455  0.77979  1.0000
  C   C788      1.0  0.45940  0.78682  0.93642  1.0000
  C   C789      1.0  0.40123  0.85203  0.51861  1.0000
  H   H1370     1.0  0.34555  0.82293  0.53094  1.0000
  C   C790      1.0  0.25959  0.79277  0.88483  1.0000
  H   H1371     1.0  0.42301  0.69351  0.98135  1.0000
  H   H1372     1.0  0.34355  0.92368  0.93970  1.0000
  H   H1373     1.0  0.33555  0.84128  0.88799  1.0000
  H   H1374     1.0  0.40007  0.64374  0.53904  1.0000
  C   C791      1.0  0.44982  0.79105  0.53038  1.0000
  C   C792      1.0  0.39263  0.89081  0.91356  1.0000
  C   C793      1.0  0.41388  0.89792  0.92162  1.0000
  H   H1375     1.0  0.37459  0.60138  0.54395  1.0000
  N   N44       1.0  0.37663  0.86060  0.66525  1.0000
  C   C794      1.0  0.36955  0.85414  0.68958  1.0000
  C   C795      1.0  0.39923  0.86322  0.66568  1.0000
  C   C796      1.0  0.36610  0.88227  0.65765  1.0000
  C   C797      1.0  0.37172  0.84277  0.64786  1.0000
  C   C798      1.0  0.37746  0.81822  0.65520  1.0000
  C   C799      1.0  0.34669  0.84940  0.69216  1.0000
  C   C800      1.0  0.37414  0.89340  0.63465  1.0000
  C   C801      1.0  0.40705  0.88207  0.68149  1.0000
  C   C802      1.0  0.42965  0.88550  0.67800  1.0000
  C   C803      1.0  0.37293  0.80197  0.63564  1.0000
  C   C804      1.0  0.34180  0.83999  0.71660  1.0000
  C   C805      1.0  0.36151  0.91428  0.62777  1.0000
  H   H1376     1.0  0.37259  0.86780  0.70198  1.0000
  H   H1377     1.0  0.37839  0.83934  0.69657  1.0000
  H   H1378     1.0  0.40668  0.84742  0.67208  1.0000
  H   H1379     1.0  0.40535  0.86578  0.64762  1.0000
  H   H1380     1.0  0.36656  0.89489  0.67172  1.0000
  H   H1381     1.0  0.34974  0.87938  0.65496  1.0000
  H   H1382     1.0  0.35537  0.84326  0.64350  1.0000
  H   H1383     1.0  0.37957  0.84622  0.63094  1.0000
  H   H1384     1.0  0.36888  0.81259  0.67092  1.0000
  H   H1385     1.0  0.39374  0.81665  0.65918  1.0000
  H   H1386     1.0  0.33771  0.86522  0.68953  1.0000
  H   H1387     1.0  0.34157  0.83705  0.67934  1.0000
  H   H1388     1.0  0.37363  0.88162  0.61989  1.0000
  H   H1389     1.0  0.38995  0.89880  0.63668  1.0000
  H   H1390     1.0  0.39938  0.89846  0.67774  1.0000
  H   H1391     1.0  0.40467  0.87748  0.70024  1.0000
  H   H1392     1.0  0.43481  0.89888  0.68969  1.0000
  H   H1393     1.0  0.43826  0.86977  0.68245  1.0000
  H   H1394     1.0  0.43296  0.89071  0.65960  1.0000
  H   H1395     1.0  0.35652  0.80213  0.63183  1.0000
  H   H1396     1.0  0.38138  0.80665  0.61944  1.0000
  H   H1397     1.0  0.37767  0.78464  0.64120  1.0000
  H   H1398     1.0  0.34688  0.85150  0.73035  1.0000
  H   H1399     1.0  0.32526  0.83784  0.71853  1.0000
  H   H1400     1.0  0.34928  0.82327  0.71939  1.0000
  H   H1401     1.0  0.34560  0.90972  0.62457  1.0000
  H   H1402     1.0  0.36196  0.92696  0.64173  1.0000
  H   H1403     1.0  0.36768  0.92194  0.61138  1.0000
  H   H1404     1.0  0.36599  0.62847  0.53366  1.0000
  C   C806      1.0  0.42757  0.90280  0.90056  1.0000
  C   C807      1.0  0.48161  0.72308  0.65298  1.0000
  H   H1405     1.0  0.33135  0.87117  0.88482  1.0000
  H   H1406     1.0  0.43595  0.75990  0.54098  1.0000
  H   H1407     1.0  0.39856  0.51123  0.81075  1.0000
  H   H1408     1.0  0.38574  0.72203  0.86512  1.0000
  H   H1409     1.0  0.36437  0.63517  0.99773  1.0000
  H   H1410     1.0  0.39770  0.72022  0.50806  1.0000
  C   C808      1.0  0.34224  0.55993  0.53304  1.0000
  H   H1411     1.0  0.25015  0.86557  0.52391  1.0000
  H   H1412     1.0  0.47950  0.75852  0.56703  1.0000
  C   C809      1.0  0.27127  0.74677  0.79365  1.0000
  N   N45       1.0  0.39815  0.77285  0.55696  1.0000
  H   H1413     1.0  0.41513  0.80343  0.55808  1.0000
  H   H1414     1.0  0.34247  0.69011  0.96607  1.0000
  C   C810      1.0  0.40521  0.76402  0.58061  1.0000
  H   H1415     1.0  0.30616  0.54214  0.75777  1.0000
  C   C811      1.0  0.37572  0.84540  0.98448  1.0000
  C   C812      1.0  0.43592  0.77763  0.54664  1.0000
  C   C813      1.0  0.38966  0.75050  0.59535  1.0000
  H   H1416     1.0  0.35526  0.87437  0.53260  1.0000
  H   H1417     1.0  0.25518  0.84131  0.54283  1.0000
  C   C814      1.0  0.40442  0.53827  0.51831  1.0000
  H   H1418     1.0  0.34028  0.94496  0.97564  1.0000
  C   C815      1.0  0.39963  0.73892  0.61660  1.0000
  H   H1419     1.0  0.34570  0.60143  0.51760  1.0000
  H   H1420     1.0  0.40519  0.51946  0.57491  1.0000
  H   H1421     1.0  0.49765  0.73431  0.61046  1.0000
  H   H1422     1.0  0.35941  0.60920  0.86173  1.0000
  H   H1423     1.0  0.41031  0.77810  0.59151  1.0000
  H   H1424     1.0  0.41859  0.75266  0.57849  1.0000
  H   H1425     1.0  0.40408  0.73827  0.54676  1.0000
  C   C816      1.0  0.44172  0.77256  0.94488  1.0000
  C   C817      1.0  0.37493  0.91194  0.94408  1.0000
  H   H1426     1.0  0.27371  0.86297  0.53922  1.0000
  H   H1427     1.0  0.44248  0.77782  0.56447  1.0000
  C   C818      1.0  0.41908  0.55507  0.51939  1.0000
  H   H1428     1.0  0.38261  0.73738  0.58476  1.0000
  H   H1429     1.0  0.37763  0.76191  0.60213  1.0000
  C   C819      1.0  0.38568  0.50072  0.80575  1.0000
  H   H1430     1.0  0.35485  0.67510  0.98977  1.0000
  C   C820      1.0  0.35400  0.91900  0.95426  1.0000
  H   H1431     1.0  0.24945  0.83629  0.62801  1.0000
  H   H1432     1.0  0.44994  0.77842  0.98081  1.0000
  H   H1433     1.0  0.43028  0.79604  0.96917  1.0000
  H   H1434     1.0  0.46254  0.78370  0.91764  1.0000
  H   H1435     1.0  0.34703  0.90536  0.96480  1.0000
  H   H1436     1.0  0.40701  0.75147  0.62768  1.0000
  H   H1437     1.0  0.38809  0.73010  0.62734  1.0000
  H   H1438     1.0  0.41116  0.72632  0.61094  1.0000
  H   H1439     1.0  0.42430  0.84160  0.54358  1.0000
  H   H1440     1.0  0.35293  0.89747  0.90769  1.0000
  H   H1441     1.0  0.39823  0.80185  0.99559  1.0000
  C   C821      1.0  0.37913  0.78669  0.56093  1.0000
  H   H1442     1.0  0.35721  0.68232  0.87293  1.0000
  H   H1443     1.0  0.44300  0.90649  0.90671  1.0000
  C   C822      1.0  0.33551  0.85739  0.89747  1.0000
  H   H1444     1.0  0.27271  0.77597  0.81481  1.0000
  H   H1445     1.0  0.38621  0.91291  0.95838  1.0000
  H   H1446     1.0  0.35269  0.53240  0.74505  1.0000
  H   H1447     1.0  0.42861  0.88799  0.88906  1.0000
  C   C823      1.0  0.35643  0.86114  0.90772  1.0000
  H   H1448     1.0  0.42172  0.91759  0.89028  1.0000
  S   S188      1.0  0.48622  0.62024  0.51300  1.0000
  H   H1449     1.0  0.39653  0.72909  0.95831  1.0000
  H   H1450     1.0  0.39515  0.87426  0.90520  1.0000
  H   H1451     1.0  0.38694  0.85541  0.94077  1.0000
  H   H1452     1.0  0.36728  0.86074  0.89289  1.0000
  H   H1453     1.0  0.35985  0.84677  0.91988  1.0000
  N   N46       1.0  0.37661  0.88929  0.93244  1.0000
  H   H1454     1.0  0.28612  0.73956  0.79924  1.0000
  H   H1455     1.0  0.27476  0.74165  0.84064  1.0000
  H   H1456     1.0  0.32394  0.85646  0.91158  1.0000
  H   H1457     1.0  0.36738  0.88029  0.98210  1.0000
  Fe  Fe94      1.0  0.48961  0.87983  0.97520  1.0000
  H   H1458     1.0  0.42620  0.64546  0.95839  1.0000
  N   N47       1.0  0.38057  0.66650  0.91247  1.0000
  H   H1459     1.0  0.27548  0.74057  0.89217  1.0000
  C   C824      1.0  0.36570  0.64915  0.90511  1.0000
  C   C825      1.0  0.38614  0.68197  0.89225  1.0000
  C   C826      1.0  0.37089  0.68042  0.93143  1.0000
  C   C827      1.0  0.39599  0.62739  0.54740  1.0000
  H   H1460     1.0  0.44178  0.69796  0.00365  1.0000
  C   C828      1.0  0.36819  0.69432  0.87980  1.0000
  C   C829      1.0  0.37161  0.63522  0.88337  1.0000
  C   C830      1.0  0.35507  0.61870  0.87756  1.0000
  H   H1461     1.0  0.39701  0.95404  0.98752  1.0000
  C   C831      1.0  0.26232  0.76184  0.81256  1.0000
  C   C832      1.0  0.37539  0.70888  0.85913  1.0000
  H   H1462     1.0  0.40686  0.64515  0.90668  1.0000
  H   H1463     1.0  0.31852  0.52650  0.85805  1.0000
  H   H1464     1.0  0.36297  0.63689  0.91969  1.0000
  H   H1465     1.0  0.35072  0.65710  0.90160  1.0000
  H   H1466     1.0  0.39518  0.67275  0.87893  1.0000
  H   H1467     1.0  0.39618  0.69541  0.89831  1.0000
  H   H1468     1.0  0.37959  0.69589  0.93438  1.0000
  H   H1469     1.0  0.35576  0.68673  0.92573  1.0000
  H   H1470     1.0  0.34055  0.57185  0.54765  1.0000
  H   H1471     1.0  0.42290  0.67978  0.91729  1.0000
  H   H1472     1.0  0.38025  0.76748  0.92619  1.0000
  H   H1473     1.0  0.27253  0.81690  0.90812  1.0000
  C   C833      1.0  0.33223  0.52436  0.77304  1.0000
  H   H1474     1.0  0.37716  0.52264  0.77674  1.0000
  C   C834      1.0  0.26366  0.72981  0.88493  1.0000
  C   C835      1.0  0.38171  0.86137  0.51517  1.0000
  C   C836      1.0  0.43244  0.65530  0.94333  1.0000
  C   C837      1.0  0.41428  0.78808  0.54727  1.0000
  H   H1475     1.0  0.49387  0.75886  0.62666  1.0000
  C   C838      1.0  0.40079  0.76395  0.96934  1.0000
  C   C839      1.0  0.31859  0.54528  0.77016  1.0000
  C   C840      1.0  0.35110  0.81280  0.54625  1.0000
  H   H1476     1.0  0.40951  0.68108  0.94466  1.0000
  H   H1477     1.0  0.25072  0.72319  0.91959  1.0000
  H   H1478     1.0  0.44340  0.96991  0.97495  1.0000
  S   S189      1.0  0.44078  0.64290  0.51615  1.0000
  H   H1479     1.0  0.36286  0.95358  0.96043  1.0000
  C   C841      1.0  0.36969  0.79879  0.53925  1.0000
  C   C842      1.0  0.34150  0.50008  0.85760  1.0000
  H   H1480     1.0  0.35619  0.52184  0.91882  1.0000
  C   C843      1.0  0.41579  0.66952  0.93145  1.0000
  H   H1481     1.0  0.39079  0.84852  0.99206  1.0000
  H   H1482     1.0  0.25032  0.93834  0.52869  1.0000
  H   H1483     1.0  0.31184  0.54962  0.78737  1.0000
  H   H1484     1.0  0.43957  0.64356  0.93071  1.0000
  H   H1485     1.0  0.36455  0.78632  0.52659  1.0000
  C   C844      1.0  0.39810  0.74609  0.95017  1.0000
  H   H1486     1.0  0.44426  0.66644  0.95002  1.0000
  H   H1487     1.0  0.34372  0.52815  0.78637  1.0000
  H   H1488     1.0  0.27359  0.75685  0.77727  1.0000
  H   H1489     1.0  0.26096  0.73282  0.78991  1.0000
  H   H1490     1.0  0.35789  0.65349  0.95372  1.0000
  H   H1491     1.0  0.39803  0.59707  0.51127  1.0000
  H   H1492     1.0  0.47227  0.51017  0.54229  1.0000
  H   H1493     1.0  0.45053  0.80879  0.53599  1.0000
  H   H1494     1.0  0.36699  0.69887  0.97600  1.0000
  H   H1495     1.0  0.49210  0.73360  0.53556  1.0000
  H   H1496     1.0  0.36546  0.75131  0.94708  1.0000
  H   H1497     1.0  0.35483  0.82460  0.56031  1.0000
  H   H1498     1.0  0.37731  0.73783  0.92245  1.0000
  C   C845      1.0  0.35739  0.68416  0.97283  1.0000
  H   H1499     1.0  0.35191  0.51399  0.70298  1.0000
  H   H1500     1.0  0.44522  0.74098  0.99278  1.0000
  H   H1501     1.0  0.42884  0.77653  0.93302  1.0000
  H   H1502     1.0  0.41104  0.74533  0.93792  1.0000
  H   H1503     1.0  0.44638  0.75468  0.94318  1.0000
  Fe  Fe95      1.0  0.45427  0.60780  0.51572  1.0000
  H   H1504     1.0  0.39546  0.64109  0.93439  1.0000
  H   H1505     1.0  0.33079  0.51892  0.73556  1.0000
  H   H1506     1.0  0.25394  0.78264  0.89989  1.0000
  C   C846      1.0  0.42972  0.74005  0.98537  1.0000
  H   H1507     1.0  0.47585  0.71279  0.63854  1.0000
  C   C847      1.0  0.38610  0.61036  0.50874  1.0000
  H   H1508     1.0  0.48230  0.54162  0.51458  1.0000
  C   C848      1.0  0.45868  0.97151  0.98262  1.0000
  H   H1509     1.0  0.38977  0.77153  0.50767  1.0000
  C   C849      1.0  0.42546  0.69944  0.99935  1.0000
  C   C850      1.0  0.25951  0.74842  0.83597  1.0000
  H   H1510     1.0  0.36450  0.93479  0.98584  1.0000
  H   H1511     1.0  0.38056  0.51212  0.73459  1.0000
  N   N48       1.0  0.25039  0.76125  0.85616  1.0000
  H   H1512     1.0  0.44835  0.51401  0.52943  1.0000
  S   S190      1.0  0.37899  0.50641  0.53671  1.0000
  H   H1513     1.0  0.37300  0.56851  0.52556  1.0000
  H   H1514     1.0  0.44439  0.79067  0.51204  1.0000
  H   H1515     1.0  0.25222  0.89029  0.55884  1.0000
  C   C851      1.0  0.35859  0.56773  0.51592  1.0000
  Fe  Fe96      1.0  0.47215  0.65524  0.51016  1.0000
  H   H1516     1.0  0.28361  0.81695  0.87931  1.0000
  C   C852      1.0  0.46229  0.50326  0.52874  1.0000
  H   H1517     1.0  0.42361  0.80846  0.00408  1.0000
  C   C853      1.0  0.38167  0.50783  0.68904  1.0000
  H   H1518     1.0  0.38724  0.52458  0.69391  1.0000
  H   H1519     1.0  0.45813  0.50591  0.57723  1.0000
  H   H1520     1.0  0.37247  0.50543  0.81678  1.0000
  H   H1521     1.0  0.46929  0.94190  0.96431  1.0000
  C   C854      1.0  0.25701  0.71370  0.90459  1.0000
  H   H1522     1.0  0.25481  0.86963  0.84178  1.0000
  H   H1523     1.0  0.38785  0.76166  0.98167  1.0000
  C   C855      1.0  0.40284  0.95244  0.00512  1.0000
  H   H1524     1.0  0.48862  0.50091  0.50560  1.0000
  Fe  Fe97      1.0  0.57523  0.14190  0.02363  1.0000
  S   S191      1.0  0.58476  0.16514  0.05252  1.0000
  H   H1525     1.0  0.64585  0.17963  0.41035  1.0000
  H   H1526     1.0  0.65746  0.18173  0.36746  1.0000
  Fe  Fe98      1.0  0.66989  0.19846  0.18936  1.0000
  S   S192      1.0  0.68417  0.16549  0.17881  1.0000
  S   S193      1.0  0.65375  0.20764  0.22398  1.0000
  Fe  Fe99      1.0  0.68401  0.22268  0.14312  1.0000
  S   S194      1.0  0.69934  0.19116  0.12970  1.0000
  S   S195      1.0  0.67649  0.25532  0.12190  1.0000
  Fe  Fe100     1.0  0.67163  0.17337  0.14286  1.0000
  S   S196      1.0  0.65882  0.14537  0.12121  1.0000
  Fe  Fe101     1.0  0.71115  0.18523  0.16648  1.0000
  C   C856      1.0  0.72302  0.11768  0.11964  1.0000
  S   S197      1.0  0.65552  0.20484  0.15408  1.0000
  S   S198      1.0  0.69757  0.21822  0.17916  1.0000
  Fe  Fe102     1.0  0.69122  0.41055  0.04704  1.0000
  S   S199      1.0  0.72272  0.39562  0.04402  1.0000
  S   S200      1.0  0.68140  0.43064  0.07973  1.0000
  C   C857      1.0  0.70960  0.29843  0.16386  1.0000
  H   H1527     1.0  0.72529  0.32960  0.16270  1.0000
  Fe  Fe103     1.0  0.70793  0.36208  0.03935  1.0000
  S   S201      1.0  0.72036  0.33093  0.05938  1.0000
  C   C858      1.0  0.54585  0.11537  0.28731  1.0000
  S   S202      1.0  0.67692  0.37658  0.04442  1.0000
  C   C859      1.0  0.71352  0.37289  0.17044  1.0000
  H   H1528     1.0  0.60709  0.47897  0.04862  1.0000
  Fe  Fe104     1.0  0.55797  0.32811  0.48015  1.0000
  S   S203      1.0  0.56932  0.29363  0.46744  1.0000
  Fe  Fe105     1.0  0.56528  0.37935  0.47410  1.0000
  S   S204      1.0  0.57410  0.40245  0.44338  1.0000
  C   C860      1.0  0.54217  0.45008  0.46831  1.0000
  S   S205      1.0  0.54140  0.35633  0.46146  1.0000
  C   C861      1.0  0.50006  0.16955  0.27308  1.0000
  C   C862      1.0  0.63850  0.19077  0.39697  1.0000
  Fe  Fe106     1.0  0.57636  0.17035  0.33419  1.0000
  S   S206      1.0  0.56534  0.13799  0.35034  1.0000
  S   S207      1.0  0.59651  0.16200  0.30227  1.0000
  Fe  Fe107     1.0  0.55307  0.19687  0.37176  1.0000
  S   S208      1.0  0.54096  0.16553  0.38982  1.0000
  S   S209      1.0  0.54293  0.23245  0.38225  1.0000
  Fe  Fe108     1.0  0.57294  0.15213  0.38525  1.0000
  S   S210      1.0  0.59028  0.12653  0.40865  1.0000
  Fe  Fe109     1.0  0.53421  0.15364  0.35335  1.0000
  C   C863      1.0  0.69949  0.26630  0.03380  1.0000
  S   S211      1.0  0.58532  0.18398  0.36914  1.0000
  S   S212      1.0  0.54483  0.18553  0.33531  1.0000
  C   C864      1.0  0.64106  0.13268  0.46332  1.0000
  C   C865      1.0  0.63099  0.15210  0.45432  1.0000
  C   C866      1.0  0.61545  0.15058  0.43763  1.0000
  C   C867      1.0  0.60979  0.12957  0.42965  1.0000
  C   C868      1.0  0.62001  0.11017  0.43843  1.0000
  C   C869      1.0  0.63556  0.11168  0.45512  1.0000
  H   H1529     1.0  0.63506  0.16844  0.46055  1.0000
  H   H1530     1.0  0.60763  0.16563  0.43127  1.0000
  H   H1531     1.0  0.61574  0.09382  0.43242  1.0000
  H   H1532     1.0  0.64312  0.09660  0.46181  1.0000
  C   C870      1.0  0.56136  0.27646  0.44412  1.0000
  C   C871      1.0  0.54320  0.28049  0.43227  1.0000
  C   C872      1.0  0.53777  0.26679  0.41352  1.0000
  C   C873      1.0  0.55009  0.24843  0.40681  1.0000
  C   C874      1.0  0.56805  0.24407  0.41902  1.0000
  C   C875      1.0  0.57368  0.25808  0.43744  1.0000
  H   H1533     1.0  0.53314  0.29386  0.43784  1.0000
  H   H1534     1.0  0.52376  0.27023  0.40436  1.0000
  H   H1535     1.0  0.57773  0.23008  0.41406  1.0000
  H   H1536     1.0  0.58767  0.25460  0.44655  1.0000
  C   C876      1.0  0.61371  0.46524  0.44193  1.0000
  C   C877      1.0  0.60151  0.46040  0.42287  1.0000
  C   C878      1.0  0.58929  0.44124  0.42374  1.0000
  C   C879      1.0  0.58888  0.42699  0.44376  1.0000
  C   C880      1.0  0.60049  0.43232  0.46312  1.0000
  C   C881      1.0  0.61299  0.45123  0.46210  1.0000
  H   H1537     1.0  0.60203  0.47093  0.40720  1.0000
  H   H1538     1.0  0.58031  0.43727  0.40869  1.0000
  H   H1539     1.0  0.60034  0.42150  0.47861  1.0000
  H   H1540     1.0  0.62244  0.45480  0.47689  1.0000
  C   C882      1.0  0.67576  0.45887  0.08887  1.0000
  C   C883      1.0  0.67219  0.46277  0.11284  1.0000
  C   C884      1.0  0.68602  0.36209  0.11215  1.0000
  H   H1541     1.0  0.55913  0.08359  0.29958  1.0000
  C   C885      1.0  0.63791  0.19443  0.24554  1.0000
  C   C886      1.0  0.63044  0.20726  0.26429  1.0000
  C   C887      1.0  0.61786  0.19774  0.28182  1.0000
  C   C888      1.0  0.61256  0.17511  0.28091  1.0000
  C   C889      1.0  0.62013  0.16221  0.26227  1.0000
  C   C890      1.0  0.63263  0.17177  0.24468  1.0000
  H   H1542     1.0  0.63440  0.22479  0.26521  1.0000
  H   H1543     1.0  0.61224  0.20794  0.29596  1.0000
  H   H1544     1.0  0.61620  0.14469  0.26132  1.0000
  H   H1545     1.0  0.63821  0.16162  0.23047  1.0000
  C   C891      1.0  0.68916  0.27587  0.10437  1.0000
  C   C892      1.0  0.71019  0.27641  0.10239  1.0000
  C   C893      1.0  0.71942  0.29336  0.08856  1.0000
  C   C894      1.0  0.70781  0.30981  0.07629  1.0000
  C   C895      1.0  0.68676  0.30909  0.07803  1.0000
  C   C896      1.0  0.67754  0.29233  0.09210  1.0000
  H   H1546     1.0  0.71936  0.26392  0.11170  1.0000
  C   C897      1.0  0.62350  0.44642  0.05416  1.0000
  H   H1547     1.0  0.67760  0.32147  0.06857  1.0000
  H   H1548     1.0  0.66127  0.29217  0.09354  1.0000
  C   C898      1.0  0.60485  0.15858  0.07202  1.0000
  C   C899      1.0  0.61708  0.13927  0.06975  1.0000
  C   C900      1.0  0.63328  0.13513  0.08527  1.0000
  C   C901      1.0  0.63757  0.15038  0.10296  1.0000
  C   C902      1.0  0.62521  0.16955  0.10534  1.0000
  C   C903      1.0  0.60891  0.17355  0.08999  1.0000
  H   H1549     1.0  0.61407  0.12757  0.05602  1.0000
  H   H1550     1.0  0.64272  0.12023  0.08332  1.0000
  H   H1551     1.0  0.62820  0.18129  0.11901  1.0000
  H   H1552     1.0  0.59937  0.18837  0.09198  1.0000
  H   H1553     1.0  0.62675  0.24419  0.45580  1.0000
  H   H1554     1.0  0.64531  0.20764  0.39775  1.0000
  H   H1555     1.0  0.72486  0.13269  0.15319  1.0000
  H   H1556     1.0  0.61278  0.25277  0.10862  1.0000
  H   H1557     1.0  0.66480  0.10209  0.39862  1.0000
  H   H1558     1.0  0.50697  0.09635  0.07259  1.0000
  H   H1559     1.0  0.71536  0.01293  0.47286  1.0000
  H   H1560     1.0  0.66047  0.15861  0.28857  1.0000
  N   N49       1.0  0.62147  0.43842  0.02938  1.0000
  C   C904      1.0  0.72766  0.38138  0.10899  1.0000
  C   C905      1.0  0.71768  0.02134  0.48977  1.0000
  C   C906      1.0  0.64124  0.18152  0.37233  1.0000
  H   H1561     1.0  0.63365  0.36769  0.03935  1.0000
  H   H1562     1.0  0.68172  0.15605  0.30802  1.0000
  H   H1563     1.0  0.61905  0.40638  0.01219  1.0000
  H   H1564     1.0  0.69495  0.39367  0.19353  1.0000
  H   H1565     1.0  0.56714  0.48138  0.48908  1.0000
  C   C907      1.0  0.66359  0.35772  0.11869  1.0000
  H   H1566     1.0  0.63869  0.44143  0.06112  1.0000
  H   H1567     1.0  0.63403  0.23741  0.12081  1.0000
  H   H1568     1.0  0.62627  0.11465  0.38432  1.0000
  C   C908      1.0  0.57082  0.20539  0.25239  1.0000
  H   H1569     1.0  0.60717  0.22384  0.01579  1.0000
  C   C909      1.0  0.63514  0.11666  0.36781  1.0000
  H   H1570     1.0  0.61002  0.12786  0.34448  1.0000
  H   H1571     1.0  0.60793  0.37054  0.02931  1.0000
  N   N50       1.0  0.64668  0.13832  0.36820  1.0000
  H   H1572     1.0  0.52919  0.11776  0.20436  1.0000
  H   H1573     1.0  0.70941  0.26546  0.04941  1.0000
  H   H1574     1.0  0.72358  0.34546  0.10612  1.0000
  C   C910      1.0  0.74566  0.07274  0.14598  1.0000
  H   H1575     1.0  0.55627  0.14787  0.29687  1.0000
  N   N51       1.0  0.70138  0.35685  0.13112  1.0000
  H   H1576     1.0  0.56912  0.03573  0.03952  1.0000
  C   C911      1.0  0.62076  0.47214  0.05755  1.0000
  H   H1577     1.0  0.64257  0.25730  0.08362  1.0000
  H   H1578     1.0  0.59559  0.30910  0.37228  1.0000
  C   C912      1.0  0.55224  0.13959  0.28028  1.0000
  C   C913      1.0  0.66855  0.17918  0.06634  1.0000
  H   H1579     1.0  0.53619  0.11587  0.30322  1.0000
  H   H1580     1.0  0.69562  0.49497  0.34180  1.0000
  H   H1581     1.0  0.67335  0.44881  0.12528  1.0000
  H   H1582     1.0  0.64068  0.20576  0.08105  1.0000
  H   H1583     1.0  0.54023  0.14421  0.19513  1.0000
  H   H1584     1.0  0.73571  0.29368  0.08731  1.0000
  C   C914      1.0  0.56325  0.18144  0.24996  1.0000
  N   N52       1.0  0.56614  0.34022  0.39007  1.0000
  C   C915      1.0  0.57793  0.35578  0.37407  1.0000
  C   C916      1.0  0.56320  0.31774  0.37873  1.0000
  C   C917      1.0  0.54555  0.35116  0.39371  1.0000
  C   C918      1.0  0.57595  0.33711  0.41374  1.0000
  C   C919      1.0  0.58257  0.37923  0.38402  1.0000
  C   C920      1.0  0.52917  0.33609  0.40519  1.0000
  C   C921      1.0  0.59425  0.39361  0.36628  1.0000
  C   C922      1.0  0.71839  0.13902  0.10512  1.0000
  H   H1585     1.0  0.56971  0.35846  0.35722  1.0000
  H   H1586     1.0  0.59267  0.34824  0.36896  1.0000
  H   H1587     1.0  0.55923  0.30478  0.39231  1.0000
  H   H1588     1.0  0.55013  0.31876  0.36651  1.0000
  H   H1589     1.0  0.53927  0.35750  0.37668  1.0000
  H   H1590     1.0  0.54670  0.36616  0.40495  1.0000
  H   H1591     1.0  0.57556  0.35323  0.42332  1.0000
  C   C923      1.0  0.69782  0.33320  0.14052  1.0000
  H   H1592     1.0  0.56855  0.38873  0.38845  1.0000
  H   H1593     1.0  0.59199  0.37747  0.39999  1.0000
  H   H1594     1.0  0.53424  0.32938  0.42236  1.0000
  H   H1595     1.0  0.52557  0.32162  0.39411  1.0000
  H   H1596     1.0  0.58528  0.39657  0.35009  1.0000
  H   H1597     1.0  0.59741  0.41017  0.37398  1.0000
  H   H1598     1.0  0.60888  0.38529  0.36179  1.0000
  H   H1599     1.0  0.65252  0.44788  0.02338  1.0000
  H   H1600     1.0  0.57474  0.20857  0.27090  1.0000
  C   C924      1.0  0.54900  0.13235  0.23011  1.0000
  H   H1601     1.0  0.68966  0.35227  0.09623  1.0000
  H   H1602     1.0  0.58465  0.20762  0.24154  1.0000
  H   H1603     1.0  0.69794  0.23054  0.03134  1.0000
  H   H1604     1.0  0.70185  0.14222  0.10427  1.0000
  H   H1605     1.0  0.66117  0.33976  0.12341  1.0000
  S   S213      1.0  0.56976  0.10502  0.02806  1.0000
  H   H1606     1.0  0.51161  0.13705  0.28438  1.0000
  C   C925      1.0  0.66082  0.14013  0.34738  1.0000
  H   H1607     1.0  0.71592  0.10363  0.11058  1.0000
  H   H1608     1.0  0.63750  0.14561  0.31982  1.0000
  H   H1609     1.0  0.68563  0.33336  0.15404  1.0000
  S   S214      1.0  0.58310  0.35065  0.49098  1.0000
  H   H1610     1.0  0.70050  0.28774  0.15242  1.0000
  C   C926      1.0  0.62070  0.11349  0.34698  1.0000
  H   H1611     1.0  0.62233  0.15918  0.35375  1.0000
  H   H1612     1.0  0.51128  0.12602  0.06916  1.0000
  H   H1613     1.0  0.64717  0.30189  0.49602  1.0000
  C   C927      1.0  0.66667  0.14923  0.30407  1.0000
  H   H1614     1.0  0.64836  0.24837  0.47412  1.0000
  C   C928      1.0  0.71857  0.11942  0.19915  1.0000
  C   C929      1.0  0.65880  0.13796  0.39057  1.0000
  H   H1615     1.0  0.57779  0.27288  0.37450  1.0000
  C   C930      1.0  0.71056  0.39309  0.18630  1.0000
  H   H1616     1.0  0.65865  0.36812  0.13361  1.0000
  H   H1617     1.0  0.66831  0.13120  0.29960  1.0000
  C   C931      1.0  0.63189  0.15788  0.36959  1.0000
  H   H1618     1.0  0.62276  0.27962  0.47671  1.0000
  H   H1619     1.0  0.62386  0.32419  0.43655  1.0000
  C   C932      1.0  0.58224  0.43781  0.03313  1.0000
  H   H1620     1.0  0.74653  0.11274  0.43477  1.0000
  H   H1621     1.0  0.69702  0.13591  0.41202  1.0000
  H   H1622     1.0  0.65033  0.17041  0.32757  1.0000
  H   H1623     1.0  0.63353  0.19361  0.36001  1.0000
  H   H1624     1.0  0.66650  0.12309  0.34253  1.0000
  H   H1625     1.0  0.62084  0.15483  0.38405  1.0000
  H   H1626     1.0  0.72308  0.28845  0.16970  1.0000
  H   H1627     1.0  0.57581  0.16987  0.25504  1.0000
  H   H1628     1.0  0.56347  0.46682  0.02239  1.0000
  C   C933      1.0  0.62546  0.41326  0.02849  1.0000
  H   H1629     1.0  0.51172  0.11303  0.09801  1.0000
  H   H1630     1.0  0.55919  0.21792  0.24641  1.0000
  H   H1631     1.0  0.66412  0.48698  0.13940  1.0000
  H   H1632     1.0  0.65150  0.38164  0.09264  1.0000
  H   H1633     1.0  0.61270  0.43801  0.06617  1.0000
  H   H1634     1.0  0.73807  0.05631  0.14821  1.0000
  S   S215      1.0  0.63097  0.48765  0.44113  1.0000
  C   C934      1.0  0.56828  0.00769  0.01578  1.0000
  H   H1635     1.0  0.57333  0.10797  0.30701  1.0000
  H   H1636     1.0  0.60399  0.25972  0.48565  1.0000
  H   H1637     1.0  0.56310  0.14194  0.22963  1.0000
  H   H1638     1.0  0.58163  0.31767  0.34676  1.0000
  C   C935      1.0  0.60117  0.44462  0.01888  1.0000
  H   H1639     1.0  0.72632  0.31436  0.13604  1.0000
  H   H1640     1.0  0.68032  0.15623  0.04011  1.0000
  H   H1641     1.0  0.56264  0.28130  0.34947  1.0000
  H   H1642     1.0  0.54967  0.44259  0.03235  1.0000
  H   H1643     1.0  0.59762  0.30907  0.41118  1.0000
  C   C936      1.0  0.67288  0.24250  0.05406  1.0000
  C   C937      1.0  0.57742  0.28339  0.35816  1.0000
  H   H1644     1.0  0.61782  0.07728  0.35321  1.0000
  H   H1645     1.0  0.62089  0.20310  0.05074  1.0000
  H   H1646     1.0  0.68295  0.11462  0.37876  1.0000
  C   C938      1.0  0.65233  0.15207  0.32488  1.0000
  C   C939      1.0  0.62325  0.23822  0.10601  1.0000
  C   C940      1.0  0.60801  0.09252  0.35085  1.0000
  N   N53       1.0  0.71539  0.09847  0.15984  1.0000
  C   C941      1.0  0.70258  0.08062  0.14920  1.0000
  H   H1647     1.0  0.52555  0.15842  0.23194  1.0000
  C   C942      1.0  0.70624  0.10378  0.18345  1.0000
  C   C943      1.0  0.71529  0.11987  0.14512  1.0000
  C   C944      1.0  0.67343  0.11753  0.39449  1.0000
  C   C945      1.0  0.68050  0.08775  0.14320  1.0000
  H   H1648     1.0  0.58567  0.03843  0.01461  1.0000
  H   H1649     1.0  0.69719  0.10603  0.41825  1.0000
  H   H1650     1.0  0.69224  0.32242  0.12634  1.0000
  C   C946      1.0  0.66907  0.06824  0.13291  1.0000
  H   H1651     1.0  0.63442  0.46846  0.01367  1.0000
  H   H1652     1.0  0.70218  0.06553  0.16113  1.0000
  H   H1653     1.0  0.60900  0.34958  0.44065  1.0000
  H   H1654     1.0  0.64567  0.10190  0.36735  1.0000
  C   C947      1.0  0.54299  0.12804  0.20484  1.0000
  H   H1655     1.0  0.70366  0.08792  0.19374  1.0000
  H   H1656     1.0  0.69119  0.11219  0.18137  1.0000
  H   H1657     1.0  0.69992  0.12781  0.14479  1.0000
  C   C948      1.0  0.67489  0.20141  0.05390  1.0000
  H   H1658     1.0  0.53245  0.18893  0.25695  1.0000
  C   C949      1.0  0.68712  0.24496  0.03247  1.0000
  H   H1659     1.0  0.67200  0.09326  0.15888  1.0000
  H   H1660     1.0  0.68020  0.10165  0.12991  1.0000
  S   S216      1.0  0.51642  0.08875  0.02134  1.0000
  H   H1661     1.0  0.70750  0.10606  0.23263  1.0000
  H   H1662     1.0  0.55098  0.44296  0.48332  1.0000
  H   H1663     1.0  0.54962  0.44515  0.45170  1.0000
  H   H1664     1.0  0.56713  0.32544  0.42509  1.0000
  H   H1665     1.0  0.58954  0.27718  0.34631  1.0000
  H   H1666     1.0  0.66835  0.05392  0.14569  1.0000
  H   H1667     1.0  0.65341  0.07392  0.12865  1.0000
  H   H1668     1.0  0.67647  0.06254  0.11652  1.0000
  C   C950      1.0  0.61818  0.39869  0.04971  1.0000
  C   C951      1.0  0.63193  0.24501  0.47422  1.0000
  H   H1669     1.0  0.71724  0.13415  0.23350  1.0000
  C   C952      1.0  0.68208  0.15941  0.05907  1.0000
  H   H1670     1.0  0.53102  0.47981  0.48495  1.0000
  C   C953      1.0  0.63005  0.20358  0.03446  1.0000
  H   H1671     1.0  0.65281  0.17480  0.06260  1.0000
  H   H1672     1.0  0.69813  0.16284  0.06282  1.0000
  H   H1673     1.0  0.67768  0.14401  0.06907  1.0000
  H   H1674     1.0  0.70923  0.07446  0.13265  1.0000
  C   C954      1.0  0.62022  0.26369  0.48669  1.0000
  H   H1675     1.0  0.68659  0.38011  0.10643  1.0000
  H   H1676     1.0  0.62848  0.40093  0.06473  1.0000
  C   C955      1.0  0.59785  0.32753  0.41382  1.0000
  H   H1677     1.0  0.55541  0.11874  0.19587  1.0000
  H   H1678     1.0  0.55788  0.48794  0.42385  1.0000
  H   H1679     1.0  0.53710  0.10745  0.27335  1.0000
  H   H1680     1.0  0.62954  0.11108  0.33064  1.0000
  C   C956      1.0  0.64968  0.36375  0.09817  1.0000
  H   H1681     1.0  0.69816  0.39132  0.14225  1.0000
  H   H1682     1.0  0.50658  0.04048  0.01278  1.0000
  H   H1683     1.0  0.56662  0.13840  0.27034  1.0000
  C   C957      1.0  0.58078  0.30809  0.36367  1.0000
  H   H1684     1.0  0.60420  0.19389  0.01416  1.0000
  H   H1685     1.0  0.73965  0.11509  0.11962  1.0000
  C   C958      1.0  0.57057  0.03274  0.02046  1.0000
  H   H1686     1.0  0.53225  0.48176  0.45352  1.0000
  H   H1687     1.0  0.58279  0.44354  0.05143  1.0000
  H   H1688     1.0  0.58059  0.41930  0.03296  1.0000
  N   N54       1.0  0.53667  0.15377  0.26723  1.0000
  H   H1689     1.0  0.55345  0.00271  0.02306  1.0000
  H   H1690     1.0  0.63409  0.48115  0.05052  1.0000
  H   H1691     1.0  0.70049  0.30286  0.17953  1.0000
  C   C959      1.0  0.67411  0.47725  0.07314  1.0000
  H   H1692     1.0  0.67679  0.47474  0.05469  1.0000
  H   H1693     1.0  0.62219  0.19260  0.40131  1.0000
  H   H1694     1.0  0.63737  0.18691  0.03181  1.0000
  H   H1695     1.0  0.67847  0.19771  0.03529  1.0000
  H   H1696     1.0  0.66995  0.18090  0.08560  1.0000
  H   H1697     1.0  0.60280  0.40337  0.05557  1.0000
  C   C960      1.0  0.73864  0.01520  0.49922  1.0000
  H   H1698     1.0  0.68964  0.20530  0.06210  1.0000
  H   H1699     1.0  0.71101  0.35755  0.18142  1.0000
  C   C961      1.0  0.66694  0.48449  0.12097  1.0000
  C   C962      1.0  0.71624  0.31970  0.15062  1.0000
  C   C963      1.0  0.69832  0.37394  0.15000  1.0000
  C   C964      1.0  0.64609  0.22215  0.03488  1.0000
  C   C965      1.0  0.56420  0.10033  0.29313  1.0000
  H   H1700     1.0  0.73415  0.35370  0.13264  1.0000
  H   H1701     1.0  0.59819  0.09021  0.33544  1.0000
  N   N55       1.0  0.66045  0.22144  0.05531  1.0000
  H   H1702     1.0  0.65310  0.35275  0.08314  1.0000
  H   H1703     1.0  0.63007  0.33638  0.47923  1.0000
  C   C966      1.0  0.74817  0.01294  0.05901  1.0000
  C   C967      1.0  0.51776  0.15427  0.28218  1.0000
  C   C968      1.0  0.50948  0.34940  0.40903  1.0000
  C   C969      1.0  0.68731  0.12115  0.41532  1.0000
  H   H1704     1.0  0.59817  0.09441  0.36654  1.0000
  H   H1705     1.0  0.63808  0.23878  0.03369  1.0000
  S   S217      1.0  0.66031  0.13587  0.48464  1.0000
  H   H1706     1.0  0.52133  0.15974  0.30020  1.0000
  H   H1707     1.0  0.63372  0.36128  0.10350  1.0000
  C   C970      1.0  0.54409  0.17761  0.26505  1.0000
  H   H1708     1.0  0.60738  0.33549  0.40015  1.0000
  H   H1709     1.0  0.69290  0.12978  0.22078  1.0000
  S   S218      1.0  0.74274  0.17312  0.17936  1.0000
  H   H1710     1.0  0.66304  0.25787  0.05385  1.0000
  C   C971      1.0  0.72205  0.35824  0.12000  1.0000
  H   H1711     1.0  0.71633  0.03976  0.48654  1.0000
  H   H1712     1.0  0.73410  0.11283  0.20239  1.0000
  C   C972      1.0  0.64947  0.22124  0.07856  1.0000
  H   H1713     1.0  0.67460  0.14947  0.35198  1.0000
  H   H1714     1.0  0.62305  0.24259  0.06871  1.0000
  C   C973      1.0  0.63748  0.44999  0.01479  1.0000
  H   H1715     1.0  0.68237  0.24347  0.07007  1.0000
  C   C974      1.0  0.54040  0.47570  0.46939  1.0000
  C   C975      1.0  0.61868  0.47764  0.08348  1.0000
  H   H1716     1.0  0.67828  0.12388  0.43152  1.0000
  H   H1717     1.0  0.61431  0.22263  0.10618  1.0000
  H   H1718     1.0  0.66807  0.15328  0.39153  1.0000
  H   H1719     1.0  0.66058  0.22069  0.09314  1.0000
  H   H1720     1.0  0.57378  0.09798  0.27732  1.0000
  H   H1721     1.0  0.55975  0.17922  0.23118  1.0000
  H   H1722     1.0  0.74187  0.10126  0.40637  1.0000
  C   C976      1.0  0.63451  0.24120  0.08276  1.0000
  C   C977      1.0  0.56309  0.44814  0.02218  1.0000
  H   H1723     1.0  0.68320  0.37214  0.15825  1.0000
  H   H1724     1.0  0.57218  0.47809  0.45910  1.0000
  C   C978      1.0  0.53166  0.14461  0.24354  1.0000
  H   H1725     1.0  0.64852  0.13840  0.40608  1.0000
  H   H1726     1.0  0.60004  0.32277  0.45163  1.0000
  C   C979      1.0  0.56148  0.48644  0.47142  1.0000
  C   C980      1.0  0.60825  0.33130  0.43712  1.0000
  C   C981      1.0  0.61544  0.20752  0.01410  1.0000
  C   C982      1.0  0.73680  0.08973  0.16378  1.0000
  H   H1727     1.0  0.54690  0.18425  0.28281  1.0000
  H   H1728     1.0  0.65455  0.34203  0.49105  1.0000
  H   H1729     1.0  0.52691  0.44270  0.46876  1.0000
  S   S219      1.0  0.50890  0.13089  0.33919  1.0000
  H   H1730     1.0  0.72565  0.15375  0.11282  1.0000
  H   H1731     1.0  0.71719  0.38644  0.09469  1.0000
  H   H1732     1.0  0.65457  0.22077  0.01812  1.0000
  H   H1733     1.0  0.55258  0.11578  0.23856  1.0000
  H   H1734     1.0  0.74367  0.07862  0.12763  1.0000
  C   C983      1.0  0.61823  0.37367  0.04410  1.0000
  H   H1735     1.0  0.61310  0.36376  0.05966  1.0000
  H   H1736     1.0  0.68947  0.28148  0.03476  1.0000
  Fe  Fe110     1.0  0.54157  0.11125  0.00671  1.0000
  C   C984      1.0  0.70835  0.12244  0.22296  1.0000
  H   H1737     1.0  0.51926  0.13226  0.24512  1.0000
  S   S220      1.0  0.68873  0.41714  0.00808  1.0000
  H   H1738     1.0  0.64200  0.40956  0.02729  1.0000
  H   H1739     1.0  0.71473  0.49483  0.08257  1.0000
  Fe  Fe111     1.0  0.52521  0.36345  0.49531  1.0000
  H   H1740     1.0  0.71963  0.13629  0.19086  1.0000
  H   H1741     1.0  0.60007  0.46304  0.01499  1.0000
  H   H1742     1.0  0.60427  0.47119  0.09071  1.0000
  H   H1743     1.0  0.72427  0.13703  0.08703  1.0000
  H   H1744     1.0  0.73800  0.08066  0.18104  1.0000
  H   H1745     1.0  0.60847  0.30673  0.49839  1.0000
  H   H1746     1.0  0.67835  0.24610  0.01602  1.0000
  H   H1747     1.0  0.71346  0.40904  0.17642  1.0000
  H   H1748     1.0  0.63139  0.47002  0.09367  1.0000
  H   H1749     1.0  0.72733  0.39465  0.12234  1.0000
  H   H1750     1.0  0.62927  0.22842  0.48296  1.0000
  H   H1751     1.0  0.55875  0.04301  0.01120  1.0000
  C   C985      1.0  0.50427  0.11298  0.08065  1.0000
  H   H1752     1.0  0.50322  0.35565  0.39204  1.0000
  H   H1753     1.0  0.70920  0.26804  0.01798  1.0000
  C   C986      1.0  0.63895  0.33691  0.49558  1.0000
  H   H1754     1.0  0.74469  0.01247  0.07807  1.0000
  H   H1755     1.0  0.50363  0.18758  0.27502  1.0000
  H   H1756     1.0  0.51197  0.36392  0.42051  1.0000
  H   H1757     1.0  0.73406  0.01059  0.04900  1.0000
  H   H1758     1.0  0.72130  0.39170  0.20115  1.0000
  H   H1759     1.0  0.72936  0.37300  0.16417  1.0000
  H   H1760     1.0  0.70570  0.01593  0.50224  1.0000
  H   H1761     1.0  0.74736  0.10406  0.16481  1.0000
  S   S221      1.0  0.69370  0.07762  0.50428  1.0000
  H   H1762     1.0  0.59488  0.49814  0.49934  1.0000
  H   H1763     1.0  0.61882  0.49617  0.08564  1.0000
  H   H1764     1.0  0.58051  0.99848  0.02534  1.0000
  C   C987      1.0  0.60568  0.06714  0.88471  1.0000
  S   S222      1.0  0.55770  0.10515  0.97240  1.0000
  H   H1765     1.0  0.63640  0.10177  0.91145  1.0000
  Fe  Fe112     1.0  0.56431  0.14256  0.97168  1.0000
  S   S223      1.0  0.56641  0.16146  0.93608  1.0000
  H   H1766     1.0  0.64149  0.00783  0.95333  1.0000
  H   H1767     1.0  0.50669  0.28332  0.93972  1.0000
  S   S224      1.0  0.64613  0.37219  0.98893  1.0000
  C   C988      1.0  0.50665  0.44191  0.52470  1.0000
  Fe  Fe113     1.0  0.56279  0.29005  0.87615  1.0000
  S   S225      1.0  0.55723  0.32619  0.88635  1.0000
  S   S226      1.0  0.55422  0.26574  0.90653  1.0000
  Fe  Fe114     1.0  0.57872  0.30502  0.82718  1.0000
  S   S227      1.0  0.57368  0.34178  0.83487  1.0000
  S   S228      1.0  0.58990  0.29030  0.79200  1.0000
  Fe  Fe115     1.0  0.58748  0.33323  0.87035  1.0000
  S   S229      1.0  0.61309  0.35416  0.88550  1.0000
  Fe  Fe116     1.0  0.54339  0.33190  0.85047  1.0000
  S   S230      1.0  0.54823  0.38793  0.50713  1.0000
  S   S231      1.0  0.59391  0.29686  0.86187  1.0000
  S   S232      1.0  0.54762  0.29544  0.84104  1.0000
  C   C989      1.0  0.50845  0.32563  0.92020  1.0000
  C   C990      1.0  0.61793  0.30608  0.51446  1.0000
  Fe  Fe117     1.0  0.56419  0.35714  0.52304  1.0000
  S   S233      1.0  0.57408  0.35268  0.56113  1.0000
  H   H1768     1.0  0.73208  0.10110  0.59454  1.0000
  Fe  Fe118     1.0  0.68339  0.26400  0.64124  1.0000
  S   S234      1.0  0.70026  0.28951  0.61977  1.0000
  S   S235      1.0  0.67483  0.23050  0.62457  1.0000
  Fe  Fe119     1.0  0.67321  0.29897  0.67948  1.0000
  S   S236      1.0  0.68984  0.32648  0.65948  1.0000
  S   S237      1.0  0.65855  0.31103  0.71410  1.0000
  Fe  Fe120     1.0  0.67459  0.31331  0.62753  1.0000
  S   S238      1.0  0.66412  0.33438  0.59597  1.0000
  Fe  Fe121     1.0  0.71445  0.30068  0.65322  1.0000
  Fe  Fe122     1.0  0.58584  0.10104  0.99370  1.0000
  S   S239      1.0  0.65672  0.28762  0.64748  1.0000
  S   S240      1.0  0.69883  0.27347  0.67487  1.0000
  H   H1769     1.0  0.74575  0.41935  0.65730  1.0000
  H   H1770     1.0  0.62504  0.19653  0.94878  1.0000
  Fe  Fe123     1.0  0.69276  0.07603  0.54397  1.0000
  S   S241      1.0  0.72440  0.08893  0.54665  1.0000
  S   S242      1.0  0.68995  0.04465  0.56874  1.0000
  Fe  Fe124     1.0  0.71025  0.12383  0.54707  1.0000
  S   S243      1.0  0.72081  0.14797  0.57525  1.0000
  H   H1771     1.0  0.58934  0.28811  0.92005  1.0000
  S   S244      1.0  0.67871  0.11100  0.54613  1.0000
  C   C991      1.0  0.60828  0.09289  0.88080  1.0000
  C   C992      1.0  0.67530  0.02430  0.58481  1.0000
  C   C993      1.0  0.65415  0.02472  0.58490  1.0000
  H   H1772     1.0  0.64611  0.03762  0.57485  1.0000
  H   H1773     1.0  0.56705  0.09311  0.88245  1.0000
  C   C994      1.0  0.68823  0.20808  0.61061  1.0000
  C   C995      1.0  0.67948  0.19777  0.59127  1.0000
  C   C996      1.0  0.68909  0.17930  0.58031  1.0000
  C   C997      1.0  0.70756  0.17072  0.58872  1.0000
  C   C998      1.0  0.71606  0.18065  0.60842  1.0000
  C   C999      1.0  0.70643  0.19909  0.61935  1.0000
  H   H1774     1.0  0.66516  0.20416  0.58464  1.0000
  H   H1775     1.0  0.68226  0.17181  0.56527  1.0000
  H   H1776     1.0  0.73018  0.17399  0.61533  1.0000
  H   H1777     1.0  0.71286  0.20602  0.63487  1.0000
  C   C1000     1.0  0.59920  0.34640  0.56984  1.0000
  C   C1001     1.0  0.60272  0.33428  0.59090  1.0000
  C   C1002     1.0  0.62255  0.32996  0.59889  1.0000
  C   C1003     1.0  0.63899  0.33814  0.58608  1.0000
  C   C1004     1.0  0.63545  0.35006  0.56492  1.0000
  C   C1005     1.0  0.61566  0.35413  0.55680  1.0000
  H   H1778     1.0  0.59004  0.32826  0.60108  1.0000
  H   H1779     1.0  0.62515  0.32059  0.61506  1.0000
  H   H1780     1.0  0.64808  0.35653  0.55495  1.0000
  H   H1781     1.0  0.61309  0.36386  0.54083  1.0000
  C   C1006     1.0  0.60959  0.29609  0.77102  1.0000
  C   C1007     1.0  0.61268  0.28138  0.75221  1.0000
  C   C1008     1.0  0.62769  0.28539  0.73491  1.0000
  C   C1009     1.0  0.63983  0.30436  0.73596  1.0000
  C   C1010     1.0  0.63674  0.31907  0.75475  1.0000
  C   C1011     1.0  0.62182  0.31498  0.77214  1.0000
  H   H1782     1.0  0.60339  0.26670  0.75105  1.0000
  H   H1783     1.0  0.62984  0.27379  0.72077  1.0000
  H   H1784     1.0  0.64597  0.33380  0.75591  1.0000
  H   H1785     1.0  0.61973  0.32654  0.78635  1.0000
  C   C1012     1.0  0.63764  0.36655  0.96000  1.0000
  C   C1013     1.0  0.64970  0.36995  0.94008  1.0000
  C   C1014     1.0  0.64196  0.36599  0.91754  1.0000
  C   C1015     1.0  0.62217  0.35837  0.91450  1.0000
  C   C1016     1.0  0.61017  0.35483  0.93443  1.0000
  C   C1017     1.0  0.61785  0.35886  0.95697  1.0000
  H   H1786     1.0  0.66490  0.37594  0.94198  1.0000
  H   H1787     1.0  0.65138  0.36896  0.90229  1.0000
  H   H1788     1.0  0.59478  0.34957  0.93237  1.0000
  H   H1789     1.0  0.60828  0.35634  0.97216  1.0000
  C   C1018     1.0  0.56348  0.19068  0.92849  1.0000
  C   C1019     1.0  0.56892  0.19823  0.90578  1.0000
  C   C1020     1.0  0.56653  0.22111  0.89880  1.0000
  C   C1021     1.0  0.55830  0.23673  0.91434  1.0000
  C   C1022     1.0  0.55295  0.22920  0.93706  1.0000
  C   C1023     1.0  0.55566  0.20642  0.94417  1.0000
  H   H1790     1.0  0.57496  0.18627  0.89345  1.0000
  H   H1791     1.0  0.57072  0.22656  0.88126  1.0000
  H   H1792     1.0  0.54651  0.24105  0.94925  1.0000
  H   H1793     1.0  0.55134  0.20094  0.96165  1.0000
  C   C1024     1.0  0.61073  0.05177  0.96990  1.0000
  C   C1025     1.0  0.59560  0.04972  0.95320  1.0000
  C   C1026     1.0  0.59732  0.03302  0.93614  1.0000
  C   C1027     1.0  0.61392  0.01788  0.93598  1.0000
  C   C1028     1.0  0.62867  0.01941  0.95323  1.0000
  C   C1029     1.0  0.62713  0.03640  0.96999  1.0000
  H   H1794     1.0  0.58260  0.06099  0.95349  1.0000
  H   H1795     1.0  0.58570  0.03174  0.92305  1.0000
  H   H1796     1.0  0.64238  0.09234  0.96022  1.0000
  H   H1797     1.0  0.63884  0.03776  0.98298  1.0000
  H   H1798     1.0  0.52281  0.32203  0.92964  1.0000
  H   H1799     1.0  0.65727  0.44959  0.95774  1.0000
  H   H1800     1.0  0.55148  0.29682  0.55892  1.0000
  H   H1801     1.0  0.63057  0.28167  0.59904  1.0000
  H   H1802     1.0  0.72861  0.23386  0.65880  1.0000
  C   C1030     1.0  0.58464  0.10305  0.91314  1.0000
  H   H1803     1.0  0.50505  0.43031  0.54010  1.0000
  C   C1031     1.0  0.60851  0.05456  0.86186  1.0000
  C   C1032     1.0  0.71075  0.25530  0.57017  1.0000
  H   H1804     1.0  0.65319  0.31943  0.88734  1.0000
  H   H1805     1.0  0.53363  0.10281  0.89742  1.0000
  H   H1806     1.0  0.64887  0.31540  0.52384  1.0000
  C   C1033     1.0  0.59471  0.27758  0.52951  1.0000
  H   H1807     1.0  0.61134  0.31936  0.52573  1.0000
  C   C1034     1.0  0.63993  0.44196  0.98917  1.0000
  H   H1808     1.0  0.49894  0.25255  0.88315  1.0000
  H   H1809     1.0  0.73829  0.26568  0.62040  1.0000
  H   H1810     1.0  0.56518  0.01307  0.60547  1.0000
  C   C1035     1.0  0.68532  0.00719  0.59807  1.0000
  H   H1811     1.0  0.74414  0.44958  0.65448  1.0000
  C   C1036     1.0  0.56050  0.28473  0.54838  1.0000
  S   S245      1.0  0.71342  0.12797  0.50785  1.0000
  C   C1037     1.0  0.62115  0.10105  0.91969  1.0000
  H   H1812     1.0  0.51772  0.45503  0.52874  1.0000
  C   C1038     1.0  0.58188  0.29342  0.54513  1.0000
  C   C1039     1.0  0.64331  0.00823  0.59780  1.0000
  H   H1813     1.0  0.61952  0.17565  0.89453  1.0000
  H   H1814     1.0  0.64739  0.17070  0.66589  1.0000
  H   H1815     1.0  0.56077  0.26812  0.55768  1.0000
  H   H1816     1.0  0.65381  0.30241  0.99162  1.0000
  H   H1817     1.0  0.71475  0.12176  0.62502  1.0000
  H   H1818     1.0  0.72888  0.01907  0.53472  1.0000
  H   H1819     1.0  0.50927  0.36093  0.92921  1.0000
  H   H1820     1.0  0.73090  0.28026  0.58307  1.0000
  H   H1821     1.0  0.59814  0.09864  0.86629  1.0000
  H   H1822     1.0  0.55427  0.00815  0.94298  1.0000
  H   H1823     1.0  0.62387  0.05723  0.85455  1.0000
  C   C1040     1.0  0.74490  0.23748  0.65666  1.0000
  H   H1824     1.0  0.54657  0.08536  0.91906  1.0000
  C   C1041     1.0  0.50372  0.26623  0.87094  1.0000
  H   H1825     1.0  0.64058  0.17141  0.87488  1.0000
  H   H1826     1.0  0.65266  0.26878  0.58578  1.0000
  H   H1827     1.0  0.60109  0.20816  0.95817  1.0000
  H   H1828     1.0  0.64561  0.42427  0.98884  1.0000
  H   H1829     1.0  0.55303  0.01278  0.63401  1.0000
  N   N56       1.0  0.61666  0.28338  0.52667  1.0000
  C   C1042     1.0  0.61354  0.20999  0.94518  1.0000
  H   H1830     1.0  0.70485  0.27690  0.53945  1.0000
  H   H1831     1.0  0.60117  0.30912  0.93619  1.0000
  C   C1043     1.0  0.62538  0.16535  0.87988  1.0000
  H   H1832     1.0  0.65661  0.28902  0.95087  1.0000
  H   H1833     1.0  0.62343  0.30143  0.96535  1.0000
  H   H1834     1.0  0.63311  0.13097  0.87241  1.0000
  C   C1044     1.0  0.72790  0.09184  0.61087  1.0000
  H   H1835     1.0  0.61984  0.26999  0.90408  1.0000
  H   H1836     1.0  0.58189  0.11494  0.92765  1.0000
  C   C1045     1.0  0.74272  0.02864  0.57442  1.0000
  C   C1046     1.0  0.56468  0.30964  0.95391  1.0000
  C   C1047     1.0  0.62449  0.26391  0.56689  1.0000
  H   H1837     1.0  0.73960  0.04354  0.52264  1.0000
  H   H1838     1.0  0.63514  0.23385  0.93317  1.0000
  H   H1839     1.0  0.63457  0.25165  0.60110  1.0000
  H   H1840     1.0  0.72341  0.24214  0.61536  1.0000
  C   C1048     1.0  0.65487  0.45653  0.97546  1.0000
  H   H1841     1.0  0.64190  0.26756  0.92114  1.0000
  C   C1049     1.0  0.74677  0.03228  0.60035  1.0000
  H   H1842     1.0  0.58631  0.29040  0.97422  1.0000
  H   H1843     1.0  0.67196  0.15852  0.67207  1.0000
  H   H1844     1.0  0.58266  0.01169  0.98175  1.0000
  H   H1845     1.0  0.58850  0.29507  0.56276  1.0000
  H   H1846     1.0  0.61967  0.13338  0.93857  1.0000
  H   H1847     1.0  0.59314  0.25996  0.53622  1.0000
  H   H1848     1.0  0.51985  0.29730  0.90097  1.0000
  C   C1050     1.0  0.65682  0.28433  0.98804  1.0000
  H   H1849     1.0  0.62436  0.24844  0.52079  1.0000
  H   H1850     1.0  0.56538  0.12272  0.88841  1.0000
  H   H1851     1.0  0.63781  0.31200  0.92628  1.0000
  H   H1852     1.0  0.59966  0.14265  0.90857  1.0000
  H   H1853     1.0  0.64602  0.29214  0.87759  1.0000
  H   H1854     1.0  0.58709  0.27802  0.51222  1.0000
  H   H1855     1.0  0.62193  0.29986  0.55951  1.0000
  H   H1856     1.0  0.61997  0.31005  0.90293  1.0000
  H   H1857     1.0  0.59044  0.06321  0.89155  1.0000
  H   H1858     1.0  0.60843  0.26166  0.57182  1.0000
  S   S246      1.0  0.51398  0.35425  0.84698  1.0000
  H   H1859     1.0  0.74125  0.09120  0.62254  1.0000
  N   N57       1.0  0.60497  0.10714  0.90207  1.0000
  H   H1860     1.0  0.73218  0.03330  0.61000  1.0000
  C   C1051     1.0  0.56623  0.10561  0.89655  1.0000
  H   H1861     1.0  0.59778  0.24825  0.92785  1.0000
  H   H1862     1.0  0.65269  0.26066  0.96068  1.0000
  H   H1863     1.0  0.61704  0.06010  0.89719  1.0000
  N   N58       1.0  0.67147  0.10853  0.62182  1.0000
  C   C1052     1.0  0.69059  0.10304  0.60848  1.0000
  C   C1053     1.0  0.65404  0.11046  0.60489  1.0000
  C   C1054     1.0  0.67415  0.13147  0.63224  1.0000
  C   C1055     1.0  0.66715  0.09150  0.64122  1.0000
  C   C1056     1.0  0.67381  0.06661  0.63686  1.0000
  C   C1057     1.0  0.71035  0.10395  0.62296  1.0000
  C   C1058     1.0  0.65541  0.14212  0.64443  1.0000
  C   C1059     1.0  0.64811  0.08873  0.59241  1.0000
  C   C1060     1.0  0.63126  0.09348  0.57467  1.0000
  C   C1061     1.0  0.66378  0.05034  0.65420  1.0000
  H   H1864     1.0  0.59564  0.13508  0.87939  1.0000
  H   H1865     1.0  0.61523  0.16777  0.86457  1.0000
  H   H1866     1.0  0.69240  0.11514  0.59350  1.0000
  H   H1867     1.0  0.68990  0.08638  0.60022  1.0000
  H   H1868     1.0  0.64001  0.11590  0.61403  1.0000
  H   H1869     1.0  0.65712  0.12375  0.59129  1.0000
  H   H1870     1.0  0.67921  0.14378  0.61846  1.0000
  H   H1871     1.0  0.68633  0.13073  0.64558  1.0000
  H   H1872     1.0  0.67466  0.09617  0.65776  1.0000
  H   H1873     1.0  0.65073  0.09184  0.64551  1.0000
  H   H1874     1.0  0.69037  0.06447  0.63893  1.0000
  H   H1875     1.0  0.67024  0.06104  0.61908  1.0000
  H   H1876     1.0  0.59688  0.25043  0.95883  1.0000
  H   H1877     1.0  0.70845  0.09637  0.64071  1.0000
  H   H1878     1.0  0.64839  0.12997  0.65689  1.0000
  H   H1879     1.0  0.64404  0.14777  0.63124  1.0000
  H   H1880     1.0  0.66103  0.08111  0.58292  1.0000
  H   H1881     1.0  0.64214  0.07628  0.60532  1.0000
  H   H1882     1.0  0.62765  0.07771  0.56565  1.0000
  H   H1883     1.0  0.61739  0.09977  0.58360  1.0000
  H   H1884     1.0  0.63596  0.10612  0.56121  1.0000
  H   H1885     1.0  0.64713  0.05087  0.65193  1.0000
  H   H1886     1.0  0.66925  0.03288  0.65091  1.0000
  H   H1887     1.0  0.66752  0.05456  0.67249  1.0000
  H   H1888     1.0  0.61846  0.27487  0.97855  1.0000
  H   H1889     1.0  0.57119  0.27431  0.95479  1.0000
  C   C1062     1.0  0.54645  0.10203  0.90986  1.0000
  H   H1890     1.0  0.73416  0.01297  0.57309  1.0000
  C   C1063     1.0  0.62313  0.23311  0.94670  1.0000
  H   H1891     1.0  0.70162  0.00658  0.59831  1.0000
  N   N59       1.0  0.60334  0.34108  0.67789  1.0000
  C   C1064     1.0  0.59598  0.34997  0.65444  1.0000
  C   C1065     1.0  0.61012  0.31688  0.67519  1.0000
  C   C1066     1.0  0.58637  0.34314  0.69546  1.0000
  C   C1067     1.0  0.62101  0.35424  0.68636  1.0000
  C   C1068     1.0  0.63877  0.35704  0.66877  1.0000
  C   C1069     1.0  0.59034  0.37540  0.65288  1.0000
  C   C1070     1.0  0.59072  0.33283  0.72018  1.0000
  C   C1071     1.0  0.59327  0.29982  0.67049  1.0000
  C   C1072     1.0  0.60218  0.27622  0.66692  1.0000
  C   C1073     1.0  0.65575  0.37035  0.67950  1.0000
  C   C1074     1.0  0.58521  0.38256  0.62767  1.0000
  C   C1075     1.0  0.57216  0.33463  0.73606  1.0000
  H   H1892     1.0  0.58228  0.34098  0.64904  1.0000
  H   H1893     1.0  0.60737  0.34642  0.64061  1.0000
  H   H1894     1.0  0.62105  0.31551  0.66045  1.0000
  H   H1895     1.0  0.61867  0.31072  0.69085  1.0000
  H   H1896     1.0  0.57238  0.33562  0.68865  1.0000
  H   H1897     1.0  0.58240  0.36117  0.69817  1.0000
  H   H1898     1.0  0.61601  0.37126  0.69205  1.0000
  H   H1899     1.0  0.62757  0.34598  0.70235  1.0000
  H   H1900     1.0  0.63395  0.36622  0.65257  1.0000
  H   H1901     1.0  0.64515  0.34042  0.66383  1.0000
  H   H1902     1.0  0.57691  0.37914  0.66392  1.0000
  H   H1903     1.0  0.60289  0.38599  0.65859  1.0000
  H   H1904     1.0  0.60310  0.34181  0.72874  1.0000
  H   H1905     1.0  0.59505  0.31478  0.71935  1.0000
  H   H1906     1.0  0.58257  0.29873  0.68545  1.0000
  H   H1907     1.0  0.58467  0.30460  0.65450  1.0000
  H   H1908     1.0  0.58983  0.26415  0.66456  1.0000
  H   H1909     1.0  0.61194  0.27597  0.65105  1.0000
  H   H1910     1.0  0.61122  0.27058  0.68238  1.0000
  H   H1911     1.0  0.65017  0.38723  0.68481  1.0000
  H   H1912     1.0  0.66208  0.36111  0.69503  1.0000
  H   H1913     1.0  0.66805  0.37263  0.66642  1.0000
  H   H1914     1.0  0.59852  0.38006  0.61600  1.0000
  H   H1915     1.0  0.57250  0.37266  0.62099  1.0000
  H   H1916     1.0  0.58075  0.40067  0.62693  1.0000
  H   H1917     1.0  0.57583  0.32738  0.75367  1.0000
  H   H1918     1.0  0.56742  0.35251  0.73813  1.0000
  H   H1919     1.0  0.55948  0.32508  0.72883  1.0000
  C   C1076     1.0  0.50749  0.30996  0.89874  1.0000
  C   C1077     1.0  0.50433  0.25639  0.84644  1.0000
  C   C1078     1.0  0.63631  0.26676  0.58952  1.0000
  H   H1920     1.0  0.57216  0.32588  0.95682  1.0000
  H   H1921     1.0  0.50326  0.24474  0.95507  1.0000
  H   H1922     1.0  0.63881  0.11932  0.97346  1.0000
  H   H1923     1.0  0.74451  0.35393  0.65388  1.0000
  H   H1924     1.0  0.70286  0.25135  0.58685  1.0000
  H   H1925     1.0  0.72380  0.07439  0.60665  1.0000
  C   C1079     1.0  0.62700  0.28457  0.55009  1.0000
  C   C1080     1.0  0.60577  0.13165  0.89457  1.0000
  C   C1081     1.0  0.64012  0.11065  0.95648  1.0000
  H   H1926     1.0  0.60788  0.11003  0.95328  1.0000
  H   H1927     1.0  0.55791  0.30993  0.93618  1.0000
  H   H1928     1.0  0.64353  0.28658  0.54762  1.0000
  C   C1082     1.0  0.65032  0.30181  0.89316  1.0000
  H   H1929     1.0  0.55239  0.30766  0.96704  1.0000
  H   H1930     1.0  0.68261  0.26661  0.55418  1.0000
  H   H1931     1.0  0.69666  0.28881  0.56690  1.0000
  H   H1932     1.0  0.67341  0.28131  0.98836  1.0000
  C   C1083     1.0  0.69802  0.27306  0.55685  1.0000
  H   H1933     1.0  0.73930  0.26771  0.55707  1.0000
  H   H1934     1.0  0.62999  0.23411  0.96429  1.0000
  H   H1935     1.0  0.66441  0.29450  0.90082  1.0000
  C   C1084     1.0  0.74179  0.02491  0.52395  1.0000
  C   C1085     1.0  0.56757  0.01027  0.62456  1.0000
  H   H1936     1.0  0.63021  0.24828  0.55872  1.0000
  H   H1937     1.0  0.59705  0.06025  0.84879  1.0000
  H   H1938     1.0  0.58054  0.31038  0.53673  1.0000
  H   H1939     1.0  0.66967  0.45678  0.98444  1.0000
  H   H1940     1.0  0.54403  0.11551  0.92282  1.0000
  H   H1941     1.0  0.64890  0.47406  0.97347  1.0000
  H   H1942     1.0  0.74647  0.38125  0.86689  1.0000
  H   H1943     1.0  0.66798  0.17575  0.64587  1.0000
  N   N60       1.0  0.61470  0.27589  0.94091  1.0000
  C   C1086     1.0  0.62769  0.27754  0.91916  1.0000
  C   C1087     1.0  0.60708  0.25217  0.94341  1.0000
  C   C1088     1.0  0.59650  0.29129  0.93723  1.0000
  C   C1089     1.0  0.62546  0.28295  0.96279  1.0000
  C   C1090     1.0  0.64860  0.27842  0.96403  1.0000
  C   C1091     1.0  0.63329  0.30174  0.91127  1.0000
  C   C1092     1.0  0.57981  0.29002  0.95640  1.0000
  H   H1944     1.0  0.71096  0.23989  0.55958  1.0000
  H   H1945     1.0  0.57836  0.02294  0.63063  1.0000
  H   H1946     1.0  0.58427  0.08609  0.92164  1.0000
  H   H1947     1.0  0.62383  0.09510  0.87380  1.0000
  H   H1948     1.0  0.60744  0.20759  0.92736  1.0000
  H   H1949     1.0  0.51926  0.27114  0.87519  1.0000
  C   C1093     1.0  0.66111  0.16301  0.65788  1.0000
  H   H1950     1.0  0.51211  0.31960  0.88271  1.0000
  Fe  Fe125     1.0  0.72495  0.09200  0.50740  1.0000
  H   H1951     1.0  0.63758  0.13909  0.90210  1.0000
  H   H1952     1.0  0.52134  0.35465  0.90180  1.0000
  H   H1953     1.0  0.56144  0.44266  0.00382  1.0000
  C   C1094     1.0  0.62700  0.26528  0.51259  1.0000
  H   H1954     1.0  0.64980  0.27382  0.00206  1.0000
  H   H1955     1.0  0.50667  0.03403  0.98199  1.0000
  C   C1095     1.0  0.62093  0.11503  0.94224  1.0000
  H   H1956     1.0  0.73984  0.43231  0.62929  1.0000
  H   H1957     1.0  0.60675  0.03621  0.86532  1.0000
  C   C1096     1.0  0.62680  0.14049  0.88733  1.0000
  H   H1958     1.0  0.62548  0.44297  0.97954  1.0000
  H   H1959     1.0  0.61972  0.08327  0.92590  1.0000
  H   H1960     1.0  0.73084  0.19383  0.54755  1.0000
  H   H1961     1.0  0.65348  0.11711  0.94686  1.0000
  C   C1097     1.0  0.73249  0.26370  0.57448  1.0000
  S   S247      1.0  0.59366  0.13774  0.99095  1.0000
  H   H1962     1.0  0.73288  0.04274  0.56796  1.0000
  S   S248      1.0  0.60995  0.07335  0.99077  1.0000
  H   H1963     1.0  0.55304  0.28313  0.53112  1.0000
  C   C1098     1.0  0.73911  0.24819  0.61388  1.0000
  C   C1099     1.0  0.50823  0.35069  0.91326  1.0000
  H   H1964     1.0  0.64367  0.26720  0.51281  1.0000
  C   C1100     1.0  0.63952  0.31385  0.50794  1.0000
  S   S249      1.0  0.70709  0.36557  0.99984  1.0000
  S   S250      1.0  0.74326  0.41901  0.98189  1.0000
  H   H1965     1.0  0.73034  0.21726  0.58314  1.0000
  H   H1966     1.0  0.51255  0.43193  0.50985  1.0000
  S   S251      1.0  0.54591  0.14897  0.00446  1.0000
  Fe  Fe126     1.0  0.68212  0.11355  0.50666  1.0000
  H   H1967     1.0  0.51554  0.24225  0.84602  1.0000
  C   C1101     1.0  0.74723  0.19732  0.54634  1.0000
  S   S252      1.0  0.53988  0.33316  0.51318  1.0000
  H   H1968     1.0  0.50887  0.26933  0.83319  1.0000
  C   C1102     1.0  0.56916  0.00324  0.98924  1.0000
  H   H1969     1.0  0.51011  0.26331  0.91720  1.0000
  H   H1970     1.0  0.74268  0.23294  0.54215  1.0000
  C   C1103     1.0  0.49871  0.27120  0.92875  1.0000
  H   H1971     1.0  0.55613  0.01272  0.98144  1.0000
  H   H1972     1.0  0.52326  0.01890  0.00200  1.0000
  C   C1104     1.0  0.50804  0.02673  0.00001  1.0000
  H   H1973     1.0  0.62369  0.20721  0.99716  1.0000
  H   H1974     1.0  0.59948  0.43669  0.00158  1.0000
  H   H1975     1.0  0.63215  0.34980  0.50713  1.0000
  C   C1105     1.0  0.74552  0.22436  0.58002  1.0000
  N   N61       1.0  0.74618  0.24809  0.58871  1.0000
  H   H1976     1.0  0.62699  0.00876  0.59752  1.0000
  H   H1977     1.0  0.74747  0.25515  0.66158  1.0000
  Fe  Fe127     1.0  0.71976  0.40025  0.00486  1.0000
  Fe  Fe128     1.0  0.67646  0.38208  0.00511  1.0000
  Fe  Fe129     1.0  0.66344  0.55878  0.41545  1.0000
  S   S253      1.0  0.65551  0.53048  0.39165  1.0000
  S   S254      1.0  0.69598  0.57180  0.41791  1.0000
  Fe  Fe130     1.0  0.61796  0.56845  0.42684  1.0000
  S   S255      1.0  0.60722  0.54118  0.40374  1.0000
  S   S256      1.0  0.59913  0.58892  0.45260  1.0000
  Fe  Fe131     1.0  0.63267  0.52024  0.41940  1.0000
  Fe  Fe132     1.0  0.63071  0.55359  0.37752  1.0000
  S   S257      1.0  0.62276  0.56431  0.33947  1.0000
  S   S258      1.0  0.64233  0.54714  0.44372  1.0000
  S   S259      1.0  0.63967  0.58241  0.40013  1.0000
  C   C1106     1.0  0.74133  0.57743  0.47931  1.0000
  Fe  Fe133     1.0  0.65025  0.55288  0.14633  1.0000
  S   S260      1.0  0.64389  0.58973  0.13740  1.0000
  S   S261      1.0  0.65750  0.53061  0.11416  1.0000
  Fe  Fe134     1.0  0.64906  0.56302  0.19946  1.0000
  S   S262      1.0  0.64332  0.60010  0.19312  1.0000
  S   S263      1.0  0.65504  0.54561  0.23537  1.0000
  Fe  Fe135     1.0  0.62036  0.58975  0.16612  1.0000
  S   S264      1.0  0.58935  0.60924  0.16789  1.0000
  Fe  Fe136     1.0  0.66713  0.59748  0.16476  1.0000
  S   S265      1.0  0.69100  0.62346  0.15345  1.0000
  S   S266      1.0  0.62526  0.55235  0.17374  1.0000
  S   S267      1.0  0.67418  0.56092  0.17248  1.0000
  H   H1978     1.0  0.71388  0.57940  0.16525  1.0000
  C   C1107     1.0  0.71608  0.63014  0.16217  1.0000
  C   C1108     1.0  0.72442  0.62258  0.18348  1.0000
  H   H1979     1.0  0.67396  0.64720  0.49527  1.0000
  C   C1109     1.0  0.72790  0.64378  0.14721  1.0000
  H   H1980     1.0  0.71554  0.61232  0.19534  1.0000
  C   C1110     1.0  0.67829  0.63047  0.50279  1.0000
  H   H1981     1.0  0.72165  0.64988  0.13075  1.0000
  C   C1111     1.0  0.52809  0.62964  0.13188  1.0000
  C   C1112     1.0  0.53357  0.63832  0.15353  1.0000
  C   C1113     1.0  0.55240  0.63229  0.16388  1.0000
  C   C1114     1.0  0.56618  0.61727  0.15304  1.0000
  C   C1115     1.0  0.56076  0.60875  0.13131  1.0000
  C   C1116     1.0  0.54198  0.61490  0.12089  1.0000
  H   H1982     1.0  0.52320  0.64948  0.16248  1.0000
  H   H1983     1.0  0.55623  0.63918  0.18058  1.0000
  H   H1984     1.0  0.57098  0.59721  0.12258  1.0000
  H   H1985     1.0  0.53811  0.60799  0.10418  1.0000
  C   C1117     1.0  0.57250  0.59274  0.45079  1.0000
  C   C1118     1.0  0.56219  0.60451  0.46847  1.0000
  C   C1119     1.0  0.54101  0.60751  0.46787  1.0000
  C   C1120     1.0  0.52989  0.59871  0.44957  1.0000
  C   C1121     1.0  0.54025  0.58706  0.43183  1.0000
  C   C1122     1.0  0.56142  0.58410  0.43240  1.0000
  H   H1986     1.0  0.57060  0.61132  0.48275  1.0000
  H   H1987     1.0  0.53326  0.61655  0.48160  1.0000
  H   H1988     1.0  0.53181  0.58027  0.41755  1.0000
  H   H1989     1.0  0.56914  0.57517  0.41859  1.0000
  C   C1123     1.0  0.63323  0.55936  0.31110  1.0000
  C   C1124     1.0  0.64424  0.53974  0.30588  1.0000
  C   C1125     1.0  0.65103  0.53598  0.28275  1.0000
  C   C1126     1.0  0.64697  0.55175  0.26448  1.0000
  C   C1127     1.0  0.63654  0.57166  0.26986  1.0000
  C   C1128     1.0  0.62955  0.57532  0.29292  1.0000
  H   H1990     1.0  0.64699  0.52714  0.31949  1.0000
  H   H1991     1.0  0.65914  0.52052  0.27886  1.0000
  H   H1992     1.0  0.63399  0.58423  0.25620  1.0000
  H   H1993     1.0  0.62126  0.59068  0.29673  1.0000
  C   C1129     1.0  0.71347  0.57307  0.44169  1.0000
  C   C1130     1.0  0.73082  0.58628  0.43910  1.0000
  C   C1131     1.0  0.66869  0.49894  0.08125  1.0000
  H   H1994     1.0  0.67675  0.64368  0.41485  1.0000
  C   C1132     1.0  0.71040  0.56169  0.46309  1.0000
  H   H1995     1.0  0.73351  0.59510  0.42265  1.0000
  H   H1996     1.0  0.58483  0.96414  0.01221  1.0000
  H   H1997     1.0  0.69760  0.55085  0.46520  1.0000
  C   C1133     1.0  0.53012  0.58464  0.19405  1.0000
  C   C1134     1.0  0.55399  0.51888  0.44420  1.0000
  H   H1998     1.0  0.51954  0.73645  0.13776  1.0000
  H   H1999     1.0  0.55280  0.61613  0.29757  1.0000
  H   H2000     1.0  0.53041  0.58524  0.23144  1.0000
  H   H2001     1.0  0.72294  0.58297  0.37424  1.0000
  H   H2002     1.0  0.56828  0.60187  0.31936  1.0000
  H   H2003     1.0  0.58954  0.54570  0.21027  1.0000
  H   H2004     1.0  0.55218  0.68389  0.12915  1.0000
  H   H2005     1.0  0.55926  0.68339  0.09907  1.0000
  H   H2006     1.0  0.51316  0.72477  0.17963  1.0000
  C   C1135     1.0  0.72050  0.57462  0.33684  1.0000
  C   C1136     1.0  0.54094  0.58957  0.21690  1.0000
  H   H2007     1.0  0.66151  0.59982  0.32538  1.0000
  H   H2008     1.0  0.67257  0.51044  0.34754  1.0000
  C   C1137     1.0  0.55544  0.51610  0.39993  1.0000
  H   H2009     1.0  0.53281  0.65409  0.07762  1.0000
  H   H2010     1.0  0.51651  0.59576  0.19217  1.0000
  H   H2011     1.0  0.69063  0.55341  0.36456  1.0000
  C   C1138     1.0  0.69272  0.57544  0.30860  1.0000
  H   H2012     1.0  0.52625  0.66184  0.04789  1.0000
  H   H2013     1.0  0.55720  0.53695  0.44068  1.0000
  H   H2014     1.0  0.67668  0.64615  0.45744  1.0000
  H   H2015     1.0  0.55177  0.72862  0.12365  1.0000
  H   H2016     1.0  0.72647  0.59118  0.33096  1.0000
  H   H2017     1.0  0.50664  0.65851  0.06958  1.0000
  H   H2018     1.0  0.61077  0.63632  0.24116  1.0000
  C   C1139     1.0  0.59791  0.54686  0.22694  1.0000
  C   C1140     1.0  0.54769  0.71669  0.10976  1.0000
  H   H2019     1.0  0.59540  0.55961  0.26139  1.0000
  C   C1141     1.0  0.58110  0.69771  0.12143  1.0000
  H   H2020     1.0  0.69346  0.51130  0.36790  1.0000
  H   H2021     1.0  0.60601  0.62978  0.50525  1.0000
  H   H2022     1.0  0.64295  0.62336  0.35355  1.0000
  H   H2023     1.0  0.69580  0.62480  0.42705  1.0000
  H   H2024     1.0  0.65793  0.58550  0.35309  1.0000
  H   H2025     1.0  0.55035  0.57322  0.26516  1.0000
  C   C1142     1.0  0.58265  0.62121  0.23024  1.0000
  H   H2026     1.0  0.73994  0.99657  0.49975  1.0000
  H   H2027     1.0  0.72780  0.56223  0.32500  1.0000
  H   H2028     1.0  0.57367  0.54491  0.25271  1.0000
  H   H2029     1.0  0.66673  0.63570  0.34552  1.0000
  H   H2030     1.0  0.64544  0.57087  0.49698  1.0000
  H   H2031     1.0  0.60863  0.63378  0.47390  1.0000
  C   C1143     1.0  0.69767  0.53100  0.33564  1.0000
  C   C1144     1.0  0.67317  0.59009  0.50373  1.0000
  H   H2032     1.0  0.61149  0.55711  0.22365  1.0000
  H   H2033     1.0  0.55593  0.55760  0.21925  1.0000
  H   H2034     1.0  0.55651  0.93991  0.01228  1.0000
  H   H2035     1.0  0.57426  0.62752  0.24566  1.0000
  C   C1145     1.0  0.69170  0.59633  0.26938  1.0000
  H   H2036     1.0  0.56026  0.53385  0.39805  1.0000
  H   H2037     1.0  0.74010  0.88900  0.05375  1.0000
  H   H2038     1.0  0.73648  0.59673  0.12954  1.0000
  C   C1146     1.0  0.67928  0.62814  0.42567  1.0000
  C   C1147     1.0  0.67330  0.60983  0.46562  1.0000
  C   C1148     1.0  0.59007  0.59657  0.23398  1.0000
  C   C1149     1.0  0.60040  0.63684  0.22594  1.0000
  H   H2039     1.0  0.70248  0.58583  0.12925  1.0000
  H   H2040     1.0  0.66377  0.62143  0.37367  1.0000
  H   H2041     1.0  0.56950  0.57776  0.20257  1.0000
  H   H2042     1.0  0.69174  0.59290  0.36601  1.0000
  H   H2043     1.0  0.50876  0.69544  0.18614  1.0000
  H   H2044     1.0  0.67647  0.60394  0.10281  1.0000
  H   H2045     1.0  0.59211  0.51170  0.23595  1.0000
  H   H2046     1.0  0.52601  0.73278  0.07327  1.0000
  H   H2047     1.0  0.65346  0.63415  0.44728  1.0000
  H   H2048     1.0  0.69950  0.58197  0.26079  1.0000
  H   H2049     1.0  0.52329  0.67946  0.10912  1.0000
  C   C1150     1.0  0.65961  0.62130  0.35488  1.0000
  C   C1151     1.0  0.73048  0.90388  0.05807  1.0000
  C   C1152     1.0  0.52372  0.68931  0.07222  1.0000
  C   C1153     1.0  0.51802  0.73438  0.09035  1.0000
  C   C1154     1.0  0.51461  0.72027  0.13050  1.0000
  H   H2050     1.0  0.67222  0.61396  0.41671  1.0000
  H   H2051     1.0  0.70086  0.56169  0.29932  1.0000
  H   H2052     1.0  0.62441  0.51713  0.48221  1.0000
  C   C1155     1.0  0.66987  0.63110  0.44991  1.0000
  N   N62       1.0  0.56182  0.51168  0.46804  1.0000
  H   H2053     1.0  0.61352  0.52323  0.25079  1.0000
  H   H2054     1.0  0.50941  0.76331  0.11172  1.0000
  C   C1156     1.0  0.72771  0.56868  0.16576  1.0000
  C   C1157     1.0  0.68920  0.59474  0.34681  1.0000
  H   H2055     1.0  0.53873  0.51557  0.39881  1.0000
  N   N63       1.0  0.52496  0.71595  0.10735  1.0000
  H   H2056     1.0  0.53929  0.69474  0.06815  1.0000
  H   H2057     1.0  0.71425  0.60064  0.29560  1.0000
  C   C1158     1.0  0.66622  0.59909  0.34397  1.0000
  C   C1159     1.0  0.56170  0.58636  0.26109  1.0000
  H   H2058     1.0  0.67645  0.57204  0.30592  1.0000
  H   H2059     1.0  0.57296  0.62266  0.21458  1.0000
  C   C1160     1.0  0.74770  0.64981  0.15338  1.0000
  H   H2060     1.0  0.68969  0.61225  0.30256  1.0000
  H   H2061     1.0  0.53619  0.76098  0.10587  1.0000
  H   H2062     1.0  0.58466  0.53726  0.46426  1.0000
  H   H2063     1.0  0.66478  0.59627  0.45721  1.0000
  C   C1161     1.0  0.68904  0.55354  0.34515  1.0000
  C   C1162     1.0  0.74467  0.58841  0.45770  1.0000
  C   C1163     1.0  0.50693  0.70908  0.17265  1.0000
  H   H2064     1.0  0.60891  0.63190  0.20998  1.0000
  H   H2065     1.0  0.60195  0.59643  0.24759  1.0000
  C   C1164     1.0  0.67946  0.59031  0.09017  1.0000
  C   C1165     1.0  0.51811  0.70243  0.15027  1.0000
  H   H2066     1.0  0.72141  0.55524  0.49822  1.0000
  C   C1166     1.0  0.61431  0.52618  0.49456  1.0000
  H   H2067     1.0  0.69465  0.55909  0.12116  1.0000
  H   H2068     1.0  0.50121  0.69317  0.09939  1.0000
  C   C1167     1.0  0.74419  0.62867  0.18968  1.0000
  H   H2069     1.0  0.67246  0.55330  0.34219  1.0000
  H   H2070     1.0  0.59470  0.65439  0.22320  1.0000
  H   H2071     1.0  0.59811  0.59189  0.21757  1.0000
  H   H2072     1.0  0.50342  0.77410  0.06968  1.0000
  H   H2073     1.0  0.58192  0.70731  0.13784  1.0000
  H   H2074     1.0  0.52532  0.56685  0.19394  1.0000
  H   H2075     1.0  0.70652  0.66516  0.50351  1.0000
  C   C1168     1.0  0.59324  0.51624  0.49441  1.0000
  C   C1169     1.0  0.74324  0.92224  0.06857  1.0000
  H   H2076     1.0  0.71880  0.89846  0.07089  1.0000
  H   H2077     1.0  0.66726  0.51287  0.06881  1.0000
  S   S268      1.0  0.50432  0.63648  0.11778  1.0000
  H   H2078     1.0  0.71094  0.59656  0.08776  1.0000
  C   C1170     1.0  0.69781  0.59756  0.29510  1.0000
  H   H2079     1.0  0.62117  0.96054  0.02007  1.0000
  H   H2080     1.0  0.53430  0.70112  0.15483  1.0000
  C   C1171     1.0  0.72821  0.55235  0.14494  1.0000
  H   H2081     1.0  0.68937  0.60439  0.46411  1.0000
  H   H2082     1.0  0.57944  0.50575  0.42306  1.0000
  H   H2083     1.0  0.58906  0.70699  0.10715  1.0000
  C   C1172     1.0  0.71788  0.52603  0.10103  1.0000
  C   C1173     1.0  0.57349  0.59045  0.28401  1.0000
  C   C1174     1.0  0.52097  0.75888  0.09832  1.0000
  H   H2084     1.0  0.69584  0.61211  0.25990  1.0000
  C   C1175     1.0  0.72547  0.50890  0.08330  1.0000
  C   C1176     1.0  0.68926  0.51076  0.34912  1.0000
  C   C1177     1.0  0.55951  0.59957  0.30308  1.0000
  N   N64       1.0  0.69784  0.57459  0.33434  1.0000
  C   C1178     1.0  0.55913  0.69395  0.11484  1.0000
  H   H2085     1.0  0.69720  0.61031  0.34137  1.0000
  H   H2086     1.0  0.53036  0.77302  0.06444  1.0000
  H   H2087     1.0  0.70373  0.56911  0.07845  1.0000
  H   H2088     1.0  0.51563  0.96443  0.01932  1.0000
  H   H2089     1.0  0.67513  0.59431  0.26788  1.0000
  H   H2090     1.0  0.55266  0.96593  0.02722  1.0000
  H   H2091     1.0  0.58558  0.60284  0.28108  1.0000
  C   C1179     1.0  0.51791  0.69391  0.09809  1.0000
  H   H2092     1.0  0.54363  0.60785  0.21723  1.0000
  H   H2093     1.0  0.58038  0.57456  0.29110  1.0000
  H   H2094     1.0  0.54355  0.55584  0.47054  1.0000
  H   H2095     1.0  0.55278  0.60198  0.25721  1.0000
  N   N65       1.0  0.57421  0.57953  0.24015  1.0000
  N   N66       1.0  0.72716  0.56321  0.12079  1.0000
  C   C1180     1.0  0.56084  0.57544  0.21922  1.0000
  C   C1181     1.0  0.58486  0.55754  0.24657  1.0000
  H   H2096     1.0  0.66047  0.53316  0.50503  1.0000
  H   H2097     1.0  0.54725  0.58757  0.30705  1.0000
  H   H2098     1.0  0.72279  0.91020  0.04189  1.0000
  C   C1182     1.0  0.72408  0.56406  0.48176  1.0000
  S   S269      1.0  0.50313  0.60119  0.44831  1.0000
  C   C1183     1.0  0.58336  0.51926  0.46992  1.0000
  H   H2099     1.0  0.50164  0.73268  0.08641  1.0000
  H   H2100     1.0  0.58893  0.68118  0.12436  1.0000
  H   H2101     1.0  0.73465  0.55369  0.08532  1.0000
  H   H2102     1.0  0.53724  0.51798  0.44350  1.0000
  H   H2103     1.0  0.64234  0.65023  0.47920  1.0000
  H   H2104     1.0  0.51325  0.69887  0.06033  1.0000
  H   H2105     1.0  0.67652  0.59717  0.07224  1.0000
  H   H2106     1.0  0.70278  0.53215  0.09514  1.0000
  C   C1184     1.0  0.70134  0.58196  0.09200  1.0000
  H   H2107     1.0  0.66896  0.57630  0.09369  1.0000
  H   H2108     1.0  0.71603  0.51700  0.11809  1.0000
  C   C1185     1.0  0.51844  0.77575  0.07789  1.0000
  H   H2109     1.0  0.69355  0.52919  0.31698  1.0000
  H   H2110     1.0  0.71509  0.54443  0.19089  1.0000
  H   H2111     1.0  0.71535  0.54078  0.14770  1.0000
  C   C1186     1.0  0.72868  0.57008  0.36201  1.0000
  H   H2112     1.0  0.54012  0.58779  0.17872  1.0000
  C   C1187     1.0  0.70596  0.57219  0.11689  1.0000
  C   C1188     1.0  0.52553  0.94922  0.01803  1.0000
  C   C1189     1.0  0.52225  0.66441  0.06655  1.0000
  H   H2113     1.0  0.72725  0.56797  0.20371  1.0000
  H   H2114     1.0  0.72654  0.51685  0.06556  1.0000
  C   C1190     1.0  0.66494  0.50280  0.10521  1.0000
  H   H2115     1.0  0.55472  0.72372  0.09348  1.0000
  H   H2116     1.0  0.56205  0.50649  0.38520  1.0000
  H   H2117     1.0  0.70738  0.62846  0.48354  1.0000
  H   H2118     1.0  0.61543  0.51643  0.22032  1.0000
  C   C1191     1.0  0.72813  0.55582  0.18923  1.0000
  C   C1192     1.0  0.54886  0.54828  0.48735  1.0000
  C   C1193     1.0  0.54850  0.52224  0.48644  1.0000
  H   H2119     1.0  0.55214  0.51513  0.50415  1.0000
  H   H2120     1.0  0.60731  0.65778  0.49254  1.0000
  C   C1194     1.0  0.56273  0.50570  0.42317  1.0000
  C   C1195     1.0  0.54729  0.95575  0.01262  1.0000
  C   C1196     1.0  0.73277  0.54575  0.10302  1.0000
  H   H2121     1.0  0.74780  0.53805  0.10724  1.0000
  H   H2122     1.0  0.51959  0.79316  0.08433  1.0000
  H   H2123     1.0  0.51899  0.55269  0.50302  1.0000
  H   H2124     1.0  0.51258  0.68577  0.14514  1.0000
  H   H2125     1.0  0.66645  0.56474  0.47798  1.0000
  C   C1197     1.0  0.61312  0.64020  0.49120  1.0000
  H   H2126     1.0  0.73294  0.93628  0.07359  1.0000
  N   N67       1.0  0.66729  0.61182  0.49102  1.0000
  H   H2127     1.0  0.63675  0.60599  0.47925  1.0000
  C   C1198     1.0  0.66209  0.56875  0.49611  1.0000
  H   H2128     1.0  0.71432  0.52989  0.33712  1.0000
  H   H2129     1.0  0.61364  0.54436  0.48956  1.0000
  C   C1199     1.0  0.60511  0.52309  0.23402  1.0000
  C   C1200     1.0  0.64461  0.61508  0.49334  1.0000
  C   C1201     1.0  0.70176  0.62899  0.50186  1.0000
  H   H2130     1.0  0.52494  0.93970  0.03497  1.0000
  C   C1202     1.0  0.63610  0.63962  0.49353  1.0000
  H   H2131     1.0  0.72427  0.55329  0.36893  1.0000
  H   H2132     1.0  0.74089  0.57987  0.16544  1.0000
  H   H2133     1.0  0.59325  0.50990  0.45756  1.0000
  H   H2134     1.0  0.53246  0.51792  0.48352  1.0000
  H   H2135     1.0  0.68949  0.58614  0.50126  1.0000
  H   H2136     1.0  0.74310  0.96855  0.04615  1.0000
  H   H2137     1.0  0.74198  0.54143  0.14681  1.0000
  H   H2138     1.0  0.74046  0.50182  0.08850  1.0000
  C   C1203     1.0  0.74153  0.58251  0.11837  1.0000
  H   H2139     1.0  0.74133  0.58965  0.10023  1.0000
  H   H2140     1.0  0.74237  0.54577  0.19104  1.0000
  H   H2141     1.0  0.56423  0.55441  0.49080  1.0000
  S   S270      1.0  0.51464  0.90483  0.96643  1.0000
  Fe  Fe137     1.0  0.64431  0.92601  0.88064  1.0000
  S   S271      1.0  0.65621  0.90391  0.91043  1.0000
  S   S272      1.0  0.63886  0.90951  0.84507  1.0000
  Fe  Fe138     1.0  0.63443  0.96495  0.91449  1.0000
  S   S273      1.0  0.64565  0.94546  0.94624  1.0000
  H   H2142     1.0  0.74351  0.94381  0.55312  1.0000
  Fe  Fe139     1.0  0.67191  0.93451  0.92337  1.0000
  S   S274      1.0  0.70565  0.93558  0.93356  1.0000
  Fe  Fe140     1.0  0.62924  0.91634  0.93109  1.0000
  S   S275      1.0  0.60969  0.89210  0.95230  1.0000
  S   S276      1.0  0.66158  0.95617  0.89206  1.0000
  S   S277      1.0  0.61656  0.93629  0.90094  1.0000
  C   C1204     1.0  0.52011  0.86074  0.91420  1.0000
  Fe  Fe141     1.0  0.64554  0.93850  0.64961  1.0000
  S   S278      1.0  0.64356  0.90318  0.63596  1.0000
  S   S279      1.0  0.63860  0.97030  0.62642  1.0000
  Fe  Fe142     1.0  0.65082  0.92012  0.70113  1.0000
  S   S280      1.0  0.64924  0.88392  0.69021  1.0000
  S   S281      1.0  0.65844  0.93437  0.73722  1.0000
  Fe  Fe143     1.0  0.66978  0.89428  0.66024  1.0000
  S   S282      1.0  0.69947  0.87841  0.64611  1.0000
  Fe  Fe144     1.0  0.62306  0.89546  0.66682  1.0000
  S   S283      1.0  0.59141  0.87891  0.66884  1.0000
  S   S284      1.0  0.67244  0.93000  0.67210  1.0000
  S   S285      1.0  0.62397  0.93119  0.67951  1.0000
  C   C1205     1.0  0.72008  0.86058  0.65568  1.0000
  C   C1206     1.0  0.71874  0.84595  0.67516  1.0000
  H   H2143     1.0  0.54864  0.93152  0.66793  1.0000
  C   C1207     1.0  0.73826  0.86068  0.64273  1.0000
  H   H2144     1.0  0.70476  0.84519  0.68497  1.0000
  H   H2145     1.0  0.66316  0.55096  0.52994  1.0000
  H   H2146     1.0  0.73949  0.87175  0.62751  1.0000
  C   C1208     1.0  0.53399  0.85335  0.63118  1.0000
  C   C1209     1.0  0.53412  0.85697  0.65535  1.0000
  C   C1210     1.0  0.55175  0.86465  0.66642  1.0000
  C   C1211     1.0  0.56962  0.86899  0.65367  1.0000
  C   C1212     1.0  0.56953  0.86521  0.62953  1.0000
  C   C1213     1.0  0.55192  0.85752  0.61846  1.0000
  H   H2147     1.0  0.52063  0.85388  0.66557  1.0000
  H   H2148     1.0  0.55149  0.86732  0.68509  1.0000
  H   H2149     1.0  0.58312  0.86794  0.61941  1.0000
  H   H2150     1.0  0.55223  0.85467  0.59982  1.0000
  C   C1214     1.0  0.64403  0.91717  0.81517  1.0000
  C   C1215     1.0  0.65392  0.93696  0.80866  1.0000
  C   C1216     1.0  0.65803  0.94194  0.78478  1.0000
  C   C1217     1.0  0.65213  0.92742  0.76699  1.0000
  C   C1218     1.0  0.64208  0.90773  0.77348  1.0000
  C   C1219     1.0  0.63816  0.90264  0.79737  1.0000
  H   H2151     1.0  0.65856  0.94834  0.82203  1.0000
  H   H2152     1.0  0.66582  0.95721  0.78006  1.0000
  H   H2153     1.0  0.63744  0.89634  0.76012  1.0000
  H   H2154     1.0  0.63050  0.88728  0.80211  1.0000
  C   C1220     1.0  0.72149  0.92194  0.95515  1.0000
  C   C1221     1.0  0.58620  0.96533  0.99288  1.0000
  H   H2155     1.0  0.57148  0.99062  0.90868  1.0000
  H   H2156     1.0  0.50705  0.78407  0.55359  1.0000
  C   C1222     1.0  0.71450  0.90548  0.97096  1.0000
  C   C1223     1.0  0.57622  0.98663  0.62954  1.0000
  C   C1224     1.0  0.70559  0.90885  0.80476  1.0000
  H   H2157     1.0  0.55959  0.81744  0.83152  1.0000
  H   H2158     1.0  0.69689  0.91503  0.75984  1.0000
  C   C1225     1.0  0.71548  0.89573  0.78492  1.0000
  C   C1226     1.0  0.57107  0.94003  0.69272  1.0000
  S   S286      1.0  0.61566  0.99771  0.91366  1.0000
  H   H2159     1.0  0.57905  0.98513  0.64864  1.0000
  H   H2160     1.0  0.53904  0.98357  0.94672  1.0000
  C   C1227     1.0  0.55673  0.98451  0.91531  1.0000
  H   H2161     1.0  0.54494  0.95544  0.97561  1.0000
  C   C1228     1.0  0.51237  0.79573  0.56705  1.0000
  C   C1229     1.0  0.54080  0.89994  0.96144  1.0000
  C   C1230     1.0  0.55115  0.88110  0.97080  1.0000
  C   C1231     1.0  0.57224  0.87885  0.96780  1.0000
  C   C1232     1.0  0.58314  0.89524  0.95523  1.0000
  C   C1233     1.0  0.57271  0.91370  0.94527  1.0000
  C   C1234     1.0  0.55168  0.91611  0.94849  1.0000
  H   H2162     1.0  0.54299  0.86854  0.98083  1.0000
  H   H2163     1.0  0.58018  0.86442  0.97547  1.0000
  H   H2164     1.0  0.58092  0.92604  0.93507  1.0000
  H   H2165     1.0  0.54376  0.93055  0.94086  1.0000
  H   H2166     1.0  0.71136  0.92626  0.80521  1.0000
  H   H2167     1.0  0.74406  0.88331  0.70230  1.0000
  C   C1235     1.0  0.65332  0.99093  0.61082  1.0000
  C   C1236     1.0  0.69601  0.77075  0.65062  1.0000
  H   H2168     1.0  0.55555  0.83594  0.86937  1.0000
  H   H2169     1.0  0.70872  0.87884  0.78511  1.0000
  H   H2170     1.0  0.74765  0.94033  0.94396  1.0000
  H   H2171     1.0  0.62084  0.52435  0.51238  1.0000
  C   C1237     1.0  0.59383  0.91606  0.60449  1.0000
  C   C1238     1.0  0.55139  0.78179  0.62911  1.0000
  H   H2172     1.0  0.54421  0.80922  0.65268  1.0000
  C   C1239     1.0  0.55697  0.79748  0.64879  1.0000
  H   H2173     1.0  0.59093  0.98527  0.62025  1.0000
  H   H2174     1.0  0.65572  0.85721  0.74207  1.0000
  H   H2175     1.0  0.51442  0.91521  0.60382  1.0000
  C   C1240     1.0  0.70604  0.87377  0.73862  1.0000
  H   H2176     1.0  0.56092  0.78766  0.66496  1.0000
  C   C1241     1.0  0.53488  0.55708  0.50659  1.0000
  H   H2177     1.0  0.73946  0.72602  0.62912  1.0000
  H   H2178     1.0  0.69882  0.90079  0.97055  1.0000
  H   H2179     1.0  0.61676  0.89712  0.58560  1.0000
  C   C1242     1.0  0.56148  0.96836  0.62150  1.0000
  H   H2180     1.0  0.53874  0.93276  0.63109  1.0000
  H   H2181     1.0  0.70107  0.78039  0.66590  1.0000
  H   H2182     1.0  0.57323  0.96063  0.95038  1.0000
  H   H2183     1.0  0.51982  0.78114  0.63949  1.0000
  H   H2184     1.0  0.72202  0.92360  0.76184  1.0000
  C   C1243     1.0  0.57137  0.97832  0.95598  1.0000
  H   H2185     1.0  0.63988  0.64746  0.51039  1.0000
  H   H2186     1.0  0.72437  0.78016  0.61592  1.0000
  H   H2187     1.0  0.69777  0.91685  0.71953  1.0000
  N   N68       1.0  0.52507  0.75220  0.61756  1.0000
  H   H2188     1.0  0.60581  0.92048  0.56906  1.0000
  H   H2189     1.0  0.52740  0.86935  0.87860  1.0000
  H   H2190     1.0  0.72090  0.89985  0.88485  1.0000
  H   H2191     1.0  0.53568  0.57571  0.50709  1.0000
  H   H2192     1.0  0.53660  0.94660  0.59010  1.0000
  H   H2193     1.0  0.70633  0.65052  0.53173  1.0000
  H   H2194     1.0  0.51275  0.71479  0.64713  1.0000
  H   H2195     1.0  0.53220  0.71808  0.58284  1.0000
  H   H2196     1.0  0.58430  0.52482  0.50814  1.0000
  H   H2197     1.0  0.57017  0.80766  0.64343  1.0000
  S   S287      1.0  0.51212  0.84378  0.61589  1.0000
  H   H2198     1.0  0.50294  0.81137  0.56614  1.0000
  H   H2199     1.0  0.58241  0.94770  0.58957  1.0000
  H   H2200     1.0  0.71912  0.89053  0.91494  1.0000
  H   H2201     1.0  0.59039  0.94918  0.65207  1.0000
  H   H2202     1.0  0.55537  0.92629  0.58101  1.0000
  H   H2203     1.0  0.58535  0.98682  0.95026  1.0000
  C   C1244     1.0  0.74020  0.88856  0.74051  1.0000
  C   C1245     1.0  0.53398  0.71273  0.60145  1.0000
  H   H2204     1.0  0.72900  0.94016  0.72836  1.0000
  C   C1246     1.0  0.52699  0.91239  0.59120  1.0000
  H   H2205     1.0  0.54690  0.97087  0.63095  1.0000
  C   C1247     1.0  0.60773  0.97401  0.98772  1.0000
  C   C1248     1.0  0.71270  0.90833  0.76100  1.0000
  H   H2206     1.0  0.53513  0.75973  0.65246  1.0000
  H   H2207     1.0  0.54926  0.79241  0.61306  1.0000
  H   H2208     1.0  0.58330  0.95242  0.84849  1.0000
  H   H2209     1.0  0.54347  0.72618  0.63467  1.0000
  C   C1249     1.0  0.57657  0.93947  0.64868  1.0000
  H   H2210     1.0  0.51715  0.75129  0.58089  1.0000
  H   H2211     1.0  0.51554  0.79760  0.60415  1.0000
  C   C1250     1.0  0.54007  0.73280  0.61671  1.0000
  C   C1251     1.0  0.68299  0.87670  0.74251  1.0000
  H   H2212     1.0  0.70748  0.74655  0.62632  1.0000
  H   H2213     1.0  0.55613  0.91108  0.62412  1.0000
  H   H2214     1.0  0.74218  0.85801  0.71992  1.0000
  H   H2215     1.0  0.57689  0.94975  0.87905  1.0000
  C   C1252     1.0  0.73082  0.77151  0.63180  1.0000
  H   H2216     1.0  0.67467  0.84826  0.72134  1.0000
  H   H2217     1.0  0.55800  0.97233  0.60280  1.0000
  H   H2218     1.0  0.73411  0.82069  0.69674  1.0000
  H   H2219     1.0  0.59950  0.90890  0.62134  1.0000
  H   H2220     1.0  0.56440  0.77014  0.62624  1.0000
  H   H2221     1.0  0.57754  0.92267  0.69453  1.0000
  H   H2222     1.0  0.73179  0.89369  0.78899  1.0000
  H   H2223     1.0  0.73492  0.98298  0.54167  1.0000
  C   C1253     1.0  0.72042  0.94395  0.69244  1.0000
  H   H2224     1.0  0.67080  0.59179  0.52296  1.0000
  H   H2225     1.0  0.71876  0.93374  0.67652  1.0000
  H   H2226     1.0  0.58170  0.90519  0.59821  1.0000
  C   C1254     1.0  0.58627  0.94073  0.60728  1.0000
  H   H2227     1.0  0.67656  0.88925  0.72989  1.0000
  H   H2228     1.0  0.58570  0.94761  0.98682  1.0000
  C   C1255     1.0  0.67220  0.85451  0.73934  1.0000
  H   H2229     1.0  0.74381  0.75390  0.67643  1.0000
  H   H2230     1.0  0.70811  0.86587  0.72127  1.0000
  H   H2231     1.0  0.59964  0.95030  0.61277  1.0000
  C   C1256     1.0  0.55412  0.98959  0.94127  1.0000
  C   C1257     1.0  0.51077  0.78497  0.59154  1.0000
  C   C1258     1.0  0.56117  0.94357  0.66879  1.0000
  H   H2232     1.0  0.73318  0.78507  0.64467  1.0000
  C   C1259     1.0  0.61109  0.91478  0.58667  1.0000
  C   C1260     1.0  0.53203  0.76863  0.63547  1.0000
  H   H2233     1.0  0.74340  0.87764  0.75617  1.0000
  N   N69       1.0  0.71809  0.89500  0.73959  1.0000
  H   H2234     1.0  0.67770  0.84161  0.75228  1.0000
  H   H2235     1.0  0.71178  0.86085  0.75147  1.0000
  H   H2236     1.0  0.71284  0.89910  0.70207  1.0000
  H   H2237     1.0  0.69013  0.78274  0.63695  1.0000
  H   H2238     1.0  0.58147  0.92159  0.65057  1.0000
  C   C1261     1.0  0.72782  0.89502  0.98738  1.0000
  H   H2239     1.0  0.55593  0.96611  0.91252  1.0000
  H   H2240     1.0  0.52822  0.80032  0.56314  1.0000
  N   N70       1.0  0.56878  0.88002  0.88055  1.0000
  C   C1262     1.0  0.55526  0.87076  0.89972  1.0000
  C   C1263     1.0  0.59078  0.87666  0.88719  1.0000
  C   C1264     1.0  0.56452  0.90506  0.87837  1.0000
  C   C1265     1.0  0.56464  0.86990  0.85711  1.0000
  C   C1266     1.0  0.56543  0.84392  0.85600  1.0000
  C   C1267     1.0  0.53220  0.87445  0.89622  1.0000
  C   C1268     1.0  0.57767  0.91816  0.86024  1.0000
  C   C1269     1.0  0.59657  0.85509  0.90171  1.0000
  C   C1270     1.0  0.61945  0.85166  0.90292  1.0000
  C   C1271     1.0  0.55845  0.83609  0.83211  1.0000
  H   H2241     1.0  0.55963  0.94239  0.70678  1.0000
  C   C1272     1.0  0.57350  0.94350  0.86136  1.0000
  H   H2242     1.0  0.55913  0.87839  0.91668  1.0000
  H   H2243     1.0  0.55794  0.85247  0.90268  1.0000
  H   H2244     1.0  0.60061  0.87729  0.87128  1.0000
  H   H2245     1.0  0.59587  0.89077  0.89814  1.0000
  H   H2246     1.0  0.56632  0.91297  0.89572  1.0000
  H   H2247     1.0  0.54862  0.90854  0.87308  1.0000
  H   H2248     1.0  0.54975  0.87597  0.85029  1.0000
  H   H2249     1.0  0.57583  0.87585  0.84386  1.0000
  H   H2250     1.0  0.54453  0.99311  0.90505  1.0000
  H   H2251     1.0  0.58118  0.83766  0.85827  1.0000
  H   H2252     1.0  0.52793  0.89242  0.89861  1.0000
  C   C1273     1.0  0.72714  0.88768  0.89810  1.0000
  H   H2253     1.0  0.57422  0.91307  0.84215  1.0000
  H   H2254     1.0  0.59401  0.91513  0.86325  1.0000
  H   H2255     1.0  0.59086  0.85665  0.91996  1.0000
  H   H2256     1.0  0.59016  0.83972  0.89450  1.0000
  H   H2257     1.0  0.62316  0.83648  0.91387  1.0000
  H   H2258     1.0  0.62594  0.84937  0.88513  1.0000
  H   H2259     1.0  0.62648  0.86636  0.91099  1.0000
  H   H2260     1.0  0.72416  0.87035  0.89232  1.0000
  H   H2261     1.0  0.52279  0.84242  0.91186  1.0000
  H   H2262     1.0  0.56807  0.84323  0.81789  1.0000
  H   H2263     1.0  0.56476  0.70022  0.59567  1.0000
  H   H2264     1.0  0.53944  0.55002  0.52398  1.0000
  C   C1274     1.0  0.54889  0.96836  0.98858  1.0000
  H   H2265     1.0  0.55748  0.94754  0.85709  1.0000
  H   H2266     1.0  0.71831  0.74439  0.65491  1.0000
  H   H2267     1.0  0.58322  0.95236  0.69512  1.0000
  H   H2268     1.0  0.62299  0.94184  0.99548  1.0000
  N   N71       1.0  0.56890  0.97893  0.98226  1.0000
  H   H2269     1.0  0.52430  0.86514  0.93229  1.0000
  C   C1275     1.0  0.52378  0.76305  0.59348  1.0000
  H   H2270     1.0  0.67954  0.88238  0.76048  1.0000
  H   H2271     1.0  0.61143  0.97313  0.96880  1.0000
  C   C1276     1.0  0.54342  0.92977  0.59417  1.0000
  H   H2272     1.0  0.62378  0.92546  0.59203  1.0000
  H   H2273     1.0  0.51960  0.70530  0.60755  1.0000
  H   H2274     1.0  0.73728  0.73845  0.60084  1.0000
  C   C1277     1.0  0.72776  0.92921  0.71303  1.0000
  H   H2275     1.0  0.55199  0.68735  0.62059  1.0000
  H   H2276     1.0  0.55476  0.96093  0.66805  1.0000
  H   H2277     1.0  0.55479  0.73867  0.60968  1.0000
  H   H2278     1.0  0.53914  0.76660  0.58648  1.0000
  H   H2279     1.0  0.68354  0.75970  0.65643  1.0000
  H   H2280     1.0  0.70572  0.95221  0.69680  1.0000
  C   C1278     1.0  0.73539  0.83191  0.68165  1.0000
  H   H2281     1.0  0.68898  0.90957  0.80244  1.0000
  C   C1279     1.0  0.71345  0.75645  0.64095  1.0000
  H   H2282     1.0  0.53325  0.89508  0.59401  1.0000
  C   C1280     1.0  0.55181  0.92882  0.61948  1.0000
  N   N72       1.0  0.56899  0.94432  0.62422  1.0000
  H   H2283     1.0  0.54539  0.67992  0.59124  1.0000
  H   H2284     1.0  0.54247  0.84129  0.82899  1.0000
  C   C1281     1.0  0.71328  0.90943  0.71811  1.0000
  H   H2285     1.0  0.70885  0.90027  0.82183  1.0000
  H   H2286     1.0  0.63887  0.96605  0.99669  1.0000
  C   C1282     1.0  0.74744  0.73698  0.61631  1.0000
  H   H2287     1.0  0.51975  0.93826  0.00418  1.0000
  H   H2288     1.0  0.52082  0.91372  0.57318  1.0000
  C   C1283     1.0  0.55008  0.69397  0.60237  1.0000
  H   H2289     1.0  0.50371  0.86445  0.91195  1.0000
  H   H2290     1.0  0.50814  0.74035  0.66282  1.0000
  H   H2291     1.0  0.72215  0.88235  0.99948  1.0000
  H   H2292     1.0  0.68250  0.97758  0.62079  1.0000
  C   C1284     1.0  0.50321  0.73030  0.64785  1.0000
  H   H2293     1.0  0.60933  0.99161  0.99336  1.0000
  C   C1285     1.0  0.50439  0.74425  0.62460  1.0000
  H   H2294     1.0  0.74308  0.92281  0.70840  1.0000
  H   H2295     1.0  0.68455  0.54521  0.51092  1.0000
  C   C1286     1.0  0.66797  0.54834  0.51153  1.0000
  C   C1287     1.0  0.62359  0.95968  0.00085  1.0000
  H   H2296     1.0  0.73151  0.95730  0.68857  1.0000
  H   H2297     1.0  0.53644  0.98121  0.98755  1.0000
  C   C1288     1.0  0.74201  0.92765  0.95606  1.0000
  C   C1289     1.0  0.67448  0.99064  0.61090  1.0000
  H   H2298     1.0  0.67371  0.63110  0.52158  1.0000
  H   H2299     1.0  0.74733  0.80770  0.61417  1.0000
  H   H2300     1.0  0.63907  0.60732  0.51008  1.0000
  H   H2301     1.0  0.72779  0.64770  0.51245  1.0000
  H   H2302     1.0  0.70766  0.61390  0.51155  1.0000
  C   C1290     1.0  0.71106  0.64941  0.51310  1.0000
  C   C1291     1.0  0.92144  0.10100  0.30616  1.0000
  Fe  Fe145     1.0  0.86574  0.06278  0.43336  1.0000
  S   S288      1.0  0.85721  0.03887  0.40539  1.0000
  S   S289      1.0  0.84321  0.08107  0.45780  1.0000
  Fe  Fe146     1.0  0.91097  0.06103  0.41872  1.0000
  S   S290      1.0  0.90468  0.03743  0.38932  1.0000
  S   S291      1.0  0.94476  0.06835  0.42084  1.0000
  Fe  Fe147     1.0  0.87730  0.05904  0.38108  1.0000
  S   S292      1.0  0.86492  0.07434  0.34639  1.0000
  Fe  Fe148     1.0  0.88543  0.01920  0.41592  1.0000
  S   S293      1.0  0.88485  0.08401  0.40878  1.0000
  S   S294      1.0  0.89279  0.04170  0.44567  1.0000
  Fe  Fe149     1.0  0.89259  0.08888  0.15954  1.0000
  S   S295      1.0  0.89439  0.05366  0.17443  1.0000
  S   S296      1.0  0.91967  0.11262  0.15262  1.0000
  Fe  Fe150     1.0  0.84547  0.08878  0.16281  1.0000
  S   S297      1.0  0.84532  0.05356  0.17896  1.0000
  S   S298      1.0  0.81648  0.10717  0.14929  1.0000
  Fe  Fe151     1.0  0.87133  0.06493  0.20110  1.0000
  S   S299      1.0  0.88141  0.05312  0.23803  1.0000
  Fe  Fe152     1.0  0.86835  0.04473  0.15118  1.0000
  H   H2303     1.0  0.98754  0.02290  0.49465  1.0000
  S   S300      1.0  0.87001  0.10058  0.18676  1.0000
  S   S301      1.0  0.86796  0.07946  0.13427  1.0000
  H   H2304     1.0  0.94415  0.01569  0.16038  1.0000
  C   C1292     1.0  0.98086  0.09881  0.14560  1.0000
  C   C1293     1.0  0.95979  0.09607  0.14881  1.0000
  C   C1294     1.0  0.94656  0.11479  0.14830  1.0000
  C   C1295     1.0  0.95492  0.13621  0.14435  1.0000
  C   C1296     1.0  0.97598  0.13895  0.14102  1.0000
  C   C1297     1.0  0.76288  0.15436  0.17071  1.0000
  H   H2305     1.0  0.95382  0.07945  0.15176  1.0000
  H   H2306     1.0  0.94500  0.15089  0.14381  1.0000
  H   H2307     1.0  0.98197  0.15557  0.13801  1.0000
  C   C1298     1.0  0.87631  0.05936  0.26799  1.0000
  C   C1299     1.0  0.88641  0.04665  0.28563  1.0000
  C   C1300     1.0  0.88318  0.05096  0.30962  1.0000
  C   C1301     1.0  0.86976  0.06813  0.31636  1.0000
  C   C1302     1.0  0.85977  0.08098  0.29871  1.0000
  C   C1303     1.0  0.86300  0.07665  0.27470  1.0000
  H   H2308     1.0  0.89677  0.03325  0.28072  1.0000
  H   H2309     1.0  0.89100  0.04091  0.32288  1.0000
  H   H2310     1.0  0.84939  0.09434  0.30364  1.0000
  H   H2311     1.0  0.85514  0.08663  0.26143  1.0000
  H   H2312     1.0  0.97118  0.12280  0.24673  1.0000
  H   H2313     1.0  0.77944  0.42792  0.01508  1.0000
  H   H2314     1.0  0.98561  0.99906  0.40643  1.0000
  C   C1304     1.0  0.93445  0.08312  0.23242  1.0000
  H   H2315     1.0  0.77667  0.08409  0.14642  1.0000
  C   C1305     1.0  0.98225  0.11003  0.47105  1.0000
  C   C1306     1.0  0.96110  0.11247  0.47090  1.0000
  C   C1307     1.0  0.94925  0.09939  0.45617  1.0000
  C   C1308     1.0  0.95851  0.08382  0.44136  1.0000
  C   C1309     1.0  0.97963  0.08106  0.44191  1.0000
  C   C1310     1.0  0.77366  0.10591  0.41441  1.0000
  H   H2316     1.0  0.97237  0.10229  0.36494  1.0000
  H   H2317     1.0  0.93301  0.10171  0.45590  1.0000
  H   H2318     1.0  0.98690  0.06905  0.43051  1.0000
  H   H2319     1.0  0.97226  0.00263  0.44609  1.0000
  C   C1311     1.0  0.77506  0.07727  0.47649  1.0000
  C   C1312     1.0  0.78403  0.06154  0.46129  1.0000
  C   C1313     1.0  0.80473  0.06246  0.45523  1.0000
  C   C1314     1.0  0.81686  0.07913  0.46439  1.0000
  C   C1315     1.0  0.80784  0.09492  0.47946  1.0000
  C   C1316     1.0  0.78713  0.09401  0.48551  1.0000
  H   H2320     1.0  0.79946  0.47378  0.01969  1.0000
  H   H2321     1.0  0.81138  0.05010  0.44374  1.0000
  H   H2322     1.0  0.84961  0.12111  0.42494  1.0000
  C   C1317     1.0  0.79824  0.45756  0.01073  1.0000
  H   H2323     1.0  0.94162  0.05021  0.18306  1.0000
  C   C1318     1.0  0.76559  0.14757  0.14758  1.0000
  C   C1319     1.0  0.78196  0.13317  0.14151  1.0000
  C   C1320     1.0  0.79609  0.12538  0.15836  1.0000
  C   C1321     1.0  0.79338  0.13210  0.18154  1.0000
  C   C1322     1.0  0.77695  0.14650  0.18760  1.0000
  H   H2324     1.0  0.78365  0.15444  0.33639  1.0000
  H   H2325     1.0  0.78392  0.12830  0.12350  1.0000
  H   H2326     1.0  0.80402  0.12634  0.19476  1.0000
  H   H2327     1.0  0.97022  0.28041  0.50095  1.0000
  H   H2328     1.0  0.92245  0.07198  0.23952  1.0000
  H   H2329     1.0  0.89646  0.03386  0.05258  1.0000
  H   H2330     1.0  0.83856  0.14512  0.40926  1.0000
  H   H2331     1.0  0.89860  0.13537  0.25977  1.0000
  H   H2332     1.0  0.89731  0.10044  0.10077  1.0000
  H   H2333     1.0  0.93136  0.12782  0.26919  1.0000
  C   C1323     1.0  0.80246  0.05242  0.36892  1.0000
  H   H2334     1.0  0.92210  0.08302  0.19686  1.0000
  H   H2335     1.0  0.86241  0.13315  0.39991  1.0000
  C   C1324     1.0  0.91846  0.09576  0.28036  1.0000
  H   H2336     1.0  0.80042  0.05817  0.35045  1.0000
  H   H2337     1.0  0.87342  0.47443  0.02797  1.0000
  H   H2338     1.0  0.99527  0.12999  0.21452  1.0000
  H   H2339     1.0  0.89596  0.00095  0.02776  1.0000
  H   H2340     1.0  0.95790  0.05615  0.11128  1.0000
  H   H2341     1.0  0.87832  0.14251  0.21197  1.0000
  H   H2342     1.0  0.94854  0.07692  0.24113  1.0000
  H   H2343     1.0  0.76027  0.37623  0.11211  1.0000
  C   C1325     1.0  0.90838  0.11297  0.23130  1.0000
  H   H2344     1.0  0.95397  0.10906  0.38709  1.0000
  H   H2345     1.0  0.94836  0.10458  0.26940  1.0000
  H   H2346     1.0  0.91777  0.11898  0.30940  1.0000
  C   C1326     1.0  0.97889  0.13315  0.21161  1.0000
  C   C1327     1.0  0.96662  0.11865  0.22868  1.0000
  H   H2347     1.0  0.89430  0.01749  0.09174  1.0000
  C   C1328     1.0  0.84988  0.00313  0.09191  1.0000
  H   H2348     1.0  0.77468  0.12742  0.36780  1.0000
  C   C1329     1.0  0.92106  0.03097  0.12146  1.0000
  H   H2349     1.0  0.93049  0.04283  0.13109  1.0000
  H   H2350     1.0  0.90237  0.09921  0.27622  1.0000
  H   H2351     1.0  0.75543  0.15395  0.13421  1.0000
  H   H2352     1.0  0.85630  0.43375  0.02738  1.0000
  C   C1330     1.0  0.75206  0.10042  0.42175  1.0000
  H   H2353     1.0  0.91119  0.09053  0.31713  1.0000
  C   C1331     1.0  0.94364  0.12320  0.22542  1.0000
  H   H2354     1.0  0.95529  0.04802  0.21022  1.0000
  C   C1332     1.0  0.94068  0.05325  0.20213  1.0000
  H   H2355     1.0  0.78350  0.44303  0.04168  1.0000
  C   C1333     1.0  0.92403  0.07844  0.09873  1.0000
  H   H2356     1.0  0.92844  0.04283  0.20977  1.0000
  N   N73       1.0  0.92983  0.10728  0.23841  1.0000
  C   C1334     1.0  0.87813  0.14004  0.23130  1.0000
  H   H2357     1.0  0.80639  0.01791  0.35778  1.0000
  H   H2358     1.0  0.74984  0.36775  0.08449  1.0000
  H   H2359     1.0  0.94080  0.14078  0.23096  1.0000
  H   H2360     1.0  0.99641  0.22479  0.09321  1.0000
  C   C1335     1.0  0.96109  0.03993  0.10278  1.0000
  H   H2361     1.0  0.93722  0.09710  0.31157  1.0000
  H   H2362     1.0  0.90718  0.11373  0.21186  1.0000
  H   H2363     1.0  0.94874  0.08765  0.19761  1.0000
  H   H2364     1.0  0.82920  0.48754  0.01889  1.0000
  H   H2365     1.0  0.78744  0.04884  0.37664  1.0000
  H   H2366     1.0  0.92788  0.00256  0.43074  1.0000
  C   C1336     1.0  0.99455  0.16946  0.44426  1.0000
  H   H2367     1.0  0.94023  0.12356  0.20629  1.0000
  H   H2368     1.0  0.76647  0.45432  0.01964  1.0000
  H   H2369     1.0  0.98305  0.15626  0.44673  1.0000
  H   H2370     1.0  0.92153  0.07748  0.27830  1.0000
  H   H2371     1.0  0.95247  0.30252  0.49274  1.0000
  H   H2372     1.0  0.90880  0.14996  0.23458  1.0000
  N   N74       1.0  0.80269  0.09255  0.38613  1.0000
  C   C1337     1.0  0.81565  0.10677  0.40139  1.0000
  C   C1338     1.0  0.78271  0.08768  0.39810  1.0000
  C   C1339     1.0  0.81376  0.07033  0.38298  1.0000
  C   C1340     1.0  0.79944  0.10320  0.36219  1.0000
  C   C1341     1.0  0.79054  0.12746  0.36154  1.0000
  C   C1342     1.0  0.83653  0.11326  0.39118  1.0000
  H   H2373     1.0  0.86817  0.12581  0.23612  1.0000
  S   S302      1.0  0.99669  0.12752  0.48898  1.0000
  C   C1343     1.0  0.94247  0.01064  0.43416  1.0000
  H   H2374     1.0  0.78055  0.10625  0.49718  1.0000
  C   C1344     1.0  0.84736  0.12916  0.40737  1.0000
  H   H2375     1.0  0.81832  0.09790  0.41849  1.0000
  H   H2376     1.0  0.80789  0.12279  0.40586  1.0000
  H   H2377     1.0  0.77108  0.08367  0.38492  1.0000
  H   H2378     1.0  0.78409  0.07231  0.40960  1.0000
  H   H2379     1.0  0.81772  0.06271  0.40042  1.0000
  H   H2380     1.0  0.82829  0.07276  0.37359  1.0000
  H   H2381     1.0  0.81380  0.10294  0.35191  1.0000
  H   H2382     1.0  0.78891  0.09308  0.35186  1.0000
  H   H2383     1.0  0.79939  0.13894  0.37231  1.0000
  H   H2384     1.0  0.99448  0.15001  0.36996  1.0000
  H   H2385     1.0  0.84638  0.09816  0.38925  1.0000
  H   H2386     1.0  0.77116  0.06254  0.16823  1.0000
  H   H2387     1.0  0.78281  0.10661  0.43063  1.0000
  C   C1345     1.0  0.91248  0.10025  0.09243  1.0000
  C   C1346     1.0  0.98115  0.04204  0.08968  1.0000
  C   C1347     1.0  0.98924  0.12026  0.14166  1.0000
  H   H2388     1.0  0.94762  0.01523  0.08135  1.0000
  C   C1348     1.0  0.91327  0.05774  0.08916  1.0000
  H   H2389     1.0  0.90543  0.03481  0.12763  1.0000
  H   H2390     1.0  0.77522  0.15172  0.20552  1.0000
  H   H2391     1.0  0.77490  0.04847  0.45420  1.0000
  C   C1349     1.0  0.85453  0.43803  0.00838  1.0000
  C   C1350     1.0  0.84086  0.47406  0.02107  1.0000
  C   C1351     1.0  0.93274  0.10982  0.26437  1.0000
  H   H2392     1.0  0.99081  0.08416  0.14617  1.0000
  H   H2393     1.0  0.97096  0.10087  0.22561  1.0000
  H   H2394     1.0  0.81956  0.43578  0.02964  1.0000
  H   H2395     1.0  0.94539  0.04283  0.06942  1.0000
  H   H2396     1.0  0.75417  0.02978  0.05432  1.0000
  H   H2397     1.0  0.89719  0.05849  0.09511  1.0000
  H   H2398     1.0  0.74973  0.02190  0.48640  1.0000
  C   C1352     1.0  0.89950  0.13557  0.24038  1.0000
  C   C1353     1.0  0.93628  0.07822  0.20598  1.0000
  H   H2399     1.0  0.89798  0.09935  0.23694  1.0000
  H   H2400     1.0  0.87175  0.15558  0.23912  1.0000
  C   C1354     1.0  0.78093  0.44490  0.02253  1.0000
  H   H2401     1.0  0.82962  0.03283  0.36040  1.0000
  S   S303      1.0  0.86982  0.00934  0.13464  1.0000
  N   N75       1.0  0.92250  0.03493  0.09531  1.0000
  C   C1355     1.0  0.81805  0.44332  0.01166  1.0000
  H   H2402     1.0  0.80606  0.13818  0.32951  1.0000
  C   C1356     1.0  0.79041  0.13719  0.33653  1.0000
  H   H2403     1.0  0.96059  0.13012  0.36533  1.0000
  C   C1357     1.0  0.99143  0.09398  0.45678  1.0000
  H   H2404     1.0  0.91083  0.10231  0.07316  1.0000
  H   H2405     1.0  0.95385  0.12476  0.48200  1.0000
  H   H2406     1.0  0.92538  0.07737  0.11802  1.0000
  H   H2407     1.0  0.98008  0.05556  0.07595  1.0000
  H   H2408     1.0  0.93922  0.07994  0.09069  1.0000
  C   C1358     1.0  0.92639  0.00660  0.13014  1.0000
  H   H2409     1.0  0.78136  0.12661  0.32491  1.0000
  H   H2410     1.0  0.84683  0.02108  0.09153  1.0000
  C   C1359     1.0  0.96658  0.11589  0.37634  1.0000
  H   H2411     1.0  0.77396  0.05544  0.13783  1.0000
  C   C1360     1.0  0.81449  0.03023  0.36842  1.0000
  H   H2412     1.0  0.91302  0.06061  0.06988  1.0000
  H   H2413     1.0  0.83509  0.12190  0.37386  1.0000
  H   H2414     1.0  0.75250  0.39716  0.09046  1.0000
  H   H2415     1.0  0.97629  0.13627  0.40438  1.0000
  H   H2416     1.0  0.91615  0.00026  0.08740  1.0000
  H   H2417     1.0  0.94827  0.01783  0.41737  1.0000
  H   H2418     1.0  0.99217  0.17050  0.40678  1.0000
  H   H2419     1.0  0.93964  0.99955  0.12066  1.0000
  H   H2420     1.0  0.81634  0.02302  0.38641  1.0000
  H   H2421     1.0  0.96329  0.02709  0.11698  1.0000
  H   H2422     1.0  0.93974  0.02457  0.44648  1.0000
  C   C1361     1.0  0.76821  0.06846  0.14995  1.0000
  C   C1362     1.0  0.98321  0.12377  0.39246  1.0000
  H   H2423     1.0  0.98549  0.02587  0.08146  1.0000
  H   H2424     1.0  0.92087  0.11483  0.09893  1.0000
  H   H2425     1.0  0.98699  0.18615  0.44619  1.0000
  H   H2426     1.0  0.75145  0.08334  0.43001  1.0000
  C   C1363     1.0  0.86187  0.48510  0.01875  1.0000
  H   H2427     1.0  0.87391  0.39613  0.01747  1.0000
  C   C1364     1.0  0.94391  0.03292  0.08612  1.0000
  H   H2428     1.0  0.99317  0.04651  0.10213  1.0000
  H   H2429     1.0  0.97552  0.15132  0.21412  1.0000
  H   H2430     1.0  0.98492  0.21411  0.11971  1.0000
  H   H2431     1.0  0.77341  0.12287  0.40603  1.0000
  H   H2432     1.0  0.81700  0.10791  0.48667  1.0000
  H   H2433     1.0  0.83921  0.46814  0.03963  1.0000
  H   H2434     1.0  0.91754  0.01148  0.16647  1.0000
  H   H2435     1.0  0.98818  0.10917  0.40339  1.0000
  H   H2436     1.0  0.92180  0.02303  0.04807  1.0000
  H   H2437     1.0  0.97637  0.24077  0.10727  1.0000
  C   C1365     1.0  0.90974  0.01745  0.08391  1.0000
  H   H2438     1.0  0.97546  0.12886  0.19324  1.0000
  C   C1366     1.0  0.98981  0.22967  0.11035  1.0000
  C   C1367     1.0  0.90719  0.01981  0.05696  1.0000
  C   C1368     1.0  0.93085  0.00544  0.15634  1.0000
  H   H2439     1.0  0.81466  0.03628  0.49732  1.0000
  H   H2440     1.0  0.99827  0.24546  0.14203  1.0000
  S   S304      1.0  0.74882  0.07498  0.48351  1.0000
  C   C1369     1.0  0.74890  0.38049  0.09843  1.0000
  H   H2441     1.0  0.77872  0.02392  0.50297  1.0000
  C   C1370     1.0  0.89848  0.99848  0.04686  1.0000
  Fe  Fe153     1.0  0.88052  0.46512  0.92584  1.0000
  S   S305      1.0  0.88455  0.43113  0.94353  1.0000
  Fe  Fe154     1.0  0.87267  0.44382  0.87768  1.0000
  S   S306      1.0  0.87662  0.40882  0.89277  1.0000
  S   S307      1.0  0.86367  0.45256  0.83952  1.0000
  Fe  Fe155     1.0  0.85728  0.42102  0.92305  1.0000
  S   S308      1.0  0.83207  0.39951  0.93959  1.0000
  Fe  Fe156     1.0  0.90334  0.42235  0.91215  1.0000
  S   S309      1.0  0.93534  0.40716  0.91111  1.0000
  S   S310      1.0  0.85220  0.45545  0.90722  1.0000
  S   S311      1.0  0.90050  0.45688  0.89524  1.0000
  Fe  Fe157     1.0  0.84659  0.39464  0.65889  1.0000
  S   S312      1.0  0.84705  0.42666  0.67923  1.0000
  S   S313      1.0  0.81314  0.38504  0.65327  1.0000
  Fe  Fe158     1.0  0.89428  0.39292  0.65695  1.0000
  S   S314      1.0  0.89633  0.42473  0.67770  1.0000
  S   S315      1.0  0.92131  0.36855  0.64796  1.0000
  Fe  Fe159     1.0  0.87170  0.41064  0.70118  1.0000
  S   S316      1.0  0.87018  0.40235  0.74099  1.0000
  Fe  Fe160     1.0  0.87108  0.43838  0.65395  1.0000
  S   S317      1.0  0.86754  0.47561  0.64122  1.0000
  S   S318      1.0  0.87063  0.37826  0.68144  1.0000
  S   S319      1.0  0.86980  0.40708  0.63237  1.0000
  H   H2442     1.0  0.82346  0.41087  0.56981  1.0000
  H   H2443     1.0  0.78971  0.47455  0.87249  1.0000
  H   H2444     1.0  0.80463  0.27403  0.59898  1.0000
  H   H2445     1.0  0.93130  0.49437  0.97476  1.0000
  H   H2446     1.0  0.81297  0.45350  0.84588  1.0000
  H   H2447     1.0  0.86517  0.46503  0.59094  1.0000
  H   H2448     1.0  0.83907  0.43965  0.60964  1.0000
  H   H2449     1.0  0.75362  0.22621  0.66882  1.0000
  C   C1371     1.0  0.94819  0.36706  0.64239  1.0000
  C   C1372     1.0  0.95989  0.38614  0.63811  1.0000
  C   C1373     1.0  0.98078  0.38389  0.63270  1.0000
  H   H2450     1.0  0.81030  0.06019  0.51593  1.0000
  C   C1374     1.0  0.97901  0.34356  0.63667  1.0000
  C   C1375     1.0  0.95806  0.34577  0.64165  1.0000
  H   H2451     1.0  0.95277  0.40266  0.63853  1.0000
  H   H2452     1.0  0.97310  0.27559  0.58947  1.0000
  H   H2453     1.0  0.75214  0.19516  0.52790  1.0000
  H   H2454     1.0  0.94936  0.33082  0.64499  1.0000
  C   C1376     1.0  0.95241  0.39865  0.93374  1.0000
  C   C1377     1.0  0.94707  0.39898  0.95746  1.0000
  C   C1378     1.0  0.96127  0.39229  0.97473  1.0000
  C   C1379     1.0  0.98089  0.38496  0.96852  1.0000
  C   C1380     1.0  0.98617  0.38447  0.94479  1.0000
  C   C1381     1.0  0.97203  0.39136  0.92755  1.0000
  H   H2455     1.0  0.93196  0.40418  0.96248  1.0000
  H   H2456     1.0  0.97521  0.48421  0.90627  1.0000
  H   H2457     1.0  0.83956  0.49053  0.93842  1.0000
  H   H2458     1.0  0.97628  0.39089  0.90926  1.0000
  C   C1382     1.0  0.86686  0.43843  0.81232  1.0000
  C   C1383     1.0  0.86411  0.45075  0.79114  1.0000
  C   C1384     1.0  0.86542  0.44020  0.76920  1.0000
  C   C1385     1.0  0.86934  0.41702  0.76806  1.0000
  C   C1386     1.0  0.87197  0.40466  0.78924  1.0000
  C   C1387     1.0  0.87085  0.41524  0.81118  1.0000
  H   H2459     1.0  0.86092  0.46866  0.79170  1.0000
  H   H2460     1.0  0.86329  0.45001  0.75319  1.0000
  H   H2461     1.0  0.87517  0.38678  0.78864  1.0000
  H   H2462     1.0  0.87300  0.40545  0.82719  1.0000
  C   C1388     1.0  0.76672  0.32707  0.65385  1.0000
  C   C1389     1.0  0.76047  0.34972  0.65381  1.0000
  C   C1390     1.0  0.77487  0.36701  0.65379  1.0000
  C   C1391     1.0  0.79579  0.36213  0.65370  1.0000
  C   C1392     1.0  0.80205  0.33947  0.65377  1.0000
  C   C1393     1.0  0.78765  0.32215  0.65392  1.0000
  H   H2463     1.0  0.76968  0.38433  0.65397  1.0000
  H   H2464     1.0  0.81798  0.33526  0.65341  1.0000
  H   H2465     1.0  0.79278  0.30476  0.65395  1.0000
  C   C1394     1.0  0.76794  0.41305  0.97024  1.0000
  C   C1395     1.0  0.77824  0.39257  0.97446  1.0000
  C   C1396     1.0  0.79779  0.38883  0.96501  1.0000
  C   C1397     1.0  0.80748  0.40549  0.95136  1.0000
  C   C1398     1.0  0.79721  0.42598  0.94714  1.0000
  C   C1399     1.0  0.77764  0.42971  0.95652  1.0000
  C   C1400     1.0  0.99098  0.37400  0.69702  1.0000
  H   H2466     1.0  0.80546  0.37284  0.96835  1.0000
  H   H2467     1.0  0.80422  0.43885  0.93640  1.0000
  H   H2468     1.0  0.75606  0.21313  0.59015  1.0000
  H   H2469     1.0  0.98909  0.40558  0.67681  1.0000
  H   H2470     1.0  0.85410  0.48806  0.55624  1.0000
  H   H2471     1.0  0.85018  0.37123  0.90017  1.0000
  H   H2472     1.0  0.84492  0.34437  0.88797  1.0000
  C   C1401     1.0  0.81996  0.39615  0.87667  1.0000
  H   H2473     1.0  0.82739  0.44341  0.87039  1.0000
  H   H2474     1.0  0.94699  0.28417  0.51741  1.0000
  C   C1402     1.0  0.75184  0.23363  0.63147  1.0000
  H   H2475     1.0  0.98868  0.29050  0.68367  1.0000
  H   H2476     1.0  0.77434  0.04890  0.51886  1.0000
  N   N76       1.0  0.99209  0.30999  0.56122  1.0000
  H   H2477     1.0  0.99707  0.05513  0.55185  1.0000
  H   H2478     1.0  0.75560  0.18481  0.55755  1.0000
  C   C1403     1.0  0.85996  0.48222  0.59311  1.0000
  H   H2479     1.0  0.80446  0.46461  0.89742  1.0000
  H   H2480     1.0  0.77529  0.41804  0.63136  1.0000
  H   H2481     1.0  0.81493  0.47778  0.94020  1.0000
  H   H2482     1.0  0.98349  0.48115  0.97209  1.0000
  H   H2483     1.0  0.78757  0.37116  0.89007  1.0000
  H   H2484     1.0  0.81742  0.36107  0.86441  1.0000
  H   H2485     1.0  0.79581  0.30260  0.60277  1.0000
  H   H2486     1.0  0.82112  0.39177  0.82975  1.0000
  H   H2487     1.0  0.76101  0.29220  0.59362  1.0000
  H   H2488     1.0  0.82903  0.41870  0.83711  1.0000
  H   H2489     1.0  0.77112  0.37955  0.98494  1.0000
  H   H2490     1.0  0.99828  0.11851  0.54743  1.0000
  H   H2491     1.0  0.83303  0.40742  0.87830  1.0000
  H   H2492     1.0  0.85238  0.46242  0.97160  1.0000
  H   H2493     1.0  0.82642  0.35801  0.90639  1.0000
  C   C1404     1.0  0.97766  0.47815  0.95425  1.0000
  H   H2494     1.0  0.85094  0.41906  0.97642  1.0000
  H   H2495     1.0  0.79376  0.42698  0.88705  1.0000
  C   C1405     1.0  0.80493  0.46873  0.87836  1.0000
  H   H2496     1.0  0.77161  0.25887  0.56773  1.0000
  C   C1406     1.0  0.80174  0.41784  0.81559  1.0000
  C   C1407     1.0  0.78534  0.49668  0.60026  1.0000
  H   H2497     1.0  0.80443  0.43033  0.77967  1.0000
  S   S320      1.0  0.88292  0.49346  0.95191  1.0000
  C   C1408     1.0  0.77189  0.27865  0.59897  1.0000
  H   H2498     1.0  0.77579  0.31341  0.71559  1.0000
  H   H2499     1.0  0.76086  0.33061  0.73533  1.0000
  C   C1409     1.0  0.78707  0.39078  0.85684  1.0000
  H   H2500     1.0  0.79154  0.40453  0.80965  1.0000
  H   H2501     1.0  0.77973  0.43535  0.65628  1.0000
  C   C1410     1.0  0.79311  0.28682  0.59330  1.0000
  H   H2502     1.0  0.77850  0.24329  0.59322  1.0000
  H   H2503     1.0  0.79593  0.43114  0.59171  1.0000
  N   N77       1.0  0.81996  0.35600  0.74016  1.0000
  C   C1411     1.0  0.83285  0.35098  0.71891  1.0000
  C   C1412     1.0  0.81574  0.38108  0.74195  1.0000
  C   C1413     1.0  0.83206  0.34865  0.76148  1.0000
  C   C1414     1.0  0.80058  0.34313  0.74023  1.0000
  C   C1415     1.0  0.78649  0.34765  0.71908  1.0000
  C   C1416     1.0  0.83672  0.32572  0.71366  1.0000
  C   C1417     1.0  0.82222  0.35357  0.78565  1.0000
  C   C1418     1.0  0.81345  0.39496  0.71879  1.0000
  C   C1419     1.0  0.80686  0.41925  0.72339  1.0000
  C   C1420     1.0  0.81441  0.42564  0.79462  1.0000
  C   C1421     1.0  0.85205  0.32290  0.69380  1.0000
  C   C1422     1.0  0.83691  0.34795  0.80557  1.0000
  H   H2504     1.0  0.84770  0.35929  0.72058  1.0000
  H   H2505     1.0  0.82614  0.35824  0.70259  1.0000
  H   H2506     1.0  0.80198  0.38423  0.75275  1.0000
  H   H2507     1.0  0.82827  0.38932  0.75127  1.0000
  H   H2508     1.0  0.84713  0.35678  0.76098  1.0000
  H   H2509     1.0  0.83519  0.33025  0.76165  1.0000
  H   H2510     1.0  0.80386  0.32471  0.74181  1.0000
  H   H2511     1.0  0.79132  0.34718  0.75591  1.0000
  H   H2512     1.0  0.79470  0.34661  0.70224  1.0000
  H   H2513     1.0  0.77927  0.36459  0.72037  1.0000
  H   H2514     1.0  0.84276  0.31608  0.72895  1.0000
  H   H2515     1.0  0.82249  0.31787  0.70816  1.0000
  H   H2516     1.0  0.80874  0.34307  0.78852  1.0000
  H   H2517     1.0  0.81760  0.37150  0.78713  1.0000
  H   H2518     1.0  0.82826  0.39550  0.70970  1.0000
  H   H2519     1.0  0.80244  0.38772  0.70675  1.0000
  H   H2520     1.0  0.80526  0.42863  0.70645  1.0000
  H   H2521     1.0  0.79207  0.41980  0.73263  1.0000
  H   H2522     1.0  0.98699  0.28139  0.53933  1.0000
  H   H2523     1.0  0.95699  0.39257  0.99302  1.0000
  H   H2524     1.0  0.90912  0.46536  0.99584  1.0000
  H   H2525     1.0  0.75582  0.01799  0.60790  1.0000
  H   H2526     1.0  0.84715  0.33255  0.67788  1.0000
  H   H2527     1.0  0.86707  0.32885  0.69921  1.0000
  H   H2528     1.0  0.85358  0.30486  0.68935  1.0000
  H   H2529     1.0  0.82919  0.35024  0.82266  1.0000
  H   H2530     1.0  0.84237  0.33018  0.80473  1.0000
  H   H2531     1.0  0.85005  0.35925  0.80464  1.0000
  H   H2532     1.0  0.80634  0.42197  0.61909  1.0000
  H   H2533     1.0  0.76808  0.23762  0.63041  1.0000
  H   H2534     1.0  0.82516  0.41219  0.78907  1.0000
  H   H2535     1.0  0.79972  0.47059  0.58110  1.0000
  C   C1423     1.0  0.83816  0.36090  0.89274  1.0000
  H   H2536     1.0  0.98740  0.33177  0.59068  1.0000
  H   H2537     1.0  0.83276  0.48270  0.67274  1.0000
  C   C1424     1.0  0.97879  0.29671  0.54548  1.0000
  H   H2538     1.0  0.94878  0.46455  0.88375  1.0000
  C   C1425     1.0  0.76752  0.25630  0.58652  1.0000
  C   C1426     1.0  0.95923  0.29304  0.50783  1.0000
  C   C1427     1.0  0.97767  0.35139  0.56124  1.0000
  H   H2539     1.0  0.82306  0.44070  0.79925  1.0000
  C   C1428     1.0  0.79989  0.02829  0.53065  1.0000
  C   C1429     1.0  0.85978  0.49138  0.61549  1.0000
  H   H2540     1.0  0.75014  0.21547  0.62806  1.0000
  C   C1430     1.0  0.81201  0.44824  0.86462  1.0000
  H   H2541     1.0  0.91144  0.43655  0.98683  1.0000
  H   H2542     1.0  0.76782  0.45180  0.60618  1.0000
  C   C1431     1.0  0.99247  0.10117  0.54619  1.0000
  C   C1432     1.0  0.80088  0.47677  0.59932  1.0000
  H   H2543     1.0  0.93222  0.49110  0.92689  1.0000
  H   H2544     1.0  0.79480  0.29040  0.57422  1.0000
  C   C1433     1.0  0.82785  0.48643  0.97384  1.0000
  C   C1434     1.0  0.80449  0.48192  0.65336  1.0000
  H   H2545     1.0  0.78292  0.43364  0.85958  1.0000
  H   H2546     1.0  0.95815  0.32176  0.52957  1.0000
  C   C1435     1.0  0.81527  0.40833  0.83573  1.0000
  H   H2547     1.0  0.81323  0.39560  0.89456  1.0000
  S   S321      1.0  0.74925  0.30432  0.65416  1.0000
  C   C1436     1.0  0.87180  0.40073  0.99868  1.0000
  H   H2548     1.0  0.80087  0.03436  0.54881  1.0000
  H   H2549     1.0  0.96477  0.32178  0.57851  1.0000
  H   H2550     1.0  0.86664  0.48691  0.00018  1.0000
  H   H2551     1.0  0.84101  0.37418  0.85762  1.0000
  C   C1437     1.0  0.75780  0.37010  0.87587  1.0000
  H   H2552     1.0  0.82669  0.46393  0.63387  1.0000
  C   C1438     1.0  0.76954  0.33059  0.71864  1.0000
  C   C1439     1.0  0.94295  0.48102  0.97119  1.0000
  C   C1440     1.0  0.82891  0.37250  0.87107  1.0000
  H   H2553     1.0  0.84937  0.41488  0.57796  1.0000
  H   H2554     1.0  0.82938  0.45001  0.58196  1.0000
  H   H2555     1.0  0.81630  0.48379  0.60052  1.0000
  H   H2556     1.0  0.81837  0.42767  0.73403  1.0000
  H   H2557     1.0  0.96563  0.29016  0.55545  1.0000
  H   H2558     1.0  0.93404  0.49057  0.88212  1.0000
  H   H2559     1.0  0.76988  0.44562  0.95307  1.0000
  H   H2560     1.0  0.78826  0.48195  0.65803  1.0000
  C   C1441     1.0  0.98004  0.32800  0.57376  1.0000
  C   C1442     1.0  0.82479  0.49066  0.94763  1.0000
  H   H2561     1.0  0.77502  0.39954  0.84636  1.0000
  H   H2562     1.0  0.99493  0.33113  0.69203  1.0000
  H   H2563     1.0  0.98939  0.39885  0.62905  1.0000
  C   C1443     1.0  0.77141  0.43431  0.63956  1.0000
  H   H2564     1.0  0.86908  0.44537  0.00247  1.0000
  C   C1444     1.0  0.94763  0.48336  0.92808  1.0000
  N   N78       1.0  0.95682  0.48852  0.95145  1.0000
  H   H2565     1.0  0.98561  0.26102  0.62796  1.0000
  H   H2566     1.0  0.81098  0.44604  0.65021  1.0000
  H   H2567     1.0  0.98206  0.36469  0.68416  1.0000
  H   H2568     1.0  0.99190  0.36080  0.56303  1.0000
  N   N79       1.0  0.80495  0.40587  0.85921  1.0000
  H   H2569     1.0  0.77094  0.27631  0.61826  1.0000
  C   C1445     1.0  0.79741  0.42835  0.86800  1.0000
  H   H2570     1.0  0.98613  0.32706  0.63636  1.0000
  C   C1446     1.0  0.81455  0.04203  0.51569  1.0000
  H   H2571     1.0  0.81514  0.42913  0.99984  1.0000
  H   H2572     1.0  0.97941  0.29760  0.60901  1.0000
  H   H2573     1.0  0.94528  0.46503  0.92630  1.0000
  C   C1447     1.0  0.98576  0.28411  0.59789  1.0000
  H   H2574     1.0  0.79108  0.37565  0.84654  1.0000
  C   C1448     1.0  0.96062  0.36539  0.57214  1.0000
  C   C1449     1.0  0.81628  0.48211  0.67628  1.0000
  H   H2575     1.0  0.91879  0.46293  0.95405  1.0000
  H   H2576     1.0  0.99187  0.40889  0.70806  1.0000
  H   H2577     1.0  0.98669  0.36814  0.71490  1.0000
  C   C1450     1.0  0.91993  0.45205  0.99004  1.0000
  H   H2578     1.0  0.79225  0.43234  0.82114  1.0000
  N   N80       1.0  0.79839  0.45756  0.61697  1.0000
  C   C1451     1.0  0.77633  0.45431  0.62268  1.0000
  H   H2579     1.0  0.94585  0.35729  0.56965  1.0000
  C   C1452     1.0  0.80619  0.43613  0.60602  1.0000
  C   C1453     1.0  0.81065  0.46136  0.63864  1.0000
  C   C1454     1.0  0.93058  0.45952  0.96747  1.0000
  H   H2580     1.0  0.75899  0.33504  0.70415  1.0000
  C   C1455     1.0  0.82791  0.43669  0.59574  1.0000
  H   H2581     1.0  0.81314  0.48930  0.98255  1.0000
  H   H2582     1.0  0.97916  0.10187  0.53443  1.0000
  H   H2583     1.0  0.83268  0.40026  0.59784  1.0000
  C   C1456     1.0  0.96976  0.30932  0.52387  1.0000
  C   C1457     1.0  0.83362  0.41426  0.58466  1.0000
  H   H2584     1.0  0.96805  0.40060  0.69619  1.0000
  H   H2585     1.0  0.76765  0.22438  0.55124  1.0000
  H   H2586     1.0  0.77044  0.49113  0.59398  1.0000
  N   N81       1.0  0.76182  0.01915  0.53543  1.0000
  H   H2587     1.0  0.88539  0.40942  0.99203  1.0000
  H   H2588     1.0  0.77439  0.01929  0.57039  1.0000
  H   H2589     1.0  0.94006  0.44535  0.96137  1.0000
  C   C1458     1.0  0.77721  0.38278  0.88022  1.0000
  H   H2590     1.0  0.95159  0.47861  0.98775  1.0000
  H   H2591     1.0  0.95999  0.38243  0.56375  1.0000
  C   C1459     1.0  0.83688  0.46250  0.97926  1.0000
  H   H2592     1.0  0.98846  0.48662  0.94212  1.0000
  H   H2593     1.0  0.82861  0.45017  0.96875  1.0000
  H   H2594     1.0  0.83009  0.03996  0.52272  1.0000
  H   H2595     1.0  0.97245  0.44329  0.96574  1.0000
  C   C1460     1.0  0.94954  0.48323  0.88371  1.0000
  H   H2596     1.0  0.97338  0.44704  0.93422  1.0000
  H   H2597     1.0  0.76944  0.46956  0.63044  1.0000
  H   H2598     1.0  0.81566  0.48264  0.87539  1.0000
  C   C1461     1.0  0.97984  0.45242  0.95100  1.0000
  H   H2599     1.0  0.96319  0.36730  0.59113  1.0000
  H   H2600     1.0  0.81306  0.46689  0.68719  1.0000
  C   C1462     1.0  0.99058  0.36261  0.63178  1.0000
  H   H2601     1.0  0.80532  0.01052  0.53040  1.0000
  H   H2602     1.0  0.98780  0.09524  0.56394  1.0000
  H   H2603     1.0  0.76725  0.04638  0.55923  1.0000
  H   H2604     1.0  0.98722  0.06263  0.52395  1.0000
  H   H2605     1.0  0.97511  0.02764  0.52215  1.0000
  C   C1463     1.0  0.75132  0.22130  0.55393  1.0000
  H   H2606     1.0  0.77338  0.39724  0.89148  1.0000
  C   C1464     1.0  0.77803  0.03056  0.52098  1.0000
  H   H2607     1.0  0.97452  0.35027  0.54235  1.0000
  C   C1465     1.0  0.98471  0.39882  0.69436  1.0000
  H   H2608     1.0  0.79387  0.46077  0.99220  1.0000
  H   H2609     1.0  0.76094  0.35511  0.86507  1.0000
  C   C1466     1.0  0.74889  0.43396  0.64546  1.0000
  H   H2610     1.0  0.98148  0.31789  0.51325  1.0000
  H   H2611     1.0  0.87019  0.38502  0.98872  1.0000
  C   C1467     1.0  0.76257  0.02843  0.55989  1.0000
  C   C1468     1.0  0.85288  0.41557  0.99534  1.0000
  C   C1469     1.0  0.99623  0.26673  0.61406  1.0000
  C   C1470     1.0  0.85382  0.49545  0.57337  1.0000
  H   H2612     1.0  0.75129  0.36434  0.89289  1.0000
  H   H2613     1.0  0.95843  0.48878  0.86816  1.0000
  H   H2614     1.0  0.84003  0.40552  0.00193  1.0000
  C   C1471     1.0  0.98732  0.01783  0.51343  1.0000
  C   C1472     1.0  0.95956  0.49116  0.90602  1.0000
  H   H2615     1.0  0.75494  0.04820  0.60273  1.0000
  H   H2616     1.0  0.81186  0.49722  0.68631  1.0000
  H   H2617     1.0  0.80808  0.49767  0.64354  1.0000
  N   N82       1.0  0.83735  0.45492  0.00474  1.0000
  H   H2618     1.0  0.93109  0.44821  0.00408  1.0000
  S   S322      1.0  0.99822  0.37686  0.99104  1.0000
  S   S323      1.0  0.93032  0.85399  0.48971  1.0000
  C   C1473     1.0  0.77639  0.59810  0.12493  1.0000
  S   S324      1.0  0.97137  0.87337  0.46577  1.0000
  Fe  Fe161     1.0  0.94799  0.88564  0.49135  1.0000
  S   S325      1.0  0.93515  0.92140  0.49353  1.0000
  Fe  Fe162     1.0  0.95518  0.84025  0.46676  1.0000
  S   S326      1.0  0.94403  0.82103  0.43512  1.0000
  C   C1474     1.0  0.80629  0.71487  0.05595  1.0000
  S   S327      1.0  0.85130  0.62975  0.47608  1.0000
  Fe  Fe163     1.0  0.92954  0.68053  0.33403  1.0000
  S   S328      1.0  0.94212  0.64534  0.33943  1.0000
  S   S329      1.0  0.90085  0.68608  0.31150  1.0000
  Fe  Fe164     1.0  0.95628  0.69847  0.37379  1.0000
  S   S330      1.0  0.96980  0.66391  0.38132  1.0000
  S   S331      1.0  0.97010  0.72361  0.39867  1.0000
  Fe  Fe165     1.0  0.97300  0.66075  0.34235  1.0000
  Fe  Fe166     1.0  0.93805  0.65153  0.37807  1.0000
  S   S332      1.0  0.92452  0.62444  0.40243  1.0000
  S   S333      1.0  0.96055  0.69601  0.33464  1.0000
  S   S334      1.0  0.92446  0.68604  0.37291  1.0000
  C   C1475     1.0  0.79292  0.96605  0.09108  1.0000
  H   H2619     1.0  0.76487  0.96494  0.01152  1.0000
  H   H2620     1.0  0.75705  0.56751  0.38064  1.0000
  H   H2621     1.0  0.80389  0.97298  0.07835  1.0000
  Fe  Fe167     1.0  0.84141  0.66583  0.13085  1.0000
  S   S335      1.0  0.85475  0.69880  0.14035  1.0000
  S   S336      1.0  0.85242  0.64107  0.10354  1.0000
  Fe  Fe168     1.0  0.80676  0.66965  0.16669  1.0000
  S   S337      1.0  0.81795  0.70308  0.17932  1.0000
  S   S338      1.0  0.78073  0.64990  0.18398  1.0000
  Fe  Fe169     1.0  0.82275  0.71218  0.14098  1.0000
  S   S339      1.0  0.81011  0.74469  0.12334  1.0000
  Fe  Fe170     1.0  0.84940  0.68755  0.17815  1.0000
  S   S340      1.0  0.87696  0.69183  0.20221  1.0000
  S   S341      1.0  0.80962  0.67968  0.12873  1.0000
  S   S342      1.0  0.83801  0.65367  0.16818  1.0000
  Fe  Fe171     1.0  0.83169  0.86239  0.04794  1.0000
  S   S343      1.0  0.85619  0.88421  0.03206  1.0000
  S   S344      1.0  0.84313  0.83500  0.07420  1.0000
  C   C1476     1.0  0.87437  0.55628  0.49070  1.0000
  C   C1477     1.0  0.80490  0.95791  0.11256  1.0000
  H   H2622     1.0  0.93846  0.67720  0.48057  1.0000
  Fe  Fe172     1.0  0.83425  0.91350  0.03750  1.0000
  S   S345      1.0  0.83896  0.95045  0.04863  1.0000
  H   H2623     1.0  0.87544  0.62393  0.30449  1.0000
  S   S346      1.0  0.81050  0.89190  0.05478  1.0000
  S   S347      1.0  0.88693  0.98077  0.41719  1.0000
  C   C1478     1.0  0.84733  0.96631  0.07308  1.0000
  H   H2624     1.0  0.89381  0.63516  0.33562  1.0000
  H   H2625     1.0  0.92900  0.61750  0.11044  1.0000
  H   H2626     1.0  0.86077  0.93852  0.09251  1.0000
  C   C1479     1.0  0.95779  0.99382  0.44467  1.0000
  C   C1480     1.0  0.81987  0.76916  0.10890  1.0000
  C   C1481     1.0  0.83977  0.77590  0.11180  1.0000
  C   C1482     1.0  0.84656  0.79596  0.10095  1.0000
  C   C1483     1.0  0.83361  0.80961  0.08694  1.0000
  C   C1484     1.0  0.81376  0.80273  0.08376  1.0000
  C   C1485     1.0  0.80693  0.78273  0.09480  1.0000
  H   H2627     1.0  0.84986  0.76579  0.12264  1.0000
  H   H2628     1.0  0.86195  0.80107  0.10354  1.0000
  H   H2629     1.0  0.80357  0.81301  0.07310  1.0000
  H   H2630     1.0  0.79143  0.77785  0.09254  1.0000
  C   C1486     1.0  0.89957  0.65707  0.04687  1.0000
  C   C1487     1.0  0.89699  0.67132  0.06599  1.0000
  C   C1488     1.0  0.88309  0.66615  0.08394  1.0000
  C   C1489     1.0  0.87140  0.64696  0.08262  1.0000
  C   C1490     1.0  0.87447  0.63232  0.06391  1.0000
  C   C1491     1.0  0.88852  0.63734  0.04607  1.0000
  H   H2631     1.0  0.90553  0.68660  0.06671  1.0000
  H   H2632     1.0  0.88099  0.67726  0.09850  1.0000
  H   H2633     1.0  0.86553  0.61735  0.06287  1.0000
  H   H2634     1.0  0.89026  0.62637  0.03130  1.0000
  C   C1492     1.0  0.89466  0.68686  0.28092  1.0000
  C   C1493     1.0  0.87416  0.68734  0.27427  1.0000
  C   C1494     1.0  0.86843  0.68811  0.25041  1.0000
  C   C1495     1.0  0.88313  0.68911  0.23271  1.0000
  C   C1496     1.0  0.90359  0.68888  0.23937  1.0000
  C   C1497     1.0  0.90934  0.68750  0.26321  1.0000
  H   H2635     1.0  0.86259  0.68720  0.28767  1.0000
  H   H2636     1.0  0.85265  0.68826  0.24574  1.0000
  H   H2637     1.0  0.91515  0.68972  0.22595  1.0000
  H   H2638     1.0  0.92514  0.68729  0.26787  1.0000
  C   C1498     1.0  0.87107  0.62763  0.45483  1.0000
  C   C1499     1.0  0.87882  0.64755  0.44481  1.0000
  C   C1500     1.0  0.89512  0.64696  0.42878  1.0000
  C   C1501     1.0  0.90369  0.62633  0.42221  1.0000
  C   C1502     1.0  0.89562  0.60639  0.43176  1.0000
  C   C1503     1.0  0.87933  0.60702  0.44778  1.0000
  H   H2639     1.0  0.87220  0.66357  0.44962  1.0000
  H   H2640     1.0  0.90112  0.66246  0.42164  1.0000
  H   H2641     1.0  0.90198  0.59031  0.42665  1.0000
  H   H2642     1.0  0.87309  0.59156  0.45451  1.0000
  C   C1504     1.0  0.95168  0.79401  0.42512  1.0000
  C   C1505     1.0  0.96793  0.78185  0.43500  1.0000
  C   C1506     1.0  0.97347  0.76051  0.42641  1.0000
  C   C1507     1.0  0.96268  0.75088  0.40812  1.0000
  C   C1508     1.0  0.94648  0.76303  0.39818  1.0000
  C   C1509     1.0  0.94109  0.78451  0.40659  1.0000
  H   H2643     1.0  0.97636  0.78905  0.44905  1.0000
  C   C1510     1.0  0.75598  0.64242  0.17478  1.0000
  H   H2644     1.0  0.93816  0.75598  0.38396  1.0000
  H   H2645     1.0  0.92863  0.79387  0.39866  1.0000
  C   C1511     1.0  0.92124  0.93723  0.47226  1.0000
  C   C1512     1.0  0.91700  0.96008  0.47632  1.0000
  C   C1513     1.0  0.90644  0.97357  0.45972  1.0000
  C   C1514     1.0  0.89999  0.96433  0.43881  1.0000
  C   C1515     1.0  0.90398  0.94137  0.43489  1.0000
  C   C1516     1.0  0.91461  0.92787  0.45150  1.0000
  H   H2646     1.0  0.92196  0.96743  0.49240  1.0000
  H   H2647     1.0  0.86466  0.57162  0.48833  1.0000
  H   H2648     1.0  0.89894  0.93405  0.41883  1.0000
  H   H2649     1.0  0.91770  0.91028  0.44821  1.0000
  H   H2650     1.0  0.86526  0.75573  0.07836  1.0000
  C   C1517     1.0  0.93566  0.70170  0.45104  1.0000
  S   S348      1.0  0.91521  0.66576  0.02342  1.0000
  N   N83       1.0  0.95352  0.62689  0.08699  1.0000
  H   H2651     1.0  0.82456  0.61917  0.36944  1.0000
  C   C1518     1.0  0.86330  0.65670  0.35565  1.0000
  C   C1519     1.0  0.87152  0.66645  0.37856  1.0000
  C   C1520     1.0  0.86995  0.69214  0.37808  1.0000
  C   C1521     1.0  0.76387  0.99474  0.05307  1.0000
  H   H2652     1.0  0.84737  0.66269  0.35364  1.0000
  H   H2653     1.0  0.87157  0.66515  0.34106  1.0000
  H   H2654     1.0  0.88757  0.66159  0.38099  1.0000
  H   H2655     1.0  0.86293  0.66037  0.39409  1.0000
  H   H2656     1.0  0.87609  0.69861  0.39460  1.0000
  H   H2657     1.0  0.87879  0.69926  0.36316  1.0000
  H   H2658     1.0  0.85395  0.69787  0.37645  1.0000
  C   C1522     1.0  0.92833  0.60307  0.06359  1.0000
  H   H2659     1.0  0.85672  0.75386  0.01169  1.0000
  C   C1523     1.0  0.92507  0.57931  0.05483  1.0000
  C   C1524     1.0  0.94736  0.54645  0.49180  1.0000
  H   H2660     1.0  0.95005  0.59075  0.08930  1.0000
  H   H2661     1.0  0.92751  0.61479  0.04827  1.0000
  H   H2662     1.0  0.91555  0.60713  0.07548  1.0000
  H   H2663     1.0  0.97657  0.63910  0.11024  1.0000
  H   H2664     1.0  0.94177  0.64621  0.05746  1.0000
  H   H2665     1.0  0.92414  0.56713  0.06982  1.0000
  H   H2666     1.0  0.75834  0.55754  0.35108  1.0000
  H   H2667     1.0  0.86940  0.76168  0.03796  1.0000
  N   N84       1.0  0.84983  0.76818  0.19486  1.0000
  C   C1525     1.0  0.83312  0.75692  0.20856  1.0000
  C   C1526     1.0  0.84072  0.78041  0.17387  1.0000
  C   C1527     1.0  0.86379  0.74987  0.18578  1.0000
  C   C1528     1.0  0.86199  0.78387  0.20947  1.0000
  C   C1529     1.0  0.85078  0.79605  0.22968  1.0000
  C   C1530     1.0  0.84010  0.73965  0.22780  1.0000
  C   C1531     1.0  0.88105  0.75767  0.16916  1.0000
  C   C1532     1.0  0.82573  0.80005  0.17894  1.0000
  C   C1533     1.0  0.81568  0.80893  0.15645  1.0000
  C   C1534     1.0  0.86395  0.81403  0.24019  1.0000
  C   C1535     1.0  0.82297  0.73397  0.24480  1.0000
  C   C1536     1.0  0.89694  0.73897  0.16587  1.0000
  H   H2668     1.0  0.82315  0.74782  0.19650  1.0000
  H   H2669     1.0  0.82291  0.76944  0.21682  1.0000
  H   H2670     1.0  0.85264  0.78803  0.16265  1.0000
  H   H2671     1.0  0.83286  0.76819  0.16270  1.0000
  H   H2672     1.0  0.85504  0.73702  0.17645  1.0000
  H   H2673     1.0  0.87129  0.74068  0.20065  1.0000
  H   H2674     1.0  0.87493  0.77463  0.21794  1.0000
  H   H2675     1.0  0.86904  0.79695  0.19798  1.0000
  H   H2676     1.0  0.84703  0.78387  0.24399  1.0000
  H   H2677     1.0  0.83652  0.80432  0.22388  1.0000
  H   H2678     1.0  0.84504  0.72371  0.21956  1.0000
  H   H2679     1.0  0.85298  0.74594  0.23793  1.0000
  H   H2680     1.0  0.88878  0.77248  0.17606  1.0000
  H   H2681     1.0  0.87499  0.76217  0.15158  1.0000
  H   H2682     1.0  0.81350  0.79485  0.19106  1.0000
  H   H2683     1.0  0.83393  0.81428  0.18642  1.0000
  H   H2684     1.0  0.82716  0.81480  0.14357  1.0000
  H   H2685     1.0  0.80658  0.79562  0.14850  1.0000
  H   H2686     1.0  0.80543  0.82336  0.16045  1.0000
  H   H2687     1.0  0.85579  0.82207  0.25495  1.0000
  H   H2688     1.0  0.87826  0.80639  0.24698  1.0000
  H   H2689     1.0  0.86746  0.82729  0.22684  1.0000
  H   H2690     1.0  0.81781  0.74920  0.25422  1.0000
  H   H2691     1.0  0.81007  0.72693  0.23522  1.0000
  H   H2692     1.0  0.82837  0.72117  0.25791  1.0000
  H   H2693     1.0  0.88999  0.72381  0.15862  1.0000
  H   H2694     1.0  0.90882  0.74484  0.15353  1.0000
  H   H2695     1.0  0.90415  0.73426  0.18286  1.0000
  N   N85       1.0  0.84399  0.72443  0.04992  1.0000
  C   C1537     1.0  0.82795  0.71522  0.06613  1.0000
  C   C1538     1.0  0.86410  0.72244  0.06216  1.0000
  H   H2696     1.0  0.77055  0.91606  0.04863  1.0000
  H   H2697     1.0  0.95126  0.54275  0.47332  1.0000
  H   H2698     1.0  0.92424  0.57030  0.48187  1.0000
  H   H2699     1.0  0.88337  0.88383  0.49760  1.0000
  C   C1539     1.0  0.83865  0.74862  0.04376  1.0000
  C   C1540     1.0  0.86690  0.73770  0.08346  1.0000
  C   C1541     1.0  0.88786  0.73433  0.09416  1.0000
  H   H2700     1.0  0.92070  0.70503  0.49810  1.0000
  C   C1542     1.0  0.95594  0.64429  0.06759  1.0000
  C   C1543     1.0  0.79190  0.70268  0.07266  1.0000
  H   H2701     1.0  0.83221  0.69796  0.07266  1.0000
  H   H2702     1.0  0.86655  0.70502  0.06890  1.0000
  H   H2703     1.0  0.87677  0.72546  0.04967  1.0000
  H   H2704     1.0  0.76607  0.56720  0.14027  1.0000
  H   H2705     1.0  0.99236  0.92853  0.41832  1.0000
  H   H2706     1.0  0.84620  0.79481  0.04177  1.0000
  H   H2707     1.0  0.91343  0.99546  0.12705  1.0000
  C   C1544     1.0  0.85252  0.86193  0.47696  1.0000
  H   H2708     1.0  0.85844  0.67999  0.04368  1.0000
  H   H2709     1.0  0.94854  0.63721  0.13782  1.0000
  H   H2710     1.0  0.79694  0.68490  0.07559  1.0000
  C   C1545     1.0  0.92067  0.65617  0.13563  1.0000
  C   C1546     1.0  0.84613  0.62658  0.28899  1.0000
  H   H2711     1.0  0.96271  0.65128  0.46136  1.0000
  H   H2712     1.0  0.85572  0.73367  0.09734  1.0000
  H   H2713     1.0  0.75778  0.59880  0.45544  1.0000
  H   H2714     1.0  0.88944  0.74572  0.10915  1.0000
  H   H2715     1.0  0.89006  0.71673  0.10071  1.0000
  H   H2716     1.0  0.98616  0.75137  0.43410  1.0000
  H   H2717     1.0  0.75645  0.66043  0.14171  1.0000
  C   C1547     1.0  0.94376  0.73298  0.47599  1.0000
  H   H2718     1.0  0.85755  0.50730  0.04835  1.0000
  H   H2719     1.0  0.90441  0.72807  0.49139  1.0000
  C   C1548     1.0  0.96108  0.66833  0.07514  1.0000
  C   C1549     1.0  0.75575  0.97083  0.05862  1.0000
  H   H2720     1.0  0.91248  0.66786  0.12339  1.0000
  C   C1550     1.0  0.84786  0.78609  0.02487  1.0000
  H   H2721     1.0  0.89916  0.78561  0.48207  1.0000
  H   H2722     1.0  0.95014  0.88978  0.40867  1.0000
  H   H2723     1.0  0.93760  0.57404  0.04303  1.0000
  N   N86       1.0  0.92661  0.72113  0.46438  1.0000
  H   H2724     1.0  0.90185  0.68195  0.46811  1.0000
  H   H2725     1.0  0.96934  0.70069  0.05997  1.0000
  C   C1551     1.0  0.86074  0.63232  0.30846  1.0000
  C   C1552     1.0  0.97264  0.62358  0.10107  1.0000
  H   H2726     1.0  0.88263  0.59326  0.33135  1.0000
  H   H2727     1.0  0.96166  0.69090  0.47264  1.0000
  C   C1553     1.0  0.85765  0.95645  0.09216  1.0000
  H   H2728     1.0  0.79556  0.97042  0.04237  1.0000
  H   H2729     1.0  0.83268  0.64391  0.38390  1.0000
  H   H2730     1.0  0.85245  0.63220  0.27181  1.0000
  C   C1554     1.0  0.85459  0.76158  0.02906  1.0000
  H   H2731     1.0  0.91071  0.64197  0.14048  1.0000
  H   H2732     1.0  0.83135  0.63535  0.29152  1.0000
  C   C1555     1.0  0.96629  0.68343  0.05406  1.0000
  H   H2733     1.0  0.92368  0.64156  0.09242  1.0000
  H   H2734     1.0  0.87236  0.96195  0.12520  1.0000
  H   H2735     1.0  0.83699  0.63177  0.33439  1.0000
  H   H2736     1.0  0.85074  0.60613  0.33280  1.0000
  C   C1556     1.0  0.78068  0.94674  0.08079  1.0000
  H   H2737     1.0  0.92396  0.69261  0.44143  1.0000
  H   H2738     1.0  0.85396  0.87992  0.48131  1.0000
  H   H2739     1.0  0.77791  0.93857  0.00738  1.0000
  H   H2740     1.0  0.83967  0.62152  0.42020  1.0000
  H   H2741     1.0  0.98001  0.67688  0.04501  1.0000
  C   C1557     1.0  0.94762  0.68373  0.46571  1.0000
  H   H2742     1.0  0.86745  0.62238  0.39040  1.0000
  C   C1558     1.0  0.91378  0.59544  0.34022  1.0000
  H   H2743     1.0  0.85522  0.53788  0.46745  1.0000
  C   C1559     1.0  0.99733  0.98546  0.40595  1.0000
  S   S349      1.0  0.81769  0.85578  0.01317  1.0000
  H   H2744     1.0  0.95068  0.72206  0.48998  1.0000
  C   C1560     1.0  0.95382  0.66374  0.45070  1.0000
  H   H2745     1.0  0.85932  0.79508  0.01420  1.0000
  H   H2746     1.0  0.77055  0.56638  0.10928  1.0000
  N   N87       1.0  0.77073  0.95136  0.05738  1.0000
  C   C1561     1.0  0.83003  0.61474  0.40627  1.0000
  H   H2747     1.0  0.81403  0.61864  0.41078  1.0000
  Fe  Fe173     1.0  0.98811  0.86029  0.49780  1.0000
  H   H2748     1.0  0.75034  0.62286  0.20629  1.0000
  H   H2749     1.0  0.91071  0.57898  0.04492  1.0000
  H   H2750     1.0  0.77114  0.60839  0.13987  1.0000
  N   N88       1.0  0.97825  0.95795  0.43381  1.0000
  C   C1562     1.0  0.85183  0.67375  0.00795  1.0000
  H   H2751     1.0  0.97420  0.66834  0.08706  1.0000
  C   C1563     1.0  0.97791  0.93840  0.41741  1.0000
  C   C1564     1.0  0.95954  0.97233  0.42979  1.0000
  S   S350      1.0  0.76448  0.88666  0.00926  1.0000
  C   C1565     1.0  0.86422  0.96986  0.11074  1.0000
  C   C1566     1.0  0.96023  0.92191  0.42094  1.0000
  C   C1567     1.0  0.86037  0.99329  0.11088  1.0000
  H   H2752     1.0  0.83324  0.78713  0.01545  1.0000
  C   C1568     1.0  0.99178  0.61616  0.08720  1.0000
  H   H2753     1.0  0.79256  0.59360  0.12773  1.0000
  C   C1569     1.0  0.96311  0.90112  0.40593  1.0000
  H   H2754     1.0  0.97995  0.91877  0.49658  1.0000
  H   H2755     1.0  0.79840  0.94108  0.04027  1.0000
  S   S351      1.0  0.81836  0.57463  0.50044  1.0000
  H   H2756     1.0  0.96373  0.94290  0.46423  1.0000
  H   H2757     1.0  0.95607  0.73629  0.46306  1.0000
  H   H2758     1.0  0.97692  0.94461  0.39894  1.0000
  H   H2759     1.0  0.95790  0.97696  0.41088  1.0000
  H   H2760     1.0  0.94578  0.96263  0.43405  1.0000
  C   C1570     1.0  0.89313  0.74631  0.41306  1.0000
  H   H2761     1.0  0.96060  0.60061  0.06227  1.0000
  C   C1571     1.0  0.94910  0.60467  0.07589  1.0000
  H   H2762     1.0  0.88492  0.70601  0.46376  1.0000
  H   H2763     1.0  0.94576  0.93020  0.41564  1.0000
  H   H2764     1.0  0.95885  0.91595  0.43937  1.0000
  H   H2765     1.0  0.90481  0.74818  0.45714  1.0000
  H   H2766     1.0  0.89684  0.71371  0.42940  1.0000
  C   C1572     1.0  0.95629  0.76517  0.50031  1.0000
  H   H2767     1.0  0.79086  0.93162  0.07967  1.0000
  H   H2768     1.0  0.80590  0.70628  0.03896  1.0000
  H   H2769     1.0  0.96328  0.66941  0.43565  1.0000
  H   H2770     1.0  0.83208  0.67856  0.03738  1.0000
  Fe  Fe174     1.0  0.79843  0.88703  0.01818  1.0000
  H   H2771     1.0  0.81579  0.94429  0.10777  1.0000
  H   H2772     1.0  0.89976  0.73831  0.08102  1.0000
  H   H2773     1.0  0.91828  0.72302  0.41290  1.0000
  H   H2774     1.0  0.96389  0.90600  0.38707  1.0000
  H   H2775     1.0  0.97711  0.89167  0.41100  1.0000
  H   H2776     1.0  0.79109  0.71126  0.08973  1.0000
  H   H2777     1.0  0.88007  0.75109  0.42430  1.0000
  H   H2778     1.0  0.84387  0.60813  0.28858  1.0000
  H   H2779     1.0  0.93417  0.98772  0.16184  1.0000
  H   H2780     1.0  0.98024  0.96449  0.47076  1.0000
  H   H2781     1.0  0.89582  0.62937  0.36582  1.0000
  C   C1573     1.0  0.91225  0.71339  0.48340  1.0000
  H   H2782     1.0  0.87083  0.52021  0.48636  1.0000
  C   C1574     1.0  0.88077  0.81101  0.49917  1.0000
  C   C1575     1.0  0.94027  0.64756  0.12439  1.0000
  C   C1576     1.0  0.77966  0.95602  0.01339  1.0000
  H   H2783     1.0  0.75703  0.58750  0.35644  1.0000
  C   C1577     1.0  0.83587  0.86075  0.45864  1.0000
  H   H2784     1.0  0.82675  0.72542  0.08211  1.0000
  H   H2785     1.0  0.85774  0.60101  0.37301  1.0000
  H   H2786     1.0  0.94606  0.70822  0.43721  1.0000
  H   H2787     1.0  0.92021  0.64493  0.50296  1.0000
  H   H2788     1.0  0.84878  0.53458  0.49798  1.0000
  H   H2789     1.0  0.94956  0.66231  0.11996  1.0000
  C   C1578     1.0  0.88291  0.68977  0.49734  1.0000
  H   H2790     1.0  0.82130  0.86727  0.46574  1.0000
  H   H2791     1.0  0.91659  0.57719  0.33756  1.0000
  H   H2792     1.0  0.99513  0.62818  0.07263  1.0000
  H   H2793     1.0  0.94030  0.65528  0.44395  1.0000
  C   C1579     1.0  0.88699  0.62503  0.35018  1.0000
  C   C1580     1.0  0.86154  0.53596  0.48537  1.0000
  H   H2794     1.0  0.96731  0.63855  0.05450  1.0000
  H   H2795     1.0  0.77506  0.60835  0.10849  1.0000
  H   H2796     1.0  0.86666  0.85578  0.46863  1.0000
  C   C1581     1.0  0.97850  0.94998  0.45906  1.0000
  C   C1582     1.0  0.91628  0.73781  0.44768  1.0000
  N   N89       1.0  0.86503  0.63145  0.35353  1.0000
  C   C1583     1.0  0.85730  0.61954  0.37529  1.0000
  H   H2797     1.0  0.92345  0.60076  0.35484  1.0000
  H   H2798     1.0  0.90197  0.76155  0.40879  1.0000
  S   S352      1.0  0.97350  0.82620  0.49676  1.0000
  H   H2799     1.0  0.92735  0.75010  0.44059  1.0000
  C   C1584     1.0  0.90633  0.72839  0.42547  1.0000
  C   C1585     1.0  0.89153  0.59967  0.34603  1.0000
  C   C1586     1.0  0.75170  0.57072  0.36244  1.0000
  H   H2800     1.0  0.92411  0.66544  0.15176  1.0000
  C   C1587     1.0  0.78695  0.95503  0.03914  1.0000
  H   H2801     1.0  0.91804  0.60473  0.32389  1.0000
  C   C1588     1.0  0.76404  0.57671  0.12353  1.0000
  H   H2802     1.0  0.88811  0.58951  0.36205  1.0000
  H   H2803     1.0  0.83215  0.59617  0.40592  1.0000
  H   H2804     1.0  0.88664  0.55701  0.47755  1.0000
  H   H2805     1.0  0.83518  0.75824  0.05986  1.0000
  C   C1589     1.0  0.84541  0.71123  0.02767  1.0000
  C   C1590     1.0  0.85261  0.62469  0.33288  1.0000
  H   H2806     1.0  0.79463  0.95160  0.12655  1.0000
  C   C1591     1.0  0.93591  0.63300  0.10282  1.0000
  H   H2807     1.0  0.87734  0.51536  0.02820  1.0000
  C   C1592     1.0  0.83526  0.62552  0.38251  1.0000
  H   H2808     1.0  0.86290  0.65073  0.30761  1.0000
  H   H2809     1.0  0.88735  0.73963  0.39645  1.0000
  H   H2810     1.0  0.81362  0.97206  0.11949  1.0000
  H   H2811     1.0  0.95354  0.68446  0.04152  1.0000
  H   H2812     1.0  0.76927  0.94266  0.09447  1.0000
  H   H2813     1.0  0.77650  0.70280  0.06508  1.0000
  H   H2814     1.0  0.82448  0.74963  0.03340  1.0000
  H   H2815     1.0  0.90482  0.81397  0.47299  1.0000
  H   H2816     1.0  0.87106  0.67808  0.49174  1.0000
  C   C1593     1.0  0.86195  0.50837  0.02957  1.0000
  H   H2817     1.0  0.97018  0.61072  0.11526  1.0000
  H   H2818     1.0  0.94775  0.67616  0.08383  1.0000
  C   C1594     1.0  0.84357  0.98978  0.07315  1.0000
  H   H2819     1.0  0.91297  0.62683  0.47969  1.0000
  H   H2820     1.0  0.78254  0.97977  0.09681  1.0000
  H   H2821     1.0  0.84216  0.83113  0.49385  1.0000
  H   H2822     1.0  0.85139  0.52006  0.02006  1.0000
  H   H2823     1.0  0.80024  0.73230  0.05337  1.0000
  C   C1595     1.0  0.89544  0.69734  0.47612  1.0000
  H   H2824     1.0  0.96899  0.76825  0.48795  1.0000
  C   C1596     1.0  0.99464  0.92630  0.49182  1.0000
  H   H2825     1.0  0.90325  0.99111  0.46311  1.0000
  C   C1597     1.0  0.84667  0.68521  0.03095  1.0000
  H   H2826     1.0  0.83403  0.84314  0.45301  1.0000
  C   C1598     1.0  0.93824  0.75579  0.48747  1.0000
  H   H2827     1.0  0.93354  0.76863  0.47407  1.0000
  H   H2828     1.0  0.95782  0.55940  0.49800  1.0000
  H   H2829     1.0  0.83995  0.87122  0.44302  1.0000
  C   C1599     1.0  0.75966  0.93036  0.05100  1.0000
  H   H2830     1.0  0.94949  0.53075  0.50251  1.0000
  H   H2831     1.0  0.86903  0.81022  0.48548  1.0000
  H   H2832     1.0  0.83244  0.71537  0.01594  1.0000
  H   H2833     1.0  0.95269  0.98918  0.46269  1.0000
  H   H2834     1.0  0.99453  0.97500  0.39053  1.0000
  H   H2835     1.0  0.75197  0.93283  0.03382  1.0000
  H   H2836     1.0  0.99696  0.94131  0.50259  1.0000
  H   H2837     1.0  0.89755  0.59041  0.48999  1.0000
  H   H2838     1.0  0.85214  0.65519  0.01083  1.0000
  H   H2839     1.0  0.85900  0.71624  0.01742  1.0000
  H   H2840     1.0  0.89397  0.63861  0.49901  1.0000
  C   C1600     1.0  0.90963  0.63162  0.49803  1.0000
  C   C1601     1.0  0.99720  0.97101  0.42893  1.0000
  H   H2841     1.0  0.90904  0.98391  0.04957  1.0000
  H   H2842     1.0  0.76743  0.99667  0.03414  1.0000
  C   C1602     1.0  0.99533  0.93249  0.46572  1.0000
  H   H2843     1.0  0.99358  0.91671  0.45602  1.0000
  S   S353      1.0  0.99385  0.59615  0.02676  1.0000
  H   H2844     1.0  0.91593  0.54164  0.48627  1.0000
  H   H2845     1.0  0.75032  0.91482  0.08461  1.0000
  H   H2846     1.0  0.92587  0.75394  0.50045  1.0000
  H   H2847     1.0  0.98998  0.59917  0.07993  1.0000
  C   C1603     1.0  0.92549  0.55501  0.49327  1.0000
  C   C1604     1.0  0.90070  0.80304  0.48826  1.0000
  H   H2848     1.0  0.91305  0.80317  0.50135  1.0000
  Fe  Fe175     1.0  0.83235  0.60894  0.50255  1.0000
  H   H2849     1.0  0.88380  0.99457  0.05532  1.0000
  H   H2850     1.0  0.88886  0.84561  0.49427  1.0000
  S   S354      1.0  0.75736  0.58050  0.50419  1.0000
  C   C1605     1.0  0.84710  0.84800  0.49926  1.0000
  H   H2851     1.0  0.74851  0.97106  0.07626  1.0000
  H   H2852     1.0  0.83570  0.99773  0.05854  1.0000
  H   H2853     1.0  0.77778  0.99823  0.06280  1.0000
  C   C1606     1.0  0.91233  0.80411  0.96780  1.0000
  H   H2854     1.0  0.87627  0.57036  0.59119  1.0000
  S   S355      1.0  0.93481  0.81827  0.54717  1.0000
  H   H2855     1.0  0.77461  0.73236  0.59414  1.0000
  H   H2856     1.0  0.89407  0.83456  0.52257  1.0000
  Fe  Fe176     1.0  0.80621  0.80587  0.66431  1.0000
  S   S356      1.0  0.81772  0.77043  0.67261  1.0000
  S   S357      1.0  0.77451  0.81503  0.67888  1.0000
  Fe  Fe177     1.0  0.84528  0.81642  0.63673  1.0000
  S   S358      1.0  0.85851  0.78193  0.64287  1.0000
  S   S359      1.0  0.86227  0.84337  0.61614  1.0000
  Fe  Fe178     1.0  0.82757  0.76906  0.63477  1.0000
  S   S360      1.0  0.82020  0.74544  0.60464  1.0000
  Fe  Fe179     1.0  0.84778  0.78632  0.68019  1.0000
  S   S361      1.0  0.87022  0.77554  0.70931  1.0000
  S   S362      1.0  0.81494  0.80385  0.62641  1.0000
  S   S363      1.0  0.83570  0.82158  0.67428  1.0000
  H   H2857     1.0  0.87814  0.88441  0.68026  1.0000
  H   H2858     1.0  0.81801  0.82949  0.58068  1.0000
  Fe  Fe180     1.0  0.81358  0.61801  0.55076  1.0000
  S   S364      1.0  0.84331  0.60247  0.53951  1.0000
  S   S365      1.0  0.81251  0.64013  0.58346  1.0000
  S   S366      1.0  0.80305  0.62596  0.51399  1.0000
  Fe  Fe181     1.0  0.82722  0.56929  0.53863  1.0000
  S   S367      1.0  0.83987  0.53384  0.54971  1.0000
  H   H2859     1.0  0.80190  0.82792  0.97422  1.0000
  S   S368      1.0  0.79809  0.58435  0.55186  1.0000
  Fe  Fe182     1.0  0.96574  0.65301  0.96242  1.0000
  S   S369      1.0  0.98010  0.68436  0.94604  1.0000
  Fe  Fe183     1.0  0.94271  0.60892  0.96153  1.0000
  S   S370      1.0  0.93167  0.58385  0.93500  1.0000
  Fe  Fe184     1.0  0.84092  0.87882  0.99738  1.0000
  H   H2860     1.0  0.88460  0.54291  0.56042  1.0000
  S   S371      1.0  0.97600  0.61652  0.96034  1.0000
  H   H2861     1.0  0.85323  0.87895  0.52881  1.0000
  S   S372      1.0  0.85063  0.86605  0.96110  1.0000
  Fe  Fe185     1.0  0.93387  0.82104  0.82138  1.0000
  S   S373      1.0  0.95179  0.84826  0.83846  1.0000
  S   S374      1.0  0.91093  0.82999  0.79207  1.0000
  Fe  Fe186     1.0  0.95142  0.78464  0.85519  1.0000
  S   S375      1.0  0.97115  0.80892  0.87364  1.0000
  S   S376      1.0  0.94393  0.74805  0.86423  1.0000
  Fe  Fe187     1.0  0.94332  0.83173  0.87316  1.0000
  S   S377      1.0  0.93489  0.84876  0.90770  1.0000
  Fe  Fe188     1.0  0.97846  0.82386  0.83780  1.0000
  S   S378      1.0  0.92356  0.80681  0.85628  1.0000
  S   S379      1.0  0.96060  0.79733  0.81912  1.0000
  C   C1607     1.0  0.87437  0.86098  0.94695  1.0000
  C   C1608     1.0  0.89266  0.86792  0.95622  1.0000
  C   C1609     1.0  0.91096  0.86393  0.94401  1.0000
  C   C1610     1.0  0.91128  0.85307  0.92233  1.0000
  C   C1611     1.0  0.89301  0.84592  0.91316  1.0000
  C   C1612     1.0  0.87471  0.84988  0.92540  1.0000
  H   H2862     1.0  0.89272  0.87653  0.97270  1.0000
  H   H2863     1.0  0.92497  0.86954  0.95130  1.0000
  H   H2864     1.0  0.89295  0.83764  0.89651  1.0000
  H   H2865     1.0  0.86071  0.84444  0.91803  1.0000
  C   C1613     1.0  0.96954  0.70204  0.92358  1.0000
  C   C1614     1.0  0.97761  0.72348  0.91931  1.0000
  C   C1615     1.0  0.96986  0.73789  0.90139  1.0000
  C   C1616     1.0  0.95417  0.73080  0.88724  1.0000
  C   C1617     1.0  0.94618  0.70932  0.89143  1.0000
  C   C1618     1.0  0.95362  0.69513  0.90966  1.0000
  C   C1619     1.0  0.76100  0.77396  0.60693  1.0000
  C   C1620     1.0  0.75040  0.97912  0.54805  1.0000
  H   H2866     1.0  0.93439  0.70343  0.88029  1.0000
  H   H2867     1.0  0.94741  0.67859  0.91255  1.0000
  C   C1621     1.0  0.88194  0.79160  0.73136  1.0000
  C   C1622     1.0  0.89927  0.78272  0.74274  1.0000
  C   C1623     1.0  0.90857  0.79439  0.76097  1.0000
  C   C1624     1.0  0.90042  0.81491  0.76846  1.0000
  C   C1625     1.0  0.88343  0.82407  0.75664  1.0000
  C   C1626     1.0  0.87425  0.81255  0.73825  1.0000
  H   H2868     1.0  0.90560  0.76675  0.73732  1.0000
  H   H2869     1.0  0.92213  0.78765  0.76914  1.0000
  H   H2870     1.0  0.87713  0.84009  0.76201  1.0000
  H   H2871     1.0  0.86098  0.81969  0.72975  1.0000
  C   C1627     1.0  0.81936  0.71592  0.59923  1.0000
  C   C1628     1.0  0.81751  0.70882  0.57597  1.0000
  C   C1629     1.0  0.81593  0.68577  0.57072  1.0000
  C   C1630     1.0  0.81582  0.66941  0.58875  1.0000
  C   C1631     1.0  0.81759  0.67653  0.61203  1.0000
  C   C1632     1.0  0.81950  0.69956  0.61725  1.0000
  H   H2872     1.0  0.81726  0.72125  0.56185  1.0000
  H   H2873     1.0  0.81445  0.68068  0.55276  1.0000
  H   H2874     1.0  0.81744  0.66411  0.62616  1.0000
  H   H2875     1.0  0.82077  0.70463  0.63523  1.0000
  C   C1633     1.0  0.91466  0.82579  0.56613  1.0000
  C   C1634     1.0  0.90434  0.80864  0.57821  1.0000
  C   C1635     1.0  0.88830  0.81379  0.59356  1.0000
  C   C1636     1.0  0.88255  0.83620  0.59721  1.0000
  C   C1637     1.0  0.89303  0.85338  0.58537  1.0000
  C   C1638     1.0  0.90892  0.84823  0.56973  1.0000
  H   H2876     1.0  0.90872  0.79124  0.57560  1.0000
  H   H2877     1.0  0.88035  0.80037  0.60242  1.0000
  H   H2878     1.0  0.88879  0.87079  0.58822  1.0000
  H   H2879     1.0  0.91691  0.86159  0.56073  1.0000
  C   C1639     1.0  0.84745  0.51810  0.57553  1.0000
  C   C1640     1.0  0.84742  0.52733  0.59788  1.0000
  H   H2880     1.0  0.84265  0.54468  0.60000  1.0000
  C   C1641     1.0  0.89601  0.51881  0.94674  1.0000
  C   C1642     1.0  0.89922  0.53318  0.96553  1.0000
  C   C1643     1.0  0.90983  0.55334  0.96223  1.0000
  C   C1644     1.0  0.91737  0.55929  0.94006  1.0000
  C   C1645     1.0  0.91397  0.54500  0.92124  1.0000
  C   C1646     1.0  0.90336  0.52486  0.92454  1.0000
  H   H2881     1.0  0.89346  0.52871  0.98273  1.0000
  H   H2882     1.0  0.91219  0.56427  0.97681  1.0000
  H   H2883     1.0  0.91966  0.54951  0.90401  1.0000
  H   H2884     1.0  0.77008  0.94924  0.55023  1.0000
  C   C1647     1.0  0.89124  0.77541  0.89548  1.0000
  H   H2885     1.0  0.75391  0.95074  0.52471  1.0000
  H   H2886     1.0  0.89660  0.91615  0.51830  1.0000
  H   H2887     1.0  0.92995  0.76731  0.91091  1.0000
  H   H2888     1.0  0.89144  0.85242  0.70483  1.0000
  N   N90       1.0  0.89088  0.74211  0.81295  1.0000
  C   C1648     1.0  0.88263  0.72407  0.79770  1.0000
  C   C1649     1.0  0.88845  0.73582  0.83869  1.0000
  C   C1650     1.0  0.87850  0.76337  0.80823  1.0000
  C   C1651     1.0  0.91264  0.74701  0.80725  1.0000
  C   C1652     1.0  0.92761  0.72670  0.80790  1.0000
  C   C1653     1.0  0.88374  0.72868  0.77083  1.0000
  C   C1654     1.0  0.88363  0.78379  0.82340  1.0000
  C   C1655     1.0  0.88946  0.71048  0.84586  1.0000
  C   C1656     1.0  0.94862  0.73373  0.79974  1.0000
  C   C1657     1.0  0.87662  0.70845  0.75731  1.0000
  C   C1658     1.0  0.86807  0.80290  0.82015  1.0000
  H   H2889     1.0  0.86650  0.72118  0.80230  1.0000
  H   H2890     1.0  0.89049  0.70767  0.80107  1.0000
  H   H2891     1.0  0.89993  0.74446  0.84924  1.0000
  H   H2892     1.0  0.87353  0.74191  0.84543  1.0000
  H   H2893     1.0  0.86211  0.75992  0.81050  1.0000
  H   H2894     1.0  0.88037  0.76944  0.78982  1.0000
  H   H2895     1.0  0.91383  0.75531  0.78974  1.0000
  H   H2896     1.0  0.91868  0.75943  0.81959  1.0000
  H   H2897     1.0  0.92281  0.71313  0.79633  1.0000
  H   H2898     1.0  0.92921  0.71996  0.82603  1.0000
  H   H2899     1.0  0.87386  0.74319  0.76551  1.0000
  H   H2900     1.0  0.89940  0.73212  0.76506  1.0000
  H   H2901     1.0  0.89855  0.79030  0.81808  1.0000
  H   H2902     1.0  0.88415  0.77940  0.84233  1.0000
  H   H2903     1.0  0.87641  0.70159  0.83854  1.0000
  H   H2904     1.0  0.90346  0.70211  0.83959  1.0000
  H   H2905     1.0  0.78326  0.50306  0.61817  1.0000
  H   H2906     1.0  0.81757  0.50749  0.94461  1.0000
  H   H2907     1.0  0.98034  0.98733  0.53364  1.0000
  H   H2908     1.0  0.88651  0.69348  0.76097  1.0000
  H   H2909     1.0  0.86080  0.70447  0.76209  1.0000
  H   H2910     1.0  0.87723  0.71242  0.73821  1.0000
  H   H2911     1.0  0.87298  0.81782  0.82985  1.0000
  H   H2912     1.0  0.86666  0.80786  0.80137  1.0000
  H   H2913     1.0  0.85310  0.79775  0.82699  1.0000
  H   H2914     1.0  0.87701  0.83305  0.68843  1.0000
  Fe  Fe189     1.0  0.94924  0.84142  0.51978  1.0000
  H   H2915     1.0  0.78069  0.99037  0.54532  1.0000
  H   H2916     1.0  0.75086  0.98135  0.56727  1.0000
  H   H2917     1.0  0.75403  0.69021  0.61431  1.0000
  C   C1659     1.0  0.89668  0.59289  0.50911  1.0000
  H   H2918     1.0  0.89256  0.68077  0.51051  1.0000
  C   C1660     1.0  0.85356  0.51409  0.61762  1.0000
  C   C1661     1.0  0.95865  0.51381  0.95270  1.0000
  H   H2919     1.0  0.94187  0.84905  0.65998  1.0000
  H   H2920     1.0  0.90062  0.71684  0.88099  1.0000
  H   H2921     1.0  0.88131  0.60028  0.51208  1.0000
  C   C1662     1.0  0.77179  0.81182  0.59013  1.0000
  C   C1663     1.0  0.89143  0.56205  0.59039  1.0000
  H   H2922     1.0  0.99002  0.72893  0.92989  1.0000
  C   C1664     1.0  0.91996  0.77469  0.92465  1.0000
  H   H2923     1.0  0.77521  0.69118  0.59455  1.0000
  H   H2924     1.0  0.92015  0.54316  0.52830  1.0000
  H   H2925     1.0  0.94553  0.81213  0.94212  1.0000
  C   C1665     1.0  0.75483  0.95423  0.54370  1.0000
  C   C1666     1.0  0.89627  0.55498  0.56539  1.0000
  H   H2926     1.0  0.77912  0.81190  0.97556  1.0000
  S   S380      1.0  0.93276  0.64559  0.96087  1.0000
  H   H2927     1.0  0.77727  0.75991  0.69346  1.0000
  H   H2928     1.0  0.75310  0.85863  0.91789  1.0000
  H   H2929     1.0  0.94817  0.74049  0.78145  1.0000
  N   N91       1.0  0.78128  0.87559  0.92374  1.0000
  C   C1667     1.0  0.78596  0.86397  0.94695  1.0000
  C   C1668     1.0  0.78830  0.89970  0.92359  1.0000
  C   C1669     1.0  0.79042  0.86305  0.90346  1.0000
  C   C1670     1.0  0.81363  0.85945  0.90369  1.0000
  C   C1671     1.0  0.77839  0.83954  0.95007  1.0000
  H   H2930     1.0  0.90959  0.58609  0.55438  1.0000
  C   C1672     1.0  0.80744  0.90473  0.93792  1.0000
  C   C1673     1.0  0.82053  0.84410  0.88393  1.0000
  C   C1674     1.0  0.78516  0.82911  0.97348  1.0000
  H   H2931     1.0  0.80241  0.86339  0.95052  1.0000
  C   C1675     1.0  0.92460  0.82610  0.69731  1.0000
  C   C1676     1.0  0.89591  0.81109  0.98526  1.0000
  H   H2932     1.0  0.78332  0.84638  0.90176  1.0000
  H   H2933     1.0  0.78701  0.87209  0.88667  1.0000
  H   H2934     1.0  0.81902  0.85159  0.92034  1.0000
  H   H2935     1.0  0.82117  0.87576  0.90072  1.0000
  H   H2936     1.0  0.89924  0.80410  0.00305  1.0000
  H   H2937     1.0  0.78443  0.82861  0.93609  1.0000
  S   S381      1.0  0.94124  0.60547  0.00078  1.0000
  H   H2938     1.0  0.80409  0.90244  0.95684  1.0000
  H   H2939     1.0  0.82035  0.89350  0.93362  1.0000
  H   H2940     1.0  0.81820  0.93211  0.91539  1.0000
  H   H2941     1.0  0.74954  0.90369  0.74288  1.0000
  H   H2942     1.0  0.81580  0.85129  0.86665  1.0000
  H   H2943     1.0  0.83726  0.84243  0.88397  1.0000
  H   H2944     1.0  0.81415  0.82707  0.88641  1.0000
  C   C1677     1.0  0.75856  0.87590  0.92092  1.0000
  H   H2945     1.0  0.79606  0.98560  0.00147  1.0000
  H   H2946     1.0  0.80550  0.52412  0.59141  1.0000
  H   H2947     1.0  0.75098  0.70177  0.58483  1.0000
  C   C1678     1.0  0.76633  0.99416  0.53592  1.0000
  H   H2948     1.0  0.96306  0.82355  0.62037  1.0000
  H   H2949     1.0  0.84038  0.67815  0.99439  1.0000
  C   C1679     1.0  0.88223  0.55515  0.51625  1.0000
  C   C1680     1.0  0.88544  0.84893  0.68722  1.0000
  H   H2950     1.0  0.90772  0.81097  0.95043  1.0000
  C   C1681     1.0  0.75373  0.83242  0.66902  1.0000
  H   H2951     1.0  0.84330  0.85382  0.56351  1.0000
  H   H2952     1.0  0.90083  0.51408  0.90988  1.0000
  H   H2953     1.0  0.85831  0.86867  0.69436  1.0000
  N   N92       1.0  0.89897  0.57083  0.52260  1.0000
  C   C1682     1.0  0.86732  0.86842  0.52827  1.0000
  H   H2954     1.0  0.89039  0.68928  0.87736  1.0000
  H   H2955     1.0  0.77637  0.86402  0.73615  1.0000
  H   H2956     1.0  0.78998  0.96632  0.97873  1.0000
  H   H2957     1.0  0.92615  0.86288  0.70304  1.0000
  H   H2958     1.0  0.92664  0.81457  0.62479  1.0000
  H   H2959     1.0  0.75310  0.77203  0.58992  1.0000
  H   H2960     1.0  0.92291  0.84619  0.74227  1.0000
  H   H2961     1.0  0.88594  0.90616  0.54557  1.0000
  C   C1683     1.0  0.76665  0.72358  0.60871  1.0000
  H   H2962     1.0  0.92197  0.77378  0.98533  1.0000
  H   H2963     1.0  0.77925  0.87393  0.96146  1.0000
  C   C1684     1.0  0.88239  0.83518  0.50859  1.0000
  C   C1685     1.0  0.89688  0.57579  0.54838  1.0000
  H   H2964     1.0  0.76693  0.77626  0.65341  1.0000
  H   H2965     1.0  0.92646  0.81216  0.97324  1.0000
  H   H2966     1.0  0.92026  0.79313  0.92115  1.0000
  S   S382      1.0  0.96544  0.87410  0.52344  1.0000
  Fe  Fe190     1.0  0.93410  0.64273  0.00021  1.0000
  N   N93       1.0  0.91760  0.82802  0.67225  1.0000
  H   H2967     1.0  0.86342  0.86505  0.66367  1.0000
  H   H2968     1.0  0.92568  0.78045  0.68444  1.0000
  H   H2969     1.0  0.75294  0.72792  0.66362  1.0000
  H   H2970     1.0  0.95630  0.73315  0.96864  1.0000
  H   H2971     1.0  0.89930  0.87489  0.52137  1.0000
  H   H2972     1.0  0.77990  0.75292  0.64202  1.0000
  Fe  Fe191     1.0  0.78972  0.59118  0.51389  1.0000
  H   H2973     1.0  0.95998  0.50979  0.90467  1.0000
  C   C1686     1.0  0.94990  0.77564  0.95047  1.0000
  H   H2974     1.0  0.86856  0.55888  0.52697  1.0000
  H   H2975     1.0  0.94383  0.52214  0.94880  1.0000
  H   H2976     1.0  0.84981  0.81445  0.52980  1.0000
  H   H2977     1.0  0.95512  0.79578  0.91853  1.0000
  N   N94       1.0  0.92819  0.76846  0.94860  1.0000
  C   C1687     1.0  0.92776  0.74307  0.95126  1.0000
  C   C1688     1.0  0.89811  0.76727  0.91975  1.0000
  C   C1689     1.0  0.93982  0.73241  0.97217  1.0000
  H   H2978     1.0  0.79478  0.51085  0.56631  1.0000
  H   H2979     1.0  0.93381  0.73504  0.93514  1.0000
  H   H2980     1.0  0.91196  0.73728  0.95314  1.0000
  H   H2981     1.0  0.90025  0.77045  0.96836  1.0000
  H   H2982     1.0  0.89713  0.74865  0.92019  1.0000
  H   H2983     1.0  0.88734  0.77439  0.93267  1.0000
  H   H2984     1.0  0.92785  0.60480  0.51284  1.0000
  H   H2985     1.0  0.83820  0.49951  0.97990  1.0000
  H   H2986     1.0  0.87587  0.76927  0.89196  1.0000
  H   H2987     1.0  0.95653  0.85335  0.61983  1.0000
  H   H2988     1.0  0.77106  0.92152  0.97244  1.0000
  H   H2989     1.0  0.76891  0.84754  0.63945  1.0000
  H   H2990     1.0  0.85348  0.52153  0.63473  1.0000
  H   H2991     1.0  0.87365  0.71349  0.87930  1.0000
  C   C1690     1.0  0.90728  0.80654  0.66611  1.0000
  H   H2992     1.0  0.97862  0.80768  0.96263  1.0000
  H   H2993     1.0  0.88294  0.58608  0.55148  1.0000
  C   C1691     1.0  0.88847  0.70740  0.87251  1.0000
  H   H2994     1.0  0.90172  0.76885  0.88191  1.0000
  C   C1692     1.0  0.76234  0.79965  0.61122  1.0000
  S   S383      1.0  0.96670  0.65184  0.00176  1.0000
  C   C1693     1.0  0.81401  0.92902  0.93402  1.0000
  H   H2995     1.0  0.89084  0.79410  0.89437  1.0000
  H   H2996     1.0  0.95436  0.77661  0.96919  1.0000
  H   H2997     1.0  0.77403  0.82976  0.59430  1.0000
  H   H2998     1.0  0.79058  0.90607  0.90529  1.0000
  C   C1694     1.0  0.75534  0.91707  0.97234  1.0000
  H   H2999     1.0  0.89130  0.54692  0.60219  1.0000
  H   H3000     1.0  0.90294  0.57374  0.59678  1.0000
  C   C1695     1.0  0.96581  0.54869  0.97621  1.0000
  H   H3001     1.0  0.90458  0.76811  0.63881  1.0000
  C   C1696     1.0  0.91212  0.61126  0.51468  1.0000
  H   H3002     1.0  0.95911  0.71893  0.80048  1.0000
  C   C1697     1.0  0.96623  0.52294  0.97634  1.0000
  H   H3003     1.0  0.76906  0.98812  0.51785  1.0000
  H   H3004     1.0  0.98819  0.79110  0.93853  1.0000
  H   H3005     1.0  0.75707  0.88749  0.88375  1.0000
  H   H3006     1.0  0.77835  0.88961  0.71841  1.0000
  H   H3007     1.0  0.89600  0.76140  0.66830  1.0000
  H   H3008     1.0  0.77723  0.72101  0.62355  1.0000
  C   C1698     1.0  0.90268  0.84734  0.66879  1.0000
  H   H3009     1.0  0.91942  0.74961  0.65763  1.0000
  H   H3010     1.0  0.77646  0.91093  0.93110  1.0000
  H   H3011     1.0  0.82741  0.93214  0.94501  1.0000
  H   H3012     1.0  0.80172  0.94097  0.93909  1.0000
  C   C1699     1.0  0.90944  0.76485  0.65718  1.0000
  C   C1700     1.0  0.92083  0.78490  0.66632  1.0000
  H   H3013     1.0  0.89534  0.84636  0.65136  1.0000
  C   C1701     1.0  0.91537  0.77822  0.96798  1.0000
  H   H3014     1.0  0.89986  0.80831  0.64868  1.0000
  H   H3015     1.0  0.87717  0.79889  0.51359  1.0000
  H   H3016     1.0  0.97370  0.55573  0.96055  1.0000
  C   C1702     1.0  0.77132  0.87283  0.71978  1.0000
  H   H3017     1.0  0.94823  0.82009  0.66112  1.0000
  H   H3018     1.0  0.75188  0.90922  0.90443  1.0000
  C   C1703     1.0  0.95574  0.79793  0.93774  1.0000
  H   H3019     1.0  0.91872  0.70593  0.98181  1.0000
  C   C1704     1.0  0.75499  0.84686  0.64940  1.0000
  H   H3020     1.0  0.95016  0.84895  0.69870  1.0000
  H   H3021     1.0  0.93442  0.78691  0.65517  1.0000
  H   H3022     1.0  0.93141  0.56977  0.52692  1.0000
  H   H3023     1.0  0.89472  0.80314  0.67855  1.0000
  H   H3024     1.0  0.95460  0.74673  0.81136  1.0000
  H   H3025     1.0  0.97332  0.55481  0.99213  1.0000
  H   H3026     1.0  0.95677  0.51716  0.99129  1.0000
  H   H3027     1.0  0.76166  0.83922  0.94992  1.0000
  C   C1705     1.0  0.87046  0.86797  0.68091  1.0000
  H   H3028     1.0  0.91189  0.82140  0.70917  1.0000
  H   H3029     1.0  0.82269  0.80819  0.55921  1.0000
  C   C1706     1.0  0.76126  0.70030  0.60010  1.0000
  C   C1707     1.0  0.79174  0.51641  0.58446  1.0000
  C   C1708     1.0  0.88402  0.90652  0.52625  1.0000
  Fe  Fe192     1.0  0.97406  0.61500  0.99969  1.0000
  H   H3030     1.0  0.90981  0.61737  0.53273  1.0000
  H   H3031     1.0  0.95004  0.55523  0.97622  1.0000
  H   H3032     1.0  0.94568  0.82929  0.73842  1.0000
  C   C1709     1.0  0.97724  0.80454  0.94363  1.0000
  H   H3033     1.0  0.96141  0.75337  0.51452  1.0000
  H   H3034     1.0  0.87205  0.86626  0.54683  1.0000
  H   H3035     1.0  0.84189  0.81448  0.58033  1.0000
  H   H3036     1.0  0.78666  0.80407  0.58564  1.0000
  C   C1710     1.0  0.74981  0.89115  0.90078  1.0000
  C   C1711     1.0  0.93568  0.83214  0.65670  1.0000
  H   H3037     1.0  0.94688  0.85954  0.73938  1.0000
  H   H3038     1.0  0.92022  0.84415  0.62461  1.0000
  H   H3039     1.0  0.93581  0.81207  0.69952  1.0000
  C   C1712     1.0  0.88437  0.88263  0.51690  1.0000
  C   C1713     1.0  0.75701  0.74519  0.66839  1.0000
  C   C1714     1.0  0.98172  0.99303  0.51505  1.0000
  H   H3040     1.0  0.96929  0.52027  0.93914  1.0000
  H   H3041     1.0  0.88655  0.53735  0.52070  1.0000
  H   H3042     1.0  0.86783  0.82529  0.54932  1.0000
  H   H3043     1.0  0.91044  0.86378  0.66825  1.0000
  C   C1715     1.0  0.93498  0.84720  0.70681  1.0000
  C   C1716     1.0  0.95106  0.83627  0.61607  1.0000
  N   N95       1.0  0.75080  0.76007  0.62593  1.0000
  H   H3044     1.0  0.89514  0.82972  0.98627  1.0000
  C   C1717     1.0  0.83792  0.83998  0.55255  1.0000
  H   H3045     1.0  0.93666  0.74110  0.98876  1.0000
  S   S384      1.0  0.82094  0.90983  0.00123  1.0000
  H   H3046     1.0  0.77682  0.76782  0.60411  1.0000
  C   C1718     1.0  0.93181  0.83136  0.62997  1.0000
  N   N96       1.0  0.86315  0.84576  0.51787  1.0000
  H   H3047     1.0  0.94795  0.83555  0.59702  1.0000
  C   C1719     1.0  0.93466  0.70765  0.97604  1.0000
  C   C1720     1.0  0.85534  0.83036  0.53717  1.0000
  H   H3048     1.0  0.86702  0.67877  0.00161  1.0000
  C   C1721     1.0  0.93779  0.84532  0.73330  1.0000
  H   H3049     1.0  0.93706  0.69817  0.95970  1.0000
  H   H3050     1.0  0.77655  0.86274  0.70468  1.0000
  H   H3051     1.0  0.86963  0.91539  0.52165  1.0000
  H   H3052     1.0  0.77939  0.83937  0.98821  1.0000
  H   H3053     1.0  0.96019  0.76273  0.94270  1.0000
  H   H3054     1.0  0.98101  0.82025  0.93376  1.0000
  H   H3055     1.0  0.82515  0.84656  0.54184  1.0000
  H   H3056     1.0  0.77169  0.80278  0.62675  1.0000
  C   C1722     1.0  0.76451  0.75909  0.64694  1.0000
  H   H3057     1.0  0.78676  0.73406  0.68058  1.0000
  C   C1723     1.0  0.91937  0.55975  0.51889  1.0000
  C   C1724     1.0  0.77312  0.74301  0.68734  1.0000
  C   C1725     1.0  0.79492  0.96754  0.99719  1.0000
  C   C1726     1.0  0.82967  0.82185  0.56914  1.0000
  H   H3058     1.0  0.97626  0.75430  0.89830  1.0000
  H   H3059     1.0  0.87535  0.70444  0.50563  1.0000
  H   H3060     1.0  0.76720  0.73319  0.70256  1.0000
  H   H3061     1.0  0.91110  0.54597  0.56571  1.0000
  H   H3062     1.0  0.76171  0.81109  0.57471  1.0000
  H   H3063     1.0  0.94456  0.69997  0.98980  1.0000
  H   H3064     1.0  0.77957  0.52954  0.58385  1.0000
  H   H3065     1.0  0.81007  0.95935  0.99899  1.0000
  H   H3066     1.0  0.83327  0.85621  0.50642  1.0000
  H   H3067     1.0  0.98204  0.51733  0.97959  1.0000
  H   H3068     1.0  0.75105  0.88144  0.93741  1.0000
  H   H3069     1.0  0.95185  0.78141  0.50833  1.0000
  H   H3070     1.0  0.88096  0.80529  0.97946  1.0000
  C   C1727     1.0  0.74836  0.90067  0.98821  1.0000
  C   C1728     1.0  0.74833  0.87522  0.71928  1.0000
  H   H3071     1.0  0.96698  0.99062  0.50636  1.0000
  H   H3072     1.0  0.99336  0.98250  0.50622  1.0000
